MODEL 1
REMARK VINA RESULT:    -2.743      0.000      0.000
REMARK INTER + INTRA:          -3.080
REMARK INTER:                  -3.063
REMARK INTRA:                  -0.017
REMARK UNBOUND:                -0.017
REMARK SMILES CCCC(=O)[O-]
REMARK SMILES IDX 3 1 4 2 5 3 6 4 2 5 1 6
REMARK H PARENT
REMARK Flexibility Score: inf
ROOT
ATOM      1  C   UNL     1       3.312  63.928   8.223  1.00  0.00     0.052 C 
ENDROOT
BRANCH   1   2
ATOM      2  C   UNL     1       2.306  62.828   8.354  1.00  0.00     0.041 C 
ATOM      3  O   UNL     1       2.545  61.836   9.092  1.00  0.00    -0.550 OA
ATOM      4  O   UNL     1       1.125  62.875   7.624  1.00  0.00    -0.550 OA
ENDBRANCH   1   2
BRANCH   1   5
ATOM      5  C   UNL     1       2.713  65.114   7.464  1.00  0.00     0.003 C 
ATOM      6  C   UNL     1       3.778  65.841   6.649  1.00  0.00     0.004 C 
ENDBRANCH   1   5
TORSDOF 2
ENDMDL
MODEL 2
REMARK VINA RESULT:    -2.705     13.961     14.285
REMARK INTER + INTRA:          -3.038
REMARK INTER:                  -3.022
REMARK INTRA:                  -0.016
REMARK UNBOUND:                -0.017
REMARK SMILES CCCC(=O)[O-]
REMARK SMILES IDX 3 1 4 2 5 3 6 4 2 5 1 6
REMARK H PARENT
REMARK Flexibility Score: inf
ROOT
ATOM      1  C   UNL     1       3.491  71.687  18.878  1.00  0.00     0.052 C 
ENDROOT
BRANCH   1   2
ATOM      2  C   UNL     1       2.529  72.824  18.741  1.00  0.00     0.041 C 
ATOM      3  O   UNL     1       2.809  73.805  18.002  1.00  0.00    -0.550 OA
ATOM      4  O   UNL     1       1.344  72.824  19.466  1.00  0.00    -0.550 OA
ENDBRANCH   1   2
BRANCH   1   5
ATOM      5  C   UNL     1       2.832  70.511  19.603  1.00  0.00     0.003 C 
ATOM      6  C   UNL     1       3.855  69.715  20.406  1.00  0.00     0.004 C 
ENDBRANCH   1   5
TORSDOF 2
ENDMDL
MODEL 3
REMARK VINA RESULT:    -2.652      1.128      1.619
REMARK INTER + INTRA:          -2.979
REMARK INTER:                  -2.915
REMARK INTRA:                  -0.064
REMARK UNBOUND:                -0.017
REMARK SMILES CCCC(=O)[O-]
REMARK SMILES IDX 3 1 4 2 5 3 6 4 2 5 1 6
REMARK H PARENT
REMARK Flexibility Score: inf
ROOT
ATOM      1  C   UNL     1       3.211  64.001   8.097  1.00  0.00     0.052 C 
ENDROOT
BRANCH   1   2
ATOM      2  C   UNL     1       2.297  62.840   8.335  1.00  0.00     0.041 C 
ATOM      3  O   UNL     1       2.651  61.901   9.096  1.00  0.00    -0.550 OA
ATOM      4  O   UNL     1       1.076  62.771   7.678  1.00  0.00    -0.550 OA
ENDBRANCH   1   2
BRANCH   1   5
ATOM      5  C   UNL     1       2.569  65.298   8.596  1.00  0.00     0.003 C 
ATOM      6  C   UNL     1       2.352  65.261  10.105  1.00  0.00     0.004 C 
ENDBRANCH   1   5
TORSDOF 2
ENDMDL
MODEL 4
REMARK VINA RESULT:    -2.632     13.384     13.629
REMARK INTER + INTRA:          -2.956
REMARK INTER:                  -2.886
REMARK INTRA:                  -0.071
REMARK UNBOUND:                -0.017
REMARK SMILES CCCC(=O)[O-]
REMARK SMILES IDX 3 1 4 2 5 3 6 4 2 5 1 6
REMARK H PARENT
REMARK Flexibility Score: inf
ROOT
ATOM      1  C   UNL     1       3.383  71.658  18.908  1.00  0.00     0.052 C 
ENDROOT
BRANCH   1   2
ATOM      2  C   UNL     1       2.475  72.839  18.771  1.00  0.00     0.041 C 
ATOM      3  O   UNL     1       1.369  72.860  19.372  1.00  0.00    -0.550 OA
ATOM      4  O   UNL     1       2.829  73.895  17.941  1.00  0.00    -0.550 OA
ENDBRANCH   1   2
BRANCH   1   5
ATOM      5  C   UNL     1       2.726  70.406  18.320  1.00  0.00     0.003 C 
ATOM      6  C   UNL     1       2.574  70.523  16.807  1.00  0.00     0.004 C 
ENDBRANCH   1   5
TORSDOF 2
ENDMDL
MODEL 5
REMARK VINA RESULT:    -2.618      1.772      2.274
REMARK INTER + INTRA:          -2.940
REMARK INTER:                  -2.899
REMARK INTRA:                  -0.041
REMARK UNBOUND:                -0.017
REMARK SMILES CCCC(=O)[O-]
REMARK SMILES IDX 3 1 4 2 5 3 6 4 2 5 1 6
REMARK H PARENT
REMARK Flexibility Score: inf
ROOT
ATOM      1  C   UNL     1       1.221  63.263   7.807  1.00  0.00     0.052 C 
ENDROOT
BRANCH   1   2
ATOM      2  C   UNL     1       2.522  62.893   8.447  1.00  0.00     0.041 C 
ATOM      3  O   UNL     1       2.614  61.840   9.132  1.00  0.00    -0.550 OA
ATOM      4  O   UNL     1       3.619  63.736   8.328  1.00  0.00    -0.550 OA
ENDBRANCH   1   2
BRANCH   1   5
ATOM      5  C   UNL     1       1.150  64.773   7.572  1.00  0.00     0.003 C 
ATOM      6  C   UNL     1       0.359  65.466   8.678  1.00  0.00     0.004 C 
ENDBRANCH   1   5
TORSDOF 2
ENDMDL
MODEL 6
REMARK VINA RESULT:    -2.542      2.435      3.248
REMARK INTER + INTRA:          -2.855
REMARK INTER:                  -2.820
REMARK INTRA:                  -0.036
REMARK UNBOUND:                -0.017
REMARK SMILES CCCC(=O)[O-]
REMARK SMILES IDX 3 1 4 2 5 3 6 4 2 5 1 6
REMARK H PARENT
REMARK Flexibility Score: inf
ROOT
ATOM      1  C   UNL     1       1.278  63.514   7.761  1.00  0.00     0.052 C 
ENDROOT
BRANCH   1   2
ATOM      2  C   UNL     1       0.518  64.735   8.173  1.00  0.00     0.041 C 
ATOM      3  O   UNL     1      -0.480  65.116   7.505  1.00  0.00    -0.550 OA
ATOM      4  O   UNL     1       0.941  65.482   9.265  1.00  0.00    -0.550 OA
ENDBRANCH   1   2
BRANCH   1   5
ATOM      5  C   UNL     1       2.752  63.644   8.148  1.00  0.00     0.003 C 
ATOM      6  C   UNL     1       3.113  62.681   9.275  1.00  0.00     0.004 C 
ENDBRANCH   1   5
TORSDOF 2
ENDMDL
MODEL 7
REMARK VINA RESULT:    -2.456     13.049     13.207
REMARK INTER + INTRA:          -2.759
REMARK INTER:                  -2.730
REMARK INTRA:                  -0.029
REMARK UNBOUND:                -0.017
REMARK SMILES CCCC(=O)[O-]
REMARK SMILES IDX 3 1 4 2 5 3 6 4 2 5 1 6
REMARK H PARENT
REMARK Flexibility Score: inf
ROOT
ATOM      1  C   UNL     1       1.911  71.112  19.352  1.00  0.00     0.052 C 
ENDROOT
BRANCH   1   2
ATOM      2  C   UNL     1       0.783  70.399  18.677  1.00  0.00     0.041 C 
ATOM      3  O   UNL     1      -0.327  70.276  19.259  1.00  0.00    -0.550 OA
ATOM      4  O   UNL     1       0.972  69.825  17.426  1.00  0.00    -0.550 OA
ENDBRANCH   1   2
BRANCH   1   5
ATOM      5  C   UNL     1       1.867  72.608  19.033  1.00  0.00     0.003 C 
ATOM      6  C   UNL     1       3.057  73.024  18.174  1.00  0.00     0.004 C 
ENDBRANCH   1   5
TORSDOF 2
ENDMDL
MODEL 8
REMARK VINA RESULT:    -2.351     18.213     18.494
REMARK INTER + INTRA:          -2.642
REMARK INTER:                  -2.594
REMARK INTRA:                  -0.049
REMARK UNBOUND:                -0.017
REMARK SMILES CCCC(=O)[O-]
REMARK SMILES IDX 3 1 4 2 5 3 6 4 2 5 1 6
REMARK H PARENT
REMARK Flexibility Score: inf
ROOT
ATOM      1  C   UNL     1      -6.002  73.406  21.767  1.00  0.00     0.052 C 
ENDROOT
BRANCH   1   2
ATOM      2  C   UNL     1      -5.106  72.765  20.755  1.00  0.00     0.041 C 
ATOM      3  O   UNL     1      -5.076  73.197  19.572  1.00  0.00    -0.550 OA
ATOM      4  O   UNL     1      -4.341  71.660  21.104  1.00  0.00    -0.550 OA
ENDBRANCH   1   2
BRANCH   1   5
ATOM      5  C   UNL     1      -5.352  74.671  22.332  1.00  0.00     0.003 C 
ATOM      6  C   UNL     1      -4.383  74.336  23.462  1.00  0.00     0.004 C 
ENDBRANCH   1   5
TORSDOF 2
ENDMDL
MODEL 9
REMARK VINA RESULT:    -2.318      2.371      3.310
REMARK INTER + INTRA:          -2.605
REMARK INTER:                  -2.552
REMARK INTRA:                  -0.053
REMARK UNBOUND:                -0.017
REMARK SMILES CCCC(=O)[O-]
REMARK SMILES IDX 3 1 4 2 5 3 6 4 2 5 1 6
REMARK H PARENT
REMARK Flexibility Score: inf
ROOT
ATOM      1  C   UNL     1       3.357  63.985   7.991  1.00  0.00     0.052 C 
ENDROOT
BRANCH   1   2
ATOM      2  C   UNL     1       2.822  65.369   7.801  1.00  0.00     0.041 C 
ATOM      3  O   UNL     1       2.692  65.844   6.641  1.00  0.00    -0.550 OA
ATOM      4  O   UNL     1       2.515  66.153   8.904  1.00  0.00    -0.550 OA
ENDBRANCH   1   2
BRANCH   1   5
ATOM      5  C   UNL     1       2.280  63.072   8.583  1.00  0.00     0.003 C 
ATOM      6  C   UNL     1       1.096  62.927   7.631  1.00  0.00     0.004 C 
ENDBRANCH   1   5
TORSDOF 2
ENDMDL
