MODEL 1
REMARK VINA RESULT:    -5.285      0.000      0.000
REMARK INTER + INTRA:          -5.956
REMARK INTER:                  -5.594
REMARK INTRA:                  -0.362
REMARK UNBOUND:                -0.362
REMARK SMILES C=C(C)[C@@H]1CC[C@@H](C)[C@@]12CC=C(C)CC2
REMARK SMILES IDX 8 1 7 2 6 3 5 4 4 5 9 6 15 7 14 8 12 9 11 10 10 11 13 12
REMARK SMILES IDX 2 13 1 14 3 15
REMARK H PARENT
REMARK Flexibility Score: inf
ROOT
ATOM      1  C   UNL     1     134.154 137.181 133.329  1.00  0.00     0.008 C 
ATOM      2  C   UNL     1     133.966 136.642 131.899  1.00  0.00    -0.007 C 
ATOM      3  C   UNL     1     132.506 136.267 131.620  1.00  0.00     0.004 C 
ATOM      4  C   UNL     1     132.521 135.112 130.618  1.00  0.00     0.009 C 
ATOM      5  C   UNL     1     133.992 134.780 130.319  1.00  0.00     0.021 C 
ATOM      6  C   UNL     1     134.812 135.402 131.501  1.00  0.00    -0.017 C 
ATOM      7  C   UNL     1     136.267 135.814 131.144  1.00  0.00     0.012 C 
ATOM      8  C   UNL     1     137.169 134.621 130.771  1.00  0.00     0.031 C 
ATOM      9  C   UNL     1     136.871 133.340 131.525  1.00  0.00    -0.077 C 
ATOM     10  C   UNL     1     135.803 133.214 132.335  1.00  0.00    -0.027 C 
ATOM     11  C   UNL     1     134.907 134.376 132.669  1.00  0.00     0.035 C 
ATOM     12  C   UNL     1     137.748 132.142 131.285  1.00  0.00     0.039 C 
ENDROOT
BRANCH   5  13
ATOM     13  C   UNL     1     134.388 135.247 128.910  1.00  0.00    -0.077 C 
ATOM     14  C   UNL     1     134.885 134.361 128.030  1.00  0.00     0.008 C 
ATOM     15  C   UNL     1     134.199 136.671 128.445  1.00  0.00     0.039 C 
ENDBRANCH   5  13
TORSDOF 1
ENDMDL
MODEL 2
REMARK VINA RESULT:    -5.223      4.482      6.696
REMARK INTER + INTRA:          -5.890
REMARK INTER:                  -5.527
REMARK INTRA:                  -0.363
REMARK UNBOUND:                -0.362
REMARK SMILES C=C(C)[C@@H]1CC[C@@H](C)[C@@]12CC=C(C)CC2
REMARK SMILES IDX 8 1 7 2 6 3 5 4 4 5 9 6 15 7 14 8 12 9 11 10 10 11 13 12
REMARK SMILES IDX 2 13 1 14 3 15
REMARK H PARENT
REMARK Flexibility Score: inf
ROOT
ATOM      1  C   UNL     1     139.482 136.495 133.341  1.00  0.00     0.008 C 
ATOM      2  C   UNL     1     139.716 137.044 131.922  1.00  0.00    -0.007 C 
ATOM      3  C   UNL     1     141.187 137.406 131.687  1.00  0.00     0.004 C 
ATOM      4  C   UNL     1     141.212 138.570 130.697  1.00  0.00     0.009 C 
ATOM      5  C   UNL     1     139.754 138.921 130.360  1.00  0.00     0.021 C 
ATOM      6  C   UNL     1     138.894 138.297 131.512  1.00  0.00    -0.017 C 
ATOM      7  C   UNL     1     137.445 137.904 131.111  1.00  0.00     0.012 C 
ATOM      8  C   UNL     1     136.567 139.111 130.725  1.00  0.00     0.031 C 
ATOM      9  C   UNL     1     136.858 140.382 131.499  1.00  0.00    -0.077 C 
ATOM     10  C   UNL     1     137.904 140.488 132.340  1.00  0.00    -0.027 C 
ATOM     11  C   UNL     1     138.778 139.314 132.688  1.00  0.00     0.035 C 
ATOM     12  C   UNL     1     136.001 141.592 131.246  1.00  0.00     0.039 C 
ENDROOT
BRANCH   5  13
ATOM     13  C   UNL     1     139.392 138.471 128.936  1.00  0.00    -0.077 C 
ATOM     14  C   UNL     1     138.909 139.366 128.058  1.00  0.00     0.008 C 
ATOM     15  C   UNL     1     139.601 137.056 128.455  1.00  0.00     0.039 C 
ENDBRANCH   5  13
TORSDOF 1
ENDMDL
MODEL 3
REMARK VINA RESULT:    -5.213      2.997      4.708
REMARK INTER + INTRA:          -5.880
REMARK INTER:                  -5.516
REMARK INTRA:                  -0.364
REMARK UNBOUND:                -0.362
REMARK SMILES C=C(C)[C@@H]1CC[C@@H](C)[C@@]12CC=C(C)CC2
REMARK SMILES IDX 8 1 7 2 6 3 5 4 4 5 9 6 15 7 14 8 12 9 11 10 10 11 13 12
REMARK SMILES IDX 2 13 1 14 3 15
REMARK H PARENT
REMARK Flexibility Score: inf
ROOT
ATOM      1  C   UNL     1     137.189 139.525 133.264  1.00  0.00     0.008 C 
ATOM      2  C   UNL     1     136.639 139.724 131.840  1.00  0.00    -0.007 C 
ATOM      3  C   UNL     1     136.254 141.184 131.577  1.00  0.00     0.004 C 
ATOM      4  C   UNL     1     135.092 141.172 130.584  1.00  0.00     0.009 C 
ATOM      5  C   UNL     1     134.766 139.702 130.273  1.00  0.00     0.021 C 
ATOM      6  C   UNL     1     135.400 138.875 131.443  1.00  0.00    -0.017 C 
ATOM      7  C   UNL     1     135.818 137.425 131.070  1.00  0.00     0.012 C 
ATOM      8  C   UNL     1     134.627 136.520 130.696  1.00  0.00     0.031 C 
ATOM      9  C   UNL     1     133.349 136.805 131.462  1.00  0.00    -0.077 C 
ATOM     10  C   UNL     1     133.224 137.865 132.283  1.00  0.00    -0.027 C 
ATOM     11  C   UNL     1     134.383 138.764 132.618  1.00  0.00     0.035 C 
ATOM     12  C   UNL     1     132.154 135.924 131.223  1.00  0.00     0.039 C 
ENDROOT
BRANCH   5  13
ATOM     13  C   UNL     1     135.225 139.322 128.858  1.00  0.00    -0.077 C 
ATOM     14  C   UNL     1     134.343 138.800 127.989  1.00  0.00     0.008 C 
ATOM     15  C   UNL     1     136.636 139.554 128.373  1.00  0.00     0.039 C 
ENDBRANCH   5  13
TORSDOF 1
ENDMDL
MODEL 4
REMARK VINA RESULT:    -5.157      2.964      4.672
REMARK INTER + INTRA:          -5.820
REMARK INTER:                  -5.457
REMARK INTRA:                  -0.363
REMARK UNBOUND:                -0.362
REMARK SMILES C=C(C)[C@@H]1CC[C@@H](C)[C@@]12CC=C(C)CC2
REMARK SMILES IDX 8 1 7 2 6 3 5 4 4 5 9 6 15 7 14 8 12 9 11 10 10 11 13 12
REMARK SMILES IDX 2 13 1 14 3 15
REMARK H PARENT
REMARK Flexibility Score: inf
ROOT
ATOM      1  C   UNL     1     136.459 134.271 133.461  1.00  0.00     0.008 C 
ATOM      2  C   UNL     1     136.995 134.027 132.038  1.00  0.00    -0.007 C 
ATOM      3  C   UNL     1     137.348 132.554 131.809  1.00  0.00     0.004 C 
ATOM      4  C   UNL     1     138.503 132.519 130.807  1.00  0.00     0.009 C 
ATOM      5  C   UNL     1     138.856 133.974 130.458  1.00  0.00     0.021 C 
ATOM      6  C   UNL     1     138.247 134.842 131.612  1.00  0.00    -0.017 C 
ATOM      7  C   UNL     1     137.855 136.290 131.206  1.00  0.00     0.012 C 
ATOM      8  C   UNL     1     139.060 137.162 130.803  1.00  0.00     0.031 C 
ATOM      9  C   UNL     1     140.338 136.871 131.567  1.00  0.00    -0.077 C 
ATOM     10  C   UNL     1     140.448 135.829 132.413  1.00  0.00    -0.027 C 
ATOM     11  C   UNL     1     139.274 134.961 132.777  1.00  0.00     0.035 C 
ATOM     12  C   UNL     1     141.548 137.722 131.297  1.00  0.00     0.039 C 
ENDROOT
BRANCH   5  13
ATOM     13  C   UNL     1     138.394 134.328 129.037  1.00  0.00    -0.077 C 
ATOM     14  C   UNL     1     139.282 134.804 128.147  1.00  0.00     0.008 C 
ATOM     15  C   UNL     1     136.973 134.122 128.571  1.00  0.00     0.039 C 
ENDBRANCH   5  13
TORSDOF 1
ENDMDL
MODEL 5
REMARK VINA RESULT:    -5.148      2.040      4.846
REMARK INTER + INTRA:          -5.810
REMARK INTER:                  -5.445
REMARK INTRA:                  -0.365
REMARK UNBOUND:                -0.362
REMARK SMILES C=C(C)[C@@H]1CC[C@@H](C)[C@@]12CC=C(C)CC2
REMARK SMILES IDX 8 1 7 2 6 3 5 4 4 5 9 6 15 7 14 8 12 9 11 10 10 11 13 12
REMARK SMILES IDX 2 13 1 14 3 15
REMARK H PARENT
REMARK Flexibility Score: inf
ROOT
ATOM      1  C   UNL     1     135.063 134.782 129.017  1.00  0.00     0.008 C 
ATOM      2  C   UNL     1     134.422 135.238 130.341  1.00  0.00    -0.007 C 
ATOM      3  C   UNL     1     132.926 134.910 130.390  1.00  0.00     0.004 C 
ATOM      4  C   UNL     1     132.257 135.987 131.245  1.00  0.00     0.009 C 
ATOM      5  C   UNL     1     133.351 136.973 131.684  1.00  0.00     0.021 C 
ATOM      6  C   UNL     1     134.544 136.746 130.694  1.00  0.00    -0.017 C 
ATOM      7  C   UNL     1     135.949 137.068 131.274  1.00  0.00     0.012 C 
ATOM      8  C   UNL     1     136.145 138.558 131.616  1.00  0.00     0.031 C 
ATOM      9  C   UNL     1     135.431 139.521 130.687  1.00  0.00    -0.077 C 
ATOM     10  C   UNL     1     134.569 139.103 129.741  1.00  0.00    -0.027 C 
ATOM     11  C   UNL     1     134.358 137.645 129.435  1.00  0.00     0.035 C 
ATOM     12  C   UNL     1     135.625 140.999 130.894  1.00  0.00     0.039 C 
ENDROOT
BRANCH   5  13
ATOM     13  C   UNL     1     133.677 136.807 133.176  1.00  0.00    -0.077 C 
ATOM     14  C   UNL     1     133.597 137.867 133.998  1.00  0.00     0.008 C 
ATOM     15  C   UNL     1     134.047 135.474 133.781  1.00  0.00     0.039 C 
ENDBRANCH   5  13
TORSDOF 1
ENDMDL
MODEL 6
REMARK VINA RESULT:    -5.120      4.015      5.958
REMARK INTER + INTRA:          -5.781
REMARK INTER:                  -5.422
REMARK INTRA:                  -0.359
REMARK UNBOUND:                -0.362
REMARK SMILES C=C(C)[C@@H]1CC[C@@H](C)[C@@]12CC=C(C)CC2
REMARK SMILES IDX 8 1 7 2 6 3 5 4 4 5 9 6 15 7 14 8 12 9 11 10 10 11 13 12
REMARK SMILES IDX 2 13 1 14 3 15
REMARK H PARENT
REMARK Flexibility Score: inf
ROOT
ATOM      1  C   UNL     1     134.809 138.619 129.009  1.00  0.00     0.008 C 
ATOM      2  C   UNL     1     135.282 139.271 130.322  1.00  0.00    -0.007 C 
ATOM      3  C   UNL     1     134.930 140.761 130.376  1.00  0.00     0.004 C 
ATOM      4  C   UNL     1     136.013 141.450 131.207  1.00  0.00     0.009 C 
ATOM      5  C   UNL     1     137.026 140.373 131.628  1.00  0.00     0.021 C 
ATOM      6  C   UNL     1     136.798 139.175 130.645  1.00  0.00    -0.017 C 
ATOM      7  C   UNL     1     137.156 137.776 131.221  1.00  0.00     0.012 C 
ATOM      8  C   UNL     1     138.656 137.606 131.532  1.00  0.00     0.031 C 
ATOM      9  C   UNL     1     139.588 138.334 130.583  1.00  0.00    -0.077 C 
ATOM     10  C   UNL     1     139.135 139.187 129.644  1.00  0.00    -0.027 C 
ATOM     11  C   UNL     1     137.668 139.373 129.367  1.00  0.00     0.035 C 
ATOM     12  C   UNL     1     141.072 138.165 130.759  1.00  0.00     0.039 C 
ENDROOT
BRANCH   5  13
ATOM     13  C   UNL     1     136.895 140.047 133.123  1.00  0.00    -0.077 C 
ATOM     14  C   UNL     1     137.962 140.180 133.930  1.00  0.00     0.008 C 
ATOM     15  C   UNL     1     135.590 139.619 133.749  1.00  0.00     0.039 C 
ENDBRANCH   5  13
TORSDOF 1
ENDMDL
MODEL 7
REMARK VINA RESULT:    -5.112      3.672      6.034
REMARK INTER + INTRA:          -5.773
REMARK INTER:                  -5.412
REMARK INTRA:                  -0.361
REMARK UNBOUND:                -0.362
REMARK SMILES C=C(C)[C@@H]1CC[C@@H](C)[C@@]12CC=C(C)CC2
REMARK SMILES IDX 8 1 7 2 6 3 5 4 4 5 9 6 15 7 14 8 12 9 11 10 10 11 13 12
REMARK SMILES IDX 2 13 1 14 3 15
REMARK H PARENT
REMARK Flexibility Score: inf
ROOT
ATOM      1  C   UNL     1     138.614 138.892 129.070  1.00  0.00     0.008 C 
ATOM      2  C   UNL     1     139.270 138.437 130.387  1.00  0.00    -0.007 C 
ATOM      3  C   UNL     1     140.763 138.781 130.427  1.00  0.00     0.004 C 
ATOM      4  C   UNL     1     141.449 137.708 131.272  1.00  0.00     0.009 C 
ATOM      5  C   UNL     1     140.369 136.708 131.715  1.00  0.00     0.021 C 
ATOM      6  C   UNL     1     139.167 136.926 130.734  1.00  0.00    -0.017 C 
ATOM      7  C   UNL     1     137.770 136.586 131.323  1.00  0.00     0.012 C 
ATOM      8  C   UNL     1     137.593 135.092 131.659  1.00  0.00     0.031 C 
ATOM      9  C   UNL     1     138.310 134.141 130.721  1.00  0.00    -0.077 C 
ATOM     10  C   UNL     1     139.161 134.574 129.771  1.00  0.00    -0.027 C 
ATOM     11  C   UNL     1     139.354 136.035 129.470  1.00  0.00     0.035 C 
ATOM     12  C   UNL     1     138.135 132.661 130.922  1.00  0.00     0.039 C 
ENDROOT
BRANCH   5  13
ATOM     13  C   UNL     1     140.052 136.864 133.209  1.00  0.00    -0.077 C 
ATOM     14  C   UNL     1     140.156 135.802 134.027  1.00  0.00     0.008 C 
ATOM     15  C   UNL     1     139.665 138.188 133.822  1.00  0.00     0.039 C 
ENDBRANCH   5  13
TORSDOF 1
ENDMDL
MODEL 8
REMARK VINA RESULT:    -5.075      1.379      4.948
REMARK INTER + INTRA:          -5.734
REMARK INTER:                  -5.371
REMARK INTRA:                  -0.363
REMARK UNBOUND:                -0.362
REMARK SMILES C=C(C)[C@@H]1CC[C@@H](C)[C@@]12CC=C(C)CC2
REMARK SMILES IDX 8 1 7 2 6 3 5 4 4 5 9 6 15 7 14 8 12 9 11 10 10 11 13 12
REMARK SMILES IDX 2 13 1 14 3 15
REMARK H PARENT
REMARK Flexibility Score: inf
ROOT
ATOM      1  C   UNL     1     138.870 135.347 129.120  1.00  0.00     0.008 C 
ATOM      2  C   UNL     1     138.417 134.628 130.404  1.00  0.00    -0.007 C 
ATOM      3  C   UNL     1     138.810 133.147 130.394  1.00  0.00     0.004 C 
ATOM      4  C   UNL     1     137.748 132.394 131.197  1.00  0.00     0.009 C 
ATOM      5  C   UNL     1     136.706 133.424 131.663  1.00  0.00     0.021 C 
ATOM      6  C   UNL     1     136.899 134.669 130.730  1.00  0.00    -0.017 C 
ATOM      7  C   UNL     1     136.505 136.031 131.365  1.00  0.00     0.012 C 
ATOM      8  C   UNL     1     135.000 136.147 131.684  1.00  0.00     0.031 C 
ATOM      9  C   UNL     1     134.088 135.434 130.704  1.00  0.00    -0.077 C 
ATOM     10  C   UNL     1     134.562 134.635 129.731  1.00  0.00    -0.027 C 
ATOM     11  C   UNL     1     136.034 134.500 129.446  1.00  0.00     0.035 C 
ATOM     12  C   UNL     1     132.600 135.554 130.888  1.00  0.00     0.039 C 
ENDROOT
BRANCH   5  13
ATOM     13  C   UNL     1     136.830 133.690 133.170  1.00  0.00    -0.077 C 
ATOM     14  C   UNL     1     135.764 133.507 133.969  1.00  0.00     0.008 C 
ATOM     15  C   UNL     1     138.127 134.113 133.816  1.00  0.00     0.039 C 
ENDBRANCH   5  13
TORSDOF 1
ENDMDL
MODEL 9
REMARK VINA RESULT:    -4.780      3.839      5.116
REMARK INTER + INTRA:          -5.421
REMARK INTER:                  -5.060
REMARK INTRA:                  -0.362
REMARK UNBOUND:                -0.362
REMARK SMILES C=C(C)[C@@H]1CC[C@@H](C)[C@@]12CC=C(C)CC2
REMARK SMILES IDX 8 1 7 2 6 3 5 4 4 5 9 6 15 7 14 8 12 9 11 10 10 11 13 12
REMARK SMILES IDX 2 13 1 14 3 15
REMARK H PARENT
REMARK Flexibility Score: inf
ROOT
ATOM      1  C   UNL     1     139.799 137.774 135.177  1.00  0.00     0.008 C 
ATOM      2  C   UNL     1     139.666 138.063 133.671  1.00  0.00    -0.007 C 
ATOM      3  C   UNL     1     138.703 139.223 133.397  1.00  0.00     0.004 C 
ATOM      4  C   UNL     1     138.048 138.955 132.042  1.00  0.00     0.009 C 
ATOM      5  C   UNL     1     138.601 137.620 131.518  1.00  0.00     0.021 C 
ATOM      6  C   UNL     1     139.190 136.888 132.773  1.00  0.00    -0.017 C 
ATOM      7  C   UNL     1     140.360 135.910 132.472  1.00  0.00     0.012 C 
ATOM      8  C   UNL     1     139.944 134.702 131.609  1.00  0.00     0.031 C 
ATOM      9  C   UNL     1     138.535 134.200 131.858  1.00  0.00    -0.077 C 
ATOM     10  C   UNL     1     137.667 134.856 132.652  1.00  0.00    -0.027 C 
ATOM     11  C   UNL     1     138.071 136.055 133.466  1.00  0.00     0.035 C 
ATOM     12  C   UNL     1     138.064 132.977 131.119  1.00  0.00     0.039 C 
ENDROOT
BRANCH   5  13
ATOM     13  C   UNL     1     139.577 137.845 130.354  1.00  0.00    -0.077 C 
ATOM     14  C   UNL     1     139.381 137.207 129.188  1.00  0.00     0.008 C 
ATOM     15  C   UNL     1     140.741 138.802 130.446  1.00  0.00     0.039 C 
ENDBRANCH   5  13
TORSDOF 1
ENDMDL
