MODEL 1
REMARK VINA RESULT:    -3.847      0.000      0.000
REMARK INTER + INTRA:          -9.958
REMARK INTER:                  -7.221
REMARK INTRA:                  -2.737
REMARK UNBOUND:                -2.737
REMARK SMILES CCCCCCCCC=CCCCCCCCC(=O)[O-]
REMARK SMILES IDX 10 1 9 2 11 3 12 4 13 5 14 6 15 7 16 8 17 9 18 10 19 11
REMARK SMILES IDX 20 12 8 13 7 14 6 15 5 16 4 17 3 18 2 19 1 20
REMARK H PARENT
REMARK Flexibility Score: inf
ROOT
ATOM      1  C   UNL     1      28.738   7.020  51.365  1.00  0.00    -0.031 C 
ATOM      2  C   UNL     1      27.796   7.969  51.251  1.00  0.00    -0.031 C 
ENDROOT
BRANCH   1   3
ATOM      3  C   UNL     1      28.727   6.028  52.496  1.00  0.00     0.027 C 
BRANCH   3   4
ATOM      4  C   UNL     1      28.658   6.704  53.877  1.00  0.00     0.004 C 
BRANCH   4   5
ATOM      5  C   UNL     1      29.392   5.940  54.994  1.00  0.00     0.000 C 
BRANCH   5   6
ATOM      6  C   UNL     1      30.854   6.389  55.160  1.00  0.00     0.000 C 
BRANCH   6   7
ATOM      7  C   UNL     1      31.832   5.205  55.211  1.00  0.00     0.000 C 
BRANCH   7   8
ATOM      8  C   UNL     1      31.854   4.393  53.904  1.00  0.00     0.006 C 
BRANCH   8   9
ATOM      9  C   UNL     1      33.098   4.693  53.057  1.00  0.00     0.053 C 
BRANCH   9  10
ATOM     10  C   UNL     1      32.786   4.686  51.591  1.00  0.00     0.041 C 
ATOM     11  O   UNL     1      31.592   4.623  51.197  1.00  0.00    -0.550 OA
ATOM     12  O   UNL     1      33.813   4.790  50.662  1.00  0.00    -0.550 OA
ENDBRANCH   9  10
ENDBRANCH   8   9
ENDBRANCH   7   8
ENDBRANCH   6   7
ENDBRANCH   5   6
ENDBRANCH   4   5
ENDBRANCH   3   4
ENDBRANCH   1   3
BRANCH   2  13
ATOM     13  C   UNL     1      27.829   8.950  50.112  1.00  0.00     0.027 C 
BRANCH  13  14
ATOM     14  C   UNL     1      28.742   8.458  48.983  1.00  0.00     0.004 C 
BRANCH  14  15
ATOM     15  C   UNL     1      29.960   9.375  48.820  1.00  0.00     0.000 C 
BRANCH  15  16
ATOM     16  C   UNL     1      29.855  10.598  49.745  1.00  0.00     0.000 C 
BRANCH  16  17
ATOM     17  C   UNL     1      31.021  10.686  50.743  1.00  0.00    -0.000 C 
BRANCH  17  18
ATOM     18  C   UNL     1      30.587  10.377  52.187  1.00  0.00    -0.000 C 
BRANCH  18  19
ATOM     19  C   UNL     1      31.276   9.126  52.752  1.00  0.00    -0.003 C 
ATOM     20  C   UNL     1      32.106   8.384  51.705  1.00  0.00     0.004 C 
ENDBRANCH  18  19
ENDBRANCH  17  18
ENDBRANCH  16  17
ENDBRANCH  15  16
ENDBRANCH  14  15
ENDBRANCH  13  14
ENDBRANCH   2  13
TORSDOF 15
ENDMDL
MODEL 2
REMARK VINA RESULT:    -3.844      1.070      1.551
REMARK INTER + INTRA:          -9.951
REMARK INTER:                  -7.325
REMARK INTRA:                  -2.627
REMARK UNBOUND:                -2.737
REMARK SMILES CCCCCCCCC=CCCCCCCCC(=O)[O-]
REMARK SMILES IDX 10 1 9 2 11 3 12 4 13 5 14 6 15 7 16 8 17 9 18 10 19 11
REMARK SMILES IDX 20 12 8 13 7 14 6 15 5 16 4 17 3 18 2 19 1 20
REMARK H PARENT
REMARK Flexibility Score: inf
ROOT
ATOM      1  C   UNL     1      28.704   7.093  51.188  1.00  0.00    -0.031 C 
ATOM      2  C   UNL     1      28.257   8.145  50.485  1.00  0.00    -0.031 C 
ENDROOT
BRANCH   1   3
ATOM      3  C   UNL     1      28.063   6.680  52.485  1.00  0.00     0.027 C 
BRANCH   3   4
ATOM      4  C   UNL     1      28.851   7.161  53.716  1.00  0.00     0.004 C 
BRANCH   4   5
ATOM      5  C   UNL     1      29.436   6.027  54.578  1.00  0.00     0.000 C 
BRANCH   5   6
ATOM      6  C   UNL     1      30.873   5.655  54.176  1.00  0.00     0.000 C 
BRANCH   6   7
ATOM      7  C   UNL     1      30.921   4.506  53.156  1.00  0.00     0.000 C 
BRANCH   7   8
ATOM      8  C   UNL     1      31.951   4.744  52.038  1.00  0.00     0.006 C 
BRANCH   8   9
ATOM      9  C   UNL     1      33.392   4.551  52.528  1.00  0.00     0.053 C 
BRANCH   9  10
ATOM     10  C   UNL     1      34.315   4.181  51.406  1.00  0.00     0.041 C 
ATOM     11  O   UNL     1      35.157   3.257  51.556  1.00  0.00    -0.550 OA
ATOM     12  O   UNL     1      34.217   4.832  50.183  1.00  0.00    -0.550 OA
ENDBRANCH   9  10
ENDBRANCH   8   9
ENDBRANCH   7   8
ENDBRANCH   6   7
ENDBRANCH   5   6
ENDBRANCH   4   5
ENDBRANCH   3   4
ENDBRANCH   1   3
BRANCH   2  13
ATOM     13  C   UNL     1      28.915   8.539  49.192  1.00  0.00     0.027 C 
BRANCH  13  14
ATOM     14  C   UNL     1      29.527   9.940  49.286  1.00  0.00     0.004 C 
BRANCH  14  15
ATOM     15  C   UNL     1      28.892  10.743  50.427  1.00  0.00     0.000 C 
BRANCH  15  16
ATOM     16  C   UNL     1      29.968  11.445  51.271  1.00  0.00     0.000 C 
BRANCH  16  17
ATOM     17  C   UNL     1      31.360  10.818  51.094  1.00  0.00    -0.000 C 
BRANCH  17  18
ATOM     18  C   UNL     1      31.925  10.252  52.409  1.00  0.00    -0.000 C 
BRANCH  18  19
ATOM     19  C   UNL     1      31.964   8.716  52.419  1.00  0.00    -0.003 C 
ATOM     20  C   UNL     1      32.252   8.124  51.039  1.00  0.00     0.004 C 
ENDBRANCH  18  19
ENDBRANCH  17  18
ENDBRANCH  16  17
ENDBRANCH  15  16
ENDBRANCH  14  15
ENDBRANCH  13  14
ENDBRANCH   2  13
TORSDOF 15
ENDMDL
MODEL 3
REMARK VINA RESULT:    -3.829      1.594      2.579
REMARK INTER + INTRA:          -9.924
REMARK INTER:                  -6.737
REMARK INTRA:                  -3.187
REMARK UNBOUND:                -2.737
REMARK SMILES CCCCCCCCC=CCCCCCCCC(=O)[O-]
REMARK SMILES IDX 10 1 9 2 11 3 12 4 13 5 14 6 15 7 16 8 17 9 18 10 19 11
REMARK SMILES IDX 20 12 8 13 7 14 6 15 5 16 4 17 3 18 2 19 1 20
REMARK H PARENT
REMARK Flexibility Score: inf
ROOT
ATOM      1  C   UNL     1      27.469   8.215  51.005  1.00  0.00    -0.031 C 
ATOM      2  C   UNL     1      28.592   7.946  50.323  1.00  0.00    -0.031 C 
ENDROOT
BRANCH   1   3
ATOM      3  C   UNL     1      27.245   7.688  52.397  1.00  0.00     0.027 C 
BRANCH   3   4
ATOM      4  C   UNL     1      28.561   7.352  53.122  1.00  0.00     0.004 C 
BRANCH   4   5
ATOM      5  C   UNL     1      29.144   8.513  53.948  1.00  0.00     0.000 C 
BRANCH   5   6
ATOM      6  C   UNL     1      30.672   8.632  53.811  1.00  0.00     0.000 C 
BRANCH   6   7
ATOM      7  C   UNL     1      31.383   7.276  53.949  1.00  0.00     0.000 C 
BRANCH   7   8
ATOM      8  C   UNL     1      32.483   7.071  52.892  1.00  0.00     0.006 C 
BRANCH   8   9
ATOM      9  C   UNL     1      32.083   6.034  51.835  1.00  0.00     0.053 C 
BRANCH   9  10
ATOM     10  C   UNL     1      33.014   4.858  51.831  1.00  0.00     0.041 C 
ATOM     11  O   UNL     1      33.501   4.440  50.748  1.00  0.00    -0.550 OA
ATOM     12  O   UNL     1      33.373   4.252  53.028  1.00  0.00    -0.550 OA
ENDBRANCH   9  10
ENDBRANCH   8   9
ENDBRANCH   7   8
ENDBRANCH   6   7
ENDBRANCH   5   6
ENDBRANCH   4   5
ENDBRANCH   3   4
ENDBRANCH   1   3
BRANCH   2  13
ATOM     13  C   UNL     1      28.791   8.484  48.933  1.00  0.00     0.027 C 
BRANCH  13  14
ATOM     14  C   UNL     1      29.993   9.432  48.873  1.00  0.00     0.004 C 
BRANCH  14  15
ATOM     15  C   UNL     1      30.891   9.263  50.104  1.00  0.00     0.000 C 
BRANCH  15  16
ATOM     16  C   UNL     1      31.078  10.600  50.837  1.00  0.00     0.000 C 
BRANCH  16  17
ATOM     17  C   UNL     1      29.895  11.559  50.629  1.00  0.00    -0.000 C 
BRANCH  17  18
ATOM     18  C   UNL     1      28.921  11.563  51.820  1.00  0.00    -0.000 C 
BRANCH  18  19
ATOM     19  C   UNL     1      27.471  11.836  51.393  1.00  0.00    -0.003 C 
ATOM     20  C   UNL     1      27.291  11.823  49.875  1.00  0.00     0.004 C 
ENDBRANCH  18  19
ENDBRANCH  17  18
ENDBRANCH  16  17
ENDBRANCH  15  16
ENDBRANCH  14  15
ENDBRANCH  13  14
ENDBRANCH   2  13
TORSDOF 15
ENDMDL
MODEL 4
REMARK VINA RESULT:    -3.739      1.372      2.035
REMARK INTER + INTRA:          -9.754
REMARK INTER:                  -6.848
REMARK INTRA:                  -2.906
REMARK UNBOUND:                -2.737
REMARK SMILES CCCCCCCCC=CCCCCCCCC(=O)[O-]
REMARK SMILES IDX 10 1 9 2 11 3 12 4 13 5 14 6 15 7 16 8 17 9 18 10 19 11
REMARK SMILES IDX 20 12 8 13 7 14 6 15 5 16 4 17 3 18 2 19 1 20
REMARK H PARENT
REMARK Flexibility Score: inf
ROOT
ATOM      1  C   UNL     1      28.327   7.175  51.573  1.00  0.00    -0.031 C 
ATOM      2  C   UNL     1      29.120   7.410  50.517  1.00  0.00    -0.031 C 
ENDROOT
BRANCH   1   3
ATOM      3  C   UNL     1      28.653   6.107  52.582  1.00  0.00     0.027 C 
BRANCH   3   4
ATOM      4  C   UNL     1      28.670   6.641  54.026  1.00  0.00     0.004 C 
BRANCH   4   5
ATOM      5  C   UNL     1      30.074   6.987  54.557  1.00  0.00     0.000 C 
BRANCH   5   6
ATOM      6  C   UNL     1      31.192   6.236  53.815  1.00  0.00     0.000 C 
BRANCH   6   7
ATOM      7  C   UNL     1      32.094   7.176  53.001  1.00  0.00     0.000 C 
BRANCH   7   8
ATOM      8  C   UNL     1      32.535   6.565  51.659  1.00  0.00     0.006 C 
BRANCH   8   9
ATOM      9  C   UNL     1      32.450   5.033  51.665  1.00  0.00     0.053 C 
BRANCH   9  10
ATOM     10  C   UNL     1      33.788   4.402  51.425  1.00  0.00     0.041 C 
ATOM     11  O   UNL     1      34.358   3.756  52.342  1.00  0.00    -0.550 OA
ATOM     12  O   UNL     1      34.386   4.496  50.174  1.00  0.00    -0.550 OA
ENDBRANCH   9  10
ENDBRANCH   8   9
ENDBRANCH   7   8
ENDBRANCH   6   7
ENDBRANCH   5   6
ENDBRANCH   4   5
ENDBRANCH   3   4
ENDBRANCH   1   3
BRANCH   2  13
ATOM     13  C   UNL     1      28.772   8.482  49.522  1.00  0.00     0.027 C 
BRANCH  13  14
ATOM     14  C   UNL     1      27.346   8.998  49.738  1.00  0.00     0.004 C 
BRANCH  14  15
ATOM     15  C   UNL     1      27.323  10.527  49.847  1.00  0.00     0.000 C 
BRANCH  15  16
ATOM     16  C   UNL     1      28.748  11.102  49.812  1.00  0.00     0.000 C 
BRANCH  16  17
ATOM     17  C   UNL     1      29.038  12.036  50.998  1.00  0.00    -0.000 C 
BRANCH  17  18
ATOM     18  C   UNL     1      30.292  11.620  51.786  1.00  0.00    -0.000 C 
BRANCH  18  19
ATOM     19  C   UNL     1      30.084  10.320  52.578  1.00  0.00    -0.003 C 
ATOM     20  C   UNL     1      28.847  10.366  53.474  1.00  0.00     0.004 C 
ENDBRANCH  18  19
ENDBRANCH  17  18
ENDBRANCH  16  17
ENDBRANCH  15  16
ENDBRANCH  14  15
ENDBRANCH  13  14
ENDBRANCH   2  13
TORSDOF 15
ENDMDL
MODEL 5
REMARK VINA RESULT:    -3.714      1.327      2.775
REMARK INTER + INTRA:          -9.707
REMARK INTER:                  -7.106
REMARK INTRA:                  -2.601
REMARK UNBOUND:                -2.737
REMARK SMILES CCCCCCCCC=CCCCCCCCC(=O)[O-]
REMARK SMILES IDX 10 1 9 2 11 3 12 4 13 5 14 6 15 7 16 8 17 9 18 10 19 11
REMARK SMILES IDX 20 12 8 13 7 14 6 15 5 16 4 17 3 18 2 19 1 20
REMARK H PARENT
REMARK Flexibility Score: inf
ROOT
ATOM      1  C   UNL     1      27.928   8.546  52.357  1.00  0.00    -0.031 C 
ATOM      2  C   UNL     1      27.288   9.671  52.712  1.00  0.00    -0.031 C 
ENDROOT
BRANCH   1   3
ATOM      3  C   UNL     1      27.509   7.200  52.884  1.00  0.00     0.027 C 
BRANCH   3   4
ATOM      4  C   UNL     1      28.703   6.259  53.120  1.00  0.00     0.004 C 
BRANCH   4   5
ATOM      5  C   UNL     1      29.256   6.285  54.558  1.00  0.00     0.000 C 
BRANCH   5   6
ATOM      6  C   UNL     1      30.765   6.583  54.609  1.00  0.00     0.000 C 
BRANCH   6   7
ATOM      7  C   UNL     1      31.186   7.666  53.604  1.00  0.00     0.000 C 
BRANCH   7   8
ATOM      8  C   UNL     1      32.309   7.198  52.660  1.00  0.00     0.006 C 
BRANCH   8   9
ATOM      9  C   UNL     1      32.739   5.753  52.944  1.00  0.00     0.053 C 
BRANCH   9  10
ATOM     10  C   UNL     1      32.499   4.861  51.762  1.00  0.00     0.041 C 
ATOM     11  O   UNL     1      33.471   4.347  51.149  1.00  0.00    -0.550 OA
ATOM     12  O   UNL     1      31.201   4.568  51.366  1.00  0.00    -0.550 OA
ENDBRANCH   9  10
ENDBRANCH   8   9
ENDBRANCH   7   8
ENDBRANCH   6   7
ENDBRANCH   5   6
ENDBRANCH   4   5
ENDBRANCH   3   4
ENDBRANCH   1   3
BRANCH   2  13
ATOM     13  C   UNL     1      27.726  11.004  52.172  1.00  0.00     0.027 C 
BRANCH  13  14
ATOM     14  C   UNL     1      29.229  11.218  52.376  1.00  0.00     0.004 C 
BRANCH  14  15
ATOM     15  C   UNL     1      29.920  11.571  51.053  1.00  0.00     0.000 C 
BRANCH  15  16
ATOM     16  C   UNL     1      31.106  10.632  50.784  1.00  0.00     0.000 C 
BRANCH  16  17
ATOM     17  C   UNL     1      30.673   9.298  50.156  1.00  0.00    -0.000 C 
BRANCH  17  18
ATOM     18  C   UNL     1      29.815   9.490  48.893  1.00  0.00    -0.000 C 
BRANCH  18  19
ATOM     19  C   UNL     1      28.693   8.446  48.780  1.00  0.00    -0.003 C 
ATOM     20  C   UNL     1      27.300   9.062  48.904  1.00  0.00     0.004 C 
ENDBRANCH  18  19
ENDBRANCH  17  18
ENDBRANCH  16  17
ENDBRANCH  15  16
ENDBRANCH  14  15
ENDBRANCH  13  14
ENDBRANCH   2  13
TORSDOF 15
ENDMDL
MODEL 6
REMARK VINA RESULT:    -3.700      1.246      2.407
REMARK INTER + INTRA:          -9.681
REMARK INTER:                  -7.393
REMARK INTRA:                  -2.288
REMARK UNBOUND:                -2.737
REMARK SMILES CCCCCCCCC=CCCCCCCCC(=O)[O-]
REMARK SMILES IDX 10 1 9 2 11 3 12 4 13 5 14 6 15 7 16 8 17 9 18 10 19 11
REMARK SMILES IDX 20 12 8 13 7 14 6 15 5 16 4 17 3 18 2 19 1 20
REMARK H PARENT
REMARK Flexibility Score: inf
ROOT
ATOM      1  C   UNL     1      28.786   7.177  54.052  1.00  0.00    -0.031 C 
ATOM      2  C   UNL     1      27.969   6.915  53.022  1.00  0.00    -0.031 C 
ENDROOT
BRANCH   1   3
ATOM      3  C   UNL     1      28.725   6.384  55.330  1.00  0.00     0.027 C 
BRANCH   3   4
ATOM      4  C   UNL     1      29.938   5.455  55.510  1.00  0.00     0.004 C 
BRANCH   4   5
ATOM      5  C   UNL     1      30.998   5.574  54.399  1.00  0.00     0.000 C 
BRANCH   5   6
ATOM      6  C   UNL     1      31.029   4.347  53.472  1.00  0.00     0.000 C 
BRANCH   6   7
ATOM      7  C   UNL     1      31.046   4.733  51.984  1.00  0.00     0.000 C 
BRANCH   7   8
ATOM      8  C   UNL     1      32.458   5.069  51.473  1.00  0.00     0.006 C 
BRANCH   8   9
ATOM      9  C   UNL     1      33.553   4.404  52.317  1.00  0.00     0.053 C 
BRANCH   9  10
ATOM     10  C   UNL     1      34.726   3.993  51.478  1.00  0.00     0.041 C 
ATOM     11  O   UNL     1      34.663   4.060  50.223  1.00  0.00    -0.550 OA
ATOM     12  O   UNL     1      35.902   3.573  52.088  1.00  0.00    -0.550 OA
ENDBRANCH   9  10
ENDBRANCH   8   9
ENDBRANCH   7   8
ENDBRANCH   6   7
ENDBRANCH   5   6
ENDBRANCH   4   5
ENDBRANCH   3   4
ENDBRANCH   1   3
BRANCH   2  13
ATOM     13  C   UNL     1      28.049   7.722  51.755  1.00  0.00     0.027 C 
BRANCH  13  14
ATOM     14  C   UNL     1      27.551   9.154  51.977  1.00  0.00     0.004 C 
BRANCH  14  15
ATOM     15  C   UNL     1      28.084  10.097  50.892  1.00  0.00     0.000 C 
BRANCH  15  16
ATOM     16  C   UNL     1      28.649   9.305  49.704  1.00  0.00     0.000 C 
BRANCH  16  17
ATOM     17  C   UNL     1      30.011   9.838  49.232  1.00  0.00    -0.000 C 
BRANCH  17  18
ATOM     18  C   UNL     1      31.013  10.006  50.388  1.00  0.00    -0.000 C 
BRANCH  18  19
ATOM     19  C   UNL     1      31.550   8.661  50.900  1.00  0.00    -0.003 C 
ATOM     20  C   UNL     1      31.873   8.686  52.394  1.00  0.00     0.004 C 
ENDBRANCH  18  19
ENDBRANCH  17  18
ENDBRANCH  16  17
ENDBRANCH  15  16
ENDBRANCH  14  15
ENDBRANCH  13  14
ENDBRANCH   2  13
TORSDOF 15
ENDMDL
MODEL 7
REMARK VINA RESULT:    -3.695      1.576      3.212
REMARK INTER + INTRA:          -9.672
REMARK INTER:                  -6.506
REMARK INTRA:                  -3.166
REMARK UNBOUND:                -2.737
REMARK SMILES CCCCCCCCC=CCCCCCCCC(=O)[O-]
REMARK SMILES IDX 10 1 9 2 11 3 12 4 13 5 14 6 15 7 16 8 17 9 18 10 19 11
REMARK SMILES IDX 20 12 8 13 7 14 6 15 5 16 4 17 3 18 2 19 1 20
REMARK H PARENT
REMARK Flexibility Score: inf
ROOT
ATOM      1  C   UNL     1      31.475   9.618  51.617  1.00  0.00    -0.031 C 
ATOM      2  C   UNL     1      30.770   9.030  50.639  1.00  0.00    -0.031 C 
ENDROOT
BRANCH   1   3
ATOM      3  C   UNL     1      31.387   9.150  53.044  1.00  0.00     0.027 C 
BRANCH   3   4
ATOM      4  C   UNL     1      29.935   9.022  53.537  1.00  0.00     0.004 C 
BRANCH   4   5
ATOM      5  C   UNL     1      29.471   7.573  53.776  1.00  0.00     0.000 C 
BRANCH   5   6
ATOM      6  C   UNL     1      28.330   7.151  52.834  1.00  0.00     0.000 C 
BRANCH   6   7
ATOM      7  C   UNL     1      28.546   5.753  52.235  1.00  0.00     0.000 C 
BRANCH   7   8
ATOM      8  C   UNL     1      29.895   5.619  51.507  1.00  0.00     0.006 C 
BRANCH   8   9
ATOM      9  C   UNL     1      30.857   4.676  52.240  1.00  0.00     0.053 C 
BRANCH   9  10
ATOM     10  C   UNL     1      32.289   5.052  52.006  1.00  0.00     0.041 C 
ATOM     11  O   UNL     1      32.584   6.212  51.616  1.00  0.00    -0.550 OA
ATOM     12  O   UNL     1      33.300   4.132  52.257  1.00  0.00    -0.550 OA
ENDBRANCH   9  10
ENDBRANCH   8   9
ENDBRANCH   7   8
ENDBRANCH   6   7
ENDBRANCH   5   6
ENDBRANCH   4   5
ENDBRANCH   3   4
ENDBRANCH   1   3
BRANCH   2  13
ATOM     13  C   UNL     1      30.874   9.517  49.220  1.00  0.00     0.027 C 
BRANCH  13  14
ATOM     14  C   UNL     1      29.571   9.272  48.453  1.00  0.00     0.004 C 
BRANCH  14  15
ATOM     15  C   UNL     1      28.640   8.336  49.232  1.00  0.00     0.000 C 
BRANCH  15  16
ATOM     16  C   UNL     1      27.229   8.933  49.346  1.00  0.00     0.000 C 
BRANCH  16  17
ATOM     17  C   UNL     1      27.246  10.420  49.732  1.00  0.00    -0.000 C 
BRANCH  17  18
ATOM     18  C   UNL     1      27.018  10.643  51.238  1.00  0.00    -0.000 C 
BRANCH  18  19
ATOM     19  C   UNL     1      28.097  11.537  51.870  1.00  0.00    -0.003 C 
ATOM     20  C   UNL     1      28.925  12.288  50.828  1.00  0.00     0.004 C 
ENDBRANCH  18  19
ENDBRANCH  17  18
ENDBRANCH  16  17
ENDBRANCH  15  16
ENDBRANCH  14  15
ENDBRANCH  13  14
ENDBRANCH   2  13
TORSDOF 15
ENDMDL
MODEL 8
REMARK VINA RESULT:    -3.630      2.808      6.150
REMARK INTER + INTRA:          -9.551
REMARK INTER:                  -6.451
REMARK INTRA:                  -3.100
REMARK UNBOUND:                -2.737
REMARK SMILES CCCCCCCCC=CCCCCCCCC(=O)[O-]
REMARK SMILES IDX 10 1 9 2 11 3 12 4 13 5 14 6 15 7 16 8 17 9 18 10 19 11
REMARK SMILES IDX 20 12 8 13 7 14 6 15 5 16 4 17 3 18 2 19 1 20
REMARK H PARENT
REMARK Flexibility Score: inf
ROOT
ATOM      1  C   UNL     1      31.275   9.047  53.067  1.00  0.00    -0.031 C 
ATOM      2  C   UNL     1      30.034   8.548  53.162  1.00  0.00    -0.031 C 
ENDROOT
BRANCH   1   3
ATOM      3  C   UNL     1      31.772   9.691  51.801  1.00  0.00     0.027 C 
BRANCH   3   4
ATOM      4  C   UNL     1      31.390   8.893  50.542  1.00  0.00     0.004 C 
BRANCH   4   5
ATOM      5  C   UNL     1      30.870   9.758  49.377  1.00  0.00     0.000 C 
BRANCH   5   6
ATOM      6  C   UNL     1      29.607   9.174  48.721  1.00  0.00     0.000 C 
BRANCH   6   7
ATOM      7  C   UNL     1      28.664   8.515  49.740  1.00  0.00     0.000 C 
BRANCH   7   8
ATOM      8  C   UNL     1      27.191   8.910  49.530  1.00  0.00     0.006 C 
BRANCH   8   9
ATOM      9  C   UNL     1      26.894  10.326  50.039  1.00  0.00     0.053 C 
BRANCH   9  10
ATOM     10  C   UNL     1      27.410  10.535  51.431  1.00  0.00     0.041 C 
ATOM     11  O   UNL     1      28.291  11.405  51.656  1.00  0.00    -0.550 OA
ATOM     12  O   UNL     1      26.888   9.795  52.485  1.00  0.00    -0.550 OA
ENDBRANCH   9  10
ENDBRANCH   8   9
ENDBRANCH   7   8
ENDBRANCH   6   7
ENDBRANCH   5   6
ENDBRANCH   4   5
ENDBRANCH   3   4
ENDBRANCH   1   3
BRANCH   2  13
ATOM     13  C   UNL     1      29.560   7.909  54.438  1.00  0.00     0.027 C 
BRANCH  13  14
ATOM     14  C   UNL     1      28.660   6.701  54.153  1.00  0.00     0.004 C 
BRANCH  14  15
ATOM     15  C   UNL     1      28.376   6.568  52.652  1.00  0.00     0.000 C 
BRANCH  15  16
ATOM     16  C   UNL     1      28.885   5.222  52.113  1.00  0.00     0.000 C 
BRANCH  16  17
ATOM     17  C   UNL     1      30.156   5.369  51.262  1.00  0.00    -0.000 C 
BRANCH  17  18
ATOM     18  C   UNL     1      31.381   4.700  51.909  1.00  0.00    -0.000 C 
BRANCH  18  19
ATOM     19  C   UNL     1      32.506   5.702  52.212  1.00  0.00    -0.003 C 
ATOM     20  C   UNL     1      32.849   5.771  53.700  1.00  0.00     0.004 C 
ENDBRANCH  18  19
ENDBRANCH  17  18
ENDBRANCH  16  17
ENDBRANCH  15  16
ENDBRANCH  14  15
ENDBRANCH  13  14
ENDBRANCH   2  13
TORSDOF 15
ENDMDL
MODEL 9
REMARK VINA RESULT:    -3.584      1.182      2.665
REMARK INTER + INTRA:          -9.464
REMARK INTER:                  -6.715
REMARK INTRA:                  -2.749
REMARK UNBOUND:                -2.737
REMARK SMILES CCCCCCCCC=CCCCCCCCC(=O)[O-]
REMARK SMILES IDX 10 1 9 2 11 3 12 4 13 5 14 6 15 7 16 8 17 9 18 10 19 11
REMARK SMILES IDX 20 12 8 13 7 14 6 15 5 16 4 17 3 18 2 19 1 20
REMARK H PARENT
REMARK Flexibility Score: inf
ROOT
ATOM      1  C   UNL     1      28.744   6.599  54.686  1.00  0.00    -0.031 C 
ATOM      2  C   UNL     1      28.775   6.250  53.391  1.00  0.00    -0.031 C 
ENDROOT
BRANCH   1   3
ATOM      3  C   UNL     1      29.528   5.845  55.725  1.00  0.00     0.027 C 
BRANCH   3   4
ATOM      4  C   UNL     1      30.561   4.885  55.108  1.00  0.00     0.004 C 
BRANCH   4   5
ATOM      5  C   UNL     1      32.027   5.290  55.350  1.00  0.00     0.000 C 
BRANCH   5   6
ATOM      6  C   UNL     1      32.224   6.815  55.389  1.00  0.00     0.000 C 
BRANCH   6   7
ATOM      7  C   UNL     1      32.900   7.354  54.119  1.00  0.00     0.000 C 
BRANCH   7   8
ATOM      8  C   UNL     1      31.926   7.486  52.935  1.00  0.00     0.006 C 
BRANCH   8   9
ATOM      9  C   UNL     1      32.508   6.908  51.639  1.00  0.00     0.053 C 
BRANCH   9  10
ATOM     10  C   UNL     1      32.604   5.413  51.692  1.00  0.00     0.041 C 
ATOM     11  O   UNL     1      33.725   4.854  51.820  1.00  0.00    -0.550 OA
ATOM     12  O   UNL     1      31.451   4.641  51.640  1.00  0.00    -0.550 OA
ENDBRANCH   9  10
ENDBRANCH   8   9
ENDBRANCH   7   8
ENDBRANCH   6   7
ENDBRANCH   5   6
ENDBRANCH   4   5
ENDBRANCH   3   4
ENDBRANCH   1   3
BRANCH   2  13
ATOM     13  C   UNL     1      27.982   7.020  52.371  1.00  0.00     0.027 C 
BRANCH  13  14
ATOM     14  C   UNL     1      28.282   8.520  52.451  1.00  0.00     0.004 C 
BRANCH  14  15
ATOM     15  C   UNL     1      28.200   9.174  51.067  1.00  0.00     0.000 C 
BRANCH  15  16
ATOM     16  C   UNL     1      29.104   8.446  50.060  1.00  0.00     0.000 C 
BRANCH  16  17
ATOM     17  C   UNL     1      30.374   9.243  49.723  1.00  0.00    -0.000 C 
BRANCH  17  18
ATOM     18  C   UNL     1      30.386  10.639  50.370  1.00  0.00    -0.000 C 
BRANCH  18  19
ATOM     19  C   UNL     1      31.498  10.792  51.418  1.00  0.00    -0.003 C 
ATOM     20  C   UNL     1      30.959  11.149  52.803  1.00  0.00     0.004 C 
ENDBRANCH  18  19
ENDBRANCH  17  18
ENDBRANCH  16  17
ENDBRANCH  15  16
ENDBRANCH  14  15
ENDBRANCH  13  14
ENDBRANCH   2  13
TORSDOF 15
ENDMDL
