MODEL 1
REMARK VINA RESULT:    -6.494      0.000      0.000
REMARK INTER + INTRA:          -7.900
REMARK INTER:                  -7.632
REMARK INTRA:                  -0.267
REMARK UNBOUND:                -0.267
REMARK SMILES O=c1cc(-c2ccc(O)c(O)c2)oc2cc(O)cc(O)c12
REMARK SMILES IDX 4 1 3 2 2 3 1 4 21 5 19 6 18 7 16 8 15 9 14 10 13 11 5 12
REMARK SMILES IDX 6 13 7 14 8 15 12 16 10 17 9 18 11 20 20 22 17 24
REMARK H PARENT 9 19 11 21 20 23 17 25
REMARK Flexibility Score: inf
ROOT
ATOM      1  C   UNL     1       8.758  -7.640  -8.826  1.00  0.00     0.138 A 
ATOM      2  C   UNL     1       7.739  -7.689  -9.788  1.00  0.00     0.100 A 
ATOM      3  C   UNL     1       8.050  -8.027 -11.106  1.00  0.00     0.197 A 
ATOM      4  O   UNL     1       7.124  -8.001 -11.959  1.00  0.00    -0.289 OA
ATOM      5  C   UNL     1       9.382  -8.348 -11.455  1.00  0.00     0.107 A 
ATOM      6  C   UNL     1       9.808  -8.746 -12.757  1.00  0.00     0.134 A 
ATOM      7  C   UNL     1      11.174  -8.927 -13.011  1.00  0.00     0.093 A 
ATOM      8  C   UNL     1      12.121  -8.781 -11.995  1.00  0.00     0.123 A 
ATOM      9  C   UNL     1      11.710  -8.445 -10.708  1.00  0.00     0.094 A 
ATOM     10  C   UNL     1      10.358  -8.226 -10.431  1.00  0.00     0.146 A 
ATOM     11  O   UNL     1      10.010  -7.892  -9.192  1.00  0.00    -0.456 OA
ENDROOT
BRANCH   1  12
ATOM     12  C   UNL     1       8.484  -7.288  -7.411  1.00  0.00     0.021 A 
ATOM     13  C   UNL     1       7.945  -8.257  -6.548  1.00  0.00     0.016 A 
ATOM     14  C   UNL     1       7.671  -7.947  -5.213  1.00  0.00     0.051 A 
ATOM     15  C   UNL     1       7.921  -6.660  -4.720  1.00  0.00     0.157 A 
ATOM     16  C   UNL     1       8.722  -5.991  -6.912  1.00  0.00     0.062 A 
ATOM     17  C   UNL     1       8.446  -5.678  -5.576  1.00  0.00     0.158 A 
BRANCH  15  18
ATOM     18  O   UNL     1       7.648  -6.356  -3.388  1.00  0.00    -0.504 OA
ATOM     19  H   UNL     1       7.632  -7.073  -2.672  1.00  0.00     0.293 HD
ENDBRANCH  15  18
BRANCH  17  20
ATOM     20  O   UNL     1       8.695  -4.384  -5.117  1.00  0.00    -0.504 OA
ATOM     21  H   UNL     1       7.985  -3.830  -4.656  1.00  0.00     0.293 HD
ENDBRANCH  17  20
ENDBRANCH   1  12
BRANCH   6  22
ATOM     22  O   UNL     1       8.937  -9.001 -13.821  1.00  0.00    -0.507 OA
ATOM     23  H   UNL     1       8.714  -8.344 -14.553  1.00  0.00     0.293 HD
ENDBRANCH   6  22
BRANCH   8  24
ATOM     24  O   UNL     1      13.477  -8.978 -12.254  1.00  0.00    -0.508 OA
ATOM     25  H   UNL     1      14.180  -8.823 -11.543  1.00  0.00     0.293 HD
ENDBRANCH   8  24
TORSDOF 5
ENDMDL
MODEL 2
REMARK VINA RESULT:    -6.248     10.800     14.471
REMARK INTER + INTRA:          -7.611
REMARK INTER:                  -7.346
REMARK INTRA:                  -0.265
REMARK UNBOUND:                -0.267
REMARK SMILES O=c1cc(-c2ccc(O)c(O)c2)oc2cc(O)cc(O)c12
REMARK SMILES IDX 4 1 3 2 2 3 1 4 21 5 19 6 18 7 16 8 15 9 14 10 13 11 5 12
REMARK SMILES IDX 6 13 7 14 8 15 12 16 10 17 9 18 11 20 20 22 17 24
REMARK H PARENT 9 19 11 21 20 23 17 25
REMARK Flexibility Score: inf
ROOT
ATOM      1  C   UNL     1      18.338  -1.222 -16.586  1.00  0.00     0.138 A 
ATOM      2  C   UNL     1      17.495  -0.401 -15.822  1.00  0.00     0.100 A 
ATOM      3  C   UNL     1      16.745  -0.957 -14.785  1.00  0.00     0.197 A 
ATOM      4  O   UNL     1      15.952  -0.208 -14.159  1.00  0.00    -0.289 OA
ATOM      5  C   UNL     1      16.864  -2.336 -14.491  1.00  0.00     0.107 A 
ATOM      6  C   UNL     1      16.180  -3.003 -13.431  1.00  0.00     0.134 A 
ATOM      7  C   UNL     1      16.287  -4.394 -13.309  1.00  0.00     0.093 A 
ATOM      8  C   UNL     1      17.100  -5.133 -14.172  1.00  0.00     0.123 A 
ATOM      9  C   UNL     1      17.814  -4.484 -15.176  1.00  0.00     0.094 A 
ATOM     10  C   UNL     1      17.702  -3.102 -15.345  1.00  0.00     0.146 A 
ATOM     11  O   UNL     1      18.389  -2.524 -16.325  1.00  0.00    -0.456 OA
ENDROOT
BRANCH   1  12
ATOM     12  C   UNL     1      19.157  -0.683 -17.700  1.00  0.00     0.021 A 
ATOM     13  C   UNL     1      18.833  -1.022 -19.024  1.00  0.00     0.016 A 
ATOM     14  C   UNL     1      19.595  -0.535 -20.090  1.00  0.00     0.051 A 
ATOM     15  C   UNL     1      20.699   0.292 -19.850  1.00  0.00     0.157 A 
ATOM     16  C   UNL     1      20.278   0.139 -17.464  1.00  0.00     0.062 A 
ATOM     17  C   UNL     1      21.043   0.627 -18.530  1.00  0.00     0.158 A 
BRANCH  15  18
ATOM     18  O   UNL     1      21.454   0.778 -20.915  1.00  0.00    -0.504 OA
ATOM     19  H   UNL     1      21.272   0.491 -21.870  1.00  0.00     0.293 HD
ENDBRANCH  15  18
BRANCH  17  20
ATOM     20  O   UNL     1      22.144   1.439 -18.258  1.00  0.00    -0.504 OA
ATOM     21  H   UNL     1      22.301   2.313 -18.743  1.00  0.00     0.293 HD
ENDBRANCH  17  20
ENDBRANCH   1  12
BRANCH   6  22
ATOM     22  O   UNL     1      15.410  -2.349 -12.464  1.00  0.00    -0.507 OA
ATOM     23  H   UNL     1      15.784  -1.835 -11.681  1.00  0.00     0.293 HD
ENDBRANCH   6  22
BRANCH   8  24
ATOM     24  O   UNL     1      17.212  -6.515 -14.033  1.00  0.00    -0.508 OA
ATOM     25  H   UNL     1      17.718  -7.077 -14.707  1.00  0.00     0.293 HD
ENDBRANCH   8  24
TORSDOF 5
ENDMDL
MODEL 3
REMARK VINA RESULT:    -6.063     11.506     13.632
REMARK INTER + INTRA:          -7.393
REMARK INTER:                  -7.122
REMARK INTRA:                  -0.271
REMARK UNBOUND:                -0.267
REMARK SMILES O=c1cc(-c2ccc(O)c(O)c2)oc2cc(O)cc(O)c12
REMARK SMILES IDX 4 1 3 2 2 3 1 4 21 5 19 6 18 7 16 8 15 9 14 10 13 11 5 12
REMARK SMILES IDX 6 13 7 14 8 15 12 16 10 17 9 18 11 20 20 22 17 24
REMARK H PARENT 9 19 11 21 20 23 17 25
REMARK Flexibility Score: inf
ROOT
ATOM      1  C   UNL     1      17.572   0.009 -15.266  1.00  0.00     0.138 A 
ATOM      2  C   UNL     1      18.647   0.730 -14.727  1.00  0.00     0.100 A 
ATOM      3  C   UNL     1      19.799   0.923 -15.490  1.00  0.00     0.197 A 
ATOM      4  O   UNL     1      20.770   1.521 -14.957  1.00  0.00    -0.289 OA
ATOM      5  C   UNL     1      19.863   0.418 -16.810  1.00  0.00     0.107 A 
ATOM      6  C   UNL     1      20.970   0.591 -17.694  1.00  0.00     0.134 A 
ATOM      7  C   UNL     1      20.967  -0.054 -18.937  1.00  0.00     0.093 A 
ATOM      8  C   UNL     1      19.871  -0.814 -19.352  1.00  0.00     0.123 A 
ATOM      9  C   UNL     1      18.763  -0.944 -18.518  1.00  0.00     0.094 A 
ATOM     10  C   UNL     1      18.750  -0.341 -17.258  1.00  0.00     0.146 A 
ATOM     11  O   UNL     1      17.678  -0.502 -16.488  1.00  0.00    -0.456 OA
ENDROOT
BRANCH   1  12
ATOM     12  C   UNL     1      16.322  -0.226 -14.500  1.00  0.00     0.021 A 
ATOM     13  C   UNL     1      16.325  -1.144 -13.437  1.00  0.00     0.016 A 
ATOM     14  C   UNL     1      15.159  -1.388 -12.706  1.00  0.00     0.051 A 
ATOM     15  C   UNL     1      13.969  -0.727 -13.031  1.00  0.00     0.157 A 
ATOM     16  C   UNL     1      15.118   0.428 -14.830  1.00  0.00     0.062 A 
ATOM     17  C   UNL     1      13.949   0.183 -14.101  1.00  0.00     0.158 A 
BRANCH  15  18
ATOM     18  O   UNL     1      12.809  -0.971 -12.297  1.00  0.00    -0.504 OA
ATOM     19  H   UNL     1      12.698  -1.813 -11.744  1.00  0.00     0.293 HD
ENDBRANCH  15  18
BRANCH  17  20
ATOM     20  O   UNL     1      12.776   0.849 -14.456  1.00  0.00    -0.504 OA
ATOM     21  H   UNL     1      11.864   0.422 -14.360  1.00  0.00     0.293 HD
ENDBRANCH  17  20
ENDBRANCH   1  12
BRANCH   6  22
ATOM     22  O   UNL     1      22.076   1.397 -17.412  1.00  0.00    -0.507 OA
ATOM     23  H   UNL     1      22.726   1.241 -16.656  1.00  0.00     0.293 HD
ENDBRANCH   6  22
BRANCH   8  24
ATOM     24  O   UNL     1      19.871  -1.440 -20.598  1.00  0.00    -0.508 OA
ATOM     25  H   UNL     1      20.045  -2.433 -20.692  1.00  0.00     0.293 HD
ENDBRANCH   8  24
TORSDOF 5
ENDMDL
MODEL 4
REMARK VINA RESULT:    -6.022      2.134      7.034
REMARK INTER + INTRA:          -7.345
REMARK INTER:                  -7.050
REMARK INTRA:                  -0.295
REMARK UNBOUND:                -0.267
REMARK SMILES O=c1cc(-c2ccc(O)c(O)c2)oc2cc(O)cc(O)c12
REMARK SMILES IDX 4 1 3 2 2 3 1 4 21 5 19 6 18 7 16 8 15 9 14 10 13 11 5 12
REMARK SMILES IDX 6 13 7 14 8 15 12 16 10 17 9 18 11 20 20 22 17 24
REMARK H PARENT 9 19 11 21 20 23 17 25
REMARK Flexibility Score: inf
ROOT
ATOM      1  C   UNL     1      10.781  -6.857  -9.169  1.00  0.00     0.138 A 
ATOM      2  C   UNL     1       9.891  -7.924  -9.359  1.00  0.00     0.100 A 
ATOM      3  C   UNL     1       8.850  -8.123  -8.452  1.00  0.00     0.197 A 
ATOM      4  O   UNL     1       8.106  -9.125  -8.614  1.00  0.00    -0.289 OA
ATOM      5  C   UNL     1       8.681  -7.232  -7.367  1.00  0.00     0.107 A 
ATOM      6  C   UNL     1       7.631  -7.313  -6.403  1.00  0.00     0.134 A 
ATOM      7  C   UNL     1       7.633  -6.443  -5.306  1.00  0.00     0.093 A 
ATOM      8  C   UNL     1       8.613  -5.457  -5.170  1.00  0.00     0.123 A 
ATOM      9  C   UNL     1       9.611  -5.334  -6.133  1.00  0.00     0.094 A 
ATOM     10  C   UNL     1       9.656  -6.209  -7.222  1.00  0.00     0.146 A 
ATOM     11  O   UNL     1      10.634  -6.067  -8.111  1.00  0.00    -0.456 OA
ENDROOT
BRANCH   1  12
ATOM     12  C   UNL     1      11.905  -6.597 -10.103  1.00  0.00     0.021 A 
ATOM     13  C   UNL     1      12.594  -5.374 -10.035  1.00  0.00     0.016 A 
ATOM     14  C   UNL     1      13.650  -5.103 -10.908  1.00  0.00     0.051 A 
ATOM     15  C   UNL     1      14.031  -6.046 -11.871  1.00  0.00     0.157 A 
ATOM     16  C   UNL     1      12.286  -7.536 -11.083  1.00  0.00     0.062 A 
ATOM     17  C   UNL     1      13.342  -7.267 -11.960  1.00  0.00     0.158 A 
BRANCH  15  18
ATOM     18  O   UNL     1      15.087  -5.772 -12.739  1.00  0.00    -0.504 OA
ATOM     19  H   UNL     1      14.944  -5.273 -13.609  1.00  0.00     0.293 HD
ENDBRANCH  15  18
BRANCH  17  20
ATOM     20  O   UNL     1      13.690  -8.221 -12.916  1.00  0.00    -0.504 OA
ATOM     21  H   UNL     1      14.593  -8.678 -12.916  1.00  0.00     0.293 HD
ENDBRANCH  17  20
ENDBRANCH   1  12
BRANCH   6  22
ATOM     22  O   UNL     1       6.558  -8.205  -6.491  1.00  0.00    -0.507 OA
ATOM     23  H   UNL     1       5.786  -8.243  -5.843  1.00  0.00     0.293 HD
ENDBRANCH   6  22
BRANCH   8  24
ATOM     24  O   UNL     1       8.598  -4.586  -4.081  1.00  0.00    -0.508 OA
ATOM     25  H   UNL     1       7.861  -4.618  -3.387  1.00  0.00     0.293 HD
ENDBRANCH   8  24
TORSDOF 5
ENDMDL
MODEL 5
REMARK VINA RESULT:    -5.901      2.341      6.864
REMARK INTER + INTRA:          -7.203
REMARK INTER:                  -6.936
REMARK INTRA:                  -0.267
REMARK UNBOUND:                -0.267
REMARK SMILES O=c1cc(-c2ccc(O)c(O)c2)oc2cc(O)cc(O)c12
REMARK SMILES IDX 4 1 3 2 2 3 1 4 21 5 19 6 18 7 16 8 15 9 14 10 13 11 5 12
REMARK SMILES IDX 6 13 7 14 8 15 12 16 10 17 9 18 11 20 20 22 17 24
REMARK H PARENT 9 19 11 21 20 23 17 25
REMARK Flexibility Score: inf
ROOT
ATOM      1  C   UNL     1      10.398  -6.265 -10.343  1.00  0.00     0.138 A 
ATOM      2  C   UNL     1       9.464  -5.454 -11.003  1.00  0.00     0.100 A 
ATOM      3  C   UNL     1       8.348  -4.981 -10.309  1.00  0.00     0.197 A 
ATOM      4  O   UNL     1       7.497  -4.307 -10.944  1.00  0.00    -0.289 OA
ATOM      5  C   UNL     1       8.185  -5.298  -8.940  1.00  0.00     0.107 A 
ATOM      6  C   UNL     1       7.109  -4.839  -8.122  1.00  0.00     0.134 A 
ATOM      7  C   UNL     1       6.989  -5.313  -6.810  1.00  0.00     0.093 A 
ATOM      8  C   UNL     1       7.939  -6.182  -6.268  1.00  0.00     0.123 A 
ATOM      9  C   UNL     1       9.022  -6.594  -7.041  1.00  0.00     0.094 A 
ATOM     10  C   UNL     1       9.151  -6.166  -8.365  1.00  0.00     0.146 A 
ATOM     11  O   UNL     1      10.191  -6.594  -9.072  1.00  0.00    -0.456 OA
ENDROOT
BRANCH   1  12
ATOM     12  C   UNL     1      11.601  -6.794 -11.032  1.00  0.00     0.021 A 
ATOM     13  C   UNL     1      11.602  -8.117 -11.506  1.00  0.00     0.016 A 
ATOM     14  C   UNL     1      12.726  -8.640 -12.151  1.00  0.00     0.051 A 
ATOM     15  C   UNL     1      13.872  -7.855 -12.323  1.00  0.00     0.157 A 
ATOM     16  C   UNL     1      12.763  -6.013 -11.197  1.00  0.00     0.062 A 
ATOM     17  C   UNL     1      13.890  -6.536 -11.841  1.00  0.00     0.158 A 
BRANCH  15  18
ATOM     18  O   UNL     1      14.990  -8.380 -12.969  1.00  0.00    -0.504 OA
ATOM     19  H   UNL     1      15.670  -7.783 -13.424  1.00  0.00     0.293 HD
ENDBRANCH  15  18
BRANCH  17  20
ATOM     20  O   UNL     1      15.021  -5.733 -11.987  1.00  0.00    -0.504 OA
ATOM     21  H   UNL     1      14.956  -4.740 -12.174  1.00  0.00     0.293 HD
ENDBRANCH  17  20
ENDBRANCH   1  12
BRANCH   6  22
ATOM     22  O   UNL     1       6.155  -3.905  -8.538  1.00  0.00    -0.507 OA
ATOM     23  H   UNL     1       6.084  -2.961  -8.193  1.00  0.00     0.293 HD
ENDBRANCH   6  22
BRANCH   8  24
ATOM     24  O   UNL     1       7.819  -6.637  -4.956  1.00  0.00    -0.508 OA
ATOM     25  H   UNL     1       8.021  -6.036  -4.166  1.00  0.00     0.293 HD
ENDBRANCH   8  24
TORSDOF 5
ENDMDL
MODEL 6
REMARK VINA RESULT:    -5.862      7.871      9.417
REMARK INTER + INTRA:          -7.157
REMARK INTER:                  -6.872
REMARK INTRA:                  -0.285
REMARK UNBOUND:                -0.267
REMARK SMILES O=c1cc(-c2ccc(O)c(O)c2)oc2cc(O)cc(O)c12
REMARK SMILES IDX 4 1 3 2 2 3 1 4 21 5 19 6 18 7 16 8 15 9 14 10 13 11 5 12
REMARK SMILES IDX 6 13 7 14 8 15 12 16 10 17 9 18 11 20 20 22 17 24
REMARK H PARENT 9 19 11 21 20 23 17 25
REMARK Flexibility Score: inf
ROOT
ATOM      1  C   UNL     1      16.843  -3.843 -11.553  1.00  0.00     0.138 A 
ATOM      2  C   UNL     1      15.817  -4.784 -11.380  1.00  0.00     0.100 A 
ATOM      3  C   UNL     1      15.478  -5.636 -12.431  1.00  0.00     0.197 A 
ATOM      4  O   UNL     1      14.513  -6.427 -12.266  1.00  0.00    -0.289 OA
ATOM      5  C   UNL     1      16.191  -5.567 -13.651  1.00  0.00     0.107 A 
ATOM      6  C   UNL     1      15.961  -6.414 -14.777  1.00  0.00     0.134 A 
ATOM      7  C   UNL     1      16.650  -6.176 -15.972  1.00  0.00     0.093 A 
ATOM      8  C   UNL     1      17.605  -5.160 -16.063  1.00  0.00     0.123 A 
ATOM      9  C   UNL     1      17.876  -4.363 -14.954  1.00  0.00     0.094 A 
ATOM     10  C   UNL     1      17.180  -4.554 -13.757  1.00  0.00     0.146 A 
ATOM     11  O   UNL     1      17.459  -3.761 -12.727  1.00  0.00    -0.456 OA
ENDROOT
BRANCH   1  12
ATOM     12  C   UNL     1      17.245  -2.913 -10.469  1.00  0.00     0.021 A 
ATOM     13  C   UNL     1      17.648  -1.606 -10.792  1.00  0.00     0.016 A 
ATOM     14  C   UNL     1      18.039  -0.714  -9.790  1.00  0.00     0.051 A 
ATOM     15  C   UNL     1      18.042  -1.115  -8.448  1.00  0.00     0.157 A 
ATOM     16  C   UNL     1      17.262  -3.313  -9.117  1.00  0.00     0.062 A 
ATOM     17  C   UNL     1      17.655  -2.422  -8.112  1.00  0.00     0.158 A 
BRANCH  15  18
ATOM     18  O   UNL     1      18.430  -0.221  -7.452  1.00  0.00    -0.504 OA
ATOM     19  H   UNL     1      18.785   0.702  -7.674  1.00  0.00     0.293 HD
ENDBRANCH  15  18
BRANCH  17  20
ATOM     20  O   UNL     1      17.658  -2.855  -6.786  1.00  0.00    -0.504 OA
ATOM     21  H   UNL     1      17.515  -3.825  -6.536  1.00  0.00     0.293 HD
ENDBRANCH  17  20
ENDBRANCH   1  12
BRANCH   6  22
ATOM     22  O   UNL     1      15.091  -7.509 -14.765  1.00  0.00    -0.507 OA
ATOM     23  H   UNL     1      14.127  -7.482 -15.058  1.00  0.00     0.293 HD
ENDBRANCH   6  22
BRANCH   8  24
ATOM     24  O   UNL     1      18.297  -4.940 -17.253  1.00  0.00    -0.508 OA
ATOM     25  H   UNL     1      19.289  -5.126 -17.331  1.00  0.00     0.293 HD
ENDBRANCH   8  24
TORSDOF 5
ENDMDL
MODEL 7
REMARK VINA RESULT:    -5.860     11.185     14.759
REMARK INTER + INTRA:          -7.154
REMARK INTER:                  -6.887
REMARK INTRA:                  -0.267
REMARK UNBOUND:                -0.267
REMARK SMILES O=c1cc(-c2ccc(O)c(O)c2)oc2cc(O)cc(O)c12
REMARK SMILES IDX 4 1 3 2 2 3 1 4 21 5 19 6 18 7 16 8 15 9 14 10 13 11 5 12
REMARK SMILES IDX 6 13 7 14 8 15 12 16 10 17 9 18 11 20 20 22 17 24
REMARK H PARENT 9 19 11 21 20 23 17 25
REMARK Flexibility Score: inf
ROOT
ATOM      1  C   UNL     1      18.195  -0.978 -16.485  1.00  0.00     0.138 A 
ATOM      2  C   UNL     1      18.288  -2.263 -15.931  1.00  0.00     0.100 A 
ATOM      3  C   UNL     1      17.449  -2.622 -14.875  1.00  0.00     0.197 A 
ATOM      4  O   UNL     1      17.598  -3.760 -14.359  1.00  0.00    -0.289 OA
ATOM      5  C   UNL     1      16.491  -1.699 -14.393  1.00  0.00     0.107 A 
ATOM      6  C   UNL     1      15.556  -1.969 -13.349  1.00  0.00     0.134 A 
ATOM      7  C   UNL     1      14.734  -0.939 -12.876  1.00  0.00     0.093 A 
ATOM      8  C   UNL     1      14.771   0.334 -13.451  1.00  0.00     0.123 A 
ATOM      9  C   UNL     1      15.642   0.593 -14.506  1.00  0.00     0.094 A 
ATOM     10  C   UNL     1      16.499  -0.405 -14.977  1.00  0.00     0.146 A 
ATOM     11  O   UNL     1      17.326  -0.112 -15.976  1.00  0.00    -0.456 OA
ENDROOT
BRANCH   1  12
ATOM     12  C   UNL     1      19.062  -0.545 -17.609  1.00  0.00     0.021 A 
ATOM     13  C   UNL     1      18.747  -0.943 -18.919  1.00  0.00     0.016 A 
ATOM     14  C   UNL     1      19.553  -0.555 -19.993  1.00  0.00     0.051 A 
ATOM     15  C   UNL     1      20.691   0.231 -19.776  1.00  0.00     0.157 A 
ATOM     16  C   UNL     1      20.216   0.236 -17.396  1.00  0.00     0.062 A 
ATOM     17  C   UNL     1      21.025   0.625 -18.469  1.00  0.00     0.158 A 
BRANCH  15  18
ATOM     18  O   UNL     1      21.490   0.619 -20.850  1.00  0.00    -0.504 OA
ATOM     19  H   UNL     1      22.495   0.705 -20.761  1.00  0.00     0.293 HD
ENDBRANCH  15  18
BRANCH  17  20
ATOM     20  O   UNL     1      22.158   1.398 -18.219  1.00  0.00    -0.504 OA
ATOM     21  H   UNL     1      22.234   1.995 -17.406  1.00  0.00     0.293 HD
ENDBRANCH  17  20
ENDBRANCH   1  12
BRANCH   6  22
ATOM     22  O   UNL     1      15.379  -3.226 -12.765  1.00  0.00    -0.507 OA
ATOM     23  H   UNL     1      16.126  -3.859 -12.520  1.00  0.00     0.293 HD
ENDBRANCH   6  22
BRANCH   8  24
ATOM     24  O   UNL     1      13.938   1.349 -12.983  1.00  0.00    -0.508 OA
ATOM     25  H   UNL     1      13.282   1.191 -12.228  1.00  0.00     0.293 HD
ENDBRANCH   8  24
TORSDOF 5
ENDMDL
MODEL 8
REMARK VINA RESULT:    -5.851     10.142     13.502
REMARK INTER + INTRA:          -7.144
REMARK INTER:                  -6.860
REMARK INTRA:                  -0.284
REMARK UNBOUND:                -0.267
REMARK SMILES O=c1cc(-c2ccc(O)c(O)c2)oc2cc(O)cc(O)c12
REMARK SMILES IDX 4 1 3 2 2 3 1 4 21 5 19 6 18 7 16 8 15 9 14 10 13 11 5 12
REMARK SMILES IDX 6 13 7 14 8 15 12 16 10 17 9 18 11 20 20 22 17 24
REMARK H PARENT 9 19 11 21 20 23 17 25
REMARK Flexibility Score: inf
ROOT
ATOM      1  C   UNL     1      17.406  -0.682 -15.251  1.00  0.00     0.138 A 
ATOM      2  C   UNL     1      16.516   0.300 -14.791  1.00  0.00     0.100 A 
ATOM      3  C   UNL     1      15.463  -0.062 -13.950  1.00  0.00     0.197 A 
ATOM      4  O   UNL     1      14.646   0.831 -13.605  1.00  0.00    -0.289 OA
ATOM      5  C   UNL     1      15.318  -1.409 -13.543  1.00  0.00     0.107 A 
ATOM      6  C   UNL     1      14.307  -1.886 -12.656  1.00  0.00     0.134 A 
ATOM      7  C   UNL     1      14.193  -3.261 -12.416  1.00  0.00     0.093 A 
ATOM      8  C   UNL     1      15.090  -4.169 -12.985  1.00  0.00     0.123 A 
ATOM      9  C   UNL     1      16.113  -3.708 -13.809  1.00  0.00     0.094 A 
ATOM     10  C   UNL     1      16.233  -2.346 -14.094  1.00  0.00     0.146 A 
ATOM     11  O   UNL     1      17.215  -1.949 -14.898  1.00  0.00    -0.456 OA
ENDROOT
BRANCH   1  12
ATOM     12  C   UNL     1      18.543  -0.353 -16.145  1.00  0.00     0.021 A 
ATOM     13  C   UNL     1      19.444   0.659 -15.776  1.00  0.00     0.016 A 
ATOM     14  C   UNL     1      20.518   0.993 -16.605  1.00  0.00     0.051 A 
ATOM     15  C   UNL     1      20.705   0.327 -17.823  1.00  0.00     0.157 A 
ATOM     16  C   UNL     1      18.729  -1.011 -17.378  1.00  0.00     0.062 A 
ATOM     17  C   UNL     1      19.803  -0.677 -18.211  1.00  0.00     0.158 A 
BRANCH  15  18
ATOM     18  O   UNL     1      21.779   0.661 -18.646  1.00  0.00    -0.504 OA
ATOM     19  H   UNL     1      22.178   1.593 -18.647  1.00  0.00     0.293 HD
ENDBRANCH  15  18
BRANCH  17  20
ATOM     20  O   UNL     1      19.955  -1.350 -19.424  1.00  0.00    -0.504 OA
ATOM     21  H   UNL     1      20.681  -2.041 -19.568  1.00  0.00     0.293 HD
ENDBRANCH  17  20
ENDBRANCH   1  12
BRANCH   6  22
ATOM     22  O   UNL     1      13.415  -1.057 -11.970  1.00  0.00    -0.507 OA
ATOM     23  H   UNL     1      12.831  -0.357 -12.402  1.00  0.00     0.293 HD
ENDBRANCH   6  22
BRANCH   8  24
ATOM     24  O   UNL     1      14.976  -5.535 -12.728  1.00  0.00    -0.508 OA
ATOM     25  H   UNL     1      14.140  -5.929 -12.315  1.00  0.00     0.293 HD
ENDBRANCH   8  24
TORSDOF 5
ENDMDL
MODEL 9
REMARK VINA RESULT:    -5.816      3.302      6.671
REMARK INTER + INTRA:          -7.103
REMARK INTER:                  -6.821
REMARK INTRA:                  -0.282
REMARK UNBOUND:                -0.267
REMARK SMILES O=c1cc(-c2ccc(O)c(O)c2)oc2cc(O)cc(O)c12
REMARK SMILES IDX 4 1 3 2 2 3 1 4 21 5 19 6 18 7 16 8 15 9 14 10 13 11 5 12
REMARK SMILES IDX 6 13 7 14 8 15 12 16 10 17 9 18 11 20 20 22 17 24
REMARK H PARENT 9 19 11 21 20 23 17 25
REMARK Flexibility Score: inf
ROOT
ATOM      1  C   UNL     1      11.935  -6.244 -10.608  1.00  0.00     0.138 A 
ATOM      2  C   UNL     1      11.525  -6.155  -9.270  1.00  0.00     0.100 A 
ATOM      3  C   UNL     1      10.246  -6.583  -8.911  1.00  0.00     0.197 A 
ATOM      4  O   UNL     1       9.885  -6.432  -7.715  1.00  0.00    -0.289 OA
ATOM      5  C   UNL     1       9.386  -7.130  -9.891  1.00  0.00     0.107 A 
ATOM      6  C   UNL     1       8.076  -7.636  -9.632  1.00  0.00     0.134 A 
ATOM      7  C   UNL     1       7.272  -8.047 -10.702  1.00  0.00     0.093 A 
ATOM      8  C   UNL     1       7.752  -8.028 -12.014  1.00  0.00     0.123 A 
ATOM      9  C   UNL     1       9.047  -7.586 -12.271  1.00  0.00     0.094 A 
ATOM     10  C   UNL     1       9.862  -7.138 -11.229  1.00  0.00     0.146 A 
ATOM     11  O   UNL     1      11.087  -6.711 -11.519  1.00  0.00    -0.456 OA
ENDROOT
BRANCH   1  12
ATOM     12  C   UNL     1      13.283  -5.805 -11.046  1.00  0.00     0.021 A 
ATOM     13  C   UNL     1      13.969  -6.547 -12.023  1.00  0.00     0.016 A 
ATOM     14  C   UNL     1      15.244  -6.158 -12.445  1.00  0.00     0.051 A 
ATOM     15  C   UNL     1      15.858  -5.028 -11.893  1.00  0.00     0.157 A 
ATOM     16  C   UNL     1      13.913  -4.676 -10.485  1.00  0.00     0.062 A 
ATOM     17  C   UNL     1      15.190  -4.286 -10.905  1.00  0.00     0.158 A 
BRANCH  15  18
ATOM     18  O   UNL     1      17.128  -4.643 -12.319  1.00  0.00    -0.504 OA
ATOM     19  H   UNL     1      17.394  -3.667 -12.382  1.00  0.00     0.293 HD
ENDBRANCH  15  18
BRANCH  17  20
ATOM     20  O   UNL     1      15.780  -3.162 -10.328  1.00  0.00    -0.504 OA
ATOM     21  H   UNL     1      15.893  -2.293 -10.834  1.00  0.00     0.293 HD
ENDBRANCH  17  20
ENDBRANCH   1  12
BRANCH   6  22
ATOM     22  O   UNL     1       7.532  -7.778  -8.352  1.00  0.00    -0.507 OA
ATOM     23  H   UNL     1       7.881  -7.320  -7.524  1.00  0.00     0.293 HD
ENDBRANCH   6  22
BRANCH   8  24
ATOM     24  O   UNL     1       6.948  -8.453 -13.071  1.00  0.00    -0.508 OA
ATOM     25  H   UNL     1       7.122  -8.154 -14.022  1.00  0.00     0.293 HD
ENDBRANCH   8  24
TORSDOF 5
ENDMDL
