MODEL 1
REMARK VINA RESULT:    -3.473      0.000      0.000
REMARK INTER + INTRA:          -5.325
REMARK INTER:                  -4.691
REMARK INTRA:                  -0.634
REMARK UNBOUND:                -0.634
REMARK SMILES C[C@H](O)[C@H](O)[C@H](O)[C@H](O)C=O
REMARK SMILES IDX 4 1 2 2 1 3 3 4 6 6 8 7 10 8 11 9 9 10 7 12 5 14
REMARK H PARENT 3 5 9 11 7 13 5 15
REMARK Flexibility Score: inf
ROOT
ATOM      1  C   UNL     1      -1.861   6.198  15.634  1.00  0.00     0.174 C 
ENDROOT
BRANCH   1   2
ATOM      2  C   UNL     1      -1.600   7.162  16.818  1.00  0.00     0.142 C 
ATOM      3  C   UNL     1      -2.873   7.391  17.642  1.00  0.00     0.041 C 
BRANCH   2   4
ATOM      4  O   UNL     1      -1.143   8.400  16.334  1.00  0.00    -0.391 OA
ATOM      5  H   UNL     1      -1.779   8.685  15.627  1.00  0.00     0.211 HD
ENDBRANCH   2   4
ENDBRANCH   1   2
BRANCH   1   6
ATOM      6  C   UNL     1      -0.536   5.711  14.989  1.00  0.00     0.181 C 
BRANCH   6   7
ATOM      7  C   UNL     1      -0.778   4.854  13.718  1.00  0.00     0.209 C 
BRANCH   7   8
ATOM      8  C   UNL     1       0.509   4.457  13.048  1.00  0.00     0.258 C 
ATOM      9  O   UNL     1       1.576   4.563  13.632  1.00  0.00    -0.300 OA
ENDBRANCH   7   8
BRANCH   7  10
ATOM     10  O   UNL     1      -1.496   3.692  14.044  1.00  0.00    -0.383 OA
ATOM     11  H   UNL     1      -2.168   3.952  14.729  1.00  0.00     0.211 HD
ENDBRANCH   7  10
ENDBRANCH   6   7
BRANCH   6  12
ATOM     12  O   UNL     1       0.275   6.815  14.671  1.00  0.00    -0.387 OA
ATOM     13  H   UNL     1       0.289   6.891  13.681  1.00  0.00     0.211 HD
ENDBRANCH   6  12
ENDBRANCH   1   6
BRANCH   1  14
ATOM     14  O   UNL     1      -2.580   5.080  16.097  1.00  0.00    -0.388 OA
ATOM     15  H   UNL     1      -1.960   4.540  16.655  1.00  0.00     0.211 HD
ENDBRANCH   1  14
TORSDOF 8
ENDMDL
MODEL 2
REMARK VINA RESULT:    -3.454      9.810     11.932
REMARK INTER + INTRA:          -5.299
REMARK INTER:                  -4.464
REMARK INTRA:                  -0.835
REMARK UNBOUND:                -0.634
REMARK SMILES C[C@H](O)[C@H](O)[C@H](O)[C@H](O)C=O
REMARK SMILES IDX 4 1 2 2 1 3 3 4 6 6 8 7 10 8 11 9 9 10 7 12 5 14
REMARK H PARENT 3 5 9 11 7 13 5 15
REMARK Flexibility Score: inf
ROOT
ATOM      1  C   UNL     1       7.154   5.278   8.035  1.00  0.00     0.174 C 
ENDROOT
BRANCH   1   2
ATOM      2  C   UNL     1       5.680   5.000   8.422  1.00  0.00     0.142 C 
ATOM      3  C   UNL     1       5.468   3.527   8.792  1.00  0.00     0.041 C 
BRANCH   2   4
ATOM      4  O   UNL     1       4.836   5.324   7.346  1.00  0.00    -0.391 OA
ATOM      5  H   UNL     1       5.366   5.883   6.721  1.00  0.00     0.211 HD
ENDBRANCH   2   4
ENDBRANCH   1   2
BRANCH   1   6
ATOM      6  C   UNL     1       7.784   4.078   7.279  1.00  0.00     0.181 C 
BRANCH   6   7
ATOM      7  C   UNL     1       7.924   4.346   5.757  1.00  0.00     0.209 C 
BRANCH   7   8
ATOM      8  C   UNL     1       8.882   3.391   5.098  1.00  0.00     0.258 C 
ATOM      9  O   UNL     1      10.061   3.682   4.965  1.00  0.00    -0.300 OA
ENDBRANCH   7   8
BRANCH   7  10
ATOM     10  O   UNL     1       6.673   4.240   5.127  1.00  0.00    -0.383 OA
ATOM     11  H   UNL     1       6.845   3.922   4.202  1.00  0.00     0.211 HD
ENDBRANCH   7  10
ENDBRANCH   6   7
BRANCH   6  12
ATOM     12  O   UNL     1       9.044   3.775   7.827  1.00  0.00    -0.387 OA
ATOM     13  H   UNL     1       9.716   3.930   7.113  1.00  0.00     0.211 HD
ENDBRANCH   6  12
ENDBRANCH   1   6
BRANCH   1  14
ATOM     14  O   UNL     1       7.210   6.416   7.209  1.00  0.00    -0.388 OA
ATOM     15  H   UNL     1       7.102   7.211   7.793  1.00  0.00     0.211 HD
ENDBRANCH   1  14
TORSDOF 8
ENDMDL
MODEL 3
REMARK VINA RESULT:    -3.452      9.927     11.439
REMARK INTER + INTRA:          -5.297
REMARK INTER:                  -4.600
REMARK INTRA:                  -0.697
REMARK UNBOUND:                -0.634
REMARK SMILES C[C@H](O)[C@H](O)[C@H](O)[C@H](O)C=O
REMARK SMILES IDX 4 1 2 2 1 3 3 4 6 6 8 7 10 8 11 9 9 10 7 12 5 14
REMARK H PARENT 3 5 9 11 7 13 5 15
REMARK Flexibility Score: inf
ROOT
ATOM      1  C   UNL     1       0.872  -4.824  15.077  1.00  0.00     0.174 C 
ENDROOT
BRANCH   1   2
ATOM      2  C   UNL     1       0.378  -3.406  14.698  1.00  0.00     0.142 C 
ATOM      3  C   UNL     1      -0.847  -3.469  13.778  1.00  0.00     0.041 C 
BRANCH   2   4
ATOM      4  O   UNL     1       1.403  -2.704  14.040  1.00  0.00    -0.391 OA
ATOM      5  H   UNL     1       1.243  -2.806  13.066  1.00  0.00     0.211 HD
ENDBRANCH   2   4
ENDBRANCH   1   2
BRANCH   1   6
ATOM      6  C   UNL     1       1.503  -4.850  16.495  1.00  0.00     0.181 C 
BRANCH   6   7
ATOM      7  C   UNL     1       2.100  -6.238  16.850  1.00  0.00     0.209 C 
BRANCH   7   8
ATOM      8  C   UNL     1       2.899  -6.203  18.125  1.00  0.00     0.258 C 
ATOM      9  O   UNL     1       4.059  -5.821  18.124  1.00  0.00    -0.300 OA
ENDBRANCH   7   8
BRANCH   7  10
ATOM     10  O   UNL     1       1.075  -7.189  16.985  1.00  0.00    -0.383 OA
ATOM     11  H   UNL     1       1.490  -8.005  17.371  1.00  0.00     0.211 HD
ENDBRANCH   7  10
ENDBRANCH   6   7
BRANCH   6  12
ATOM     12  O   UNL     1       2.501  -3.864  16.592  1.00  0.00    -0.387 OA
ATOM     13  H   UNL     1       2.246  -3.129  15.974  1.00  0.00     0.211 HD
ENDBRANCH   6  12
ENDBRANCH   1   6
BRANCH   1  14
ATOM     14  O   UNL     1      -0.216  -5.716  15.047  1.00  0.00    -0.388 OA
ATOM     15  H   UNL     1       0.029  -6.500  15.605  1.00  0.00     0.211 HD
ENDBRANCH   1  14
TORSDOF 8
ENDMDL
MODEL 4
REMARK VINA RESULT:    -3.450      1.025      4.812
REMARK INTER + INTRA:          -5.294
REMARK INTER:                  -4.605
REMARK INTRA:                  -0.689
REMARK UNBOUND:                -0.634
REMARK SMILES C[C@H](O)[C@H](O)[C@H](O)[C@H](O)C=O
REMARK SMILES IDX 4 1 2 2 1 3 3 4 6 6 8 7 10 8 11 9 9 10 7 12 5 14
REMARK H PARENT 3 5 9 11 7 13 5 15
REMARK Flexibility Score: inf
ROOT
ATOM      1  C   UNL     1      -1.080   5.755  14.557  1.00  0.00     0.174 C 
ENDROOT
BRANCH   1   2
ATOM      2  C   UNL     1      -0.530   4.329  14.302  1.00  0.00     0.142 C 
ATOM      3  C   UNL     1       0.585   4.341  13.249  1.00  0.00     0.041 C 
BRANCH   2   4
ATOM      4  O   UNL     1      -1.567   3.491  13.855  1.00  0.00    -0.391 OA
ATOM      5  H   UNL     1      -1.139   2.673  13.492  1.00  0.00     0.211 HD
ENDBRANCH   2   4
ENDBRANCH   1   2
BRANCH   1   6
ATOM      6  C   UNL     1      -1.715   5.880  15.967  1.00  0.00     0.181 C 
BRANCH   6   7
ATOM      7  C   UNL     1      -2.256   7.308  16.247  1.00  0.00     0.209 C 
BRANCH   7   8
ATOM      8  C   UNL     1      -3.087   7.364  17.499  1.00  0.00     0.258 C 
ATOM      9  O   UNL     1      -4.284   7.120  17.466  1.00  0.00    -0.300 OA
ENDBRANCH   7   8
BRANCH   7  10
ATOM     10  O   UNL     1      -1.191   8.216  16.369  1.00  0.00    -0.383 OA
ATOM     11  H   UNL     1      -0.431   7.837  15.853  1.00  0.00     0.211 HD
ENDBRANCH   7  10
ENDBRANCH   6   7
BRANCH   6  12
ATOM     12  O   UNL     1      -2.755   4.942  16.107  1.00  0.00    -0.387 OA
ATOM     13  H   UNL     1      -2.413   4.075  15.764  1.00  0.00     0.211 HD
ENDBRANCH   6  12
ENDBRANCH   1   6
BRANCH   1  14
ATOM     14  O   UNL     1      -0.027   6.683  14.449  1.00  0.00    -0.388 OA
ATOM     15  H   UNL     1      -0.417   7.588  14.566  1.00  0.00     0.211 HD
ENDBRANCH   1  14
TORSDOF 8
ENDMDL
MODEL 5
REMARK VINA RESULT:    -3.389      1.094      2.122
REMARK INTER + INTRA:          -5.212
REMARK INTER:                  -4.430
REMARK INTRA:                  -0.782
REMARK UNBOUND:                -0.634
REMARK SMILES C[C@H](O)[C@H](O)[C@H](O)[C@H](O)C=O
REMARK SMILES IDX 4 1 2 2 1 3 3 4 6 6 8 7 10 8 11 9 9 10 7 12 5 14
REMARK H PARENT 3 5 9 11 7 13 5 15
REMARK Flexibility Score: inf
ROOT
ATOM      1  C   UNL     1      -1.436   6.074  17.101  1.00  0.00     0.174 C 
ENDROOT
BRANCH   1   2
ATOM      2  C   UNL     1      -1.844   7.558  17.270  1.00  0.00     0.142 C 
ATOM      3  C   UNL     1      -3.352   7.749  17.060  1.00  0.00     0.041 C 
BRANCH   2   4
ATOM      4  O   UNL     1      -1.152   8.352  16.340  1.00  0.00    -0.391 OA
ATOM      5  H   UNL     1      -1.833   8.746  15.734  1.00  0.00     0.211 HD
ENDBRANCH   2   4
ENDBRANCH   1   2
BRANCH   1   6
ATOM      6  C   UNL     1      -1.704   5.566  15.659  1.00  0.00     0.181 C 
BRANCH   6   7
ATOM      7  C   UNL     1      -0.397   5.388  14.843  1.00  0.00     0.209 C 
BRANCH   7   8
ATOM      8  C   UNL     1      -0.622   4.611  13.574  1.00  0.00     0.258 C 
ATOM      9  O   UNL     1      -0.639   3.390  13.583  1.00  0.00    -0.300 OA
ENDBRANCH   7   8
BRANCH   7  10
ATOM     10  O   UNL     1       0.149   6.640  14.517  1.00  0.00    -0.383 OA
ATOM     11  H   UNL     1       1.105   6.615  14.785  1.00  0.00     0.211 HD
ENDBRANCH   7  10
ENDBRANCH   6   7
BRANCH   6  12
ATOM     12  O   UNL     1      -2.408   4.349  15.705  1.00  0.00    -0.387 OA
ATOM     13  H   UNL     1      -3.360   4.555  15.514  1.00  0.00     0.211 HD
ENDBRANCH   6  12
ENDBRANCH   1   6
BRANCH   1  14
ATOM     14  O   UNL     1      -0.064   5.936  17.383  1.00  0.00    -0.388 OA
ATOM     15  H   UNL     1       0.327   5.355  16.679  1.00  0.00     0.211 HD
ENDBRANCH   1  14
TORSDOF 8
ENDMDL
MODEL 6
REMARK VINA RESULT:    -3.374     12.850     14.633
REMARK INTER + INTRA:          -5.192
REMARK INTER:                  -4.343
REMARK INTRA:                  -0.849
REMARK UNBOUND:                -0.634
REMARK SMILES C[C@H](O)[C@H](O)[C@H](O)[C@H](O)C=O
REMARK SMILES IDX 4 1 2 2 1 3 3 4 6 6 8 7 10 8 11 9 9 10 7 12 5 14
REMARK H PARENT 3 5 9 11 7 13 5 15
REMARK Flexibility Score: inf
ROOT
ATOM      1  C   UNL     1      -7.159  -4.880   8.386  1.00  0.00     0.174 C 
ENDROOT
BRANCH   1   2
ATOM      2  C   UNL     1      -5.677  -4.590   8.730  1.00  0.00     0.142 C 
ATOM      3  C   UNL     1      -5.464  -3.112   9.081  1.00  0.00     0.041 C 
BRANCH   2   4
ATOM      4  O   UNL     1      -4.860  -4.918   7.635  1.00  0.00    -0.391 OA
ATOM      5  H   UNL     1      -4.474  -5.813   7.821  1.00  0.00     0.211 HD
ENDBRANCH   2   4
ENDBRANCH   1   2
BRANCH   1   6
ATOM      6  C   UNL     1      -7.793  -3.725   7.566  1.00  0.00     0.181 C 
BRANCH   6   7
ATOM      7  C   UNL     1      -7.996  -4.103   6.074  1.00  0.00     0.209 C 
BRANCH   7   8
ATOM      8  C   UNL     1      -8.907  -3.139   5.364  1.00  0.00     0.258 C 
ATOM      9  O   UNL     1     -10.112  -3.336   5.320  1.00  0.00    -0.300 OA
ENDBRANCH   7   8
BRANCH   7  10
ATOM     10  O   UNL     1      -6.760  -4.133   5.407  1.00  0.00    -0.383 OA
ATOM     11  H   UNL     1      -6.067  -3.895   6.078  1.00  0.00     0.211 HD
ENDBRANCH   7  10
ENDBRANCH   6   7
BRANCH   6  12
ATOM     12  O   UNL     1      -9.025  -3.355   8.135  1.00  0.00    -0.387 OA
ATOM     13  H   UNL     1      -9.703  -4.004   7.810  1.00  0.00     0.211 HD
ENDBRANCH   6  12
ENDBRANCH   1   6
BRANCH   1  14
ATOM     14  O   UNL     1      -7.236  -6.067   7.635  1.00  0.00    -0.388 OA
ATOM     15  H   UNL     1      -8.183  -6.181   7.357  1.00  0.00     0.211 HD
ENDBRANCH   1  14
TORSDOF 8
ENDMDL
MODEL 7
REMARK VINA RESULT:    -3.343      9.534     11.409
REMARK INTER + INTRA:          -5.150
REMARK INTER:                  -4.430
REMARK INTRA:                  -0.719
REMARK UNBOUND:                -0.634
REMARK SMILES C[C@H](O)[C@H](O)[C@H](O)[C@H](O)C=O
REMARK SMILES IDX 4 1 2 2 1 3 3 4 6 6 8 7 10 8 11 9 9 10 7 12 5 14
REMARK H PARENT 3 5 9 11 7 13 5 15
REMARK Flexibility Score: inf
ROOT
ATOM      1  C   UNL     1       1.679  -5.017  16.189  1.00  0.00     0.174 C 
ENDROOT
BRANCH   1   2
ATOM      2  C   UNL     1       1.723  -6.078  17.316  1.00  0.00     0.142 C 
ATOM      3  C   UNL     1       3.166  -6.465  17.662  1.00  0.00     0.041 C 
BRANCH   2   4
ATOM      4  O   UNL     1       1.028  -7.231  16.914  1.00  0.00    -0.391 OA
ATOM      5  H   UNL     1       0.577  -7.592  17.721  1.00  0.00     0.211 HD
ENDBRANCH   2   4
ENDBRANCH   1   2
BRANCH   1   6
ATOM      6  C   UNL     1       0.229  -4.759  15.701  1.00  0.00     0.181 C 
BRANCH   6   7
ATOM      7  C   UNL     1       0.062  -3.357  15.057  1.00  0.00     0.209 C 
BRANCH   7   8
ATOM      8  C   UNL     1      -0.892  -3.376  13.894  1.00  0.00     0.258 C 
ATOM      9  O   UNL     1      -2.072  -3.647  14.058  1.00  0.00    -0.300 OA
ENDBRANCH   7   8
BRANCH   7  10
ATOM     10  O   UNL     1      -0.404  -2.437  16.010  1.00  0.00    -0.383 OA
ATOM     11  H   UNL     1      -1.084  -1.872  15.555  1.00  0.00     0.211 HD
ENDBRANCH   7  10
ENDBRANCH   6   7
BRANCH   6  12
ATOM     12  O   UNL     1      -0.149  -5.754  14.780  1.00  0.00    -0.387 OA
ATOM     13  H   UNL     1       0.643  -6.335  14.638  1.00  0.00     0.211 HD
ENDBRANCH   6  12
ENDBRANCH   1   6
BRANCH   1  14
ATOM     14  O   UNL     1       2.218  -3.809  16.668  1.00  0.00    -0.388 OA
ATOM     15  H   UNL     1       2.031  -3.767  17.643  1.00  0.00     0.211 HD
ENDBRANCH   1  14
TORSDOF 8
ENDMDL
MODEL 8
REMARK VINA RESULT:    -3.270      8.371     10.489
REMARK INTER + INTRA:          -5.051
REMARK INTER:                  -4.364
REMARK INTRA:                  -0.687
REMARK UNBOUND:                -0.634
REMARK SMILES C[C@H](O)[C@H](O)[C@H](O)[C@H](O)C=O
REMARK SMILES IDX 4 1 2 2 1 3 3 4 6 6 8 7 10 8 11 9 9 10 7 12 5 14
REMARK H PARENT 3 5 9 11 7 13 5 15
REMARK Flexibility Score: inf
ROOT
ATOM      1  C   UNL     1       6.275   4.077   7.239  1.00  0.00     0.174 C 
ENDROOT
BRANCH   1   2
ATOM      2  C   UNL     1       7.486   4.900   7.743  1.00  0.00     0.142 C 
ATOM      3  C   UNL     1       8.279   4.131   8.807  1.00  0.00     0.041 C 
BRANCH   2   4
ATOM      4  O   UNL     1       7.042   6.112   8.297  1.00  0.00    -0.391 OA
ATOM      5  H   UNL     1       6.198   6.350   7.831  1.00  0.00     0.211 HD
ENDBRANCH   2   4
ENDBRANCH   1   2
BRANCH   1   6
ATOM      6  C   UNL     1       4.930   4.682   7.722  1.00  0.00     0.181 C 
BRANCH   6   7
ATOM      7  C   UNL     1       3.703   3.978   7.085  1.00  0.00     0.209 C 
BRANCH   7   8
ATOM      8  C   UNL     1       2.418   4.335   7.783  1.00  0.00     0.258 C 
ATOM      9  O   UNL     1       2.159   5.496   8.059  1.00  0.00    -0.300 OA
ENDBRANCH   7   8
BRANCH   7  10
ATOM     10  O   UNL     1       3.592   4.325   5.729  1.00  0.00    -0.383 OA
ATOM     11  H   UNL     1       3.959   5.244   5.637  1.00  0.00     0.211 HD
ENDBRANCH   7  10
ENDBRANCH   6   7
BRANCH   6  12
ATOM     12  O   UNL     1       4.848   4.604   9.125  1.00  0.00    -0.387 OA
ATOM     13  H   UNL     1       5.747   4.831   9.482  1.00  0.00     0.211 HD
ENDBRANCH   6  12
ENDBRANCH   1   6
BRANCH   1  14
ATOM     14  O   UNL     1       6.284   4.054   5.832  1.00  0.00    -0.388 OA
ATOM     15  H   UNL     1       6.652   4.924   5.524  1.00  0.00     0.211 HD
ENDBRANCH   1  14
TORSDOF 8
ENDMDL
MODEL 9
REMARK VINA RESULT:    -3.263      9.508     11.334
REMARK INTER + INTRA:          -5.041
REMARK INTER:                  -4.232
REMARK INTRA:                  -0.809
REMARK UNBOUND:                -0.634
REMARK SMILES C[C@H](O)[C@H](O)[C@H](O)[C@H](O)C=O
REMARK SMILES IDX 4 1 2 2 1 3 3 4 6 6 8 7 10 8 11 9 9 10 7 12 5 14
REMARK H PARENT 3 5 9 11 7 13 5 15
REMARK Flexibility Score: inf
ROOT
ATOM      1  C   UNL     1       7.607   4.951   7.398  1.00  0.00     0.174 C 
ENDROOT
BRANCH   1   2
ATOM      2  C   UNL     1       8.661   4.159   8.211  1.00  0.00     0.142 C 
ATOM      3  C   UNL     1       9.084   2.879   7.478  1.00  0.00     0.041 C 
BRANCH   2   4
ATOM      4  O   UNL     1       8.133   3.810   9.465  1.00  0.00    -0.391 OA
ATOM      5  H   UNL     1       8.407   2.873   9.643  1.00  0.00     0.211 HD
ENDBRANCH   2   4
ENDBRANCH   1   2
BRANCH   1   6
ATOM      6  C   UNL     1       6.391   4.065   7.021  1.00  0.00     0.181 C 
BRANCH   6   7
ATOM      7  C   UNL     1       5.089   4.514   7.736  1.00  0.00     0.209 C 
BRANCH   7   8
ATOM      8  C   UNL     1       3.859   3.931   7.095  1.00  0.00     0.258 C 
ATOM      9  O   UNL     1       3.468   4.336   6.011  1.00  0.00    -0.300 OA
ENDBRANCH   7   8
BRANCH   7  10
ATOM     10  O   UNL     1       5.119   4.132   9.087  1.00  0.00    -0.383 OA
ATOM     11  H   UNL     1       6.045   3.825   9.278  1.00  0.00     0.211 HD
ENDBRANCH   7  10
ENDBRANCH   6   7
BRANCH   6  12
ATOM     12  O   UNL     1       6.199   4.085   5.627  1.00  0.00    -0.387 OA
ATOM     13  H   UNL     1       5.227   4.215   5.469  1.00  0.00     0.211 HD
ENDBRANCH   6  12
ENDBRANCH   1   6
BRANCH   1  14
ATOM     14  O   UNL     1       7.156   6.042   8.165  1.00  0.00    -0.388 OA
ATOM     15  H   UNL     1       6.269   6.309   7.806  1.00  0.00     0.211 HD
ENDBRANCH   1  14
TORSDOF 8
ENDMDL
