MODEL 1
REMARK VINA RESULT:    -1.897      0.000      0.000
REMARK INTER + INTRA:          -1.897
REMARK INTER:                  -1.897
REMARK INTRA:                   0.000
REMARK UNBOUND:                 0.000
REMARK SMILES CC(=O)[O-]
REMARK SMILES IDX 1 1 2 2 3 3 4 4
REMARK H PARENT
REMARK Flexibility Score: inf
ROOT
ATOM      1  C   UNL     1      34.997   5.375 -33.000  1.00  0.00     0.063 C 
ATOM      2  C   UNL     1      35.379   5.717 -31.599  1.00  0.00     0.038 C 
ATOM      3  O   UNL     1      34.984   4.998 -30.644  1.00  0.00    -0.550 OA
ATOM      4  O   UNL     1      36.125   6.859 -31.340  1.00  0.00    -0.550 OA
ENDROOT
TORSDOF 0
ENDMDL
MODEL 2
REMARK VINA RESULT:    -1.872      1.491      1.821
REMARK INTER + INTRA:          -1.872
REMARK INTER:                  -1.872
REMARK INTRA:                   0.000
REMARK UNBOUND:                 0.000
REMARK SMILES CC(=O)[O-]
REMARK SMILES IDX 1 1 2 2 3 3 4 4
REMARK H PARENT
REMARK Flexibility Score: inf
ROOT
ATOM      1  C   UNL     1      35.943   6.576 -31.194  1.00  0.00     0.063 C 
ATOM      2  C   UNL     1      35.224   5.540 -31.990  1.00  0.00     0.038 C 
ATOM      3  O   UNL     1      34.514   4.678 -31.410  1.00  0.00    -0.550 OA
ATOM      4  O   UNL     1      35.379   5.490 -33.370  1.00  0.00    -0.550 OA
ENDROOT
TORSDOF 0
ENDMDL
MODEL 3
REMARK VINA RESULT:    -1.861      1.705      2.064
REMARK INTER + INTRA:          -1.861
REMARK INTER:                  -1.861
REMARK INTRA:                   0.000
REMARK UNBOUND:                 0.000
REMARK SMILES CC(=O)[O-]
REMARK SMILES IDX 1 1 2 2 3 3 4 4
REMARK H PARENT
REMARK Flexibility Score: inf
ROOT
ATOM      1  C   UNL     1      33.845   4.447 -33.044  1.00  0.00     0.063 C 
ATOM      2  C   UNL     1      35.037   5.321 -32.848  1.00  0.00     0.038 C 
ATOM      3  O   UNL     1      35.754   5.641 -33.833  1.00  0.00    -0.550 OA
ATOM      4  O   UNL     1      35.392   5.741 -31.572  1.00  0.00    -0.550 OA
ENDROOT
TORSDOF 0
ENDMDL
MODEL 4
REMARK VINA RESULT:    -1.856     21.820     22.075
REMARK INTER + INTRA:          -1.856
REMARK INTER:                  -1.856
REMARK INTRA:                   0.000
REMARK UNBOUND:                 0.000
REMARK SMILES CC(=O)[O-]
REMARK SMILES IDX 1 1 2 2 3 3 4 4
REMARK H PARENT
REMARK Flexibility Score: inf
ROOT
ATOM      1  C   UNL     1      17.402  -7.168 -26.896  1.00  0.00     0.063 C 
ATOM      2  C   UNL     1      17.573  -5.973 -26.021  1.00  0.00     0.038 C 
ATOM      3  O   UNL     1      16.896  -4.934 -26.232  1.00  0.00    -0.550 OA
ATOM      4  O   UNL     1      18.520  -5.984 -25.004  1.00  0.00    -0.550 OA
ENDROOT
TORSDOF 0
ENDMDL
MODEL 5
REMARK VINA RESULT:    -1.855      1.712      2.327
REMARK INTER + INTRA:          -1.855
REMARK INTER:                  -1.855
REMARK INTRA:                   0.000
REMARK UNBOUND:                 0.000
REMARK SMILES CC(=O)[O-]
REMARK SMILES IDX 1 1 2 2 3 3 4 4
REMARK H PARENT
REMARK Flexibility Score: inf
ROOT
ATOM      1  C   UNL     1      35.818   6.492 -31.189  1.00  0.00     0.063 C 
ATOM      2  C   UNL     1      35.000   5.800 -32.226  1.00  0.00     0.038 C 
ATOM      3  O   UNL     1      35.522   5.463 -33.320  1.00  0.00    -0.550 OA
ATOM      4  O   UNL     1      33.647   5.574 -32.009  1.00  0.00    -0.550 OA
ENDROOT
TORSDOF 0
ENDMDL
MODEL 6
REMARK VINA RESULT:    -1.817      1.416      2.008
REMARK INTER + INTRA:          -1.817
REMARK INTER:                  -1.817
REMARK INTRA:                   0.000
REMARK UNBOUND:                 0.000
REMARK SMILES CC(=O)[O-]
REMARK SMILES IDX 1 1 2 2 3 3 4 4
REMARK H PARENT
REMARK Flexibility Score: inf
ROOT
ATOM      1  C   UNL     1      34.611   4.973 -30.844  1.00  0.00     0.063 C 
ATOM      2  C   UNL     1      35.404   5.735 -31.850  1.00  0.00     0.038 C 
ATOM      3  O   UNL     1      36.125   6.701 -31.486  1.00  0.00    -0.550 OA
ATOM      4  O   UNL     1      35.308   5.418 -33.199  1.00  0.00    -0.550 OA
ENDROOT
TORSDOF 0
ENDMDL
MODEL 7
REMARK VINA RESULT:    -1.809      8.876      9.068
REMARK INTER + INTRA:          -1.809
REMARK INTER:                  -1.809
REMARK INTRA:                   0.000
REMARK UNBOUND:                 0.000
REMARK SMILES CC(=O)[O-]
REMARK SMILES IDX 1 1 2 2 3 3 4 4
REMARK H PARENT
REMARK Flexibility Score: inf
ROOT
ATOM      1  C   UNL     1      26.900   9.069 -35.988  1.00  0.00     0.063 C 
ATOM      2  C   UNL     1      28.373   8.950 -36.188  1.00  0.00     0.038 C 
ATOM      3  O   UNL     1      29.005   7.993 -35.670  1.00  0.00    -0.550 OA
ATOM      4  O   UNL     1      29.060   9.926 -36.899  1.00  0.00    -0.550 OA
ENDROOT
TORSDOF 0
ENDMDL
MODEL 8
REMARK VINA RESULT:    -1.786     22.139     22.362
REMARK INTER + INTRA:          -1.786
REMARK INTER:                  -1.786
REMARK INTRA:                   0.000
REMARK UNBOUND:                 0.000
REMARK SMILES CC(=O)[O-]
REMARK SMILES IDX 1 1 2 2 3 3 4 4
REMARK H PARENT
REMARK Flexibility Score: inf
ROOT
ATOM      1  C   UNL     1      17.752  -6.793 -24.775  1.00  0.00     0.063 C 
ATOM      2  C   UNL     1      17.457  -6.347 -26.167  1.00  0.00     0.038 C 
ATOM      3  O   UNL     1      17.651  -7.129 -27.134  1.00  0.00    -0.550 OA
ATOM      4  O   UNL     1      17.022  -5.050 -26.405  1.00  0.00    -0.550 OA
ENDROOT
TORSDOF 0
ENDMDL
MODEL 9
REMARK VINA RESULT:    -1.705      2.722      3.168
REMARK INTER + INTRA:          -1.705
REMARK INTER:                  -1.705
REMARK INTRA:                   0.000
REMARK UNBOUND:                 0.000
REMARK SMILES CC(=O)[O-]
REMARK SMILES IDX 1 1 2 2 3 3 4 4
REMARK H PARENT
REMARK Flexibility Score: inf
ROOT
ATOM      1  C   UNL     1      34.849   5.319 -33.225  1.00  0.00     0.063 C 
ATOM      2  C   UNL     1      33.616   4.501 -33.037  1.00  0.00     0.038 C 
ATOM      3  O   UNL     1      32.592   5.014 -32.514  1.00  0.00    -0.550 OA
ATOM      4  O   UNL     1      33.612   3.158 -33.389  1.00  0.00    -0.550 OA
ENDROOT
TORSDOF 0
ENDMDL
