MODEL 1
REMARK VINA RESULT:    -2.796      0.000      0.000
REMARK INTER + INTRA:          -7.682
REMARK INTER:                  -5.167
REMARK INTRA:                  -2.515
REMARK UNBOUND:                -2.515
REMARK SMILES CCCCCCCCCCCCCCCCO
REMARK SMILES IDX 9 1 8 2 7 3 6 4 5 5 4 6 3 7 2 8 1 9 10 10 11 11 12 12 13 13
REMARK SMILES IDX 14 14 15 15 16 16 17 17
REMARK H PARENT 17 18
REMARK Flexibility Score: inf
ROOT
ATOM      1  C   UNL     1       5.671   0.534  -2.034  1.00  0.00     0.000 C 
ENDROOT
BRANCH   1   2
ATOM      2  C   UNL     1       5.638   0.856  -0.531  1.00  0.00    -0.000 C 
BRANCH   2   3
ATOM      3  C   UNL     1       5.359   2.343  -0.241  1.00  0.00    -0.000 C 
BRANCH   3   4
ATOM      4  C   UNL     1       6.505   3.103   0.449  1.00  0.00    -0.000 C 
BRANCH   4   5
ATOM      5  C   UNL     1       7.826   2.314   0.460  1.00  0.00    -0.000 C 
BRANCH   5   6
ATOM      6  C   UNL     1       8.826   2.825  -0.591  1.00  0.00    -0.000 C 
BRANCH   6   7
ATOM      7  C   UNL     1       9.473   1.687  -1.396  1.00  0.00    -0.000 C 
BRANCH   7   8
ATOM      8  C   UNL     1       9.392   0.360  -0.632  1.00  0.00    -0.003 C 
ATOM      9  C   UNL     1       9.105  -0.804  -1.576  1.00  0.00     0.004 C 
ENDBRANCH   7   8
ENDBRANCH   6   7
ENDBRANCH   5   6
ENDBRANCH   4   5
ENDBRANCH   3   4
ENDBRANCH   2   3
ENDBRANCH   1   2
BRANCH   1  10
ATOM     10  C   UNL     1       5.512   1.790  -2.908  1.00  0.00     0.000 C 
BRANCH  10  11
ATOM     11  C   UNL     1       6.743   2.047  -3.795  1.00  0.00     0.000 C 
BRANCH  11  12
ATOM     12  C   UNL     1       6.872   3.521  -4.226  1.00  0.00     0.000 C 
BRANCH  12  13
ATOM     13  C   UNL     1       6.735   4.548  -3.087  1.00  0.00     0.000 C 
BRANCH  13  14
ATOM     14  C   UNL     1       5.709   5.649  -3.392  1.00  0.00     0.002 C 
BRANCH  14  15
ATOM     15  C   UNL     1       4.559   5.106  -4.249  1.00  0.00     0.028 C 
BRANCH  15  16
ATOM     16  C   UNL     1       4.006   6.172  -5.201  1.00  0.00     0.156 C 
BRANCH  16  17
ATOM     17  O   UNL     1       4.147   7.456  -4.653  1.00  0.00    -0.396 OA
ATOM     18  H   UNL     1       5.083   7.737  -4.827  1.00  0.00     0.210 HD
ENDBRANCH  16  17
ENDBRANCH  15  16
ENDBRANCH  14  15
ENDBRANCH  13  14
ENDBRANCH  12  13
ENDBRANCH  11  12
ENDBRANCH  10  11
ENDBRANCH   1  10
TORSDOF 15
ENDMDL
MODEL 2
REMARK VINA RESULT:    -2.759      3.277      5.846
REMARK INTER + INTRA:          -7.613
REMARK INTER:                  -5.786
REMARK INTRA:                  -1.827
REMARK UNBOUND:                -2.515
REMARK SMILES CCCCCCCCCCCCCCCCO
REMARK SMILES IDX 9 1 8 2 7 3 6 4 5 5 4 6 3 7 2 8 1 9 10 10 11 11 12 12 13 13
REMARK SMILES IDX 14 14 15 15 16 16 17 17
REMARK H PARENT 17 18
REMARK Flexibility Score: inf
ROOT
ATOM      1  C   UNL     1       6.416   3.238   0.408  1.00  0.00     0.000 C 
ENDROOT
BRANCH   1   2
ATOM      2  C   UNL     1       7.315   2.299   1.230  1.00  0.00    -0.000 C 
BRANCH   2   3
ATOM      3  C   UNL     1       8.661   2.002   0.542  1.00  0.00    -0.000 C 
BRANCH   3   4
ATOM      4  C   UNL     1       8.936   2.810  -0.739  1.00  0.00    -0.000 C 
BRANCH   4   5
ATOM      5  C   UNL     1       8.989   1.932  -2.001  1.00  0.00    -0.000 C 
BRANCH   5   6
ATOM      6  C   UNL     1       8.399   2.636  -3.234  1.00  0.00    -0.000 C 
BRANCH   6   7
ATOM      7  C   UNL     1       7.850   4.035  -2.914  1.00  0.00    -0.000 C 
BRANCH   7   8
ATOM      8  C   UNL     1       6.600   4.337  -3.747  1.00  0.00    -0.003 C 
ATOM      9  C   UNL     1       5.528   5.023  -2.906  1.00  0.00     0.004 C 
ENDBRANCH   7   8
ENDBRANCH   6   7
ENDBRANCH   5   6
ENDBRANCH   4   5
ENDBRANCH   3   4
ENDBRANCH   2   3
ENDBRANCH   1   2
BRANCH   1  10
ATOM     10  C   UNL     1       5.211   2.507  -0.209  1.00  0.00     0.000 C 
BRANCH  10  11
ATOM     11  C   UNL     1       5.462   0.998  -0.373  1.00  0.00     0.000 C 
BRANCH  11  12
ATOM     12  C   UNL     1       5.644   0.579  -1.844  1.00  0.00     0.000 C 
BRANCH  12  13
ATOM     13  C   UNL     1       5.107  -0.821  -2.194  1.00  0.00     0.000 C 
BRANCH  13  14
ATOM     14  C   UNL     1       4.403  -1.507  -1.015  1.00  0.00     0.002 C 
BRANCH  14  15
ATOM     15  C   UNL     1       3.930  -2.915  -1.401  1.00  0.00     0.028 C 
BRANCH  15  16
ATOM     16  C   UNL     1       2.457  -3.137  -1.043  1.00  0.00     0.156 C 
BRANCH  16  17
ATOM     17  O   UNL     1       1.658  -3.155  -2.196  1.00  0.00    -0.396 OA
ATOM     18  H   UNL     1       1.217  -2.267  -2.249  1.00  0.00     0.210 HD
ENDBRANCH  16  17
ENDBRANCH  15  16
ENDBRANCH  14  15
ENDBRANCH  13  14
ENDBRANCH  12  13
ENDBRANCH  11  12
ENDBRANCH  10  11
ENDBRANCH   1  10
TORSDOF 15
ENDMDL
MODEL 3
REMARK VINA RESULT:    -2.709      8.511     11.027
REMARK INTER + INTRA:          -7.521
REMARK INTER:                  -5.285
REMARK INTRA:                  -2.237
REMARK UNBOUND:                -2.515
REMARK SMILES CCCCCCCCCCCCCCCCO
REMARK SMILES IDX 9 1 8 2 7 3 6 4 5 5 4 6 3 7 2 8 1 9 10 10 11 11 12 12 13 13
REMARK SMILES IDX 14 14 15 15 16 16 17 17
REMARK H PARENT 17 18
REMARK Flexibility Score: inf
ROOT
ATOM      1  C   UNL     1       0.609  -7.389  -6.000  1.00  0.00     0.000 C 
ENDROOT
BRANCH   1   2
ATOM      2  C   UNL     1      -0.923  -7.339  -6.127  1.00  0.00    -0.000 C 
BRANCH   2   3
ATOM      3  C   UNL     1      -1.569  -6.302  -5.189  1.00  0.00    -0.000 C 
BRANCH   3   4
ATOM      4  C   UNL     1      -2.218  -5.096  -5.891  1.00  0.00    -0.000 C 
BRANCH   4   5
ATOM      5  C   UNL     1      -1.798  -3.749  -5.277  1.00  0.00    -0.000 C 
BRANCH   5   6
ATOM      6  C   UNL     1      -0.309  -3.716  -4.890  1.00  0.00    -0.000 C 
BRANCH   6   7
ATOM      7  C   UNL     1       0.548  -2.932  -5.896  1.00  0.00    -0.000 C 
BRANCH   7   8
ATOM      8  C   UNL     1       1.394  -3.882  -6.751  1.00  0.00    -0.003 C 
ATOM      9  C   UNL     1       0.689  -4.223  -8.060  1.00  0.00     0.004 C 
ENDBRANCH   7   8
ENDBRANCH   6   7
ENDBRANCH   5   6
ENDBRANCH   4   5
ENDBRANCH   3   4
ENDBRANCH   2   3
ENDBRANCH   1   2
BRANCH   1  10
ATOM     10  C   UNL     1       1.080  -7.344  -4.536  1.00  0.00     0.000 C 
BRANCH  10  11
ATOM     11  C   UNL     1       2.318  -6.451  -4.344  1.00  0.00     0.000 C 
BRANCH  11  12
ATOM     12  C   UNL     1       2.303  -5.686  -3.008  1.00  0.00     0.000 C 
BRANCH  12  13
ATOM     13  C   UNL     1       2.871  -4.257  -3.068  1.00  0.00     0.000 C 
BRANCH  13  14
ATOM     14  C   UNL     1       3.319  -3.730  -1.697  1.00  0.00     0.002 C 
BRANCH  14  15
ATOM     15  C   UNL     1       2.198  -3.878  -0.660  1.00  0.00     0.028 C 
BRANCH  15  16
ATOM     16  C   UNL     1       1.490  -2.545  -0.394  1.00  0.00     0.156 C 
BRANCH  16  17
ATOM     17  O   UNL     1       0.480  -2.316  -1.340  1.00  0.00    -0.396 OA
ATOM     18  H   UNL     1      -0.134  -3.094  -1.293  1.00  0.00     0.210 HD
ENDBRANCH  16  17
ENDBRANCH  15  16
ENDBRANCH  14  15
ENDBRANCH  13  14
ENDBRANCH  12  13
ENDBRANCH  11  12
ENDBRANCH  10  11
ENDBRANCH   1  10
TORSDOF 15
ENDMDL
MODEL 4
REMARK VINA RESULT:    -2.709      3.386      5.319
REMARK INTER + INTRA:          -7.520
REMARK INTER:                  -5.220
REMARK INTRA:                  -2.300
REMARK UNBOUND:                -2.515
REMARK SMILES CCCCCCCCCCCCCCCCO
REMARK SMILES IDX 9 1 8 2 7 3 6 4 5 5 4 6 3 7 2 8 1 9 10 10 11 11 12 12 13 13
REMARK SMILES IDX 14 14 15 15 16 16 17 17
REMARK H PARENT 17 18
REMARK Flexibility Score: inf
ROOT
ATOM      1  C   UNL     1       6.214   2.664  -3.253  1.00  0.00     0.000 C 
ENDROOT
BRANCH   1   2
ATOM      2  C   UNL     1       5.286   3.567  -2.424  1.00  0.00    -0.000 C 
BRANCH   2   3
ATOM      3  C   UNL     1       5.740   3.711  -0.959  1.00  0.00    -0.000 C 
BRANCH   3   4
ATOM      4  C   UNL     1       5.308   2.568  -0.023  1.00  0.00    -0.000 C 
BRANCH   4   5
ATOM      5  C   UNL     1       6.493   1.721   0.474  1.00  0.00    -0.000 C 
BRANCH   5   6
ATOM      6  C   UNL     1       7.841   2.446   0.321  1.00  0.00    -0.000 C 
BRANCH   6   7
ATOM      7  C   UNL     1       8.935   1.546  -0.272  1.00  0.00    -0.000 C 
BRANCH   7   8
ATOM      8  C   UNL     1       9.531   2.170  -1.539  1.00  0.00    -0.003 C 
ATOM      9  C   UNL     1       9.448   3.693  -1.496  1.00  0.00     0.004 C 
ENDBRANCH   7   8
ENDBRANCH   6   7
ENDBRANCH   5   6
ENDBRANCH   4   5
ENDBRANCH   3   4
ENDBRANCH   2   3
ENDBRANCH   1   2
BRANCH   1  10
ATOM     10  C   UNL     1       5.717   1.210  -3.315  1.00  0.00     0.000 C 
BRANCH  10  11
ATOM     11  C   UNL     1       6.833   0.195  -3.009  1.00  0.00     0.000 C 
BRANCH  11  12
ATOM     12  C   UNL     1       6.357  -0.967  -2.118  1.00  0.00     0.000 C 
BRANCH  12  13
ATOM     13  C   UNL     1       4.903  -0.856  -1.623  1.00  0.00     0.000 C 
BRANCH  13  14
ATOM     14  C   UNL     1       4.120  -2.169  -1.762  1.00  0.00     0.002 C 
BRANCH  14  15
ATOM     15  C   UNL     1       3.137  -2.347  -0.597  1.00  0.00     0.028 C 
BRANCH  15  16
ATOM     16  C   UNL     1       1.906  -3.161  -1.010  1.00  0.00     0.156 C 
BRANCH  16  17
ATOM     17  O   UNL     1       0.800  -2.324  -1.224  1.00  0.00    -0.396 OA
ATOM     18  H   UNL     1       0.204  -2.437  -0.438  1.00  0.00     0.210 HD
ENDBRANCH  16  17
ENDBRANCH  15  16
ENDBRANCH  14  15
ENDBRANCH  13  14
ENDBRANCH  12  13
ENDBRANCH  11  12
ENDBRANCH  10  11
ENDBRANCH   1  10
TORSDOF 15
ENDMDL
MODEL 5
REMARK VINA RESULT:    -2.688      1.356      2.718
REMARK INTER + INTRA:          -7.482
REMARK INTER:                  -5.015
REMARK INTRA:                  -2.467
REMARK UNBOUND:                -2.515
REMARK SMILES CCCCCCCCCCCCCCCCO
REMARK SMILES IDX 9 1 8 2 7 3 6 4 5 5 4 6 3 7 2 8 1 9 10 10 11 11 12 12 13 13
REMARK SMILES IDX 14 14 15 15 16 16 17 17
REMARK H PARENT 17 18
REMARK Flexibility Score: inf
ROOT
ATOM      1  C   UNL     1       8.902   2.570  -0.097  1.00  0.00     0.000 C 
ENDROOT
BRANCH   1   2
ATOM      2  C   UNL     1       7.649   2.228   0.726  1.00  0.00    -0.000 C 
BRANCH   2   3
ATOM      3  C   UNL     1       6.462   3.162   0.428  1.00  0.00    -0.000 C 
BRANCH   3   4
ATOM      4  C   UNL     1       5.271   2.501  -0.290  1.00  0.00    -0.000 C 
BRANCH   4   5
ATOM      5  C   UNL     1       5.284   0.967  -0.183  1.00  0.00    -0.000 C 
BRANCH   5   6
ATOM      6  C   UNL     1       5.488   0.282  -1.545  1.00  0.00    -0.000 C 
BRANCH   6   7
ATOM      7  C   UNL     1       6.691  -0.674  -1.554  1.00  0.00    -0.000 C 
BRANCH   7   8
ATOM      8  C   UNL     1       6.633  -1.638  -0.364  1.00  0.00    -0.003 C 
ATOM      9  C   UNL     1       7.899  -1.546   0.483  1.00  0.00     0.004 C 
ENDBRANCH   7   8
ENDBRANCH   6   7
ENDBRANCH   5   6
ENDBRANCH   4   5
ENDBRANCH   3   4
ENDBRANCH   2   3
ENDBRANCH   1   2
BRANCH   1  10
ATOM     10  C   UNL     1       8.706   2.312  -1.601  1.00  0.00     0.000 C 
BRANCH  10  11
ATOM     11  C   UNL     1       8.921   3.580  -2.446  1.00  0.00     0.000 C 
BRANCH  11  12
ATOM     12  C   UNL     1       7.615   4.115  -3.064  1.00  0.00     0.000 C 
BRANCH  12  13
ATOM     13  C   UNL     1       6.701   3.044  -3.686  1.00  0.00     0.000 C 
BRANCH  13  14
ATOM     14  C   UNL     1       5.282   3.557  -3.973  1.00  0.00     0.002 C 
BRANCH  14  15
ATOM     15  C   UNL     1       5.005   4.858  -3.209  1.00  0.00     0.028 C 
BRANCH  15  16
ATOM     16  C   UNL     1       4.608   5.999  -4.152  1.00  0.00     0.156 C 
BRANCH  16  17
ATOM     17  O   UNL     1       5.701   6.839  -4.411  1.00  0.00    -0.396 OA
ATOM     18  H   UNL     1       5.878   7.340  -3.573  1.00  0.00     0.210 HD
ENDBRANCH  16  17
ENDBRANCH  15  16
ENDBRANCH  14  15
ENDBRANCH  13  14
ENDBRANCH  12  13
ENDBRANCH  11  12
ENDBRANCH  10  11
ENDBRANCH   1  10
TORSDOF 15
ENDMDL
MODEL 6
REMARK VINA RESULT:    -2.688      2.466      5.781
REMARK INTER + INTRA:          -7.481
REMARK INTER:                  -5.418
REMARK INTRA:                  -2.063
REMARK UNBOUND:                -2.515
REMARK SMILES CCCCCCCCCCCCCCCCO
REMARK SMILES IDX 9 1 8 2 7 3 6 4 5 5 4 6 3 7 2 8 1 9 10 10 11 11 12 12 13 13
REMARK SMILES IDX 14 14 15 15 16 16 17 17
REMARK H PARENT 17 18
REMARK Flexibility Score: inf
ROOT
ATOM      1  C   UNL     1       8.591   2.121  -0.145  1.00  0.00     0.000 C 
ENDROOT
BRANCH   1   2
ATOM      2  C   UNL     1       9.139   3.326  -0.928  1.00  0.00    -0.000 C 
BRANCH   2   3
ATOM      3  C   UNL     1       8.903   3.213  -2.446  1.00  0.00    -0.000 C 
BRANCH   3   4
ATOM      4  C   UNL     1       7.807   4.135  -3.010  1.00  0.00    -0.000 C 
BRANCH   4   5
ATOM      5  C   UNL     1       6.843   3.406  -3.962  1.00  0.00    -0.000 C 
BRANCH   5   6
ATOM      6  C   UNL     1       5.394   3.904  -3.830  1.00  0.00    -0.000 C 
BRANCH   6   7
ATOM      7  C   UNL     1       5.301   5.295  -3.184  1.00  0.00    -0.000 C 
BRANCH   7   8
ATOM      8  C   UNL     1       4.934   6.359  -4.225  1.00  0.00    -0.003 C 
ATOM      9  C   UNL     1       3.777   5.896  -5.104  1.00  0.00     0.004 C 
ENDBRANCH   7   8
ENDBRANCH   6   7
ENDBRANCH   5   6
ENDBRANCH   4   5
ENDBRANCH   3   4
ENDBRANCH   2   3
ENDBRANCH   1   2
BRANCH   1  10
ATOM     10  C   UNL     1       7.565   2.533   0.925  1.00  0.00     0.000 C 
BRANCH  10  11
ATOM     11  C   UNL     1       6.345   3.251   0.321  1.00  0.00     0.000 C 
BRANCH  11  12
ATOM     12  C   UNL     1       5.450   2.312  -0.510  1.00  0.00     0.000 C 
BRANCH  12  13
ATOM     13  C   UNL     1       5.296   0.888   0.056  1.00  0.00     0.000 C 
BRANCH  13  14
ATOM     14  C   UNL     1       5.743  -0.201  -0.929  1.00  0.00     0.002 C 
BRANCH  14  15
ATOM     15  C   UNL     1       6.160   0.411  -2.273  1.00  0.00     0.028 C 
BRANCH  15  16
ATOM     16  C   UNL     1       5.226  -0.020  -3.409  1.00  0.00     0.156 C 
BRANCH  16  17
ATOM     17  O   UNL     1       4.448  -1.123  -3.028  1.00  0.00    -0.396 OA
ATOM     18  H   UNL     1       5.082  -1.841  -2.769  1.00  0.00     0.210 HD
ENDBRANCH  16  17
ENDBRANCH  15  16
ENDBRANCH  14  15
ENDBRANCH  13  14
ENDBRANCH  12  13
ENDBRANCH  11  12
ENDBRANCH  10  11
ENDBRANCH   1  10
TORSDOF 15
ENDMDL
MODEL 7
REMARK VINA RESULT:    -2.680      1.235      2.756
REMARK INTER + INTRA:          -7.467
REMARK INTER:                  -5.193
REMARK INTRA:                  -2.274
REMARK UNBOUND:                -2.515
REMARK SMILES CCCCCCCCCCCCCCCCO
REMARK SMILES IDX 9 1 8 2 7 3 6 4 5 5 4 6 3 7 2 8 1 9 10 10 11 11 12 12 13 13
REMARK SMILES IDX 14 14 15 15 16 16 17 17
REMARK H PARENT 17 18
REMARK Flexibility Score: inf
ROOT
ATOM      1  C   UNL     1       8.684   3.765  -1.849  1.00  0.00     0.000 C 
ENDROOT
BRANCH   1   2
ATOM      2  C   UNL     1       8.960   2.664  -0.811  1.00  0.00    -0.000 C 
BRANCH   2   3
ATOM      3  C   UNL     1       7.843   2.536   0.241  1.00  0.00    -0.000 C 
BRANCH   3   4
ATOM      4  C   UNL     1       6.553   3.316  -0.072  1.00  0.00    -0.000 C 
BRANCH   4   5
ATOM      5  C   UNL     1       5.319   2.406  -0.192  1.00  0.00    -0.000 C 
BRANCH   5   6
ATOM      6  C   UNL     1       5.636   1.068  -0.880  1.00  0.00    -0.000 C 
BRANCH   6   7
ATOM      7  C   UNL     1       5.676   1.184  -2.412  1.00  0.00    -0.000 C 
BRANCH   7   8
ATOM      8  C   UNL     1       6.694   0.205  -3.009  1.00  0.00    -0.003 C 
ATOM      9  C   UNL     1       7.440  -0.552  -1.915  1.00  0.00     0.004 C 
ENDBRANCH   7   8
ENDBRANCH   6   7
ENDBRANCH   5   6
ENDBRANCH   4   5
ENDBRANCH   3   4
ENDBRANCH   2   3
ENDBRANCH   1   2
BRANCH   1  10
ATOM     10  C   UNL     1       8.689   3.229  -3.290  1.00  0.00     0.000 C 
BRANCH  10  11
ATOM     11  C   UNL     1       7.639   3.920  -4.178  1.00  0.00     0.000 C 
BRANCH  11  12
ATOM     12  C   UNL     1       6.598   4.713  -3.365  1.00  0.00     0.000 C 
BRANCH  12  13
ATOM     13  C   UNL     1       5.146   4.583  -3.862  1.00  0.00     0.000 C 
BRANCH  13  14
ATOM     14  C   UNL     1       4.516   5.933  -4.232  1.00  0.00     0.002 C 
BRANCH  14  15
ATOM     15  C   UNL     1       5.458   6.754  -5.123  1.00  0.00     0.028 C 
BRANCH  15  16
ATOM     16  C   UNL     1       4.702   7.824  -5.917  1.00  0.00     0.156 C 
BRANCH  16  17
ATOM     17  O   UNL     1       5.089   9.112  -5.518  1.00  0.00    -0.396 OA
ATOM     18  H   UNL     1       5.845   9.375  -6.103  1.00  0.00     0.210 HD
ENDBRANCH  16  17
ENDBRANCH  15  16
ENDBRANCH  14  15
ENDBRANCH  13  14
ENDBRANCH  12  13
ENDBRANCH  11  12
ENDBRANCH  10  11
ENDBRANCH   1  10
TORSDOF 15
ENDMDL
MODEL 8
REMARK VINA RESULT:    -2.671      3.525      5.681
REMARK INTER + INTRA:          -7.451
REMARK INTER:                  -5.436
REMARK INTRA:                  -2.015
REMARK UNBOUND:                -2.515
REMARK SMILES CCCCCCCCCCCCCCCCO
REMARK SMILES IDX 9 1 8 2 7 3 6 4 5 5 4 6 3 7 2 8 1 9 10 10 11 11 12 12 13 13
REMARK SMILES IDX 14 14 15 15 16 16 17 17
REMARK H PARENT 17 18
REMARK Flexibility Score: inf
ROOT
ATOM      1  C   UNL     1       6.832   1.191   0.724  1.00  0.00     0.000 C 
ENDROOT
BRANCH   1   2
ATOM      2  C   UNL     1       5.618   1.809   0.009  1.00  0.00    -0.000 C 
BRANCH   2   3
ATOM      3  C   UNL     1       5.702   3.342  -0.102  1.00  0.00    -0.000 C 
BRANCH   3   4
ATOM      4  C   UNL     1       5.637   3.902  -1.535  1.00  0.00    -0.000 C 
BRANCH   4   5
ATOM      5  C   UNL     1       5.653   2.800  -2.609  1.00  0.00    -0.000 C 
BRANCH   5   6
ATOM      6  C   UNL     1       6.927   2.836  -3.470  1.00  0.00    -0.000 C 
BRANCH   6   7
ATOM      7  C   UNL     1       7.861   3.998  -3.101  1.00  0.00    -0.000 C 
BRANCH   7   8
ATOM      8  C   UNL     1       9.243   3.479  -2.685  1.00  0.00    -0.003 C 
ATOM      9  C   UNL     1       9.302   3.205  -1.186  1.00  0.00     0.004 C 
ENDBRANCH   7   8
ENDBRANCH   6   7
ENDBRANCH   5   6
ENDBRANCH   4   5
ENDBRANCH   3   4
ENDBRANCH   2   3
ENDBRANCH   1   2
BRANCH   1  10
ATOM     10  C   UNL     1       7.192  -0.200   0.176  1.00  0.00     0.000 C 
BRANCH  10  11
ATOM     11  C   UNL     1       7.289  -0.218  -1.360  1.00  0.00     0.000 C 
BRANCH  11  12
ATOM     12  C   UNL     1       6.494  -1.375  -1.995  1.00  0.00     0.000 C 
BRANCH  12  13
ATOM     13  C   UNL     1       4.966  -1.183  -2.013  1.00  0.00     0.000 C 
BRANCH  13  14
ATOM     14  C   UNL     1       4.197  -2.452  -1.616  1.00  0.00     0.002 C 
BRANCH  14  15
ATOM     15  C   UNL     1       3.130  -2.138  -0.560  1.00  0.00     0.028 C 
BRANCH  15  16
ATOM     16  C   UNL     1       1.843  -2.936  -0.797  1.00  0.00     0.156 C 
BRANCH  16  17
ATOM     17  O   UNL     1       0.722  -2.229  -0.336  1.00  0.00    -0.396 OA
ATOM     18  H   UNL     1       0.583  -2.503   0.608  1.00  0.00     0.210 HD
ENDBRANCH  16  17
ENDBRANCH  15  16
ENDBRANCH  14  15
ENDBRANCH  13  14
ENDBRANCH  12  13
ENDBRANCH  11  12
ENDBRANCH  10  11
ENDBRANCH   1  10
TORSDOF 15
ENDMDL
MODEL 9
REMARK VINA RESULT:    -2.594      3.155      5.242
REMARK INTER + INTRA:          -7.309
REMARK INTER:                  -5.023
REMARK INTRA:                  -2.286
REMARK UNBOUND:                -2.515
REMARK SMILES CCCCCCCCCCCCCCCCO
REMARK SMILES IDX 9 1 8 2 7 3 6 4 5 5 4 6 3 7 2 8 1 9 10 10 11 11 12 12 13 13
REMARK SMILES IDX 14 14 15 15 16 16 17 17
REMARK H PARENT 17 18
REMARK Flexibility Score: inf
ROOT
ATOM      1  C   UNL     1       8.852   3.808  -2.608  1.00  0.00     0.000 C 
ENDROOT
BRANCH   1   2
ATOM      2  C   UNL     1       7.723   3.886  -3.650  1.00  0.00    -0.000 C 
BRANCH   2   3
ATOM      3  C   UNL     1       6.459   4.583  -3.115  1.00  0.00    -0.000 C 
BRANCH   3   4
ATOM      4  C   UNL     1       5.502   3.682  -2.313  1.00  0.00    -0.000 C 
BRANCH   4   5
ATOM      5  C   UNL     1       5.766   3.727  -0.798  1.00  0.00    -0.000 C 
BRANCH   5   6
ATOM      6  C   UNL     1       5.261   2.468  -0.074  1.00  0.00    -0.000 C 
BRANCH   6   7
ATOM      7  C   UNL     1       6.403   1.539   0.368  1.00  0.00    -0.000 C 
BRANCH   7   8
ATOM      8  C   UNL     1       7.490   2.323   1.112  1.00  0.00    -0.003 C 
ATOM      9  C   UNL     1       7.885   1.624   2.409  1.00  0.00     0.004 C 
ENDBRANCH   7   8
ENDBRANCH   6   7
ENDBRANCH   5   6
ENDBRANCH   4   5
ENDBRANCH   3   4
ENDBRANCH   2   3
ENDBRANCH   1   2
BRANCH   1  10
ATOM     10  C   UNL     1       9.110   2.370  -2.128  1.00  0.00     0.000 C 
BRANCH  10  11
ATOM     11  C   UNL     1       8.804   1.324  -3.215  1.00  0.00     0.000 C 
BRANCH  11  12
ATOM     12  C   UNL     1       7.695   0.339  -2.801  1.00  0.00     0.000 C 
BRANCH  12  13
ATOM     13  C   UNL     1       6.386   0.457  -3.603  1.00  0.00     0.000 C 
BRANCH  13  14
ATOM     14  C   UNL     1       5.161  -0.055  -2.832  1.00  0.00     0.002 C 
BRANCH  14  15
ATOM     15  C   UNL     1       5.409  -1.466  -2.282  1.00  0.00     0.028 C 
BRANCH  15  16
ATOM     16  C   UNL     1       4.873  -1.623  -0.855  1.00  0.00     0.156 C 
BRANCH  16  17
ATOM     17  O   UNL     1       4.205  -2.846  -0.701  1.00  0.00    -0.396 OA
ATOM     18  H   UNL     1       3.354  -2.648  -0.230  1.00  0.00     0.210 HD
ENDBRANCH  16  17
ENDBRANCH  15  16
ENDBRANCH  14  15
ENDBRANCH  13  14
ENDBRANCH  12  13
ENDBRANCH  11  12
ENDBRANCH  10  11
ENDBRANCH   1  10
TORSDOF 15
ENDMDL
