MODEL 1
REMARK VINA RESULT:    -3.935      0.000      0.000
REMARK INTER + INTRA:          -6.012
REMARK INTER:                  -5.315
REMARK INTRA:                  -0.697
REMARK UNBOUND:                -0.697
REMARK SMILES O=C[C@@H](O)[C@@H](O)[C@H](O)CO
REMARK SMILES IDX 7 1 9 2 10 3 5 5 3 6 2 7 1 8 4 9 6 11 8 13
REMARK H PARENT 10 4 4 10 6 12 8 14
REMARK Flexibility Score: inf
ROOT
ATOM      1  C   UNL     1      -4.879   0.904  21.898  1.00  0.00     0.171 C 
ENDROOT
BRANCH   1   2
ATOM      2  C   UNL     1      -4.447   2.374  22.032  1.00  0.00     0.190 C 
BRANCH   2   3
ATOM      3  O   UNL     1      -3.438   2.483  22.997  1.00  0.00    -0.394 OA
ATOM      4  H   UNL     1      -3.849   2.941  23.776  1.00  0.00     0.210 HD
ENDBRANCH   2   3
ENDBRANCH   1   2
BRANCH   1   5
ATOM      5  C   UNL     1      -4.031   0.149  20.840  1.00  0.00     0.181 C 
BRANCH   5   6
ATOM      6  C   UNL     1      -4.760   0.041  19.473  1.00  0.00     0.209 C 
BRANCH   6   7
ATOM      7  C   UNL     1      -3.799   0.190  18.323  1.00  0.00     0.258 C 
ATOM      8  O   UNL     1      -3.395   1.291  17.985  1.00  0.00    -0.300 OA
ENDBRANCH   6   7
BRANCH   6   9
ATOM      9  O   UNL     1      -5.465  -1.171  19.360  1.00  0.00    -0.383 OA
ATOM     10  H   UNL     1      -6.304  -1.084  19.885  1.00  0.00     0.211 HD
ENDBRANCH   6   9
ENDBRANCH   5   6
BRANCH   5  11
ATOM     11  O   UNL     1      -2.762   0.739  20.694  1.00  0.00    -0.387 OA
ATOM     12  H   UNL     1      -2.336   0.357  19.883  1.00  0.00     0.211 HD
ENDBRANCH   5  11
ENDBRANCH   1   5
BRANCH   1  13
ATOM     13  O   UNL     1      -6.256   0.803  21.623  1.00  0.00    -0.388 OA
ATOM     14  H   UNL     1      -6.638   1.719  21.626  1.00  0.00     0.211 HD
ENDBRANCH   1  13
TORSDOF 8
ENDMDL
MODEL 2
REMARK VINA RESULT:    -3.932      6.777      9.043
REMARK INTER + INTRA:          -6.008
REMARK INTER:                  -5.469
REMARK INTRA:                  -0.539
REMARK UNBOUND:                -0.697
REMARK SMILES O=C[C@@H](O)[C@@H](O)[C@H](O)CO
REMARK SMILES IDX 7 1 9 2 10 3 5 5 3 6 2 7 1 8 4 9 6 11 8 13
REMARK H PARENT 10 4 4 10 6 12 8 14
REMARK Flexibility Score: inf
ROOT
ATOM      1  C   UNL     1       2.906  -2.176  14.696  1.00  0.00     0.171 C 
ENDROOT
BRANCH   1   2
ATOM      2  C   UNL     1       2.695  -3.461  15.514  1.00  0.00     0.190 C 
BRANCH   2   3
ATOM      3  O   UNL     1       2.328  -4.508  14.660  1.00  0.00    -0.394 OA
ATOM      4  H   UNL     1       2.048  -5.258  15.247  1.00  0.00     0.210 HD
ENDBRANCH   2   3
ENDBRANCH   1   2
BRANCH   1   5
ATOM      5  C   UNL     1       2.029  -1.008  15.221  1.00  0.00     0.181 C 
BRANCH   5   6
ATOM      6  C   UNL     1       0.511  -1.314  15.102  1.00  0.00     0.209 C 
BRANCH   6   7
ATOM      7  C   UNL     1      -0.283  -0.579  16.150  1.00  0.00     0.258 C 
ATOM      8  O   UNL     1      -0.385  -1.024  17.283  1.00  0.00    -0.300 OA
ENDBRANCH   6   7
BRANCH   6   9
ATOM      9  O   UNL     1       0.023  -1.004  13.820  1.00  0.00    -0.383 OA
ATOM     10  H   UNL     1      -0.958  -1.161  13.823  1.00  0.00     0.211 HD
ENDBRANCH   6   9
ENDBRANCH   5   6
BRANCH   5  11
ATOM     11  O   UNL     1       2.377  -0.670  16.543  1.00  0.00    -0.387 OA
ATOM     12  H   UNL     1       2.103   0.271  16.702  1.00  0.00     0.211 HD
ENDBRANCH   5  11
ENDBRANCH   1   5
BRANCH   1  13
ATOM     13  O   UNL     1       2.688  -2.406  13.324  1.00  0.00    -0.388 OA
ATOM     14  H   UNL     1       2.096  -1.687  12.981  1.00  0.00     0.211 HD
ENDBRANCH   1  13
TORSDOF 8
ENDMDL
MODEL 3
REMARK VINA RESULT:    -3.924     11.844     13.803
REMARK INTER + INTRA:          -5.998
REMARK INTER:                  -5.047
REMARK INTRA:                  -0.951
REMARK UNBOUND:                -0.697
REMARK SMILES O=C[C@@H](O)[C@@H](O)[C@H](O)CO
REMARK SMILES IDX 7 1 9 2 10 3 5 5 3 6 2 7 1 8 4 9 6 11 8 13
REMARK H PARENT 10 4 4 10 6 12 8 14
REMARK Flexibility Score: inf
ROOT
ATOM      1  C   UNL     1      -0.694   3.099   7.518  1.00  0.00     0.171 C 
ENDROOT
BRANCH   1   2
ATOM      2  C   UNL     1       0.034   3.474   6.217  1.00  0.00     0.190 C 
BRANCH   2   3
ATOM      3  O   UNL     1       1.224   4.146   6.520  1.00  0.00    -0.394 OA
ATOM      4  H   UNL     1       1.496   4.616   5.689  1.00  0.00     0.210 HD
ENDBRANCH   2   3
ENDBRANCH   1   2
BRANCH   1   5
ATOM      5  C   UNL     1      -1.418   4.320   8.146  1.00  0.00     0.181 C 
BRANCH   5   6
ATOM      6  C   UNL     1      -0.935   4.608   9.593  1.00  0.00     0.209 C 
BRANCH   6   7
ATOM      7  C   UNL     1       0.175   5.626   9.611  1.00  0.00     0.258 C 
ATOM      8  O   UNL     1       1.262   5.374   9.114  1.00  0.00    -0.300 OA
ENDBRANCH   6   7
BRANCH   6   9
ATOM      9  O   UNL     1      -1.994   5.033  10.415  1.00  0.00    -0.383 OA
ATOM     10  H   UNL     1      -2.191   5.981  10.189  1.00  0.00     0.211 HD
ENDBRANCH   6   9
ENDBRANCH   5   6
BRANCH   5  11
ATOM     11  O   UNL     1      -1.287   5.459   7.330  1.00  0.00    -0.387 OA
ATOM     12  H   UNL     1      -2.157   5.616   6.879  1.00  0.00     0.211 HD
ENDBRANCH   5  11
ENDBRANCH   1   5
BRANCH   1  13
ATOM     13  O   UNL     1       0.185   2.493   8.436  1.00  0.00    -0.388 OA
ATOM     14  H   UNL     1       0.973   2.160   7.933  1.00  0.00     0.211 HD
ENDBRANCH   1  13
TORSDOF 8
ENDMDL
MODEL 4
REMARK VINA RESULT:    -3.916      7.534      8.687
REMARK INTER + INTRA:          -5.986
REMARK INTER:                  -5.315
REMARK INTRA:                  -0.672
REMARK UNBOUND:                -0.697
REMARK SMILES O=C[C@@H](O)[C@@H](O)[C@H](O)CO
REMARK SMILES IDX 7 1 9 2 10 3 5 5 3 6 2 7 1 8 4 9 6 11 8 13
REMARK H PARENT 10 4 4 10 6 12 8 14
REMARK Flexibility Score: inf
ROOT
ATOM      1  C   UNL     1       0.787   0.125  14.647  1.00  0.00     0.171 C 
ENDROOT
BRANCH   1   2
ATOM      2  C   UNL     1      -0.227   0.676  13.631  1.00  0.00     0.190 C 
BRANCH   2   3
ATOM      3  O   UNL     1      -0.854  -0.386  12.968  1.00  0.00    -0.394 OA
ATOM      4  H   UNL     1      -0.947  -1.114  13.636  1.00  0.00     0.210 HD
ENDBRANCH   2   3
ENDBRANCH   1   2
BRANCH   1   5
ATOM      5  C   UNL     1       0.923  -1.418  14.548  1.00  0.00     0.181 C 
BRANCH   5   6
ATOM      6  C   UNL     1       2.396  -1.887  14.702  1.00  0.00     0.209 C 
BRANCH   6   7
ATOM      7  C   UNL     1       2.697  -2.295  16.120  1.00  0.00     0.258 C 
ATOM      8  O   UNL     1       2.571  -1.502  17.040  1.00  0.00    -0.300 OA
ENDBRANCH   6   7
BRANCH   6   9
ATOM      9  O   UNL     1       2.694  -2.942  13.821  1.00  0.00    -0.383 OA
ATOM     10  H   UNL     1       2.063  -3.685  14.013  1.00  0.00     0.211 HD
ENDBRANCH   6   9
ENDBRANCH   5   6
BRANCH   5  11
ATOM     11  O   UNL     1       0.085  -2.060  15.478  1.00  0.00    -0.387 OA
ATOM     12  H   UNL     1      -0.789  -2.229  15.039  1.00  0.00     0.211 HD
ENDBRANCH   5  11
ENDBRANCH   1   5
BRANCH   1  13
ATOM     13  O   UNL     1       0.465   0.531  15.956  1.00  0.00    -0.388 OA
ATOM     14  H   UNL     1       0.186   1.483  15.924  1.00  0.00     0.211 HD
ENDBRANCH   1  13
TORSDOF 8
ENDMDL
MODEL 5
REMARK VINA RESULT:    -3.875      6.881      8.698
REMARK INTER + INTRA:          -5.931
REMARK INTER:                  -5.219
REMARK INTRA:                  -0.712
REMARK UNBOUND:                -0.697
REMARK SMILES O=C[C@@H](O)[C@@H](O)[C@H](O)CO
REMARK SMILES IDX 7 1 9 2 10 3 5 5 3 6 2 7 1 8 4 9 6 11 8 13
REMARK H PARENT 10 4 4 10 6 12 8 14
REMARK Flexibility Score: inf
ROOT
ATOM      1  C   UNL     1       1.863  -1.576  15.530  1.00  0.00     0.171 C 
ENDROOT
BRANCH   1   2
ATOM      2  C   UNL     1       2.894  -2.189  14.568  1.00  0.00     0.190 C 
BRANCH   2   3
ATOM      3  O   UNL     1       2.488  -3.478  14.201  1.00  0.00    -0.394 OA
ATOM      4  H   UNL     1       3.004  -4.104  14.772  1.00  0.00     0.210 HD
ENDBRANCH   2   3
ENDBRANCH   1   2
BRANCH   1   5
ATOM      5  C   UNL     1       0.606  -1.064  14.778  1.00  0.00     0.181 C 
BRANCH   5   6
ATOM      6  C   UNL     1       0.320   0.435  15.066  1.00  0.00     0.209 C 
BRANCH   6   7
ATOM      7  C   UNL     1      -0.537   1.049  13.990  1.00  0.00     0.258 C 
ATOM      8  O   UNL     1      -0.031   1.538  12.991  1.00  0.00    -0.300 OA
ENDBRANCH   6   7
BRANCH   6   9
ATOM      9  O   UNL     1      -0.283   0.612  16.324  1.00  0.00    -0.383 OA
ATOM     10  H   UNL     1      -1.258   0.737  16.178  1.00  0.00     0.211 HD
ENDBRANCH   6   9
ENDBRANCH   5   6
BRANCH   5  11
ATOM     11  O   UNL     1       0.711  -1.305  13.395  1.00  0.00    -0.387 OA
ATOM     12  H   UNL     1       0.975  -0.455  12.955  1.00  0.00     0.211 HD
ENDBRANCH   5  11
ENDBRANCH   1   5
BRANCH   1  13
ATOM     13  O   UNL     1       2.443  -0.561  16.315  1.00  0.00    -0.388 OA
ATOM     14  H   UNL     1       1.710  -0.053  16.751  1.00  0.00     0.211 HD
ENDBRANCH   1  13
TORSDOF 8
ENDMDL
MODEL 6
REMARK VINA RESULT:    -3.856     10.870     12.783
REMARK INTER + INTRA:          -5.905
REMARK INTER:                  -4.971
REMARK INTRA:                  -0.934
REMARK UNBOUND:                -0.697
REMARK SMILES O=C[C@@H](O)[C@@H](O)[C@H](O)CO
REMARK SMILES IDX 7 1 9 2 10 3 5 5 3 6 2 7 1 8 4 9 6 11 8 13
REMARK H PARENT 10 4 4 10 6 12 8 14
REMARK Flexibility Score: inf
ROOT
ATOM      1  C   UNL     1       2.661   6.141   9.936  1.00  0.00     0.171 C 
ENDROOT
BRANCH   1   2
ATOM      2  C   UNL     1       2.303   7.528  10.494  1.00  0.00     0.190 C 
BRANCH   2   3
ATOM      3  O   UNL     1       1.902   7.410  11.831  1.00  0.00    -0.394 OA
ATOM      4  H   UNL     1       1.878   8.333  12.195  1.00  0.00     0.210 HD
ENDBRANCH   2   3
ENDBRANCH   1   2
BRANCH   1   5
ATOM      5  C   UNL     1       1.410   5.394   9.402  1.00  0.00     0.181 C 
BRANCH   5   6
ATOM      6  C   UNL     1       1.224   4.006  10.074  1.00  0.00     0.209 C 
BRANCH   6   7
ATOM      7  C   UNL     1       0.238   4.072  11.211  1.00  0.00     0.258 C 
ATOM      8  O   UNL     1       0.426   4.818  12.159  1.00  0.00    -0.300 OA
ENDBRANCH   6   7
BRANCH   6   9
ATOM      9  O   UNL     1       0.824   3.032   9.142  1.00  0.00    -0.383 OA
ATOM     10  H   UNL     1       0.440   2.268   9.648  1.00  0.00     0.211 HD
ENDBRANCH   6   9
ENDBRANCH   5   6
BRANCH   5  11
ATOM     11  O   UNL     1       0.253   6.184   9.539  1.00  0.00    -0.387 OA
ATOM     12  H   UNL     1       0.537   7.115   9.729  1.00  0.00     0.211 HD
ENDBRANCH   5  11
ENDBRANCH   1   5
BRANCH   1  13
ATOM     13  O   UNL     1       3.352   5.372  10.892  1.00  0.00    -0.388 OA
ATOM     14  H   UNL     1       2.776   4.602  11.141  1.00  0.00     0.211 HD
ENDBRANCH   1  13
TORSDOF 8
ENDMDL
MODEL 7
REMARK VINA RESULT:    -3.831     11.668     14.379
REMARK INTER + INTRA:          -5.872
REMARK INTER:                  -5.173
REMARK INTRA:                  -0.699
REMARK UNBOUND:                -0.697
REMARK SMILES O=C[C@@H](O)[C@@H](O)[C@H](O)CO
REMARK SMILES IDX 7 1 9 2 10 3 5 5 3 6 2 7 1 8 4 9 6 11 8 13
REMARK H PARENT 10 4 4 10 6 12 8 14
REMARK Flexibility Score: inf
ROOT
ATOM      1  C   UNL     1      -0.044   3.395   6.816  1.00  0.00     0.171 C 
ENDROOT
BRANCH   1   2
ATOM      2  C   UNL     1      -0.981   3.250   5.605  1.00  0.00     0.190 C 
BRANCH   2   3
ATOM      3  O   UNL     1      -0.804   4.336   4.739  1.00  0.00    -0.394 OA
ATOM      4  H   UNL     1       0.137   4.629   4.851  1.00  0.00     0.210 HD
ENDBRANCH   2   3
ENDBRANCH   1   2
BRANCH   1   5
ATOM      5  C   UNL     1      -0.682   4.257   7.938  1.00  0.00     0.181 C 
BRANCH   5   6
ATOM      6  C   UNL     1       0.322   4.570   9.080  1.00  0.00     0.209 C 
BRANCH   6   7
ATOM      7  C   UNL     1      -0.390   4.953  10.350  1.00  0.00     0.258 C 
ATOM      8  O   UNL     1      -1.609   4.914  10.420  1.00  0.00    -0.300 OA
ENDBRANCH   6   7
BRANCH   6   9
ATOM      9  O   UNL     1       1.185   3.485   9.317  1.00  0.00    -0.383 OA
ATOM     10  H   UNL     1       0.659   2.773   9.769  1.00  0.00     0.211 HD
ENDBRANCH   6   9
ENDBRANCH   5   6
BRANCH   5  11
ATOM     11  O   UNL     1      -1.239   5.439   7.412  1.00  0.00    -0.387 OA
ATOM     12  H   UNL     1      -1.053   6.176   8.050  1.00  0.00     0.211 HD
ENDBRANCH   5  11
ENDBRANCH   1   5
BRANCH   1  13
ATOM     13  O   UNL     1       1.211   3.901   6.429  1.00  0.00    -0.388 OA
ATOM     14  H   UNL     1       1.869   3.159   6.476  1.00  0.00     0.211 HD
ENDBRANCH   1  13
TORSDOF 8
ENDMDL
MODEL 8
REMARK VINA RESULT:    -3.816     10.898     13.006
REMARK INTER + INTRA:          -5.851
REMARK INTER:                  -5.097
REMARK INTRA:                  -0.755
REMARK UNBOUND:                -0.697
REMARK SMILES O=C[C@@H](O)[C@@H](O)[C@H](O)CO
REMARK SMILES IDX 7 1 9 2 10 3 5 5 3 6 2 7 1 8 4 9 6 11 8 13
REMARK H PARENT 10 4 4 10 6 12 8 14
REMARK Flexibility Score: inf
ROOT
ATOM      1  C   UNL     1      -0.346   4.393   7.665  1.00  0.00     0.171 C 
ENDROOT
BRANCH   1   2
ATOM      2  C   UNL     1      -0.927   2.981   7.487  1.00  0.00     0.190 C 
BRANCH   2   3
ATOM      3  O   UNL     1       0.089   2.029   7.643  1.00  0.00    -0.394 OA
ATOM      4  H   UNL     1       0.668   2.361   8.378  1.00  0.00     0.210 HD
ENDBRANCH   2   3
ENDBRANCH   1   2
BRANCH   1   5
ATOM      5  C   UNL     1       0.229   4.605   9.092  1.00  0.00     0.181 C 
BRANCH   5   6
ATOM      6  C   UNL     1      -0.802   4.247  10.198  1.00  0.00     0.209 C 
BRANCH   6   7
ATOM      7  C   UNL     1      -0.166   4.248  11.563  1.00  0.00     0.258 C 
ATOM      8  O   UNL     1       0.715   5.046  11.842  1.00  0.00    -0.300 OA
ENDBRANCH   6   7
BRANCH   6   9
ATOM      9  O   UNL     1      -1.903   5.122  10.176  1.00  0.00    -0.383 OA
ATOM     10  H   UNL     1      -1.563   6.032   9.968  1.00  0.00     0.211 HD
ENDBRANCH   6   9
ENDBRANCH   5   6
BRANCH   5  11
ATOM     11  O   UNL     1       1.428   3.889   9.265  1.00  0.00    -0.387 OA
ATOM     12  H   UNL     1       1.198   2.933   9.406  1.00  0.00     0.211 HD
ENDBRANCH   5  11
ENDBRANCH   1   5
BRANCH   1  13
ATOM     13  O   UNL     1      -1.298   5.378   7.342  1.00  0.00    -0.388 OA
ATOM     14  H   UNL     1      -1.005   6.235   7.749  1.00  0.00     0.211 HD
ENDBRANCH   1  13
TORSDOF 8
ENDMDL
MODEL 9
REMARK VINA RESULT:    -3.761      5.145      6.715
REMARK INTER + INTRA:          -5.777
REMARK INTER:                  -4.897
REMARK INTRA:                  -0.881
REMARK UNBOUND:                -0.697
REMARK SMILES O=C[C@@H](O)[C@@H](O)[C@H](O)CO
REMARK SMILES IDX 7 1 9 2 10 3 5 5 3 6 2 7 1 8 4 9 6 11 8 13
REMARK H PARENT 10 4 4 10 6 12 8 14
REMARK Flexibility Score: inf
ROOT
ATOM      1  C   UNL     1      -1.394   0.224  16.708  1.00  0.00     0.171 C 
ENDROOT
BRANCH   1   2
ATOM      2  C   UNL     1      -1.112  -0.649  17.942  1.00  0.00     0.190 C 
BRANCH   2   3
ATOM      3  O   UNL     1       0.261  -0.643  18.220  1.00  0.00    -0.394 OA
ATOM      4  H   UNL     1       0.527  -1.594  18.317  1.00  0.00     0.210 HD
ENDBRANCH   2   3
ENDBRANCH   1   2
BRANCH   1   5
ATOM      5  C   UNL     1      -0.802  -0.397  15.415  1.00  0.00     0.181 C 
BRANCH   5   6
ATOM      6  C   UNL     1       0.425   0.399  14.891  1.00  0.00     0.209 C 
BRANCH   6   7
ATOM      7  C   UNL     1       1.671  -0.447  14.892  1.00  0.00     0.258 C 
ATOM      8  O   UNL     1       2.241  -0.718  15.938  1.00  0.00    -0.300 OA
ENDBRANCH   6   7
BRANCH   6   9
ATOM      9  O   UNL     1       0.192   0.914  13.603  1.00  0.00    -0.383 OA
ATOM     10  H   UNL     1       0.382   1.889  13.628  1.00  0.00     0.211 HD
ENDBRANCH   6   9
ENDBRANCH   5   6
BRANCH   5  11
ATOM     11  O   UNL     1      -0.482  -1.755  15.606  1.00  0.00    -0.387 OA
ATOM     12  H   UNL     1      -0.112  -1.857  16.521  1.00  0.00     0.211 HD
ENDBRANCH   5  11
ENDBRANCH   1   5
BRANCH   1  13
ATOM     13  O   UNL     1      -0.937   1.541  16.903  1.00  0.00    -0.388 OA
ATOM     14  H   UNL     1      -0.829   1.688  17.879  1.00  0.00     0.211 HD
ENDBRANCH   1  13
TORSDOF 8
ENDMDL
