MODEL 1
REMARK VINA RESULT:    -3.978      0.000      0.000
REMARK INTER + INTRA:          -7.066
REMARK INTER:                  -5.373
REMARK INTRA:                  -1.693
REMARK UNBOUND:                -1.693
REMARK SMILES CC(=O)CCC=C(C)CCC=C(C)C
REMARK SMILES IDX 7 1 6 2 8 3 9 4 10 5 11 6 13 7 12 8 14 9 5 10 4 11 2 12 3 13
REMARK SMILES IDX 1 14
REMARK H PARENT
REMARK Flexibility Score: inf
ROOT
ATOM      1  C   UNL     1      45.247  58.132  27.775  1.00  0.00    -0.077 C 
ATOM      2  C   UNL     1      44.595  57.345  28.662  1.00  0.00    -0.028 C 
ATOM      3  C   UNL     1      46.714  58.399  27.998  1.00  0.00     0.039 C 
ENDROOT
BRANCH   1   4
ATOM      4  C   UNL     1      44.555  58.815  26.612  1.00  0.00     0.034 C 
BRANCH   4   5
ATOM      5  C   UNL     1      45.083  58.278  25.278  1.00  0.00     0.032 C 
BRANCH   5   6
ATOM      6  C   UNL     1      44.351  57.021  24.880  1.00  0.00    -0.028 C 
ATOM      7  C   UNL     1      44.003  54.608  24.567  1.00  0.00     0.039 C 
ATOM      8  C   UNL     1      44.870  55.775  24.962  1.00  0.00    -0.080 C 
ATOM      9  C   UNL     1      46.289  55.528  25.420  1.00  0.00     0.039 C 
ENDBRANCH   5   6
ENDBRANCH   4   5
ENDBRANCH   1   4
BRANCH   2  10
ATOM     10  C   UNL     1      43.136  56.977  28.577  1.00  0.00     0.035 C 
BRANCH  10  11
ATOM     11  C   UNL     1      42.970  55.506  28.162  1.00  0.00     0.079 C 
BRANCH  11  12
ATOM     12  C   UNL     1      41.673  55.202  27.446  1.00  0.00     0.130 C 
ATOM     13  O   UNL     1      41.090  54.164  27.720  1.00  0.00    -0.300 OA
ATOM     14  C   UNL     1      41.076  56.113  26.409  1.00  0.00     0.087 C 
ENDBRANCH  11  12
ENDBRANCH  10  11
ENDBRANCH   2  10
TORSDOF 6
ENDMDL
MODEL 2
REMARK VINA RESULT:    -3.955      2.326      4.152
REMARK INTER + INTRA:          -7.036
REMARK INTER:                  -5.631
REMARK INTRA:                  -1.404
REMARK UNBOUND:                -1.693
REMARK SMILES CC(=O)CCC=C(C)CCC=C(C)C
REMARK SMILES IDX 7 1 6 2 8 3 9 4 10 5 11 6 13 7 12 8 14 9 5 10 4 11 2 12 3 13
REMARK SMILES IDX 1 14
REMARK H PARENT
REMARK Flexibility Score: inf
ROOT
ATOM      1  C   UNL     1      42.535  56.096  27.607  1.00  0.00    -0.077 C 
ATOM      2  C   UNL     1      42.933  56.883  28.634  1.00  0.00    -0.028 C 
ATOM      3  C   UNL     1      41.059  55.982  27.323  1.00  0.00     0.039 C 
ENDROOT
BRANCH   1   4
ATOM      4  C   UNL     1      43.499  55.269  26.780  1.00  0.00     0.034 C 
BRANCH   4   5
ATOM      5  C   UNL     1      43.381  55.627  25.295  1.00  0.00     0.032 C 
BRANCH   5   6
ATOM      6  C   UNL     1      43.889  57.025  25.040  1.00  0.00    -0.028 C 
ATOM      7  C   UNL     1      45.396  58.761  24.172  1.00  0.00     0.039 C 
ATOM      8  C   UNL     1      45.038  57.314  24.388  1.00  0.00    -0.080 C 
ATOM      9  C   UNL     1      45.969  56.233  23.890  1.00  0.00     0.039 C 
ENDBRANCH   5   6
ENDBRANCH   4   5
ENDBRANCH   1   4
BRANCH   2  10
ATOM     10  C   UNL     1      44.366  57.108  29.042  1.00  0.00     0.035 C 
BRANCH  10  11
ATOM     11  C   UNL     1      45.005  58.216  28.190  1.00  0.00     0.079 C 
BRANCH  11  12
ATOM     12  C   UNL     1      46.449  57.961  27.816  1.00  0.00     0.130 C 
ATOM     13  O   UNL     1      47.234  58.895  27.868  1.00  0.00    -0.300 OA
ATOM     14  C   UNL     1      46.956  56.615  27.376  1.00  0.00     0.087 C 
ENDBRANCH  11  12
ENDBRANCH  10  11
ENDBRANCH   2  10
TORSDOF 6
ENDMDL
MODEL 3
REMARK VINA RESULT:    -3.937      2.048      4.849
REMARK INTER + INTRA:          -7.011
REMARK INTER:                  -5.411
REMARK INTRA:                  -1.601
REMARK UNBOUND:                -1.693
REMARK SMILES CC(=O)CCC=C(C)CCC=C(C)C
REMARK SMILES IDX 7 1 6 2 8 3 9 4 10 5 11 6 13 7 12 8 14 9 5 10 4 11 2 12 3 13
REMARK SMILES IDX 1 14
REMARK H PARENT
REMARK Flexibility Score: inf
ROOT
ATOM      1  C   UNL     1      42.198  55.569  27.015  1.00  0.00    -0.077 C 
ATOM      2  C   UNL     1      42.727  55.168  25.835  1.00  0.00    -0.028 C 
ATOM      3  C   UNL     1      40.770  56.050  27.032  1.00  0.00     0.039 C 
ENDROOT
BRANCH   1   4
ATOM      4  C   UNL     1      42.997  55.625  28.301  1.00  0.00     0.034 C 
BRANCH   4   5
ATOM      5  C   UNL     1      43.251  57.078  28.717  1.00  0.00     0.032 C 
BRANCH   5   6
ATOM      6  C   UNL     1      44.726  57.393  28.685  1.00  0.00    -0.028 C 
ATOM      7  C   UNL     1      46.794  58.461  27.898  1.00  0.00     0.039 C 
ATOM      8  C   UNL     1      45.314  58.206  27.779  1.00  0.00    -0.080 C 
ATOM      9  C   UNL     1      44.536  58.847  26.653  1.00  0.00     0.039 C 
ENDBRANCH   5   6
ENDBRANCH   4   5
ENDBRANCH   1   4
BRANCH   2  10
ATOM     10  C   UNL     1      44.133  54.655  25.651  1.00  0.00     0.035 C 
BRANCH  10  11
ATOM     11  C   UNL     1      44.958  55.628  24.795  1.00  0.00     0.079 C 
BRANCH  11  12
ATOM     12  C   UNL     1      46.376  55.836  25.279  1.00  0.00     0.130 C 
ATOM     13  O   UNL     1      47.054  56.692  24.733  1.00  0.00    -0.300 OA
ATOM     14  C   UNL     1      46.989  55.033  26.393  1.00  0.00     0.087 C 
ENDBRANCH  11  12
ENDBRANCH  10  11
ENDBRANCH   2  10
TORSDOF 6
ENDMDL
MODEL 4
REMARK VINA RESULT:    -3.846      1.711      4.016
REMARK INTER + INTRA:          -6.889
REMARK INTER:                  -5.951
REMARK INTRA:                  -0.938
REMARK UNBOUND:                -1.693
REMARK SMILES CC(=O)CCC=C(C)CCC=C(C)C
REMARK SMILES IDX 7 1 6 2 8 3 9 4 10 5 11 6 13 7 12 8 14 9 5 10 4 11 2 12 3 13
REMARK SMILES IDX 1 14
REMARK H PARENT
REMARK Flexibility Score: inf
ROOT
ATOM      1  C   UNL     1      42.899  55.500  26.803  1.00  0.00    -0.077 C 
ATOM      2  C   UNL     1      41.703  55.671  26.194  1.00  0.00    -0.028 C 
ATOM      3  C   UNL     1      44.085  55.118  25.956  1.00  0.00     0.039 C 
ENDROOT
BRANCH   1   4
ATOM      4  C   UNL     1      43.084  55.604  28.304  1.00  0.00     0.034 C 
BRANCH   4   5
ATOM      5  C   UNL     1      43.330  57.058  28.720  1.00  0.00     0.032 C 
BRANCH   5   6
ATOM      6  C   UNL     1      44.801  57.388  28.664  1.00  0.00    -0.028 C 
ATOM      7  C   UNL     1      46.847  58.470  27.839  1.00  0.00     0.039 C 
ATOM      8  C   UNL     1      45.369  58.199  27.744  1.00  0.00    -0.080 C 
ATOM      9  C   UNL     1      44.568  58.822  26.623  1.00  0.00     0.039 C 
ENDBRANCH   5   6
ENDBRANCH   4   5
ENDBRANCH   1   4
BRANCH   2  10
ATOM     10  C   UNL     1      40.426  56.060  26.896  1.00  0.00     0.035 C 
BRANCH  10  11
ATOM     11  C   UNL     1      39.228  55.303  26.301  1.00  0.00     0.079 C 
BRANCH  11  12
ATOM     12  C   UNL     1      38.724  54.162  27.157  1.00  0.00     0.130 C 
ATOM     13  O   UNL     1      37.561  54.186  27.529  1.00  0.00    -0.300 OA
ATOM     14  C   UNL     1      39.592  53.007  27.576  1.00  0.00     0.087 C 
ENDBRANCH  11  12
ENDBRANCH  10  11
ENDBRANCH   2  10
TORSDOF 6
ENDMDL
MODEL 5
REMARK VINA RESULT:    -3.839      2.693      4.293
REMARK INTER + INTRA:          -6.879
REMARK INTER:                  -5.138
REMARK INTRA:                  -1.741
REMARK UNBOUND:                -1.693
REMARK SMILES CC(=O)CCC=C(C)CCC=C(C)C
REMARK SMILES IDX 7 1 6 2 8 3 9 4 10 5 11 6 13 7 12 8 14 9 5 10 4 11 2 12 3 13
REMARK SMILES IDX 1 14
REMARK H PARENT
REMARK Flexibility Score: inf
ROOT
ATOM      1  C   UNL     1      43.614  56.779  27.667  1.00  0.00    -0.077 C 
ATOM      2  C   UNL     1      44.514  57.394  28.468  1.00  0.00    -0.028 C 
ATOM      3  C   UNL     1      42.777  55.669  28.250  1.00  0.00     0.039 C 
ENDROOT
BRANCH   1   4
ATOM      4  C   UNL     1      43.461  57.105  26.195  1.00  0.00     0.034 C 
BRANCH   4   5
ATOM      5  C   UNL     1      43.800  55.884  25.333  1.00  0.00     0.032 C 
BRANCH   5   6
ATOM      6  C   UNL     1      45.143  56.056  24.667  1.00  0.00    -0.028 C 
ATOM      7  C   UNL     1      47.541  55.686  24.283  1.00  0.00     0.039 C 
ATOM      8  C   UNL     1      46.281  55.452  25.074  1.00  0.00    -0.080 C 
ATOM      9  C   UNL     1      46.324  54.568  26.300  1.00  0.00     0.039 C 
ENDBRANCH   5   6
ENDBRANCH   4   5
ENDBRANCH   1   4
BRANCH   2  10
ATOM     10  C   UNL     1      45.419  58.522  28.042  1.00  0.00     0.035 C 
BRANCH  10  11
ATOM     11  C   UNL     1      46.832  58.000  27.738  1.00  0.00     0.079 C 
BRANCH  11  12
ATOM     12  C   UNL     1      47.505  58.670  26.561  1.00  0.00     0.130 C 
ATOM     13  O   UNL     1      48.725  58.718  26.542  1.00  0.00    -0.300 OA
ATOM     14  C   UNL     1      46.741  59.286  25.421  1.00  0.00     0.087 C 
ENDBRANCH  11  12
ENDBRANCH  10  11
ENDBRANCH   2  10
TORSDOF 6
ENDMDL
MODEL 6
REMARK VINA RESULT:    -3.816      2.162      3.965
REMARK INTER + INTRA:          -6.847
REMARK INTER:                  -5.140
REMARK INTRA:                  -1.708
REMARK UNBOUND:                -1.693
REMARK SMILES CC(=O)CCC=C(C)CCC=C(C)C
REMARK SMILES IDX 7 1 6 2 8 3 9 4 10 5 11 6 13 7 12 8 14 9 5 10 4 11 2 12 3 13
REMARK SMILES IDX 1 14
REMARK H PARENT
REMARK Flexibility Score: inf
ROOT
ATOM      1  C   UNL     1      42.262  55.337  27.551  1.00  0.00    -0.077 C 
ATOM      2  C   UNL     1      42.835  55.894  28.643  1.00  0.00    -0.028 C 
ATOM      3  C   UNL     1      41.735  53.929  27.660  1.00  0.00     0.039 C 
ENDROOT
BRANCH   1   4
ATOM      4  C   UNL     1      42.191  56.036  26.208  1.00  0.00     0.034 C 
BRANCH   4   5
ATOM      5  C   UNL     1      43.055  55.307  25.173  1.00  0.00     0.032 C 
BRANCH   5   6
ATOM      6  C   UNL     1      44.507  55.683  25.328  1.00  0.00    -0.028 C 
ATOM      7  C   UNL     1      46.882  55.362  25.872  1.00  0.00     0.039 C 
ATOM      8  C   UNL     1      45.463  54.860  25.814  1.00  0.00    -0.080 C 
ATOM      9  C   UNL     1      45.144  53.468  26.310  1.00  0.00     0.039 C 
ENDBRANCH   5   6
ENDBRANCH   4   5
ENDBRANCH   1   4
BRANCH   2  10
ATOM     10  C   UNL     1      43.402  57.290  28.701  1.00  0.00     0.035 C 
BRANCH  10  11
ATOM     11  C   UNL     1      44.936  57.257  28.625  1.00  0.00     0.079 C 
BRANCH  11  12
ATOM     12  C   UNL     1      45.541  58.328  27.744  1.00  0.00     0.130 C 
ATOM     13  O   UNL     1      46.704  58.644  27.933  1.00  0.00    -0.300 OA
ATOM     14  C   UNL     1      44.771  59.024  26.655  1.00  0.00     0.087 C 
ENDBRANCH  11  12
ENDBRANCH  10  11
ENDBRANCH   2  10
TORSDOF 6
ENDMDL
MODEL 7
REMARK VINA RESULT:    -3.705      1.896      3.128
REMARK INTER + INTRA:          -6.697
REMARK INTER:                  -5.837
REMARK INTRA:                  -0.860
REMARK UNBOUND:                -1.693
REMARK SMILES CC(=O)CCC=C(C)CCC=C(C)C
REMARK SMILES IDX 7 1 6 2 8 3 9 4 10 5 11 6 13 7 12 8 14 9 5 10 4 11 2 12 3 13
REMARK SMILES IDX 1 14
REMARK H PARENT
REMARK Flexibility Score: inf
ROOT
ATOM      1  C   UNL     1      43.604  56.764  28.020  1.00  0.00    -0.077 C 
ATOM      2  C   UNL     1      42.640  55.835  28.221  1.00  0.00    -0.028 C 
ATOM      3  C   UNL     1      44.282  57.363  29.226  1.00  0.00     0.039 C 
ENDROOT
BRANCH   1   4
ATOM      4  C   UNL     1      43.980  57.280  26.646  1.00  0.00     0.034 C 
BRANCH   4   5
ATOM      5  C   UNL     1      44.473  58.729  26.729  1.00  0.00     0.032 C 
BRANCH   5   6
ATOM      6  C   UNL     1      45.649  58.947  25.810  1.00  0.00    -0.028 C 
ATOM      7  C   UNL     1      48.012  59.052  25.147  1.00  0.00     0.039 C 
ATOM      8  C   UNL     1      46.943  58.847  26.188  1.00  0.00    -0.080 C 
ATOM      9  C   UNL     1      47.340  58.554  27.616  1.00  0.00     0.039 C 
ENDBRANCH   5   6
ENDBRANCH   4   5
ENDBRANCH   1   4
BRANCH   2  10
ATOM     10  C   UNL     1      41.874  55.137  27.125  1.00  0.00     0.035 C 
BRANCH  10  11
ATOM     11  C   UNL     1      40.470  55.742  26.975  1.00  0.00     0.079 C 
BRANCH  11  12
ATOM     12  C   UNL     1      40.066  56.033  25.546  1.00  0.00     0.130 C 
ATOM     13  O   UNL     1      38.895  55.886  25.235  1.00  0.00    -0.300 OA
ATOM     14  C   UNL     1      41.041  56.486  24.495  1.00  0.00     0.087 C 
ENDBRANCH  11  12
ENDBRANCH  10  11
ENDBRANCH   2  10
TORSDOF 6
ENDMDL
MODEL 8
REMARK VINA RESULT:    -3.687      1.416      2.395
REMARK INTER + INTRA:          -6.673
REMARK INTER:                  -5.327
REMARK INTRA:                  -1.346
REMARK UNBOUND:                -1.693
REMARK SMILES CC(=O)CCC=C(C)CCC=C(C)C
REMARK SMILES IDX 7 1 6 2 8 3 9 4 10 5 11 6 13 7 12 8 14 9 5 10 4 11 2 12 3 13
REMARK SMILES IDX 1 14
REMARK H PARENT
REMARK Flexibility Score: inf
ROOT
ATOM      1  C   UNL     1      45.514  58.587  26.916  1.00  0.00    -0.077 C 
ATOM      2  C   UNL     1      44.410  57.951  27.372  1.00  0.00    -0.028 C 
ATOM      3  C   UNL     1      45.403  59.394  25.649  1.00  0.00     0.039 C 
ENDROOT
BRANCH   1   4
ATOM      4  C   UNL     1      46.871  58.463  27.580  1.00  0.00     0.034 C 
BRANCH   4   5
ATOM      5  C   UNL     1      47.836  57.667  26.694  1.00  0.00     0.032 C 
BRANCH   5   6
ATOM      6  C   UNL     1      47.698  56.187  26.948  1.00  0.00    -0.028 C 
ATOM      7  C   UNL     1      47.070  53.860  26.473  1.00  0.00     0.039 C 
ATOM      8  C   UNL     1      47.095  55.320  26.104  1.00  0.00    -0.080 C 
ATOM      9  C   UNL     1      46.439  55.776  24.821  1.00  0.00     0.039 C 
ENDBRANCH   5   6
ENDBRANCH   4   5
ENDBRANCH   1   4
BRANCH   2  10
ATOM     10  C   UNL     1      44.353  57.113  28.624  1.00  0.00     0.035 C 
BRANCH  10  11
ATOM     11  C   UNL     1      43.011  56.370  28.719  1.00  0.00     0.079 C 
BRANCH  11  12
ATOM     12  C   UNL     1      42.605  55.650  27.453  1.00  0.00     0.130 C 
ATOM     13  O   UNL     1      41.565  55.981  26.906  1.00  0.00    -0.300 OA
ATOM     14  C   UNL     1      43.420  54.542  26.844  1.00  0.00     0.087 C 
ENDBRANCH  11  12
ENDBRANCH  10  11
ENDBRANCH   2  10
TORSDOF 6
ENDMDL
MODEL 9
REMARK VINA RESULT:    -3.580      2.538      4.707
REMARK INTER + INTRA:          -6.528
REMARK INTER:                  -5.537
REMARK INTRA:                  -0.991
REMARK UNBOUND:                -1.693
REMARK SMILES CC(=O)CCC=C(C)CCC=C(C)C
REMARK SMILES IDX 7 1 6 2 8 3 9 4 10 5 11 6 13 7 12 8 14 9 5 10 4 11 2 12 3 13
REMARK SMILES IDX 1 14
REMARK H PARENT
REMARK Flexibility Score: inf
ROOT
ATOM      1  C   UNL     1      45.343  57.312  27.905  1.00  0.00    -0.077 C 
ATOM      2  C   UNL     1      46.364  58.200  27.881  1.00  0.00    -0.028 C 
ATOM      3  C   UNL     1      44.261  57.493  28.939  1.00  0.00     0.039 C 
ENDROOT
BRANCH   1   4
ATOM      4  C   UNL     1      45.276  56.106  26.991  1.00  0.00     0.034 C 
BRANCH   4   5
ATOM      5  C   UNL     1      43.877  55.966  26.382  1.00  0.00     0.032 C 
BRANCH   5   6
ATOM      6  C   UNL     1      43.174  54.750  26.931  1.00  0.00    -0.028 C 
ATOM      7  C   UNL     1      41.325  53.447  27.891  1.00  0.00     0.039 C 
ATOM      8  C   UNL     1      41.911  54.750  27.414  1.00  0.00    -0.080 C 
ATOM      9  C   UNL     1      41.087  56.014  27.500  1.00  0.00     0.039 C 
ENDBRANCH   5   6
ENDBRANCH   4   5
ENDBRANCH   1   4
BRANCH   2  10
ATOM     10  C   UNL     1      47.515  58.163  26.909  1.00  0.00     0.035 C 
BRANCH  10  11
ATOM     11  C   UNL     1      47.421  59.329  25.912  1.00  0.00     0.079 C 
BRANCH  11  12
ATOM     12  C   UNL     1      46.272  59.224  24.935  1.00  0.00     0.130 C 
ATOM     13  O   UNL     1      45.405  60.082  24.966  1.00  0.00    -0.300 OA
ATOM     14  C   UNL     1      46.146  58.107  23.935  1.00  0.00     0.087 C 
ENDBRANCH  11  12
ENDBRANCH  10  11
ENDBRANCH   2  10
TORSDOF 6
ENDMDL
