MODEL 1
REMARK VINA RESULT:    -7.135      0.000      0.000
REMARK INTER + INTRA:          -8.923
REMARK INTER:                  -8.595
REMARK INTRA:                  -0.328
REMARK UNBOUND:                -0.328
REMARK SMILES O=c1c(O)c(-c2ccc(O)c(O)c2)oc2cc(O)cc(O)c12
REMARK SMILES IDX 5 1 3 2 2 3 1 4 22 5 20 6 19 7 17 8 16 9 15 10 14 11 6 12
REMARK SMILES IDX 7 13 8 14 9 15 13 16 11 17 10 18 12 20 4 22 21 24 18 26
REMARK H PARENT 10 19 12 21 4 23 21 25 18 27
REMARK Flexibility Score: inf
ROOT
ATOM      1  C   UNL     1      29.557  31.940  18.277  1.00  0.00     0.180 A 
ATOM      2  C   UNL     1      29.979  33.018  17.479  1.00  0.00     0.208 A 
ATOM      3  C   UNL     1      30.927  33.916  17.995  1.00  0.00     0.238 A 
ATOM      4  O   UNL     1      31.340  34.847  17.256  1.00  0.00    -0.285 OA
ATOM      5  C   UNL     1      31.428  33.736  19.306  1.00  0.00     0.111 A 
ATOM      6  C   UNL     1      32.361  34.608  19.944  1.00  0.00     0.134 A 
ATOM      7  C   UNL     1      32.888  34.260  21.194  1.00  0.00     0.093 A 
ATOM      8  C   UNL     1      32.467  33.109  21.858  1.00  0.00     0.123 A 
ATOM      9  C   UNL     1      31.511  32.279  21.269  1.00  0.00     0.094 A 
ATOM     10  C   UNL     1      30.994  32.581  20.007  1.00  0.00     0.146 A 
ATOM     11  O   UNL     1      30.095  31.761  19.478  1.00  0.00    -0.452 OA
ENDROOT
BRANCH   1  12
ATOM     12  C   UNL     1      28.542  30.966  17.813  1.00  0.00     0.025 A 
ATOM     13  C   UNL     1      28.956  29.808  17.137  1.00  0.00     0.016 A 
ATOM     14  C   UNL     1      28.018  28.865  16.708  1.00  0.00     0.051 A 
ATOM     15  C   UNL     1      26.657  29.057  16.961  1.00  0.00     0.157 A 
ATOM     16  C   UNL     1      27.174  31.146  18.085  1.00  0.00     0.062 A 
ATOM     17  C   UNL     1      26.232  30.200  17.657  1.00  0.00     0.158 A 
BRANCH  15  18
ATOM     18  O   UNL     1      25.744  28.100  16.519  1.00  0.00    -0.504 OA
ATOM     19  H   UNL     1      25.571  27.244  17.034  1.00  0.00     0.293 HD
ENDBRANCH  15  18
BRANCH  17  20
ATOM     20  O   UNL     1      24.877  30.391  17.926  1.00  0.00    -0.504 OA
ATOM     21  H   UNL     1      24.333  29.701  18.432  1.00  0.00     0.293 HD
ENDBRANCH  17  20
ENDBRANCH   1  12
BRANCH   2  22
ATOM     22  O   UNL     1      29.487  33.165  16.179  1.00  0.00    -0.502 OA
ATOM     23  H   UNL     1      29.998  32.847  15.364  1.00  0.00     0.293 HD
ENDBRANCH   2  22
BRANCH   6  24
ATOM     24  O   UNL     1      32.777  35.831  19.410  1.00  0.00    -0.507 OA
ATOM     25  H   UNL     1      33.674  36.258  19.583  1.00  0.00     0.293 HD
ENDBRANCH   6  24
BRANCH   8  26
ATOM     26  O   UNL     1      33.000  32.802  23.108  1.00  0.00    -0.508 OA
ATOM     27  H   UNL     1      33.544  33.478  23.633  1.00  0.00     0.293 HD
ENDBRANCH   8  26
TORSDOF 6
ENDMDL
MODEL 2
REMARK VINA RESULT:    -6.877      0.662      1.447
REMARK INTER + INTRA:          -8.613
REMARK INTER:                  -8.291
REMARK INTRA:                  -0.322
REMARK UNBOUND:                -0.328
REMARK SMILES O=c1c(O)c(-c2ccc(O)c(O)c2)oc2cc(O)cc(O)c12
REMARK SMILES IDX 5 1 3 2 2 3 1 4 22 5 20 6 19 7 17 8 16 9 15 10 14 11 6 12
REMARK SMILES IDX 7 13 8 14 9 15 13 16 11 17 10 18 12 20 4 22 21 24 18 26
REMARK H PARENT 10 19 12 21 4 23 21 25 18 27
REMARK Flexibility Score: inf
ROOT
ATOM      1  C   UNL     1      29.595  32.230  18.178  1.00  0.00     0.180 A 
ATOM      2  C   UNL     1      30.145  33.237  17.366  1.00  0.00     0.208 A 
ATOM      3  C   UNL     1      31.171  34.043  17.884  1.00  0.00     0.238 A 
ATOM      4  O   UNL     1      31.697  34.907  17.134  1.00  0.00    -0.285 OA
ATOM      5  C   UNL     1      31.622  33.845  19.210  1.00  0.00     0.111 A 
ATOM      6  C   UNL     1      32.628  34.630  19.850  1.00  0.00     0.134 A 
ATOM      7  C   UNL     1      33.088  34.261  21.120  1.00  0.00     0.093 A 
ATOM      8  C   UNL     1      32.534  33.177  21.800  1.00  0.00     0.123 A 
ATOM      9  C   UNL     1      31.508  32.438  21.208  1.00  0.00     0.094 A 
ATOM     10  C   UNL     1      31.054  32.760  19.927  1.00  0.00     0.146 A 
ATOM     11  O   UNL     1      30.084  32.026  19.395  1.00  0.00    -0.452 OA
ENDROOT
BRANCH   1  12
ATOM     12  C   UNL     1      28.493  31.356  17.712  1.00  0.00     0.025 A 
ATOM     13  C   UNL     1      27.164  31.783  17.855  1.00  0.00     0.016 A 
ATOM     14  C   UNL     1      26.111  30.984  17.404  1.00  0.00     0.051 A 
ATOM     15  C   UNL     1      26.370  29.755  16.790  1.00  0.00     0.157 A 
ATOM     16  C   UNL     1      28.752  30.129  17.076  1.00  0.00     0.062 A 
ATOM     17  C   UNL     1      27.696  29.326  16.620  1.00  0.00     0.158 A 
BRANCH  15  18
ATOM     18  O   UNL     1      25.298  28.978  16.351  1.00  0.00    -0.504 OA
ATOM     19  H   UNL     1      24.355  29.345  16.296  1.00  0.00     0.293 HD
ENDBRANCH  15  18
BRANCH  17  20
ATOM     20  O   UNL     1      27.962  28.108  15.996  1.00  0.00    -0.504 OA
ATOM     21  H   UNL     1      28.901  27.732  15.941  1.00  0.00     0.293 HD
ENDBRANCH  17  20
ENDBRANCH   1  12
BRANCH   2  22
ATOM     22  O   UNL     1      29.700  33.402  16.051  1.00  0.00    -0.502 OA
ATOM     23  H   UNL     1      30.029  32.823  15.288  1.00  0.00     0.293 HD
ENDBRANCH   2  22
BRANCH   6  24
ATOM     24  O   UNL     1      33.183  35.788  19.298  1.00  0.00    -0.507 OA
ATOM     25  H   UNL     1      32.715  36.679  19.242  1.00  0.00     0.293 HD
ENDBRANCH   6  24
BRANCH   8  26
ATOM     26  O   UNL     1      33.005  32.848  23.070  1.00  0.00    -0.508 OA
ATOM     27  H   UNL     1      33.676  33.433  23.554  1.00  0.00     0.293 HD
ENDBRANCH   8  26
TORSDOF 6
ENDMDL
MODEL 3
REMARK VINA RESULT:    -6.567      2.698      4.750
REMARK INTER + INTRA:          -8.239
REMARK INTER:                  -8.158
REMARK INTRA:                  -0.081
REMARK UNBOUND:                -0.328
REMARK SMILES O=c1c(O)c(-c2ccc(O)c(O)c2)oc2cc(O)cc(O)c12
REMARK SMILES IDX 5 1 3 2 2 3 1 4 22 5 20 6 19 7 17 8 16 9 15 10 14 11 6 12
REMARK SMILES IDX 7 13 8 14 9 15 13 16 11 17 10 18 12 20 4 22 21 24 18 26
REMARK H PARENT 10 19 12 21 4 23 21 25 18 27
REMARK Flexibility Score: inf
ROOT
ATOM      1  C   UNL     1      33.045  33.676  20.753  1.00  0.00     0.180 A 
ATOM      2  C   UNL     1      33.657  34.911  20.474  1.00  0.00     0.208 A 
ATOM      3  C   UNL     1      34.425  35.531  21.473  1.00  0.00     0.238 A 
ATOM      4  O   UNL     1      35.013  36.609  21.200  1.00  0.00    -0.285 OA
ATOM      5  C   UNL     1      34.558  34.917  22.741  1.00  0.00     0.111 A 
ATOM      6  C   UNL     1      35.279  35.476  23.840  1.00  0.00     0.134 A 
ATOM      7  C   UNL     1      35.455  34.721  25.006  1.00  0.00     0.093 A 
ATOM      8  C   UNL     1      34.881  33.457  25.139  1.00  0.00     0.123 A 
ATOM      9  C   UNL     1      34.124  32.925  24.093  1.00  0.00     0.094 A 
ATOM     10  C   UNL     1      33.962  33.640  22.904  1.00  0.00     0.146 A 
ATOM     11  O   UNL     1      33.244  33.095  21.930  1.00  0.00    -0.452 OA
ENDROOT
BRANCH   1  12
ATOM     12  C   UNL     1      32.200  32.973  19.759  1.00  0.00     0.025 A 
ATOM     13  C   UNL     1      32.757  32.585  18.531  1.00  0.00     0.016 A 
ATOM     14  C   UNL     1      31.984  31.903  17.588  1.00  0.00     0.051 A 
ATOM     15  C   UNL     1      30.651  31.586  17.863  1.00  0.00     0.157 A 
ATOM     16  C   UNL     1      30.865  32.635  20.042  1.00  0.00     0.062 A 
ATOM     17  C   UNL     1      30.089  31.949  19.098  1.00  0.00     0.158 A 
BRANCH  15  18
ATOM     18  O   UNL     1      29.904  30.906  16.902  1.00  0.00    -0.504 OA
ATOM     19  H   UNL     1      30.328  30.253  16.253  1.00  0.00     0.293 HD
ENDBRANCH  15  18
BRANCH  17  20
ATOM     20  O   UNL     1      28.764  31.623  19.385  1.00  0.00    -0.504 OA
ATOM     21  H   UNL     1      28.175  31.148  18.710  1.00  0.00     0.293 HD
ENDBRANCH  17  20
ENDBRANCH   1  12
BRANCH   2  22
ATOM     22  O   UNL     1      33.530  35.489  19.208  1.00  0.00    -0.502 OA
ATOM     23  H   UNL     1      32.921  36.278  19.028  1.00  0.00     0.293 HD
ENDBRANCH   2  22
BRANCH   6  24
ATOM     24  O   UNL     1      35.813  36.767  23.847  1.00  0.00    -0.507 OA
ATOM     25  H   UNL     1      36.413  37.137  24.568  1.00  0.00     0.293 HD
ENDBRANCH   6  24
BRANCH   8  26
ATOM     26  O   UNL     1      35.063  32.740  26.320  1.00  0.00    -0.508 OA
ATOM     27  H   UNL     1      35.972  32.671  26.764  1.00  0.00     0.293 HD
ENDBRANCH   8  26
TORSDOF 6
ENDMDL
MODEL 4
REMARK VINA RESULT:    -6.521      1.574      1.809
REMARK INTER + INTRA:          -8.183
REMARK INTER:                  -8.035
REMARK INTRA:                  -0.148
REMARK UNBOUND:                -0.328
REMARK SMILES O=c1c(O)c(-c2ccc(O)c(O)c2)oc2cc(O)cc(O)c12
REMARK SMILES IDX 5 1 3 2 2 3 1 4 22 5 20 6 19 7 17 8 16 9 15 10 14 11 6 12
REMARK SMILES IDX 7 13 8 14 9 15 13 16 11 17 10 18 12 20 4 22 21 24 18 26
REMARK H PARENT 10 19 12 21 4 23 21 25 18 27
REMARK Flexibility Score: inf
ROOT
ATOM      1  C   UNL     1      30.591  32.301  18.632  1.00  0.00     0.180 A 
ATOM      2  C   UNL     1      31.573  32.799  17.757  1.00  0.00     0.208 A 
ATOM      3  C   UNL     1      32.762  33.318  18.295  1.00  0.00     0.238 A 
ATOM      4  O   UNL     1      33.659  33.712  17.505  1.00  0.00    -0.285 OA
ATOM      5  C   UNL     1      32.948  33.347  19.697  1.00  0.00     0.111 A 
ATOM      6  C   UNL     1      34.096  33.886  20.352  1.00  0.00     0.134 A 
ATOM      7  C   UNL     1      34.231  33.744  21.738  1.00  0.00     0.093 A 
ATOM      8  C   UNL     1      33.232  33.142  22.501  1.00  0.00     0.123 A 
ATOM      9  C   UNL     1      32.077  32.663  21.879  1.00  0.00     0.094 A 
ATOM     10  C   UNL     1      31.931  32.758  20.493  1.00  0.00     0.146 A 
ATOM     11  O   UNL     1      30.823  32.282  19.939  1.00  0.00    -0.452 OA
ENDROOT
BRANCH   1  12
ATOM     12  C   UNL     1      29.301  31.761  18.142  1.00  0.00     0.025 A 
ATOM     13  C   UNL     1      28.938  30.444  18.462  1.00  0.00     0.016 A 
ATOM     14  C   UNL     1      27.717  29.921  18.028  1.00  0.00     0.051 A 
ATOM     15  C   UNL     1      26.836  30.709  17.283  1.00  0.00     0.157 A 
ATOM     16  C   UNL     1      28.404  32.559  17.410  1.00  0.00     0.062 A 
ATOM     17  C   UNL     1      27.177  32.037  16.976  1.00  0.00     0.158 A 
BRANCH  15  18
ATOM     18  O   UNL     1      25.625  30.159  16.863  1.00  0.00    -0.504 OA
ATOM     19  H   UNL     1      24.973  30.675  16.283  1.00  0.00     0.293 HD
ENDBRANCH  15  18
BRANCH  17  20
ATOM     20  O   UNL     1      26.296  32.833  16.246  1.00  0.00    -0.504 OA
ATOM     21  H   UNL     1      26.251  33.837  16.380  1.00  0.00     0.293 HD
ENDBRANCH  17  20
ENDBRANCH   1  12
BRANCH   2  22
ATOM     22  O   UNL     1      31.379  32.741  16.375  1.00  0.00    -0.502 OA
ATOM     23  H   UNL     1      31.927  32.138  15.773  1.00  0.00     0.293 HD
ENDBRANCH   2  22
BRANCH   6  24
ATOM     24  O   UNL     1      35.109  34.590  19.696  1.00  0.00    -0.507 OA
ATOM     25  H   UNL     1      35.107  34.820  18.714  1.00  0.00     0.293 HD
ENDBRANCH   6  24
BRANCH   8  26
ATOM     26  O   UNL     1      33.392  33.031  23.881  1.00  0.00    -0.508 OA
ATOM     27  H   UNL     1      33.692  33.819  24.445  1.00  0.00     0.293 HD
ENDBRANCH   8  26
TORSDOF 6
ENDMDL
MODEL 5
REMARK VINA RESULT:    -6.383      3.306      8.542
REMARK INTER + INTRA:          -8.018
REMARK INTER:                  -8.178
REMARK INTRA:                   0.160
REMARK UNBOUND:                -0.328
REMARK SMILES O=c1c(O)c(-c2ccc(O)c(O)c2)oc2cc(O)cc(O)c12
REMARK SMILES IDX 5 1 3 2 2 3 1 4 22 5 20 6 19 7 17 8 16 9 15 10 14 11 6 12
REMARK SMILES IDX 7 13 8 14 9 15 13 16 11 17 10 18 12 20 4 22 21 24 18 26
REMARK H PARENT 10 19 12 21 4 23 21 25 18 27
REMARK Flexibility Score: inf
ROOT
ATOM      1  C   UNL     1      34.199  34.183  22.440  1.00  0.00     0.180 A 
ATOM      2  C   UNL     1      34.886  34.707  21.331  1.00  0.00     0.208 A 
ATOM      3  C   UNL     1      34.352  34.514  20.047  1.00  0.00     0.238 A 
ATOM      4  O   UNL     1      34.943  35.031  19.063  1.00  0.00    -0.285 OA
ATOM      5  C   UNL     1      33.148  33.788  19.886  1.00  0.00     0.111 A 
ATOM      6  C   UNL     1      32.538  33.498  18.629  1.00  0.00     0.134 A 
ATOM      7  C   UNL     1      31.280  32.884  18.596  1.00  0.00     0.093 A 
ATOM      8  C   UNL     1      30.640  32.491  19.771  1.00  0.00     0.123 A 
ATOM      9  C   UNL     1      31.254  32.716  21.004  1.00  0.00     0.094 A 
ATOM     10  C   UNL     1      32.493  33.359  21.070  1.00  0.00     0.146 A 
ATOM     11  O   UNL     1      33.038  33.563  22.262  1.00  0.00    -0.452 OA
ENDROOT
BRANCH   1  12
ATOM     12  C   UNL     1      34.712  34.324  23.823  1.00  0.00     0.025 A 
ATOM     13  C   UNL     1      35.248  35.552  24.239  1.00  0.00     0.016 A 
ATOM     14  C   UNL     1      35.718  35.713  25.545  1.00  0.00     0.051 A 
ATOM     15  C   UNL     1      35.646  34.657  26.457  1.00  0.00     0.157 A 
ATOM     16  C   UNL     1      34.621  33.269  24.749  1.00  0.00     0.062 A 
ATOM     17  C   UNL     1      35.090  33.430  26.060  1.00  0.00     0.158 A 
BRANCH  15  18
ATOM     18  O   UNL     1      36.125  34.847  27.753  1.00  0.00    -0.504 OA
ATOM     19  H   UNL     1      35.965  35.707  28.265  1.00  0.00     0.293 HD
ENDBRANCH  15  18
BRANCH  17  20
ATOM     20  O   UNL     1      35.002  32.377  26.969  1.00  0.00    -0.504 OA
ATOM     21  H   UNL     1      35.196  31.420  26.696  1.00  0.00     0.293 HD
ENDBRANCH  17  20
ENDBRANCH   1  12
BRANCH   2  22
ATOM     22  O   UNL     1      36.061  35.440  21.514  1.00  0.00    -0.502 OA
ATOM     23  H   UNL     1      36.952  35.144  21.134  1.00  0.00     0.293 HD
ENDBRANCH   2  22
BRANCH   6  24
ATOM     24  O   UNL     1      33.134  33.764  17.392  1.00  0.00    -0.507 OA
ATOM     25  H   UNL     1      33.837  33.187  16.957  1.00  0.00     0.293 HD
ENDBRANCH   6  24
BRANCH   8  26
ATOM     26  O   UNL     1      29.395  31.868  19.701  1.00  0.00    -0.508 OA
ATOM     27  H   UNL     1      29.200  31.151  19.012  1.00  0.00     0.293 HD
ENDBRANCH   8  26
TORSDOF 6
ENDMDL
MODEL 6
REMARK VINA RESULT:    -6.285      2.384      7.498
REMARK INTER + INTRA:          -7.899
REMARK INTER:                  -7.921
REMARK INTRA:                   0.022
REMARK UNBOUND:                -0.328
REMARK SMILES O=c1c(O)c(-c2ccc(O)c(O)c2)oc2cc(O)cc(O)c12
REMARK SMILES IDX 5 1 3 2 2 3 1 4 22 5 20 6 19 7 17 8 16 9 15 10 14 11 6 12
REMARK SMILES IDX 7 13 8 14 9 15 13 16 11 17 10 18 12 20 4 22 21 24 18 26
REMARK H PARENT 10 19 12 21 4 23 21 25 18 27
REMARK Flexibility Score: inf
ROOT
ATOM      1  C   UNL     1      33.107  33.373  20.496  1.00  0.00     0.180 A 
ATOM      2  C   UNL     1      33.725  33.487  19.238  1.00  0.00     0.208 A 
ATOM      3  C   UNL     1      33.057  32.993  18.106  1.00  0.00     0.238 A 
ATOM      4  O   UNL     1      33.591  33.146  16.976  1.00  0.00    -0.285 OA
ATOM      5  C   UNL     1      31.790  32.379  18.246  1.00  0.00     0.111 A 
ATOM      6  C   UNL     1      31.042  31.809  17.173  1.00  0.00     0.134 A 
ATOM      7  C   UNL     1      29.742  31.345  17.407  1.00  0.00     0.093 A 
ATOM      8  C   UNL     1      29.188  31.369  18.686  1.00  0.00     0.123 A 
ATOM      9  C   UNL     1      29.933  31.870  19.755  1.00  0.00     0.094 A 
ATOM     10  C   UNL     1      31.219  32.374  19.545  1.00  0.00     0.146 A 
ATOM     11  O   UNL     1      31.890  32.851  20.586  1.00  0.00    -0.452 OA
ENDROOT
BRANCH   1  12
ATOM     12  C   UNL     1      33.759  33.847  21.739  1.00  0.00     0.025 A 
ATOM     13  C   UNL     1      34.251  35.160  21.804  1.00  0.00     0.016 A 
ATOM     14  C   UNL     1      34.851  35.634  22.973  1.00  0.00     0.051 A 
ATOM     15  C   UNL     1      34.954  34.811  24.098  1.00  0.00     0.157 A 
ATOM     16  C   UNL     1      33.845  33.028  22.879  1.00  0.00     0.062 A 
ATOM     17  C   UNL     1      34.444  33.503  24.054  1.00  0.00     0.158 A 
BRANCH  15  18
ATOM     18  O   UNL     1      35.559  35.312  25.250  1.00  0.00    -0.504 OA
ATOM     19  H   UNL     1      35.127  36.035  25.814  1.00  0.00     0.293 HD
ENDBRANCH  15  18
BRANCH  17  20
ATOM     20  O   UNL     1      34.531  32.682  25.177  1.00  0.00    -0.504 OA
ATOM     21  H   UNL     1      33.732  32.520  25.780  1.00  0.00     0.293 HD
ENDBRANCH  17  20
ENDBRANCH   1  12
BRANCH   2  22
ATOM     22  O   UNL     1      34.967  34.116  19.118  1.00  0.00    -0.502 OA
ATOM     23  H   UNL     1      35.271  34.846  19.751  1.00  0.00     0.293 HD
ENDBRANCH   2  22
BRANCH   6  24
ATOM     24  O   UNL     1      31.537  31.650  15.875  1.00  0.00    -0.507 OA
ATOM     25  H   UNL     1      31.530  32.366  15.166  1.00  0.00     0.293 HD
ENDBRANCH   6  24
BRANCH   8  26
ATOM     26  O   UNL     1      27.897  30.884  18.886  1.00  0.00    -0.508 OA
ATOM     27  H   UNL     1      27.711  29.891  18.971  1.00  0.00     0.293 HD
ENDBRANCH   8  26
TORSDOF 6
ENDMDL
MODEL 7
REMARK VINA RESULT:    -6.259     15.905     17.684
REMARK INTER + INTRA:          -7.868
REMARK INTER:                  -7.544
REMARK INTRA:                  -0.324
REMARK UNBOUND:                -0.328
REMARK SMILES O=c1c(O)c(-c2ccc(O)c(O)c2)oc2cc(O)cc(O)c12
REMARK SMILES IDX 5 1 3 2 2 3 1 4 22 5 20 6 19 7 17 8 16 9 15 10 14 11 6 12
REMARK SMILES IDX 7 13 8 14 9 15 13 16 11 17 10 18 12 20 4 22 21 24 18 26
REMARK H PARENT 10 19 12 21 4 23 21 25 18 27
REMARK Flexibility Score: inf
ROOT
ATOM      1  C   UNL     1      19.816  32.425  31.887  1.00  0.00     0.180 A 
ATOM      2  C   UNL     1      18.429  32.231  31.768  1.00  0.00     0.208 A 
ATOM      3  C   UNL     1      17.814  31.229  32.536  1.00  0.00     0.238 A 
ATOM      4  O   UNL     1      16.565  31.096  32.466  1.00  0.00    -0.285 OA
ATOM      5  C   UNL     1      18.595  30.424  33.399  1.00  0.00     0.111 A 
ATOM      6  C   UNL     1      18.083  29.354  34.193  1.00  0.00     0.134 A 
ATOM      7  C   UNL     1      18.924  28.710  35.109  1.00  0.00     0.093 A 
ATOM      8  C   UNL     1      20.272  29.052  35.213  1.00  0.00     0.123 A 
ATOM      9  C   UNL     1      20.797  30.057  34.400  1.00  0.00     0.094 A 
ATOM     10  C   UNL     1      19.974  30.742  33.503  1.00  0.00     0.146 A 
ATOM     11  O   UNL     1      20.511  31.698  32.754  1.00  0.00    -0.452 OA
ENDROOT
BRANCH   1  12
ATOM     12  C   UNL     1      20.540  33.445  31.093  1.00  0.00     0.025 A 
ATOM     13  C   UNL     1      20.666  34.750  31.594  1.00  0.00     0.016 A 
ATOM     14  C   UNL     1      21.361  35.722  30.871  1.00  0.00     0.051 A 
ATOM     15  C   UNL     1      21.954  35.402  29.646  1.00  0.00     0.157 A 
ATOM     16  C   UNL     1      21.155  33.121  29.870  1.00  0.00     0.062 A 
ATOM     17  C   UNL     1      21.855  34.095  29.145  1.00  0.00     0.158 A 
BRANCH  15  18
ATOM     18  O   UNL     1      22.641  36.394  28.947  1.00  0.00    -0.504 OA
ATOM     19  H   UNL     1      22.241  37.311  28.781  1.00  0.00     0.293 HD
ENDBRANCH  15  18
BRANCH  17  20
ATOM     20  O   UNL     1      22.456  33.765  27.930  1.00  0.00    -0.504 OA
ATOM     21  H   UNL     1      22.021  33.123  27.278  1.00  0.00     0.293 HD
ENDBRANCH  17  20
ENDBRANCH   1  12
BRANCH   2  22
ATOM     22  O   UNL     1      17.673  33.051  30.926  1.00  0.00    -0.502 OA
ATOM     23  H   UNL     1      17.973  33.981  30.659  1.00  0.00     0.293 HD
ENDBRANCH   2  22
BRANCH   6  24
ATOM     24  O   UNL     1      16.775  28.870  34.100  1.00  0.00    -0.507 OA
ATOM     25  H   UNL     1      16.522  27.894  34.102  1.00  0.00     0.293 HD
ENDBRANCH   6  24
BRANCH   8  26
ATOM     26  O   UNL     1      21.083  28.379  36.125  1.00  0.00    -0.508 OA
ATOM     27  H   UNL     1      22.092  28.363  36.025  1.00  0.00     0.293 HD
ENDBRANCH   8  26
TORSDOF 6
ENDMDL
MODEL 8
REMARK VINA RESULT:    -6.200     16.321     17.596
REMARK INTER + INTRA:          -7.796
REMARK INTER:                  -7.606
REMARK INTRA:                  -0.190
REMARK UNBOUND:                -0.328
REMARK SMILES O=c1c(O)c(-c2ccc(O)c(O)c2)oc2cc(O)cc(O)c12
REMARK SMILES IDX 5 1 3 2 2 3 1 4 22 5 20 6 19 7 17 8 16 9 15 10 14 11 6 12
REMARK SMILES IDX 7 13 8 14 9 15 13 16 11 17 10 18 12 20 4 22 21 24 18 26
REMARK H PARENT 10 19 12 21 4 23 21 25 18 27
REMARK Flexibility Score: inf
ROOT
ATOM      1  C   UNL     1      19.927  31.883  33.119  1.00  0.00     0.180 A 
ATOM      2  C   UNL     1      19.413  33.081  33.644  1.00  0.00     0.208 A 
ATOM      3  C   UNL     1      19.628  34.279  32.942  1.00  0.00     0.238 A 
ATOM      4  O   UNL     1      19.119  35.339  33.389  1.00  0.00    -0.285 OA
ATOM      5  C   UNL     1      20.366  34.265  31.735  1.00  0.00     0.111 A 
ATOM      6  C   UNL     1      20.678  35.425  30.963  1.00  0.00     0.134 A 
ATOM      7  C   UNL     1      21.302  35.279  29.718  1.00  0.00     0.093 A 
ATOM      8  C   UNL     1      21.685  34.024  29.248  1.00  0.00     0.123 A 
ATOM      9  C   UNL     1      21.438  32.888  30.022  1.00  0.00     0.094 A 
ATOM     10  C   UNL     1      20.784  32.999  31.251  1.00  0.00     0.146 A 
ATOM     11  O   UNL     1      20.559  31.894  31.951  1.00  0.00    -0.452 OA
ENDROOT
BRANCH   1  12
ATOM     12  C   UNL     1      19.764  30.584  33.813  1.00  0.00     0.025 A 
ATOM     13  C   UNL     1      18.492  29.994  33.883  1.00  0.00     0.016 A 
ATOM     14  C   UNL     1      18.319  28.761  34.516  1.00  0.00     0.051 A 
ATOM     15  C   UNL     1      19.413  28.091  35.071  1.00  0.00     0.157 A 
ATOM     16  C   UNL     1      20.866  29.899  34.354  1.00  0.00     0.062 A 
ATOM     17  C   UNL     1      20.694  28.660  34.986  1.00  0.00     0.158 A 
BRANCH  15  18
ATOM     18  O   UNL     1      19.208  26.862  35.696  1.00  0.00    -0.504 OA
ATOM     19  H   UNL     1      19.145  25.996  35.174  1.00  0.00     0.293 HD
ENDBRANCH  15  18
BRANCH  17  20
ATOM     20  O   UNL     1      21.792  27.990  35.526  1.00  0.00    -0.504 OA
ATOM     21  H   UNL     1      21.989  28.007  36.520  1.00  0.00     0.293 HD
ENDBRANCH  17  20
ENDBRANCH   1  12
BRANCH   2  22
ATOM     22  O   UNL     1      18.667  33.069  34.826  1.00  0.00    -0.502 OA
ATOM     23  H   UNL     1      18.959  32.554  35.648  1.00  0.00     0.293 HD
ENDBRANCH   2  22
BRANCH   6  24
ATOM     24  O   UNL     1      20.423  36.734  31.384  1.00  0.00    -0.507 OA
ATOM     25  H   UNL     1      21.076  37.312  31.889  1.00  0.00     0.293 HD
ENDBRANCH   6  24
BRANCH   8  26
ATOM     26  O   UNL     1      22.319  33.917  28.011  1.00  0.00    -0.508 OA
ATOM     27  H   UNL     1      23.071  34.542  27.746  1.00  0.00     0.293 HD
ENDBRANCH   8  26
TORSDOF 6
ENDMDL
MODEL 9
REMARK VINA RESULT:    -5.730      2.079      4.031
REMARK INTER + INTRA:          -7.231
REMARK INTER:                  -7.643
REMARK INTRA:                   0.413
REMARK UNBOUND:                -0.328
REMARK SMILES O=c1c(O)c(-c2ccc(O)c(O)c2)oc2cc(O)cc(O)c12
REMARK SMILES IDX 5 1 3 2 2 3 1 4 22 5 20 6 19 7 17 8 16 9 15 10 14 11 6 12
REMARK SMILES IDX 7 13 8 14 9 15 13 16 11 17 10 18 12 20 4 22 21 24 18 26
REMARK H PARENT 10 19 12 21 4 23 21 25 18 27
REMARK Flexibility Score: inf
ROOT
ATOM      1  C   UNL     1      31.942  32.808  19.578  1.00  0.00     0.180 A 
ATOM      2  C   UNL     1      32.106  32.440  20.924  1.00  0.00     0.208 A 
ATOM      3  C   UNL     1      33.108  33.066  21.683  1.00  0.00     0.238 A 
ATOM      4  O   UNL     1      33.215  32.771  22.902  1.00  0.00    -0.285 OA
ATOM      5  C   UNL     1      33.942  34.039  21.083  1.00  0.00     0.111 A 
ATOM      6  C   UNL     1      35.014  34.708  21.747  1.00  0.00     0.134 A 
ATOM      7  C   UNL     1      35.690  35.747  21.095  1.00  0.00     0.093 A 
ATOM      8  C   UNL     1      35.377  36.097  19.782  1.00  0.00     0.123 A 
ATOM      9  C   UNL     1      34.369  35.409  19.102  1.00  0.00     0.094 A 
ATOM     10  C   UNL     1      33.654  34.393  19.740  1.00  0.00     0.146 A 
ATOM     11  O   UNL     1      32.697  33.771  19.062  1.00  0.00    -0.452 OA
ENDROOT
BRANCH   1  12
ATOM     12  C   UNL     1      30.924  32.175  18.707  1.00  0.00     0.025 A 
ATOM     13  C   UNL     1      31.061  32.258  17.312  1.00  0.00     0.016 A 
ATOM     14  C   UNL     1      30.123  31.651  16.472  1.00  0.00     0.051 A 
ATOM     15  C   UNL     1      29.048  30.940  17.011  1.00  0.00     0.157 A 
ATOM     16  C   UNL     1      29.853  31.442  19.246  1.00  0.00     0.062 A 
ATOM     17  C   UNL     1      28.913  30.830  18.404  1.00  0.00     0.158 A 
BRANCH  15  18
ATOM     18  O   UNL     1      28.128  30.347  16.147  1.00  0.00    -0.504 OA
ATOM     19  H   UNL     1      27.281  30.821  15.854  1.00  0.00     0.293 HD
ENDBRANCH  15  18
BRANCH  17  20
ATOM     20  O   UNL     1      27.850  30.110  18.948  1.00  0.00    -0.504 OA
ATOM     21  H   UNL     1      27.196  29.603  18.362  1.00  0.00     0.293 HD
ENDBRANCH  17  20
ENDBRANCH   1  12
BRANCH   2  22
ATOM     22  O   UNL     1      31.258  31.492  21.504  1.00  0.00    -0.502 OA
ATOM     23  H   UNL     1      31.572  30.565  21.761  1.00  0.00     0.293 HD
ENDBRANCH   2  22
BRANCH   6  24
ATOM     24  O   UNL     1      35.470  34.374  23.025  1.00  0.00    -0.507 OA
ATOM     25  H   UNL     1      35.426  33.451  23.428  1.00  0.00     0.293 HD
ENDBRANCH   6  24
BRANCH   8  26
ATOM     26  O   UNL     1      36.080  37.125  19.158  1.00  0.00    -0.508 OA
ATOM     27  H   UNL     1      36.884  36.936  18.570  1.00  0.00     0.293 HD
ENDBRANCH   8  26
TORSDOF 6
ENDMDL
