MODEL 1
REMARK VINA RESULT:    -2.439      0.000      0.000
REMARK INTER + INTRA:          -2.439
REMARK INTER:                  -2.439
REMARK INTRA:                   0.000
REMARK UNBOUND:                 0.000
REMARK SMILES CC(=O)[O-]
REMARK SMILES IDX 1 1 2 2 3 3 4 4
REMARK H PARENT
REMARK Flexibility Score: inf
ROOT
ATOM      1  C   UNL     1      14.650  69.157  31.323  1.00  0.00     0.063 C 
ATOM      2  C   UNL     1      15.530  69.032  32.521  1.00  0.00     0.038 C 
ATOM      3  O   UNL     1      15.278  68.169  33.403  1.00  0.00    -0.550 OA
ATOM      4  O   UNL     1      16.660  69.830  32.641  1.00  0.00    -0.550 OA
ENDROOT
TORSDOF 0
ENDMDL
MODEL 2
REMARK VINA RESULT:    -2.435      7.616      8.101
REMARK INTER + INTRA:          -2.435
REMARK INTER:                  -2.435
REMARK INTRA:                   0.000
REMARK UNBOUND:                 0.000
REMARK SMILES CC(=O)[O-]
REMARK SMILES IDX 1 1 2 2 3 3 4 4
REMARK H PARENT
REMARK Flexibility Score: inf
ROOT
ATOM      1  C   UNL     1      21.281  67.955  28.559  1.00  0.00     0.063 C 
ATOM      2  C   UNL     1      21.845  69.047  27.715  1.00  0.00     0.038 C 
ATOM      3  O   UNL     1      23.089  69.239  27.677  1.00  0.00    -0.550 OA
ATOM      4  O   UNL     1      21.004  69.822  26.926  1.00  0.00    -0.550 OA
ENDROOT
TORSDOF 0
ENDMDL
MODEL 3
REMARK VINA RESULT:    -2.426      7.686      8.048
REMARK INTER + INTRA:          -2.426
REMARK INTER:                  -2.426
REMARK INTRA:                   0.000
REMARK UNBOUND:                 0.000
REMARK SMILES CC(=O)[O-]
REMARK SMILES IDX 1 1 2 2 3 3 4 4
REMARK H PARENT
REMARK Flexibility Score: inf
ROOT
ATOM      1  C   UNL     1      23.241  69.053  27.676  1.00  0.00     0.063 C 
ATOM      2  C   UNL     1      21.753  68.974  27.722  1.00  0.00     0.038 C 
ATOM      3  O   UNL     1      21.186  68.192  28.530  1.00  0.00    -0.550 OA
ATOM      4  O   UNL     1      20.987  69.802  26.912  1.00  0.00    -0.550 OA
ENDROOT
TORSDOF 0
ENDMDL
MODEL 4
REMARK VINA RESULT:    -2.400      0.202      1.623
REMARK INTER + INTRA:          -2.400
REMARK INTER:                  -2.400
REMARK INTRA:                   0.000
REMARK UNBOUND:                 0.000
REMARK SMILES CC(=O)[O-]
REMARK SMILES IDX 1 1 2 2 3 3 4 4
REMARK H PARENT
REMARK Flexibility Score: inf
ROOT
ATOM      1  C   UNL     1      14.740  69.046  31.423  1.00  0.00     0.063 C 
ATOM      2  C   UNL     1      15.682  69.049  32.580  1.00  0.00     0.038 C 
ATOM      3  O   UNL     1      16.667  69.832  32.591  1.00  0.00    -0.550 OA
ATOM      4  O   UNL     1      15.443  68.225  33.673  1.00  0.00    -0.550 OA
ENDROOT
TORSDOF 0
ENDMDL
MODEL 5
REMARK VINA RESULT:    -2.350      2.984      3.263
REMARK INTER + INTRA:          -2.350
REMARK INTER:                  -2.350
REMARK INTRA:                   0.000
REMARK UNBOUND:                 0.000
REMARK SMILES CC(=O)[O-]
REMARK SMILES IDX 1 1 2 2 3 3 4 4
REMARK H PARENT
REMARK Flexibility Score: inf
ROOT
ATOM      1  C   UNL     1      16.734  69.782  33.423  1.00  0.00     0.063 C 
ATOM      2  C   UNL     1      17.407  70.615  34.460  1.00  0.00     0.038 C 
ATOM      3  O   UNL     1      18.101  70.067  35.358  1.00  0.00    -0.550 OA
ATOM      4  O   UNL     1      17.316  72.000  34.408  1.00  0.00    -0.550 OA
ENDROOT
TORSDOF 0
ENDMDL
MODEL 6
REMARK VINA RESULT:    -2.318      9.164      9.622
REMARK INTER + INTRA:          -2.318
REMARK INTER:                  -2.318
REMARK INTRA:                   0.000
REMARK UNBOUND:                 0.000
REMARK SMILES CC(=O)[O-]
REMARK SMILES IDX 1 1 2 2 3 3 4 4
REMARK H PARENT
REMARK Flexibility Score: inf
ROOT
ATOM      1  C   UNL     1      24.324  71.887  28.032  1.00  0.00     0.063 C 
ATOM      2  C   UNL     1      23.065  72.685  28.067  1.00  0.00     0.038 C 
ATOM      3  O   UNL     1      21.981  72.173  27.680  1.00  0.00    -0.550 OA
ATOM      4  O   UNL     1      23.073  73.976  28.578  1.00  0.00    -0.550 OA
ENDROOT
TORSDOF 0
ENDMDL
MODEL 7
REMARK VINA RESULT:    -2.288      9.294      9.800
REMARK INTER + INTRA:          -2.288
REMARK INTER:                  -2.288
REMARK INTRA:                   0.000
REMARK UNBOUND:                 0.000
REMARK SMILES CC(=O)[O-]
REMARK SMILES IDX 1 1 2 2 3 3 4 4
REMARK H PARENT
REMARK Flexibility Score: inf
ROOT
ATOM      1  C   UNL     1      23.423  73.786  29.290  1.00  0.00     0.063 C 
ATOM      2  C   UNL     1      23.306  72.747  28.227  1.00  0.00     0.038 C 
ATOM      3  O   UNL     1      24.335  72.158  27.803  1.00  0.00    -0.550 OA
ATOM      4  O   UNL     1      22.056  72.385  27.741  1.00  0.00    -0.550 OA
ENDROOT
TORSDOF 0
ENDMDL
MODEL 8
REMARK VINA RESULT:    -2.270      9.120      9.575
REMARK INTER + INTRA:          -2.270
REMARK INTER:                  -2.270
REMARK INTRA:                   0.000
REMARK UNBOUND:                 0.000
REMARK SMILES CC(=O)[O-]
REMARK SMILES IDX 1 1 2 2 3 3 4 4
REMARK H PARENT
REMARK Flexibility Score: inf
ROOT
ATOM      1  C   UNL     1      22.330  68.881  27.703  1.00  0.00     0.063 C 
ATOM      2  C   UNL     1      23.750  69.331  27.650  1.00  0.00     0.038 C 
ATOM      3  O   UNL     1      24.641  68.561  27.202  1.00  0.00    -0.550 OA
ATOM      4  O   UNL     1      24.088  70.619  28.043  1.00  0.00    -0.550 OA
ENDROOT
TORSDOF 0
ENDMDL
MODEL 9
REMARK VINA RESULT:    -2.241      1.363      1.782
REMARK INTER + INTRA:          -2.241
REMARK INTER:                  -2.241
REMARK INTRA:                   0.000
REMARK UNBOUND:                 0.000
REMARK SMILES CC(=O)[O-]
REMARK SMILES IDX 1 1 2 2 3 3 4 4
REMARK H PARENT
REMARK Flexibility Score: inf
ROOT
ATOM      1  C   UNL     1      16.859  69.746  32.979  1.00  0.00     0.063 C 
ATOM      2  C   UNL     1      15.630  68.976  32.630  1.00  0.00     0.038 C 
ATOM      3  O   UNL     1      15.249  68.027  33.364  1.00  0.00    -0.550 OA
ATOM      4  O   UNL     1      14.873  69.339  31.523  1.00  0.00    -0.550 OA
ENDROOT
TORSDOF 0
ENDMDL
