MODEL 1
REMARK VINA RESULT:    -3.079      0.000      0.000
REMARK INTER + INTRA:          -4.709
REMARK INTER:                  -4.339
REMARK INTRA:                  -0.370
REMARK UNBOUND:                -0.370
REMARK SMILES CCCCCCCCC(=O)[O-]
REMARK SMILES IDX 6 1 7 2 8 3 9 4 10 5 11 6 5 7 4 8 3 9 2 10 1 11
REMARK H PARENT
REMARK Flexibility Score: inf
ROOT
ATOM      1  C   UNL     1      -4.616  12.193  -3.385  1.00  0.00     0.000 C 
ENDROOT
BRANCH   1   2
ATOM      2  C   UNL     1      -4.751  12.930  -2.045  1.00  0.00     0.006 C 
BRANCH   2   3
ATOM      3  C   UNL     1      -3.812  12.330  -0.993  1.00  0.00     0.053 C 
BRANCH   3   4
ATOM      4  C   UNL     1      -3.533  13.324   0.089  1.00  0.00     0.041 C 
ATOM      5  O   UNL     1      -2.353  13.697   0.318  1.00  0.00    -0.550 OA
ATOM      6  O   UNL     1      -4.582  13.876   0.813  1.00  0.00    -0.550 OA
ENDBRANCH   3   4
ENDBRANCH   2   3
ENDBRANCH   1   2
BRANCH   1   7
ATOM      7  C   UNL     1      -3.238  11.536  -3.564  1.00  0.00     0.000 C 
BRANCH   7   8
ATOM      8  C   UNL     1      -3.327  10.118  -4.155  1.00  0.00    -0.000 C 
BRANCH   8   9
ATOM      9  C   UNL     1      -4.759   9.765  -4.609  1.00  0.00    -0.000 C 
BRANCH   9  10
ATOM     10  C   UNL     1      -4.838   8.480  -5.449  1.00  0.00    -0.003 C 
ATOM     11  C   UNL     1      -3.467   7.882  -5.760  1.00  0.00     0.004 C 
ENDBRANCH   9  10
ENDBRANCH   8   9
ENDBRANCH   7   8
ENDBRANCH   1   7
TORSDOF 7
ENDMDL
MODEL 2
REMARK VINA RESULT:    -3.032     12.552     13.886
REMARK INTER + INTRA:          -4.642
REMARK INTER:                  -4.080
REMARK INTRA:                  -0.563
REMARK UNBOUND:                -0.370
REMARK SMILES CCCCCCCCC(=O)[O-]
REMARK SMILES IDX 6 1 7 2 8 3 9 4 10 5 11 6 5 7 4 8 3 9 2 10 1 11
REMARK H PARENT
REMARK Flexibility Score: inf
ROOT
ATOM      1  C   UNL     1       7.694   8.353  -1.115  1.00  0.00     0.000 C 
ENDROOT
BRANCH   1   2
ATOM      2  C   UNL     1       9.009   8.238  -0.330  1.00  0.00     0.006 C 
BRANCH   2   3
ATOM      3  C   UNL     1       9.553   6.806  -0.380  1.00  0.00     0.053 C 
BRANCH   3   4
ATOM      4  C   UNL     1       9.120   6.038   0.828  1.00  0.00     0.041 C 
ATOM      5  O   UNL     1       8.630   6.640   1.819  1.00  0.00    -0.550 OA
ATOM      6  O   UNL     1       9.213   4.653   0.841  1.00  0.00    -0.550 OA
ENDBRANCH   3   4
ENDBRANCH   2   3
ENDBRANCH   1   2
BRANCH   1   7
ATOM      7  C   UNL     1       6.783   9.470  -0.582  1.00  0.00     0.000 C 
BRANCH   7   8
ATOM      8  C   UNL     1       6.436   9.295   0.907  1.00  0.00    -0.000 C 
BRANCH   8   9
ATOM      9  C   UNL     1       6.807  10.540   1.740  1.00  0.00    -0.000 C 
BRANCH   9  10
ATOM     10  C   UNL     1       8.023  10.326   2.656  1.00  0.00    -0.003 C 
ATOM     11  C   UNL     1       7.738   9.378   3.820  1.00  0.00     0.004 C 
ENDBRANCH   9  10
ENDBRANCH   8   9
ENDBRANCH   7   8
ENDBRANCH   1   7
TORSDOF 7
ENDMDL
MODEL 3
REMARK VINA RESULT:    -3.015     15.145     15.755
REMARK INTER + INTRA:          -4.618
REMARK INTER:                  -4.253
REMARK INTRA:                  -0.365
REMARK UNBOUND:                -0.370
REMARK SMILES CCCCCCCCC(=O)[O-]
REMARK SMILES IDX 6 1 7 2 8 3 9 4 10 5 11 6 5 7 4 8 3 9 2 10 1 11
REMARK H PARENT
REMARK Flexibility Score: inf
ROOT
ATOM      1  C   UNL     1       7.627   0.941  -4.779  1.00  0.00     0.000 C 
ENDROOT
BRANCH   1   2
ATOM      2  C   UNL     1       7.572   2.394  -4.287  1.00  0.00     0.006 C 
BRANCH   2   3
ATOM      3  C   UNL     1       8.886   3.124  -4.584  1.00  0.00     0.053 C 
BRANCH   3   4
ATOM      4  C   UNL     1       9.555   3.538  -3.312  1.00  0.00     0.041 C 
ATOM      5  O   UNL     1      10.365   4.501  -3.307  1.00  0.00    -0.550 OA
ATOM      6  O   UNL     1       9.247   2.891  -2.123  1.00  0.00    -0.550 OA
ENDBRANCH   3   4
ENDBRANCH   2   3
ENDBRANCH   1   2
BRANCH   1   7
ATOM      7  C   UNL     1       7.959   0.835  -6.276  1.00  0.00     0.000 C 
BRANCH   7   8
ATOM      8  C   UNL     1       7.320  -0.397  -6.942  1.00  0.00    -0.000 C 
BRANCH   8   9
ATOM      9  C   UNL     1       6.222  -1.030  -6.061  1.00  0.00    -0.000 C 
BRANCH   9  10
ATOM     10  C   UNL     1       4.890  -1.244  -6.798  1.00  0.00    -0.003 C 
ATOM     11  C   UNL     1       4.997  -1.021  -8.305  1.00  0.00     0.004 C 
ENDBRANCH   9  10
ENDBRANCH   8   9
ENDBRANCH   7   8
ENDBRANCH   1   7
TORSDOF 7
ENDMDL
MODEL 4
REMARK VINA RESULT:    -3.005      2.990      5.323
REMARK INTER + INTRA:          -4.605
REMARK INTER:                  -4.098
REMARK INTRA:                  -0.506
REMARK UNBOUND:                -0.370
REMARK SMILES CCCCCCCCC(=O)[O-]
REMARK SMILES IDX 6 1 7 2 8 3 9 4 10 5 11 6 5 7 4 8 3 9 2 10 1 11
REMARK H PARENT
REMARK Flexibility Score: inf
ROOT
ATOM      1  C   UNL     1      -5.328  12.135  -4.290  1.00  0.00     0.000 C 
ENDROOT
BRANCH   1   2
ATOM      2  C   UNL     1      -4.758  10.737  -4.575  1.00  0.00     0.006 C 
BRANCH   2   3
ATOM      3  C   UNL     1      -3.431  10.526  -3.839  1.00  0.00     0.053 C 
BRANCH   3   4
ATOM      4  C   UNL     1      -2.289  10.531  -4.805  1.00  0.00     0.041 C 
ATOM      5  O   UNL     1      -1.393  11.411  -4.722  1.00  0.00    -0.550 OA
ATOM      6  O   UNL     1      -2.189   9.535  -5.768  1.00  0.00    -0.550 OA
ENDBRANCH   3   4
ENDBRANCH   2   3
ENDBRANCH   1   2
BRANCH   1   7
ATOM      7  C   UNL     1      -4.591  12.853  -3.149  1.00  0.00     0.000 C 
BRANCH   7   8
ATOM      8  C   UNL     1      -5.550  13.525  -2.151  1.00  0.00    -0.000 C 
BRANCH   8   9
ATOM      9  C   UNL     1      -5.207  13.175  -0.688  1.00  0.00    -0.000 C 
BRANCH   9  10
ATOM     10  C   UNL     1      -3.880  12.414  -0.533  1.00  0.00    -0.003 C 
ATOM     11  C   UNL     1      -2.744  13.291  -0.010  1.00  0.00     0.004 C 
ENDBRANCH   9  10
ENDBRANCH   8   9
ENDBRANCH   7   8
ENDBRANCH   1   7
TORSDOF 7
ENDMDL
MODEL 5
REMARK VINA RESULT:    -2.966      1.222      1.902
REMARK INTER + INTRA:          -4.550
REMARK INTER:                  -4.232
REMARK INTRA:                  -0.319
REMARK UNBOUND:                -0.370
REMARK SMILES CCCCCCCCC(=O)[O-]
REMARK SMILES IDX 6 1 7 2 8 3 9 4 10 5 11 6 5 7 4 8 3 9 2 10 1 11
REMARK H PARENT
REMARK Flexibility Score: inf
ROOT
ATOM      1  C   UNL     1      -4.225  11.557  -3.821  1.00  0.00     0.000 C 
ENDROOT
BRANCH   1   2
ATOM      2  C   UNL     1      -3.611  12.335  -2.648  1.00  0.00     0.006 C 
BRANCH   2   3
ATOM      3  C   UNL     1      -4.698  12.823  -1.686  1.00  0.00     0.053 C 
BRANCH   3   4
ATOM      4  C   UNL     1      -4.153  12.950  -0.299  1.00  0.00     0.041 C 
ATOM      5  O   UNL     1      -4.926  13.183   0.667  1.00  0.00    -0.550 OA
ATOM      6  O   UNL     1      -2.797  12.764  -0.066  1.00  0.00    -0.550 OA
ENDBRANCH   3   4
ENDBRANCH   2   3
ENDBRANCH   1   2
BRANCH   1   7
ATOM      7  C   UNL     1      -3.511  10.223  -4.086  1.00  0.00     0.000 C 
BRANCH   7   8
ATOM      8  C   UNL     1      -4.430   9.175  -4.737  1.00  0.00    -0.000 C 
BRANCH   8   9
ATOM      9  C   UNL     1      -5.699   9.810  -5.343  1.00  0.00    -0.000 C 
BRANCH   9  10
ATOM     10  C   UNL     1      -6.865   8.820  -5.505  1.00  0.00    -0.003 C 
ATOM     11  C   UNL     1      -6.777   7.630  -4.551  1.00  0.00     0.004 C 
ENDBRANCH   9  10
ENDBRANCH   8   9
ENDBRANCH   7   8
ENDBRANCH   1   7
TORSDOF 7
ENDMDL
MODEL 6
REMARK VINA RESULT:    -2.947      9.578     10.346
REMARK INTER + INTRA:          -4.524
REMARK INTER:                  -4.320
REMARK INTRA:                  -0.204
REMARK UNBOUND:                -0.370
REMARK SMILES CCCCCCCCC(=O)[O-]
REMARK SMILES IDX 6 1 7 2 8 3 9 4 10 5 11 6 5 7 4 8 3 9 2 10 1 11
REMARK H PARENT
REMARK Flexibility Score: inf
ROOT
ATOM      1  C   UNL     1       7.165   9.082  -2.435  1.00  0.00     0.000 C 
ENDROOT
BRANCH   1   2
ATOM      2  C   UNL     1       6.609   9.547  -1.081  1.00  0.00     0.006 C 
BRANCH   2   3
ATOM      3  C   UNL     1       7.302   8.819   0.075  1.00  0.00     0.053 C 
BRANCH   3   4
ATOM      4  C   UNL     1       6.614   9.115   1.369  1.00  0.00     0.041 C 
ATOM      5  O   UNL     1       6.638  10.278   1.848  1.00  0.00    -0.550 OA
ATOM      6  O   UNL     1       5.904   8.116   2.023  1.00  0.00    -0.550 OA
ENDBRANCH   3   4
ENDBRANCH   2   3
ENDBRANCH   1   2
BRANCH   1   7
ATOM      7  C   UNL     1       6.176   9.307  -3.590  1.00  0.00     0.000 C 
BRANCH   7   8
ATOM      8  C   UNL     1       5.826   8.007  -4.335  1.00  0.00    -0.000 C 
BRANCH   8   9
ATOM      9  C   UNL     1       4.955   8.268  -5.582  1.00  0.00    -0.000 C 
BRANCH   9  10
ATOM     10  C   UNL     1       3.450   8.077  -5.332  1.00  0.00    -0.003 C 
ATOM     11  C   UNL     1       2.651   9.371  -5.473  1.00  0.00     0.004 C 
ENDBRANCH   9  10
ENDBRANCH   8   9
ENDBRANCH   7   8
ENDBRANCH   1   7
TORSDOF 7
ENDMDL
MODEL 7
REMARK VINA RESULT:    -2.931     15.342     16.342
REMARK INTER + INTRA:          -4.501
REMARK INTER:                  -4.207
REMARK INTRA:                  -0.294
REMARK UNBOUND:                -0.370
REMARK SMILES CCCCCCCCC(=O)[O-]
REMARK SMILES IDX 6 1 7 2 8 3 9 4 10 5 11 6 5 7 4 8 3 9 2 10 1 11
REMARK H PARENT
REMARK Flexibility Score: inf
ROOT
ATOM      1  C   UNL     1       6.870  -1.547  -6.831  1.00  0.00     0.000 C 
ENDROOT
BRANCH   1   2
ATOM      2  C   UNL     1       7.749  -0.377  -6.364  1.00  0.00     0.006 C 
BRANCH   2   3
ATOM      3  C   UNL     1       7.285   0.145  -5.000  1.00  0.00     0.053 C 
BRANCH   3   4
ATOM      4  C   UNL     1       7.656   1.585  -4.837  1.00  0.00     0.041 C 
ATOM      5  O   UNL     1       8.552   2.094  -5.560  1.00  0.00    -0.550 OA
ATOM      6  O   UNL     1       6.980   2.377  -3.918  1.00  0.00    -0.550 OA
ENDBRANCH   3   4
ENDBRANCH   2   3
ENDBRANCH   1   2
BRANCH   1   7
ATOM      7  C   UNL     1       5.374  -1.299  -6.586  1.00  0.00     0.000 C 
BRANCH   7   8
ATOM      8  C   UNL     1       4.593  -1.041  -7.886  1.00  0.00    -0.000 C 
BRANCH   8   9
ATOM      9  C   UNL     1       3.965  -2.331  -8.454  1.00  0.00    -0.000 C 
BRANCH   9  10
ATOM     10  C   UNL     1       3.838  -3.460  -7.418  1.00  0.00    -0.003 C 
ATOM     11  C   UNL     1       2.702  -4.433  -7.729  1.00  0.00     0.004 C 
ENDBRANCH   9  10
ENDBRANCH   8   9
ENDBRANCH   7   8
ENDBRANCH   1   7
TORSDOF 7
ENDMDL
MODEL 8
REMARK VINA RESULT:    -2.918     13.926     15.072
REMARK INTER + INTRA:          -4.483
REMARK INTER:                  -4.085
REMARK INTRA:                  -0.398
REMARK UNBOUND:                -0.370
REMARK SMILES CCCCCCCCC(=O)[O-]
REMARK SMILES IDX 6 1 7 2 8 3 9 4 10 5 11 6 5 7 4 8 3 9 2 10 1 11
REMARK H PARENT
REMARK Flexibility Score: inf
ROOT
ATOM      1  C   UNL     1       9.231   6.571   0.058  1.00  0.00     0.000 C 
ENDROOT
BRANCH   1   2
ATOM      2  C   UNL     1       9.998   5.267  -0.209  1.00  0.00     0.006 C 
BRANCH   2   3
ATOM      3  C   UNL     1      10.115   4.430   1.069  1.00  0.00     0.053 C 
BRANCH   3   4
ATOM      4  C   UNL     1       9.630   3.036   0.829  1.00  0.00     0.041 C 
ATOM      5  O   UNL     1       9.230   2.329   1.791  1.00  0.00    -0.550 OA
ATOM      6  O   UNL     1       9.575   2.532  -0.464  1.00  0.00    -0.550 OA
ENDBRANCH   3   4
ENDBRANCH   2   3
ENDBRANCH   1   2
BRANCH   1   7
ATOM      7  C   UNL     1       8.594   6.608   1.456  1.00  0.00     0.000 C 
BRANCH   7   8
ATOM      8  C   UNL     1       8.307   8.040   1.941  1.00  0.00    -0.000 C 
BRANCH   8   9
ATOM      9  C   UNL     1       6.799   8.365   1.937  1.00  0.00    -0.000 C 
BRANCH   9  10
ATOM     10  C   UNL     1       6.442   9.616   1.117  1.00  0.00    -0.003 C 
ATOM     11  C   UNL     1       6.536   9.391  -0.391  1.00  0.00     0.004 C 
ENDBRANCH   9  10
ENDBRANCH   8   9
ENDBRANCH   7   8
ENDBRANCH   1   7
TORSDOF 7
ENDMDL
MODEL 9
REMARK VINA RESULT:    -2.883     12.926     13.957
REMARK INTER + INTRA:          -4.433
REMARK INTER:                  -3.930
REMARK INTRA:                  -0.502
REMARK UNBOUND:                -0.370
REMARK SMILES CCCCCCCCC(=O)[O-]
REMARK SMILES IDX 6 1 7 2 8 3 9 4 10 5 11 6 5 7 4 8 3 9 2 10 1 11
REMARK H PARENT
REMARK Flexibility Score: inf
ROOT
ATOM      1  C   UNL     1       8.833   8.602   2.681  1.00  0.00     0.000 C 
ENDROOT
BRANCH   1   2
ATOM      2  C   UNL     1       8.856   7.146   2.190  1.00  0.00     0.006 C 
BRANCH   2   3
ATOM      3  C   UNL     1       9.851   6.972   1.039  1.00  0.00     0.053 C 
BRANCH   3   4
ATOM      4  C   UNL     1       9.625   5.668   0.342  1.00  0.00     0.041 C 
ATOM      5  O   UNL     1       9.250   4.659   0.994  1.00  0.00    -0.550 OA
ATOM      6  O   UNL     1       9.780   5.580  -1.035  1.00  0.00    -0.550 OA
ENDBRANCH   3   4
ENDBRANCH   2   3
ENDBRANCH   1   2
BRANCH   1   7
ATOM      7  C   UNL     1       7.408   9.163   2.804  1.00  0.00     0.000 C 
BRANCH   7   8
ATOM      8  C   UNL     1       6.448   8.584   1.750  1.00  0.00    -0.000 C 
BRANCH   8   9
ATOM      9  C   UNL     1       6.319   9.500   0.515  1.00  0.00    -0.000 C 
BRANCH   9  10
ATOM     10  C   UNL     1       7.254   9.109  -0.641  1.00  0.00    -0.003 C 
ATOM     11  C   UNL     1       6.625   9.319  -2.017  1.00  0.00     0.004 C 
ENDBRANCH   9  10
ENDBRANCH   8   9
ENDBRANCH   7   8
ENDBRANCH   1   7
TORSDOF 7
ENDMDL
