MODEL 1
REMARK VINA RESULT:    26.103      0.000      0.000
REMARK INTER + INTRA:          31.096
REMARK INTER:                  31.444
REMARK INTRA:                  -0.348
REMARK UNBOUND:                -0.348
REMARK SMILES Oc1cc(O)c2cc(O)c(-c3ccc(O)c(O)c3)[o+]c2c1
REMARK SMILES IDX 10 1 19 2 20 3 21 4 2 5 3 6 4 7 6 8 7 9 8 10 11 11 12 12
REMARK SMILES IDX 13 13 14 14 18 15 16 16 15 17 17 19 9 21 1 23 5 25
REMARK H PARENT 15 18 17 20 9 22 1 24 5 26
REMARK Flexibility Score: inf
ROOT
ATOM      1  C   UNL     1      17.753  95.617   8.986  1.00  0.00     0.402 A 
ATOM      2  O   UNL     1      18.435  96.759   8.951  1.00  0.00    -0.202 OA
ATOM      3  C   UNL     1      17.859  97.955   8.986  1.00  0.00     0.368 A 
ATOM      4  C   UNL     1      18.661  99.099   8.947  1.00  0.00     0.162 A 
ATOM      5  C   UNL     1      18.080 100.370   8.987  1.00  0.00     0.128 A 
ATOM      6  C   UNL     1      16.692 100.498   9.068  1.00  0.00     0.093 A 
ATOM      7  C   UNL     1      15.866  99.369   9.110  1.00  0.00     0.136 A 
ATOM      8  C   UNL     1      16.450  98.076   9.066  1.00  0.00     0.125 A 
ATOM      9  C   UNL     1      15.701  96.888   9.089  1.00  0.00     0.078 A 
ATOM     10  C   UNL     1      16.347  95.649   9.039  1.00  0.00     0.223 A 
ENDROOT
BRANCH   1  11
ATOM     11  C   UNL     1      18.512  94.346   8.948  1.00  0.00     0.087 A 
ATOM     12  C   UNL     1      19.003  93.752  10.124  1.00  0.00     0.022 A 
ATOM     13  C   UNL     1      19.737  92.566  10.063  1.00  0.00     0.051 A 
ATOM     14  C   UNL     1      20.004  91.962   8.827  1.00  0.00     0.157 A 
ATOM     15  C   UNL     1      18.799  93.750   7.710  1.00  0.00     0.068 A 
ATOM     16  C   UNL     1      19.535  92.560   7.645  1.00  0.00     0.158 A 
BRANCH  14  17
ATOM     17  O   UNL     1      20.735  90.776   8.768  1.00  0.00    -0.504 OA
ATOM     18  H   UNL     1      20.536  90.000   9.388  1.00  0.00     0.293 HD
ENDBRANCH  14  17
BRANCH  16  19
ATOM     19  O   UNL     1      19.789  91.988   6.398  1.00  0.00    -0.504 OA
ATOM     20  H   UNL     1      19.277  91.182   6.062  1.00  0.00     0.293 HD
ENDBRANCH  16  19
ENDBRANCH   1  11
BRANCH  10  21
ATOM     21  O   UNL     1      15.601  94.471   9.011  1.00  0.00    -0.500 OA
ATOM     22  H   UNL     1      15.956  93.626   8.579  1.00  0.00     0.294 HD
ENDBRANCH  10  21
BRANCH   5  23
ATOM     23  O   UNL     1      18.874 101.514   8.947  1.00  0.00    -0.507 OA
ATOM     24  H   UNL     1      18.575 102.349   8.456  1.00  0.00     0.293 HD
ENDBRANCH   5  23
BRANCH   7  25
ATOM     25  O   UNL     1      14.486  99.582   9.194  1.00  0.00    -0.507 OA
ATOM     26  H   UNL     1      13.807  99.182   8.562  1.00  0.00     0.293 HD
ENDBRANCH   7  25
TORSDOF 6
ENDMDL
