MODEL 1
REMARK VINA RESULT:    -4.712      0.000      0.000
REMARK INTER + INTRA:         -14.669
REMARK INTER:                 -10.771
REMARK INTRA:                  -3.897
REMARK UNBOUND:                -3.897
REMARK SMILES CCCCCCCCCCCCCCCCCCCCCCCC(=O)[O-]
REMARK SMILES IDX 13 1 14 2 15 3 16 4 17 5 18 6 19 7 20 8 21 9 22 10 23 11
REMARK SMILES IDX 24 12 25 13 26 14 12 15 11 16 10 17 9 18 8 19 7 20 6 21 5 22
REMARK SMILES IDX 4 23 3 24 2 25 1 26
REMARK H PARENT
REMARK Flexibility Score: inf
ROOT
ATOM      1  C   UNL     1      60.800  30.150  11.607  1.00  0.00     0.000 C 
ENDROOT
BRANCH   1   2
ATOM      2  C   UNL     1      60.561  29.591  10.196  1.00  0.00     0.000 C 
BRANCH   2   3
ATOM      3  C   UNL     1      61.833  28.996   9.571  1.00  0.00     0.000 C 
BRANCH   3   4
ATOM      4  C   UNL     1      63.034  29.955   9.650  1.00  0.00     0.000 C 
BRANCH   4   5
ATOM      5  C   UNL     1      64.370  29.250   9.368  1.00  0.00     0.000 C 
BRANCH   5   6
ATOM      6  C   UNL     1      65.583  30.175   9.554  1.00  0.00     0.000 C 
BRANCH   6   7
ATOM      7  C   UNL     1      65.289  31.578   9.012  1.00  0.00     0.000 C 
BRANCH   7   8
ATOM      8  C   UNL     1      65.757  32.659   9.997  1.00  0.00     0.000 C 
BRANCH   8   9
ATOM      9  C   UNL     1      67.287  32.807  10.029  1.00  0.00     0.000 C 
BRANCH   9  10
ATOM     10  C   UNL     1      67.762  33.812  11.090  1.00  0.00     0.006 C 
BRANCH  10  11
ATOM     11  C   UNL     1      66.576  34.384  11.873  1.00  0.00     0.053 C 
BRANCH  11  12
ATOM     12  C   UNL     1      66.972  34.674  13.286  1.00  0.00     0.041 C 
ATOM     13  O   UNL     1      67.255  35.850  13.637  1.00  0.00    -0.550 OA
ATOM     14  O   UNL     1      67.080  33.638  14.205  1.00  0.00    -0.550 OA
ENDBRANCH  11  12
ENDBRANCH  10  11
ENDBRANCH   9  10
ENDBRANCH   8   9
ENDBRANCH   7   8
ENDBRANCH   6   7
ENDBRANCH   5   6
ENDBRANCH   4   5
ENDBRANCH   3   4
ENDBRANCH   2   3
ENDBRANCH   1   2
BRANCH   1  15
ATOM     15  C   UNL     1      60.608  29.057  12.669  1.00  0.00     0.000 C 
BRANCH  15  16
ATOM     16  C   UNL     1      61.702  29.077  13.752  1.00  0.00     0.000 C 
BRANCH  16  17
ATOM     17  C   UNL     1      63.146  29.183  13.222  1.00  0.00     0.000 C 
BRANCH  17  18
ATOM     18  C   UNL     1      64.091  30.052  14.070  1.00  0.00    -0.000 C 
BRANCH  18  19
ATOM     19  C   UNL     1      64.742  31.185  13.264  1.00  0.00    -0.000 C 
BRANCH  19  20
ATOM     20  C   UNL     1      63.678  32.012  12.526  1.00  0.00    -0.000 C 
BRANCH  20  21
ATOM     21  C   UNL     1      63.085  33.139  13.391  1.00  0.00    -0.000 C 
BRANCH  21  22
ATOM     22  C   UNL     1      61.548  33.136  13.496  1.00  0.00    -0.000 C 
BRANCH  22  23
ATOM     23  C   UNL     1      61.047  33.080  14.946  1.00  0.00    -0.000 C 
BRANCH  23  24
ATOM     24  C   UNL     1      62.153  32.599  15.892  1.00  0.00    -0.000 C 
BRANCH  24  25
ATOM     25  C   UNL     1      62.480  33.665  16.943  1.00  0.00    -0.003 C 
ATOM     26  C   UNL     1      61.723  34.961  16.668  1.00  0.00     0.004 C 
ENDBRANCH  24  25
ENDBRANCH  23  24
ENDBRANCH  22  23
ENDBRANCH  21  22
ENDBRANCH  20  21
ENDBRANCH  19  20
ENDBRANCH  18  19
ENDBRANCH  17  18
ENDBRANCH  16  17
ENDBRANCH  15  16
ENDBRANCH   1  15
TORSDOF 22
ENDMDL
MODEL 2
REMARK VINA RESULT:    -4.694      1.875      6.328
REMARK INTER + INTRA:         -14.628
REMARK INTER:                 -11.064
REMARK INTRA:                  -3.564
REMARK UNBOUND:                -3.897
REMARK SMILES CCCCCCCCCCCCCCCCCCCCCCCC(=O)[O-]
REMARK SMILES IDX 13 1 14 2 15 3 16 4 17 5 18 6 19 7 20 8 21 9 22 10 23 11
REMARK SMILES IDX 24 12 25 13 26 14 12 15 11 16 10 17 9 18 8 19 7 20 6 21 5 22
REMARK SMILES IDX 4 23 3 24 2 25 1 26
REMARK H PARENT
REMARK Flexibility Score: inf
ROOT
ATOM      1  C   UNL     1      65.208  32.682  14.835  1.00  0.00     0.000 C 
ENDROOT
BRANCH   1   2
ATOM      2  C   UNL     1      64.982  31.683  13.691  1.00  0.00     0.000 C 
BRANCH   2   3
ATOM      3  C   UNL     1      64.532  30.301  14.191  1.00  0.00     0.000 C 
BRANCH   3   4
ATOM      4  C   UNL     1      63.387  29.713  13.347  1.00  0.00     0.000 C 
BRANCH   4   5
ATOM      5  C   UNL     1      62.037  29.747  14.082  1.00  0.00     0.000 C 
BRANCH   5   6
ATOM      6  C   UNL     1      61.001  30.641  13.383  1.00  0.00     0.000 C 
BRANCH   6   7
ATOM      7  C   UNL     1      61.689  31.714  12.531  1.00  0.00     0.000 C 
BRANCH   7   8
ATOM      8  C   UNL     1      61.607  33.091  13.207  1.00  0.00     0.000 C 
BRANCH   8   9
ATOM      9  C   UNL     1      61.186  33.001  14.682  1.00  0.00     0.000 C 
BRANCH   9  10
ATOM     10  C   UNL     1      61.821  34.101  15.546  1.00  0.00     0.006 C 
BRANCH  10  11
ATOM     11  C   UNL     1      62.177  33.568  16.937  1.00  0.00     0.053 C 
BRANCH  11  12
ATOM     12  C   UNL     1      62.905  34.610  17.728  1.00  0.00     0.041 C 
ATOM     13  O   UNL     1      62.381  35.103  18.761  1.00  0.00    -0.550 OA
ATOM     14  O   UNL     1      64.141  35.074  17.294  1.00  0.00    -0.550 OA
ENDBRANCH  11  12
ENDBRANCH  10  11
ENDBRANCH   9  10
ENDBRANCH   8   9
ENDBRANCH   7   8
ENDBRANCH   6   7
ENDBRANCH   5   6
ENDBRANCH   4   5
ENDBRANCH   3   4
ENDBRANCH   2   3
ENDBRANCH   1   2
BRANCH   1  15
ATOM     15  C   UNL     1      65.451  34.097  14.288  1.00  0.00     0.000 C 
BRANCH  15  16
ATOM     16  C   UNL     1      66.868  34.281  13.713  1.00  0.00     0.000 C 
BRANCH  16  17
ATOM     17  C   UNL     1      66.924  34.832  12.274  1.00  0.00     0.000 C 
BRANCH  17  18
ATOM     18  C   UNL     1      67.393  33.826  11.208  1.00  0.00    -0.000 C 
BRANCH  18  19
ATOM     19  C   UNL     1      66.235  33.034  10.585  1.00  0.00    -0.000 C 
BRANCH  19  20
ATOM     20  C   UNL     1      66.695  32.299   9.317  1.00  0.00    -0.000 C 
BRANCH  20  21
ATOM     21  C   UNL     1      66.278  30.817   9.297  1.00  0.00    -0.000 C 
BRANCH  21  22
ATOM     22  C   UNL     1      65.056  30.475  10.170  1.00  0.00    -0.000 C 
BRANCH  22  23
ATOM     23  C   UNL     1      64.230  29.307   9.612  1.00  0.00    -0.000 C 
BRANCH  23  24
ATOM     24  C   UNL     1      62.776  29.728   9.370  1.00  0.00    -0.000 C 
BRANCH  24  25
ATOM     25  C   UNL     1      61.808  28.844  10.165  1.00  0.00    -0.003 C 
ATOM     26  C   UNL     1      60.376  29.006   9.666  1.00  0.00     0.004 C 
ENDBRANCH  24  25
ENDBRANCH  23  24
ENDBRANCH  22  23
ENDBRANCH  21  22
ENDBRANCH  20  21
ENDBRANCH  19  20
ENDBRANCH  18  19
ENDBRANCH  17  18
ENDBRANCH  16  17
ENDBRANCH  15  16
ENDBRANCH   1  15
TORSDOF 22
ENDMDL
MODEL 3
REMARK VINA RESULT:    -4.537      1.244      2.981
REMARK INTER + INTRA:         -14.269
REMARK INTER:                 -10.641
REMARK INTRA:                  -3.628
REMARK UNBOUND:                -3.897
REMARK SMILES CCCCCCCCCCCCCCCCCCCCCCCC(=O)[O-]
REMARK SMILES IDX 13 1 14 2 15 3 16 4 17 5 18 6 19 7 20 8 21 9 22 10 23 11
REMARK SMILES IDX 24 12 25 13 26 14 12 15 11 16 10 17 9 18 8 19 7 20 6 21 5 22
REMARK SMILES IDX 4 23 3 24 2 25 1 26
REMARK H PARENT
REMARK Flexibility Score: inf
ROOT
ATOM      1  C   UNL     1      61.943  28.395   9.151  1.00  0.00     0.000 C 
ENDROOT
BRANCH   1   2
ATOM      2  C   UNL     1      63.015  29.461   8.882  1.00  0.00     0.000 C 
BRANCH   2   3
ATOM      3  C   UNL     1      64.377  29.102   9.500  1.00  0.00     0.000 C 
BRANCH   3   4
ATOM      4  C   UNL     1      65.433  30.199   9.278  1.00  0.00     0.000 C 
BRANCH   4   5
ATOM      5  C   UNL     1      65.073  31.513   9.989  1.00  0.00     0.000 C 
BRANCH   5   6
ATOM      6  C   UNL     1      66.230  32.525   9.992  1.00  0.00     0.000 C 
BRANCH   6   7
ATOM      7  C   UNL     1      66.122  33.476  11.189  1.00  0.00     0.000 C 
BRANCH   7   8
ATOM      8  C   UNL     1      67.461  34.178  11.459  1.00  0.00     0.000 C 
BRANCH   8   9
ATOM      9  C   UNL     1      67.303  35.443  12.318  1.00  0.00     0.000 C 
BRANCH   9  10
ATOM     10  C   UNL     1      67.571  35.182  13.808  1.00  0.00     0.006 C 
BRANCH  10  11
ATOM     11  C   UNL     1      66.266  34.909  14.561  1.00  0.00     0.053 C 
BRANCH  11  12
ATOM     12  C   UNL     1      66.499  33.950  15.686  1.00  0.00     0.041 C 
ATOM     13  O   UNL     1      67.162  32.897  15.493  1.00  0.00    -0.550 OA
ATOM     14  O   UNL     1      65.941  34.194  16.934  1.00  0.00    -0.550 OA
ENDBRANCH  11  12
ENDBRANCH  10  11
ENDBRANCH   9  10
ENDBRANCH   8   9
ENDBRANCH   7   8
ENDBRANCH   6   7
ENDBRANCH   5   6
ENDBRANCH   4   5
ENDBRANCH   3   4
ENDBRANCH   2   3
ENDBRANCH   1   2
BRANCH   1  15
ATOM     15  C   UNL     1      60.676  29.030   9.746  1.00  0.00     0.000 C 
BRANCH  15  16
ATOM     16  C   UNL     1      60.894  30.484  10.204  1.00  0.00     0.000 C 
BRANCH  16  17
ATOM     17  C   UNL     1      60.988  30.681  11.731  1.00  0.00     0.000 C 
BRANCH  17  18
ATOM     18  C   UNL     1      60.603  29.452  12.573  1.00  0.00    -0.000 C 
BRANCH  18  19
ATOM     19  C   UNL     1      61.781  28.893  13.385  1.00  0.00    -0.000 C 
BRANCH  19  20
ATOM     20  C   UNL     1      63.101  29.550  12.955  1.00  0.00    -0.000 C 
BRANCH  20  21
ATOM     21  C   UNL     1      63.776  30.343  14.089  1.00  0.00    -0.000 C 
BRANCH  21  22
ATOM     22  C   UNL     1      64.416  31.675  13.658  1.00  0.00    -0.000 C 
BRANCH  22  23
ATOM     23  C   UNL     1      63.382  32.778  13.391  1.00  0.00    -0.000 C 
BRANCH  23  24
ATOM     24  C   UNL     1      62.925  33.434  14.699  1.00  0.00    -0.000 C 
BRANCH  24  25
ATOM     25  C   UNL     1      61.426  33.746  14.663  1.00  0.00    -0.003 C 
ATOM     26  C   UNL     1      60.594  32.483  14.856  1.00  0.00     0.004 C 
ENDBRANCH  24  25
ENDBRANCH  23  24
ENDBRANCH  22  23
ENDBRANCH  21  22
ENDBRANCH  20  21
ENDBRANCH  19  20
ENDBRANCH  18  19
ENDBRANCH  17  18
ENDBRANCH  16  17
ENDBRANCH  15  16
ENDBRANCH   1  15
TORSDOF 22
ENDMDL
MODEL 4
REMARK VINA RESULT:    -4.496     10.272     13.674
REMARK INTER + INTRA:         -14.177
REMARK INTER:                 -10.613
REMARK INTRA:                  -3.564
REMARK UNBOUND:                -3.897
REMARK SMILES CCCCCCCCCCCCCCCCCCCCCCCC(=O)[O-]
REMARK SMILES IDX 13 1 14 2 15 3 16 4 17 5 18 6 19 7 20 8 21 9 22 10 23 11
REMARK SMILES IDX 24 12 25 13 26 14 12 15 11 16 10 17 9 18 8 19 7 20 6 21 5 22
REMARK SMILES IDX 4 23 3 24 2 25 1 26
REMARK H PARENT
REMARK Flexibility Score: inf
ROOT
ATOM      1  C   UNL     1      61.098  28.079  27.214  1.00  0.00     0.000 C 
ENDROOT
BRANCH   1   2
ATOM      2  C   UNL     1      61.508  27.947  25.740  1.00  0.00     0.000 C 
BRANCH   2   3
ATOM      3  C   UNL     1      62.237  29.194  25.213  1.00  0.00     0.000 C 
BRANCH   3   4
ATOM      4  C   UNL     1      63.571  28.852  24.528  1.00  0.00     0.000 C 
BRANCH   4   5
ATOM      5  C   UNL     1      64.362  27.773  25.285  1.00  0.00     0.000 C 
BRANCH   5   6
ATOM      6  C   UNL     1      64.695  26.555  24.411  1.00  0.00     0.000 C 
BRANCH   6   7
ATOM      7  C   UNL     1      66.181  26.192  24.522  1.00  0.00     0.000 C 
BRANCH   7   8
ATOM      8  C   UNL     1      66.853  26.192  23.141  1.00  0.00     0.000 C 
BRANCH   8   9
ATOM      9  C   UNL     1      67.504  27.542  22.799  1.00  0.00     0.000 C 
BRANCH   9  10
ATOM     10  C   UNL     1      67.519  27.825  21.289  1.00  0.00     0.006 C 
BRANCH  10  11
ATOM     11  C   UNL     1      66.354  27.122  20.587  1.00  0.00     0.053 C 
BRANCH  11  12
ATOM     12  C   UNL     1      66.671  26.898  19.142  1.00  0.00     0.041 C 
ATOM     13  O   UNL     1      66.281  25.850  18.563  1.00  0.00    -0.550 OA
ATOM     14  O   UNL     1      67.440  27.823  18.448  1.00  0.00    -0.550 OA
ENDBRANCH  11  12
ENDBRANCH  10  11
ENDBRANCH   9  10
ENDBRANCH   8   9
ENDBRANCH   7   8
ENDBRANCH   6   7
ENDBRANCH   5   6
ENDBRANCH   4   5
ENDBRANCH   3   4
ENDBRANCH   2   3
ENDBRANCH   1   2
BRANCH   1  15
ATOM     15  C   UNL     1      62.127  27.399  28.131  1.00  0.00     0.000 C 
BRANCH  15  16
ATOM     16  C   UNL     1      63.014  28.407  28.885  1.00  0.00     0.000 C 
BRANCH  16  17
ATOM     17  C   UNL     1      62.506  29.863  28.874  1.00  0.00     0.000 C 
BRANCH  17  18
ATOM     18  C   UNL     1      63.600  30.935  28.725  1.00  0.00    -0.000 C 
BRANCH  18  19
ATOM     19  C   UNL     1      65.018  30.347  28.750  1.00  0.00    -0.000 C 
BRANCH  19  20
ATOM     20  C   UNL     1      65.659  30.404  27.355  1.00  0.00    -0.000 C 
BRANCH  20  21
ATOM     21  C   UNL     1      67.170  30.115  27.376  1.00  0.00    -0.000 C 
BRANCH  21  22
ATOM     22  C   UNL     1      67.797  29.837  25.996  1.00  0.00    -0.000 C 
BRANCH  22  23
ATOM     23  C   UNL     1      66.971  30.411  24.837  1.00  0.00    -0.000 C 
BRANCH  23  24
ATOM     24  C   UNL     1      67.880  30.982  23.742  1.00  0.00    -0.000 C 
BRANCH  24  25
ATOM     25  C   UNL     1      67.091  31.884  22.787  1.00  0.00    -0.003 C 
ATOM     26  C   UNL     1      65.591  31.780  23.044  1.00  0.00     0.004 C 
ENDBRANCH  24  25
ENDBRANCH  23  24
ENDBRANCH  22  23
ENDBRANCH  21  22
ENDBRANCH  20  21
ENDBRANCH  19  20
ENDBRANCH  18  19
ENDBRANCH  17  18
ENDBRANCH  16  17
ENDBRANCH  15  16
ENDBRANCH   1  15
TORSDOF 22
ENDMDL
MODEL 5
REMARK VINA RESULT:    -4.447      2.020      4.574
REMARK INTER + INTRA:         -14.063
REMARK INTER:                 -10.297
REMARK INTRA:                  -3.766
REMARK UNBOUND:                -3.897
REMARK SMILES CCCCCCCCCCCCCCCCCCCCCCCC(=O)[O-]
REMARK SMILES IDX 13 1 14 2 15 3 16 4 17 5 18 6 19 7 20 8 21 9 22 10 23 11
REMARK SMILES IDX 24 12 25 13 26 14 12 15 11 16 10 17 9 18 8 19 7 20 6 21 5 22
REMARK SMILES IDX 4 23 3 24 2 25 1 26
REMARK H PARENT
REMARK Flexibility Score: inf
ROOT
ATOM      1  C   UNL     1      64.048  30.823  10.292  1.00  0.00     0.000 C 
ENDROOT
BRANCH   1   2
ATOM      2  C   UNL     1      64.800  31.531   9.155  1.00  0.00     0.000 C 
BRANCH   2   3
ATOM      3  C   UNL     1      66.327  31.400   9.283  1.00  0.00     0.000 C 
BRANCH   3   4
ATOM      4  C   UNL     1      67.019  32.757   9.502  1.00  0.00     0.000 C 
BRANCH   4   5
ATOM      5  C   UNL     1      67.370  33.006  10.978  1.00  0.00     0.000 C 
BRANCH   5   6
ATOM      6  C   UNL     1      66.352  33.912  11.687  1.00  0.00     0.000 C 
BRANCH   6   7
ATOM      7  C   UNL     1      67.022  34.717  12.807  1.00  0.00     0.000 C 
BRANCH   7   8
ATOM      8  C   UNL     1      66.772  34.069  14.177  1.00  0.00     0.000 C 
BRANCH   8   9
ATOM      9  C   UNL     1      65.752  34.849  15.022  1.00  0.00     0.000 C 
BRANCH   9  10
ATOM     10  C   UNL     1      65.384  34.121  16.324  1.00  0.00     0.006 C 
BRANCH  10  11
ATOM     11  C   UNL     1      64.926  35.114  17.396  1.00  0.00     0.053 C 
BRANCH  11  12
ATOM     12  C   UNL     1      63.465  34.949  17.676  1.00  0.00     0.041 C 
ATOM     13  O   UNL     1      63.032  35.034  18.855  1.00  0.00    -0.550 OA
ATOM     14  O   UNL     1      62.589  34.649  16.640  1.00  0.00    -0.550 OA
ENDBRANCH  11  12
ENDBRANCH  10  11
ENDBRANCH   9  10
ENDBRANCH   8   9
ENDBRANCH   7   8
ENDBRANCH   6   7
ENDBRANCH   5   6
ENDBRANCH   4   5
ENDBRANCH   3   4
ENDBRANCH   2   3
ENDBRANCH   1   2
BRANCH   1  15
ATOM     15  C   UNL     1      63.869  29.329   9.982  1.00  0.00     0.000 C 
BRANCH  15  16
ATOM     16  C   UNL     1      62.398  28.878  10.045  1.00  0.00     0.000 C 
BRANCH  16  17
ATOM     17  C   UNL     1      61.377  30.005  10.302  1.00  0.00     0.000 C 
BRANCH  17  18
ATOM     18  C   UNL     1      60.612  29.902  11.632  1.00  0.00    -0.000 C 
BRANCH  18  19
ATOM     19  C   UNL     1      61.146  28.787  12.543  1.00  0.00    -0.000 C 
BRANCH  19  20
ATOM     20  C   UNL     1      61.859  29.377  13.769  1.00  0.00    -0.000 C 
BRANCH  20  21
ATOM     21  C   UNL     1      63.392  29.272  13.682  1.00  0.00    -0.000 C 
BRANCH  21  22
ATOM     22  C   UNL     1      64.143  30.610  13.816  1.00  0.00    -0.000 C 
BRANCH  22  23
ATOM     23  C   UNL     1      63.293  31.712  14.465  1.00  0.00    -0.000 C 
BRANCH  23  24
ATOM     24  C   UNL     1      63.081  32.884  13.499  1.00  0.00    -0.000 C 
BRANCH  24  25
ATOM     25  C   UNL     1      61.602  33.023  13.120  1.00  0.00    -0.003 C 
ATOM     26  C   UNL     1      60.697  32.706  14.306  1.00  0.00     0.004 C 
ENDBRANCH  24  25
ENDBRANCH  23  24
ENDBRANCH  22  23
ENDBRANCH  21  22
ENDBRANCH  20  21
ENDBRANCH  19  20
ENDBRANCH  18  19
ENDBRANCH  17  18
ENDBRANCH  16  17
ENDBRANCH  15  16
ENDBRANCH   1  15
TORSDOF 22
ENDMDL
MODEL 6
REMARK VINA RESULT:    -4.404      2.853      5.242
REMARK INTER + INTRA:         -13.964
REMARK INTER:                 -11.026
REMARK INTRA:                  -2.938
REMARK UNBOUND:                -3.897
REMARK SMILES CCCCCCCCCCCCCCCCCCCCCCCC(=O)[O-]
REMARK SMILES IDX 13 1 14 2 15 3 16 4 17 5 18 6 19 7 20 8 21 9 22 10 23 11
REMARK SMILES IDX 24 12 25 13 26 14 12 15 11 16 10 17 9 18 8 19 7 20 6 21 5 22
REMARK SMILES IDX 4 23 3 24 2 25 1 26
REMARK H PARENT
REMARK Flexibility Score: inf
ROOT
ATOM      1  C   UNL     1      64.937  30.436  14.527  1.00  0.00     0.000 C 
ENDROOT
BRANCH   1   2
ATOM      2  C   UNL     1      65.453  31.873  14.359  1.00  0.00     0.000 C 
BRANCH   2   3
ATOM      3  C   UNL     1      64.771  32.615  13.198  1.00  0.00     0.000 C 
BRANCH   3   4
ATOM      4  C   UNL     1      65.730  33.566  12.462  1.00  0.00     0.000 C 
BRANCH   4   5
ATOM      5  C   UNL     1      65.999  33.126  11.014  1.00  0.00     0.000 C 
BRANCH   5   6
ATOM      6  C   UNL     1      65.088  31.973  10.563  1.00  0.00     0.000 C 
BRANCH   6   7
ATOM      7  C   UNL     1      65.421  31.542   9.129  1.00  0.00     0.000 C 
BRANCH   7   8
ATOM      8  C   UNL     1      65.361  30.014   8.986  1.00  0.00     0.000 C 
BRANCH   8   9
ATOM      9  C   UNL     1      64.179  29.395   9.749  1.00  0.00     0.000 C 
BRANCH   9  10
ATOM     10  C   UNL     1      62.920  29.260   8.879  1.00  0.00     0.006 C 
BRANCH  10  11
ATOM     11  C   UNL     1      61.842  28.444   9.598  1.00  0.00     0.053 C 
BRANCH  11  12
ATOM     12  C   UNL     1      60.696  29.321   9.994  1.00  0.00     0.041 C 
ATOM     13  O   UNL     1      60.197  30.125   9.163  1.00  0.00    -0.550 OA
ATOM     14  O   UNL     1      60.213  29.289  11.296  1.00  0.00    -0.550 OA
ENDBRANCH  11  12
ENDBRANCH  10  11
ENDBRANCH   9  10
ENDBRANCH   8   9
ENDBRANCH   7   8
ENDBRANCH   6   7
ENDBRANCH   5   6
ENDBRANCH   4   5
ENDBRANCH   3   4
ENDBRANCH   2   3
ENDBRANCH   1   2
BRANCH   1  15
ATOM     15  C   UNL     1      64.420  29.879  13.192  1.00  0.00     0.000 C 
BRANCH  15  16
ATOM     16  C   UNL     1      63.054  29.180  13.324  1.00  0.00     0.000 C 
BRANCH  16  17
ATOM     17  C   UNL     1      62.001  29.951  14.146  1.00  0.00     0.000 C 
BRANCH  17  18
ATOM     18  C   UNL     1      61.739  31.394  13.682  1.00  0.00    -0.000 C 
BRANCH  18  19
ATOM     19  C   UNL     1      60.999  32.233  14.733  1.00  0.00    -0.000 C 
BRANCH  19  20
ATOM     20  C   UNL     1      61.336  33.724  14.579  1.00  0.00    -0.000 C 
BRANCH  20  21
ATOM     21  C   UNL     1      61.766  34.383  15.903  1.00  0.00    -0.000 C 
BRANCH  21  22
ATOM     22  C   UNL     1      63.199  34.050  16.358  1.00  0.00    -0.000 C 
BRANCH  22  23
ATOM     23  C   UNL     1      63.668  34.913  17.538  1.00  0.00    -0.000 C 
BRANCH  23  24
ATOM     24  C   UNL     1      65.193  35.072  17.532  1.00  0.00    -0.000 C 
BRANCH  24  25
ATOM     25  C   UNL     1      65.743  35.041  16.102  1.00  0.00    -0.003 C 
ATOM     26  C   UNL     1      67.035  35.844  15.991  1.00  0.00     0.004 C 
ENDBRANCH  24  25
ENDBRANCH  23  24
ENDBRANCH  22  23
ENDBRANCH  21  22
ENDBRANCH  20  21
ENDBRANCH  19  20
ENDBRANCH  18  19
ENDBRANCH  17  18
ENDBRANCH  16  17
ENDBRANCH  15  16
ENDBRANCH   1  15
TORSDOF 22
ENDMDL
MODEL 7
REMARK VINA RESULT:    -4.292      2.115      5.966
REMARK INTER + INTRA:         -13.710
REMARK INTER:                 -10.120
REMARK INTRA:                  -3.590
REMARK UNBOUND:                -3.897
REMARK SMILES CCCCCCCCCCCCCCCCCCCCCCCC(=O)[O-]
REMARK SMILES IDX 13 1 14 2 15 3 16 4 17 5 18 6 19 7 20 8 21 9 22 10 23 11
REMARK SMILES IDX 24 12 25 13 26 14 12 15 11 16 10 17 9 18 8 19 7 20 6 21 5 22
REMARK SMILES IDX 4 23 3 24 2 25 1 26
REMARK H PARENT
REMARK Flexibility Score: inf
ROOT
ATOM      1  C   UNL     1      61.902  29.474  13.791  1.00  0.00     0.000 C 
ENDROOT
BRANCH   1   2
ATOM      2  C   UNL     1      63.272  29.034  13.254  1.00  0.00     0.000 C 
BRANCH   2   3
ATOM      3  C   UNL     1      64.416  29.945  13.729  1.00  0.00     0.000 C 
BRANCH   3   4
ATOM      4  C   UNL     1      63.908  31.173  14.504  1.00  0.00     0.000 C 
BRANCH   4   5
ATOM      5  C   UNL     1      64.648  32.462  14.114  1.00  0.00     0.000 C 
BRANCH   5   6
ATOM      6  C   UNL     1      65.975  32.639  14.868  1.00  0.00     0.000 C 
BRANCH   6   7
ATOM      7  C   UNL     1      65.903  33.831  15.830  1.00  0.00     0.000 C 
BRANCH   7   8
ATOM      8  C   UNL     1      64.507  34.471  15.811  1.00  0.00     0.000 C 
BRANCH   8   9
ATOM      9  C   UNL     1      63.743  34.263  17.128  1.00  0.00     0.000 C 
BRANCH   9  10
ATOM     10  C   UNL     1      62.258  33.938  16.905  1.00  0.00     0.006 C 
BRANCH  10  11
ATOM     11  C   UNL     1      61.754  34.546  15.592  1.00  0.00     0.053 C 
BRANCH  11  12
ATOM     12  C   UNL     1      61.196  33.481  14.701  1.00  0.00     0.041 C 
ATOM     13  O   UNL     1      60.595  32.491  15.196  1.00  0.00    -0.550 OA
ATOM     14  O   UNL     1      61.385  33.555  13.327  1.00  0.00    -0.550 OA
ENDBRANCH  11  12
ENDBRANCH  10  11
ENDBRANCH   9  10
ENDBRANCH   8   9
ENDBRANCH   7   8
ENDBRANCH   6   7
ENDBRANCH   5   6
ENDBRANCH   4   5
ENDBRANCH   3   4
ENDBRANCH   2   3
ENDBRANCH   1   2
BRANCH   1  15
ATOM     15  C   UNL     1      60.870  29.559  12.656  1.00  0.00     0.000 C 
BRANCH  15  16
ATOM     16  C   UNL     1      61.129  30.737  11.698  1.00  0.00     0.000 C 
BRANCH  16  17
ATOM     17  C   UNL     1      60.649  30.519  10.249  1.00  0.00     0.000 C 
BRANCH  17  18
ATOM     18  C   UNL     1      60.409  29.052   9.854  1.00  0.00    -0.000 C 
BRANCH  18  19
ATOM     19  C   UNL     1      61.465  28.517   8.876  1.00  0.00    -0.000 C 
BRANCH  19  20
ATOM     20  C   UNL     1      62.838  28.410   9.558  1.00  0.00    -0.000 C 
BRANCH  20  21
ATOM     21  C   UNL     1      63.868  29.405   8.994  1.00  0.00    -0.000 C 
BRANCH  21  22
ATOM     22  C   UNL     1      64.865  29.963  10.027  1.00  0.00    -0.000 C 
BRANCH  22  23
ATOM     23  C   UNL     1      64.565  31.415  10.424  1.00  0.00    -0.000 C 
BRANCH  23  24
ATOM     24  C   UNL     1      65.582  32.378   9.800  1.00  0.00    -0.000 C 
BRANCH  24  25
ATOM     25  C   UNL     1      66.387  33.104  10.884  1.00  0.00    -0.003 C 
ATOM     26  C   UNL     1      67.821  33.356  10.429  1.00  0.00     0.004 C 
ENDBRANCH  24  25
ENDBRANCH  23  24
ENDBRANCH  22  23
ENDBRANCH  21  22
ENDBRANCH  20  21
ENDBRANCH  19  20
ENDBRANCH  18  19
ENDBRANCH  17  18
ENDBRANCH  16  17
ENDBRANCH  15  16
ENDBRANCH   1  15
TORSDOF 22
ENDMDL
MODEL 8
REMARK VINA RESULT:    -4.287      1.472      5.424
REMARK INTER + INTRA:         -13.698
REMARK INTER:                 -10.557
REMARK INTRA:                  -3.141
REMARK UNBOUND:                -3.897
REMARK SMILES CCCCCCCCCCCCCCCCCCCCCCCC(=O)[O-]
REMARK SMILES IDX 13 1 14 2 15 3 16 4 17 5 18 6 19 7 20 8 21 9 22 10 23 11
REMARK SMILES IDX 24 12 25 13 26 14 12 15 11 16 10 17 9 18 8 19 7 20 6 21 5 22
REMARK SMILES IDX 4 23 3 24 2 25 1 26
REMARK H PARENT
REMARK Flexibility Score: inf
ROOT
ATOM      1  C   UNL     1      61.485  29.397  13.560  1.00  0.00     0.000 C 
ENDROOT
BRANCH   1   2
ATOM      2  C   UNL     1      62.843  28.728  13.298  1.00  0.00     0.000 C 
BRANCH   2   3
ATOM      3  C   UNL     1      64.015  29.722  13.365  1.00  0.00     0.000 C 
BRANCH   3   4
ATOM      4  C   UNL     1      63.673  31.081  12.730  1.00  0.00     0.000 C 
BRANCH   4   5
ATOM      5  C   UNL     1      64.140  32.266  13.590  1.00  0.00     0.000 C 
BRANCH   5   6
ATOM      6  C   UNL     1      63.220  33.491  13.467  1.00  0.00     0.000 C 
BRANCH   6   7
ATOM      7  C   UNL     1      61.752  33.063  13.351  1.00  0.00     0.000 C 
BRANCH   7   8
ATOM      8  C   UNL     1      61.093  32.973  14.735  1.00  0.00     0.000 C 
BRANCH   8   9
ATOM      9  C   UNL     1      61.448  34.166  15.637  1.00  0.00     0.000 C 
BRANCH   9  10
ATOM     10  C   UNL     1      62.213  33.744  16.901  1.00  0.00     0.006 C 
BRANCH  10  11
ATOM     11  C   UNL     1      62.803  34.963  17.618  1.00  0.00     0.053 C 
BRANCH  11  12
ATOM     12  C   UNL     1      64.298  34.926  17.572  1.00  0.00     0.041 C 
ATOM     13  O   UNL     1      64.973  35.405  18.521  1.00  0.00    -0.550 OA
ATOM     14  O   UNL     1      64.947  34.409  16.458  1.00  0.00    -0.550 OA
ENDBRANCH  11  12
ENDBRANCH  10  11
ENDBRANCH   9  10
ENDBRANCH   8   9
ENDBRANCH   7   8
ENDBRANCH   6   7
ENDBRANCH   5   6
ENDBRANCH   4   5
ENDBRANCH   3   4
ENDBRANCH   2   3
ENDBRANCH   1   2
BRANCH   1  15
ATOM     15  C   UNL     1      60.449  28.959  12.514  1.00  0.00     0.000 C 
BRANCH  15  16
ATOM     16  C   UNL     1      60.623  29.676  11.162  1.00  0.00     0.000 C 
BRANCH  16  17
ATOM     17  C   UNL     1      61.594  28.991  10.179  1.00  0.00     0.000 C 
BRANCH  17  18
ATOM     18  C   UNL     1      62.379  29.948   9.264  1.00  0.00    -0.000 C 
BRANCH  18  19
ATOM     19  C   UNL     1      63.888  29.665   9.261  1.00  0.00    -0.000 C 
BRANCH  19  20
ATOM     20  C   UNL     1      64.679  30.927   8.885  1.00  0.00    -0.000 C 
BRANCH  20  21
ATOM     21  C   UNL     1      66.192  30.784   9.134  1.00  0.00    -0.000 C 
BRANCH  21  22
ATOM     22  C   UNL     1      66.923  32.099   9.463  1.00  0.00    -0.000 C 
BRANCH  22  23
ATOM     23  C   UNL     1      66.062  33.075  10.279  1.00  0.00    -0.000 C 
BRANCH  23  24
ATOM     24  C   UNL     1      66.660  33.304  11.672  1.00  0.00    -0.000 C 
BRANCH  24  25
ATOM     25  C   UNL     1      67.128  34.755  11.837  1.00  0.00    -0.003 C 
ATOM     26  C   UNL     1      66.824  35.276  13.238  1.00  0.00     0.004 C 
ENDBRANCH  24  25
ENDBRANCH  23  24
ENDBRANCH  22  23
ENDBRANCH  21  22
ENDBRANCH  20  21
ENDBRANCH  19  20
ENDBRANCH  18  19
ENDBRANCH  17  18
ENDBRANCH  16  17
ENDBRANCH  15  16
ENDBRANCH   1  15
TORSDOF 22
ENDMDL
MODEL 9
REMARK VINA RESULT:    -4.275      3.061      6.523
REMARK INTER + INTRA:         -13.669
REMARK INTER:                 -10.394
REMARK INTRA:                  -3.276
REMARK UNBOUND:                -3.897
REMARK SMILES CCCCCCCCCCCCCCCCCCCCCCCC(=O)[O-]
REMARK SMILES IDX 13 1 14 2 15 3 16 4 17 5 18 6 19 7 20 8 21 9 22 10 23 11
REMARK SMILES IDX 24 12 25 13 26 14 12 15 11 16 10 17 9 18 8 19 7 20 6 21 5 22
REMARK SMILES IDX 4 23 3 24 2 25 1 26
REMARK H PARENT
REMARK Flexibility Score: inf
ROOT
ATOM      1  C   UNL     1      61.193  33.105  15.022  1.00  0.00     0.000 C 
ENDROOT
BRANCH   1   2
ATOM      2  C   UNL     1      61.476  33.272  13.522  1.00  0.00     0.000 C 
BRANCH   2   3
ATOM      3  C   UNL     1      62.930  32.936  13.151  1.00  0.00     0.000 C 
BRANCH   3   4
ATOM      4  C   UNL     1      63.479  31.740  13.950  1.00  0.00     0.000 C 
BRANCH   4   5
ATOM      5  C   UNL     1      64.230  30.736  13.061  1.00  0.00     0.000 C 
BRANCH   5   6
ATOM      6  C   UNL     1      63.627  29.324  13.117  1.00  0.00     0.000 C 
BRANCH   6   7
ATOM      7  C   UNL     1      62.276  29.334  13.842  1.00  0.00     0.000 C 
BRANCH   7   8
ATOM      8  C   UNL     1      61.136  28.945  12.889  1.00  0.00     0.000 C 
BRANCH   8   9
ATOM      9  C   UNL     1      60.608  30.140  12.079  1.00  0.00     0.000 C 
BRANCH   9  10
ATOM     10  C   UNL     1      60.645  29.889  10.564  1.00  0.00     0.006 C 
BRANCH  10  11
ATOM     11  C   UNL     1      61.998  30.295   9.973  1.00  0.00     0.053 C 
BRANCH  11  12
ATOM     12  C   UNL     1      62.727  29.094   9.458  1.00  0.00     0.041 C 
ATOM     13  O   UNL     1      62.086  28.108   9.009  1.00  0.00    -0.550 OA
ATOM     14  O   UNL     1      64.114  29.042   9.522  1.00  0.00    -0.550 OA
ENDBRANCH  11  12
ENDBRANCH  10  11
ENDBRANCH   9  10
ENDBRANCH   8   9
ENDBRANCH   7   8
ENDBRANCH   6   7
ENDBRANCH   5   6
ENDBRANCH   4   5
ENDBRANCH   3   4
ENDBRANCH   2   3
ENDBRANCH   1   2
BRANCH   1  15
ATOM     15  C   UNL     1      61.747  34.296  15.820  1.00  0.00     0.000 C 
BRANCH  15  16
ATOM     16  C   UNL     1      62.504  33.864  17.090  1.00  0.00     0.000 C 
BRANCH  16  17
ATOM     17  C   UNL     1      63.221  35.003  17.843  1.00  0.00     0.000 C 
BRANCH  17  18
ATOM     18  C   UNL     1      64.640  35.323  17.343  1.00  0.00    -0.000 C 
BRANCH  18  19
ATOM     19  C   UNL     1      65.714  35.111  18.421  1.00  0.00    -0.000 C 
BRANCH  19  20
ATOM     20  C   UNL     1      67.004  35.865  18.063  1.00  0.00    -0.000 C 
BRANCH  20  21
ATOM     21  C   UNL     1      68.069  34.960  17.417  1.00  0.00    -0.000 C 
BRANCH  21  22
ATOM     22  C   UNL     1      67.648  33.490  17.235  1.00  0.00    -0.000 C 
BRANCH  22  23
ATOM     23  C   UNL     1      67.955  32.948  15.832  1.00  0.00    -0.000 C 
BRANCH  23  24
ATOM     24  C   UNL     1      67.799  34.044  14.772  1.00  0.00    -0.000 C 
BRANCH  24  25
ATOM     25  C   UNL     1      66.374  34.064  14.208  1.00  0.00    -0.003 C 
ATOM     26  C   UNL     1      66.384  34.080  12.683  1.00  0.00     0.004 C 
ENDBRANCH  24  25
ENDBRANCH  23  24
ENDBRANCH  22  23
ENDBRANCH  21  22
ENDBRANCH  20  21
ENDBRANCH  19  20
ENDBRANCH  18  19
ENDBRANCH  17  18
ENDBRANCH  16  17
ENDBRANCH  15  16
ENDBRANCH   1  15
TORSDOF 22
ENDMDL
