MODEL 1
REMARK VINA RESULT:    -3.518      0.000      0.000
REMARK INTER + INTRA:          -7.858
REMARK INTER:                  -6.398
REMARK INTRA:                  -1.460
REMARK UNBOUND:                -1.460
REMARK SMILES CCCCCCCCCCCCCCCC(=O)[O-]
REMARK SMILES IDX 9 1 10 2 11 3 12 4 13 5 14 6 15 7 16 8 17 9 18 10 8 11 7 12
REMARK SMILES IDX 6 13 5 14 4 15 3 16 2 17 1 18
REMARK H PARENT
REMARK Flexibility Score: inf
ROOT
ATOM      1  C   UNL     1     141.774 138.104 142.529  1.00  0.00     0.000 C 
ENDROOT
BRANCH   1   2
ATOM      2  C   UNL     1     142.400 137.865 141.147  1.00  0.00     0.000 C 
BRANCH   2   3
ATOM      3  C   UNL     1     142.533 136.372 140.806  1.00  0.00     0.000 C 
BRANCH   3   4
ATOM      4  C   UNL     1     142.363 136.138 139.298  1.00  0.00     0.000 C 
BRANCH   4   5
ATOM      5  C   UNL     1     141.096 135.333 138.952  1.00  0.00     0.000 C 
BRANCH   5   6
ATOM      6  C   UNL     1     140.194 134.995 140.153  1.00  0.00     0.006 C 
BRANCH   6   7
ATOM      7  C   UNL     1     138.730 135.398 139.933  1.00  0.00     0.053 C 
BRANCH   7   8
ATOM      8  C   UNL     1     137.905 134.199 139.589  1.00  0.00     0.041 C 
ATOM      9  O   UNL     1     137.255 133.598 140.484  1.00  0.00    -0.550 OA
ATOM     10  O   UNL     1     137.812 133.775 138.269  1.00  0.00    -0.550 OA
ENDBRANCH   7   8
ENDBRANCH   6   7
ENDBRANCH   5   6
ENDBRANCH   4   5
ENDBRANCH   3   4
ENDBRANCH   2   3
ENDBRANCH   1   2
BRANCH   1  11
ATOM     11  C   UNL     1     140.240 138.006 142.509  1.00  0.00     0.000 C 
BRANCH  11  12
ATOM     12  C   UNL     1     139.701 136.890 143.421  1.00  0.00    -0.000 C 
BRANCH  12  13
ATOM     13  C   UNL     1     138.517 137.332 144.309  1.00  0.00    -0.000 C 
BRANCH  13  14
ATOM     14  C   UNL     1     137.310 137.861 143.504  1.00  0.00    -0.000 C 
BRANCH  14  15
ATOM     15  C   UNL     1     136.884 136.949 142.336  1.00  0.00    -0.000 C 
BRANCH  15  16
ATOM     16  C   UNL     1     135.405 136.515 142.382  1.00  0.00    -0.000 C 
BRANCH  16  17
ATOM     17  C   UNL     1     134.872 136.092 141.006  1.00  0.00    -0.003 C 
ATOM     18  C   UNL     1     134.005 137.187 140.391  1.00  0.00     0.004 C 
ENDBRANCH  16  17
ENDBRANCH  15  16
ENDBRANCH  14  15
ENDBRANCH  13  14
ENDBRANCH  12  13
ENDBRANCH  11  12
ENDBRANCH   1  11
TORSDOF 14
ENDMDL
MODEL 2
REMARK VINA RESULT:    -3.498     11.046     14.248
REMARK INTER + INTRA:          -7.821
REMARK INTER:                  -5.312
REMARK INTRA:                  -2.508
REMARK UNBOUND:                -1.460
REMARK SMILES CCCCCCCCCCCCCCCC(=O)[O-]
REMARK SMILES IDX 9 1 10 2 11 3 12 4 13 5 14 6 15 7 16 8 17 9 18 10 8 11 7 12
REMARK SMILES IDX 6 13 5 14 4 15 3 16 2 17 1 18
REMARK H PARENT
REMARK Flexibility Score: inf
ROOT
ATOM      1  C   UNL     1     124.465 136.386 146.538  1.00  0.00     0.000 C 
ENDROOT
BRANCH   1   2
ATOM      2  C   UNL     1     124.173 136.927 147.947  1.00  0.00     0.000 C 
BRANCH   2   3
ATOM      3  C   UNL     1     125.002 138.176 148.286  1.00  0.00     0.000 C 
BRANCH   3   4
ATOM      4  C   UNL     1     125.996 137.882 149.419  1.00  0.00     0.000 C 
BRANCH   4   5
ATOM      5  C   UNL     1     127.463 137.904 148.953  1.00  0.00     0.000 C 
BRANCH   5   6
ATOM      6  C   UNL     1     127.719 138.683 147.650  1.00  0.00     0.006 C 
BRANCH   6   7
ATOM      7  C   UNL     1     128.486 137.863 146.604  1.00  0.00     0.053 C 
BRANCH   7   8
ATOM      8  C   UNL     1     129.936 138.231 146.613  1.00  0.00     0.041 C 
ATOM      9  O   UNL     1     130.417 138.937 145.687  1.00  0.00    -0.550 OA
ATOM     10  O   UNL     1     130.747 137.836 147.670  1.00  0.00    -0.550 OA
ENDBRANCH   7   8
ENDBRANCH   6   7
ENDBRANCH   5   6
ENDBRANCH   4   5
ENDBRANCH   3   4
ENDBRANCH   2   3
ENDBRANCH   1   2
BRANCH   1  11
ATOM     11  C   UNL     1     125.751 135.546 146.481  1.00  0.00     0.000 C 
BRANCH  11  12
ATOM     12  C   UNL     1     125.481 134.034 146.560  1.00  0.00    -0.000 C 
BRANCH  12  13
ATOM     13  C   UNL     1     125.595 133.457 147.987  1.00  0.00    -0.000 C 
BRANCH  13  14
ATOM     14  C   UNL     1     126.608 134.211 148.875  1.00  0.00    -0.000 C 
BRANCH  14  15
ATOM     15  C   UNL     1     128.052 133.680 148.774  1.00  0.00    -0.000 C 
BRANCH  15  16
ATOM     16  C   UNL     1     129.036 134.654 148.094  1.00  0.00    -0.000 C 
BRANCH  16  17
ATOM     17  C   UNL     1     129.725 134.036 146.870  1.00  0.00    -0.003 C 
ATOM     18  C   UNL     1     128.973 132.802 146.379  1.00  0.00     0.004 C 
ENDBRANCH  16  17
ENDBRANCH  15  16
ENDBRANCH  14  15
ENDBRANCH  13  14
ENDBRANCH  12  13
ENDBRANCH  11  12
ENDBRANCH   1  11
TORSDOF 14
ENDMDL
MODEL 3
REMARK VINA RESULT:    -3.483      1.885      3.271
REMARK INTER + INTRA:          -7.793
REMARK INTER:                  -5.737
REMARK INTRA:                  -2.056
REMARK UNBOUND:                -1.460
REMARK SMILES CCCCCCCCCCCCCCCC(=O)[O-]
REMARK SMILES IDX 9 1 10 2 11 3 12 4 13 5 14 6 15 7 16 8 17 9 18 10 8 11 7 12
REMARK SMILES IDX 6 13 5 14 4 15 3 16 2 17 1 18
REMARK H PARENT
REMARK Flexibility Score: inf
ROOT
ATOM      1  C   UNL     1     139.676 137.924 142.306  1.00  0.00     0.000 C 
ENDROOT
BRANCH   1   2
ATOM      2  C   UNL     1     141.131 138.281 141.966  1.00  0.00     0.000 C 
BRANCH   2   3
ATOM      3  C   UNL     1     142.148 137.491 142.805  1.00  0.00     0.000 C 
BRANCH   3   4
ATOM      4  C   UNL     1     142.761 136.346 141.986  1.00  0.00     0.000 C 
BRANCH   4   5
ATOM      5  C   UNL     1     142.437 136.439 140.483  1.00  0.00     0.000 C 
BRANCH   5   6
ATOM      6  C   UNL     1     141.998 135.117 139.830  1.00  0.00     0.006 C 
BRANCH   6   7
ATOM      7  C   UNL     1     142.526 134.951 138.399  1.00  0.00     0.053 C 
BRANCH   7   8
ATOM      8  C   UNL     1     141.700 135.748 137.441  1.00  0.00     0.041 C 
ATOM      9  O   UNL     1     140.447 135.626 137.430  1.00  0.00    -0.550 OA
ATOM     10  O   UNL     1     142.310 136.665 136.594  1.00  0.00    -0.550 OA
ENDBRANCH   7   8
ENDBRANCH   6   7
ENDBRANCH   5   6
ENDBRANCH   4   5
ENDBRANCH   3   4
ENDBRANCH   2   3
ENDBRANCH   1   2
BRANCH   1  11
ATOM     11  C   UNL     1     139.507 137.449 143.758  1.00  0.00     0.000 C 
BRANCH  11  12
ATOM     12  C   UNL     1     138.032 137.300 144.170  1.00  0.00    -0.000 C 
BRANCH  12  13
ATOM     13  C   UNL     1     137.047 138.015 143.219  1.00  0.00    -0.000 C 
BRANCH  13  14
ATOM     14  C   UNL     1     136.045 137.056 142.540  1.00  0.00    -0.000 C 
BRANCH  14  15
ATOM     15  C   UNL     1     136.661 135.718 142.086  1.00  0.00    -0.000 C 
BRANCH  15  16
ATOM     16  C   UNL     1     137.216 135.736 140.647  1.00  0.00    -0.000 C 
BRANCH  16  17
ATOM     17  C   UNL     1     138.468 134.863 140.488  1.00  0.00    -0.003 C 
ATOM     18  C   UNL     1     138.907 134.280 141.828  1.00  0.00     0.004 C 
ENDBRANCH  16  17
ENDBRANCH  15  16
ENDBRANCH  14  15
ENDBRANCH  13  14
ENDBRANCH  12  13
ENDBRANCH  11  12
ENDBRANCH   1  11
TORSDOF 14
ENDMDL
MODEL 4
REMARK VINA RESULT:    -3.482      1.929      4.897
REMARK INTER + INTRA:          -7.792
REMARK INTER:                  -5.688
REMARK INTRA:                  -2.104
REMARK UNBOUND:                -1.460
REMARK SMILES CCCCCCCCCCCCCCCC(=O)[O-]
REMARK SMILES IDX 9 1 10 2 11 3 12 4 13 5 14 6 15 7 16 8 17 9 18 10 8 11 7 12
REMARK SMILES IDX 6 13 5 14 4 15 3 16 2 17 1 18
REMARK H PARENT
REMARK Flexibility Score: inf
ROOT
ATOM      1  C   UNL     1     139.351 137.442 142.276  1.00  0.00     0.000 C 
ENDROOT
BRANCH   1   2
ATOM      2  C   UNL     1     138.607 137.575 143.613  1.00  0.00     0.000 C 
BRANCH   2   3
ATOM      3  C   UNL     1     137.107 137.854 143.433  1.00  0.00     0.000 C 
BRANCH   3   4
ATOM      4  C   UNL     1     136.308 136.543 143.390  1.00  0.00     0.000 C 
BRANCH   4   5
ATOM      5  C   UNL     1     135.427 136.417 142.133  1.00  0.00     0.000 C 
BRANCH   5   6
ATOM      6  C   UNL     1     136.181 136.032 140.847  1.00  0.00     0.006 C 
BRANCH   6   7
ATOM      7  C   UNL     1     137.015 134.754 141.002  1.00  0.00     0.053 C 
BRANCH   7   8
ATOM      8  C   UNL     1     136.181 133.547 140.711  1.00  0.00     0.041 C 
ATOM      9  O   UNL     1     136.000 133.173 139.522  1.00  0.00    -0.550 OA
ATOM     10  O   UNL     1     135.645 132.804 141.756  1.00  0.00    -0.550 OA
ENDBRANCH   7   8
ENDBRANCH   6   7
ENDBRANCH   5   6
ENDBRANCH   4   5
ENDBRANCH   3   4
ENDBRANCH   2   3
ENDBRANCH   1   2
BRANCH   1  11
ATOM     11  C   UNL     1     140.591 138.347 142.195  1.00  0.00     0.000 C 
BRANCH  11  12
ATOM     12  C   UNL     1     141.832 137.615 141.655  1.00  0.00    -0.000 C 
BRANCH  12  13
ATOM     13  C   UNL     1     142.720 137.002 142.760  1.00  0.00    -0.000 C 
BRANCH  13  14
ATOM     14  C   UNL     1     142.530 135.479 142.927  1.00  0.00    -0.000 C 
BRANCH  14  15
ATOM     15  C   UNL     1     142.290 135.030 144.382  1.00  0.00    -0.000 C 
BRANCH  15  16
ATOM     16  C   UNL     1     140.803 134.853 144.750  1.00  0.00    -0.000 C 
BRANCH  16  17
ATOM     17  C   UNL     1     140.021 134.071 143.686  1.00  0.00    -0.003 C 
ATOM     18  C   UNL     1     138.616 133.730 144.174  1.00  0.00     0.004 C 
ENDBRANCH  16  17
ENDBRANCH  15  16
ENDBRANCH  14  15
ENDBRANCH  13  14
ENDBRANCH  12  13
ENDBRANCH  11  12
ENDBRANCH   1  11
TORSDOF 14
ENDMDL
MODEL 5
REMARK VINA RESULT:    -3.448      1.454      2.354
REMARK INTER + INTRA:          -7.730
REMARK INTER:                  -5.527
REMARK INTRA:                  -2.203
REMARK UNBOUND:                -1.460
REMARK SMILES CCCCCCCCCCCCCCCC(=O)[O-]
REMARK SMILES IDX 9 1 10 2 11 3 12 4 13 5 14 6 15 7 16 8 17 9 18 10 8 11 7 12
REMARK SMILES IDX 6 13 5 14 4 15 3 16 2 17 1 18
REMARK H PARENT
REMARK Flexibility Score: inf
ROOT
ATOM      1  C   UNL     1     142.761 136.690 142.426  1.00  0.00     0.000 C 
ENDROOT
BRANCH   1   2
ATOM      2  C   UNL     1     142.778 135.430 143.305  1.00  0.00     0.000 C 
BRANCH   2   3
ATOM      3  C   UNL     1     141.382 135.046 143.820  1.00  0.00     0.000 C 
BRANCH   3   4
ATOM      4  C   UNL     1     140.804 133.875 143.013  1.00  0.00     0.000 C 
BRANCH   4   5
ATOM      5  C   UNL     1     139.606 134.282 142.134  1.00  0.00     0.000 C 
BRANCH   5   6
ATOM      6  C   UNL     1     139.971 134.739 140.710  1.00  0.00     0.006 C 
BRANCH   6   7
ATOM      7  C   UNL     1     138.766 135.270 139.924  1.00  0.00     0.053 C 
BRANCH   7   8
ATOM      8  C   UNL     1     137.973 134.137 139.354  1.00  0.00     0.041 C 
ATOM      9  O   UNL     1     138.499 133.350 138.524  1.00  0.00    -0.550 OA
ATOM     10  O   UNL     1     136.668 133.919 139.778  1.00  0.00    -0.550 OA
ENDBRANCH   7   8
ENDBRANCH   6   7
ENDBRANCH   5   6
ENDBRANCH   4   5
ENDBRANCH   3   4
ENDBRANCH   2   3
ENDBRANCH   1   2
BRANCH   1  11
ATOM     11  C   UNL     1     141.948 137.836 143.050  1.00  0.00     0.000 C 
BRANCH  11  12
ATOM     12  C   UNL     1     140.889 138.408 142.092  1.00  0.00    -0.000 C 
BRANCH  12  13
ATOM     13  C   UNL     1     139.471 137.842 142.327  1.00  0.00    -0.000 C 
BRANCH  13  14
ATOM     14  C   UNL     1     139.123 137.658 143.820  1.00  0.00    -0.000 C 
BRANCH  14  15
ATOM     15  C   UNL     1     137.655 137.270 144.082  1.00  0.00    -0.000 C 
BRANCH  15  16
ATOM     16  C   UNL     1     136.709 137.549 142.896  1.00  0.00    -0.000 C 
BRANCH  16  17
ATOM     17  C   UNL     1     136.112 136.264 142.304  1.00  0.00    -0.003 C 
ATOM     18  C   UNL     1     134.992 136.581 141.318  1.00  0.00     0.004 C 
ENDBRANCH  16  17
ENDBRANCH  15  16
ENDBRANCH  14  15
ENDBRANCH  13  14
ENDBRANCH  12  13
ENDBRANCH  11  12
ENDBRANCH   1  11
TORSDOF 14
ENDMDL
MODEL 6
REMARK VINA RESULT:    -3.429      2.840      5.593
REMARK INTER + INTRA:          -7.694
REMARK INTER:                  -5.099
REMARK INTRA:                  -2.596
REMARK UNBOUND:                -1.460
REMARK SMILES CCCCCCCCCCCCCCCC(=O)[O-]
REMARK SMILES IDX 9 1 10 2 11 3 12 4 13 5 14 6 15 7 16 8 17 9 18 10 8 11 7 12
REMARK SMILES IDX 6 13 5 14 4 15 3 16 2 17 1 18
REMARK H PARENT
REMARK Flexibility Score: inf
ROOT
ATOM      1  C   UNL     1     135.844 135.402 142.007  1.00  0.00     0.000 C 
ENDROOT
BRANCH   1   2
ATOM      2  C   UNL     1     135.973 136.284 143.259  1.00  0.00     0.000 C 
BRANCH   2   3
ATOM      3  C   UNL     1     136.806 137.551 143.009  1.00  0.00     0.000 C 
BRANCH   3   4
ATOM      4  C   UNL     1     137.893 137.711 144.082  1.00  0.00     0.000 C 
BRANCH   4   5
ATOM      5  C   UNL     1     139.285 137.261 143.600  1.00  0.00     0.000 C 
BRANCH   5   6
ATOM      6  C   UNL     1     139.795 137.969 142.332  1.00  0.00     0.006 C 
BRANCH   6   7
ATOM      7  C   UNL     1     141.298 138.270 142.378  1.00  0.00     0.053 C 
BRANCH   7   8
ATOM      8  C   UNL     1     142.088 137.007 142.247  1.00  0.00     0.041 C 
ATOM      9  O   UNL     1     142.219 136.455 141.123  1.00  0.00    -0.550 OA
ATOM     10  O   UNL     1     142.723 136.466 143.358  1.00  0.00    -0.550 OA
ENDBRANCH   7   8
ENDBRANCH   6   7
ENDBRANCH   5   6
ENDBRANCH   4   5
ENDBRANCH   3   4
ENDBRANCH   2   3
ENDBRANCH   1   2
BRANCH   1  11
ATOM     11  C   UNL     1     136.579 135.989 140.792  1.00  0.00     0.000 C 
BRANCH  11  12
ATOM     12  C   UNL     1     137.476 134.961 140.081  1.00  0.00    -0.000 C 
BRANCH  12  13
ATOM     13  C   UNL     1     138.977 135.115 140.411  1.00  0.00    -0.000 C 
BRANCH  13  14
ATOM     14  C   UNL     1     139.614 133.830 140.983  1.00  0.00    -0.000 C 
BRANCH  14  15
ATOM     15  C   UNL     1     139.942 133.906 142.488  1.00  0.00    -0.000 C 
BRANCH  15  16
ATOM     16  C   UNL     1     138.756 133.557 143.409  1.00  0.00    -0.000 C 
BRANCH  16  17
ATOM     17  C   UNL     1     138.308 132.096 143.266  1.00  0.00    -0.003 C 
ATOM     18  C   UNL     1     136.869 132.008 142.765  1.00  0.00     0.004 C 
ENDBRANCH  16  17
ENDBRANCH  15  16
ENDBRANCH  14  15
ENDBRANCH  13  14
ENDBRANCH  12  13
ENDBRANCH  11  12
ENDBRANCH   1  11
TORSDOF 14
ENDMDL
MODEL 7
REMARK VINA RESULT:    -3.412      2.991      4.870
REMARK INTER + INTRA:          -7.665
REMARK INTER:                  -5.607
REMARK INTRA:                  -2.058
REMARK UNBOUND:                -1.460
REMARK SMILES CCCCCCCCCCCCCCCC(=O)[O-]
REMARK SMILES IDX 9 1 10 2 11 3 12 4 13 5 14 6 15 7 16 8 17 9 18 10 8 11 7 12
REMARK SMILES IDX 6 13 5 14 4 15 3 16 2 17 1 18
REMARK H PARENT
REMARK Flexibility Score: inf
ROOT
ATOM      1  C   UNL     1     142.655 137.242 141.885  1.00  0.00     0.000 C 
ENDROOT
BRANCH   1   2
ATOM      2  C   UNL     1     141.719 138.258 142.557  1.00  0.00     0.000 C 
BRANCH   2   3
ATOM      3  C   UNL     1     140.240 138.018 142.216  1.00  0.00     0.000 C 
BRANCH   3   4
ATOM      4  C   UNL     1     139.497 137.394 143.406  1.00  0.00     0.000 C 
BRANCH   4   5
ATOM      5  C   UNL     1     138.030 137.851 143.507  1.00  0.00     0.000 C 
BRANCH   5   6
ATOM      6  C   UNL     1     137.153 137.015 144.458  1.00  0.00     0.006 C 
BRANCH   6   7
ATOM      7  C   UNL     1     137.946 135.942 145.215  1.00  0.00     0.053 C 
BRANCH   7   8
ATOM      8  C   UNL     1     137.800 136.129 146.692  1.00  0.00     0.041 C 
ATOM      9  O   UNL     1     138.569 136.912 147.310  1.00  0.00    -0.550 OA
ATOM     10  O   UNL     1     136.783 135.478 147.378  1.00  0.00    -0.550 OA
ENDBRANCH   7   8
ENDBRANCH   6   7
ENDBRANCH   5   6
ENDBRANCH   4   5
ENDBRANCH   3   4
ENDBRANCH   2   3
ENDBRANCH   1   2
BRANCH   1  11
ATOM     11  C   UNL     1     141.948 136.411 140.802  1.00  0.00     0.000 C 
BRANCH  11  12
ATOM     12  C   UNL     1     142.078 134.895 141.031  1.00  0.00    -0.000 C 
BRANCH  12  13
ATOM     13  C   UNL     1     140.723 134.179 141.222  1.00  0.00    -0.000 C 
BRANCH  13  14
ATOM     14  C   UNL     1     139.562 134.848 140.455  1.00  0.00    -0.000 C 
BRANCH  14  15
ATOM     15  C   UNL     1     138.208 134.798 141.192  1.00  0.00    -0.000 C 
BRANCH  15  16
ATOM     16  C   UNL     1     137.157 135.785 140.645  1.00  0.00    -0.000 C 
BRANCH  16  17
ATOM     17  C   UNL     1     135.795 135.637 141.337  1.00  0.00    -0.003 C 
ATOM     18  C   UNL     1     134.872 136.801 140.989  1.00  0.00     0.004 C 
ENDBRANCH  16  17
ENDBRANCH  15  16
ENDBRANCH  14  15
ENDBRANCH  13  14
ENDBRANCH  12  13
ENDBRANCH  11  12
ENDBRANCH   1  11
TORSDOF 14
ENDMDL
MODEL 8
REMARK VINA RESULT:    -3.410      7.122     10.137
REMARK INTER + INTRA:          -7.661
REMARK INTER:                  -5.580
REMARK INTRA:                  -2.082
REMARK UNBOUND:                -1.460
REMARK SMILES CCCCCCCCCCCCCCCC(=O)[O-]
REMARK SMILES IDX 9 1 10 2 11 3 12 4 13 5 14 6 15 7 16 8 17 9 18 10 8 11 7 12
REMARK SMILES IDX 6 13 5 14 4 15 3 16 2 17 1 18
REMARK H PARENT
REMARK Flexibility Score: inf
ROOT
ATOM      1  C   UNL     1     134.872 130.507 133.912  1.00  0.00     0.000 C 
ENDROOT
BRANCH   1   2
ATOM      2  C   UNL     1     134.252 129.360 134.724  1.00  0.00     0.000 C 
BRANCH   2   3
ATOM      3  C   UNL     1     134.808 129.277 136.154  1.00  0.00     0.000 C 
BRANCH   3   4
ATOM      4  C   UNL     1     133.669 129.223 137.182  1.00  0.00     0.000 C 
BRANCH   4   5
ATOM      5  C   UNL     1     134.172 129.167 138.637  1.00  0.00     0.000 C 
BRANCH   5   6
ATOM      6  C   UNL     1     135.093 130.329 139.051  1.00  0.00     0.006 C 
BRANCH   6   7
ATOM      7  C   UNL     1     136.400 129.856 139.700  1.00  0.00     0.053 C 
BRANCH   7   8
ATOM      8  C   UNL     1     136.159 129.446 141.119  1.00  0.00     0.041 C 
ATOM      9  O   UNL     1     136.310 128.245 141.466  1.00  0.00    -0.550 OA
ATOM     10  O   UNL     1     135.817 130.400 142.069  1.00  0.00    -0.550 OA
ENDBRANCH   7   8
ENDBRANCH   6   7
ENDBRANCH   5   6
ENDBRANCH   4   5
ENDBRANCH   3   4
ENDBRANCH   2   3
ENDBRANCH   1   2
BRANCH   1  11
ATOM     11  C   UNL     1     135.524 130.024 132.607  1.00  0.00     0.000 C 
BRANCH  11  12
ATOM     12  C   UNL     1     136.921 129.418 132.825  1.00  0.00    -0.000 C 
BRANCH  12  13
ATOM     13  C   UNL     1     138.063 130.456 132.764  1.00  0.00    -0.000 C 
BRANCH  13  14
ATOM     14  C   UNL     1     139.004 130.406 133.987  1.00  0.00    -0.000 C 
BRANCH  14  15
ATOM     15  C   UNL     1     138.417 129.663 135.204  1.00  0.00    -0.000 C 
BRANCH  15  16
ATOM     16  C   UNL     1     138.178 130.561 136.435  1.00  0.00    -0.000 C 
BRANCH  16  17
ATOM     17  C   UNL     1     138.130 132.053 136.075  1.00  0.00    -0.003 C 
ATOM     18  C   UNL     1     136.729 132.622 136.278  1.00  0.00     0.004 C 
ENDBRANCH  16  17
ENDBRANCH  15  16
ENDBRANCH  14  15
ENDBRANCH  13  14
ENDBRANCH  12  13
ENDBRANCH  11  12
ENDBRANCH   1  11
TORSDOF 14
ENDMDL
MODEL 9
REMARK VINA RESULT:    -3.396      9.896     13.418
REMARK INTER + INTRA:          -7.636
REMARK INTER:                  -5.339
REMARK INTRA:                  -2.297
REMARK UNBOUND:                -1.460
REMARK SMILES CCCCCCCCCCCCCCCC(=O)[O-]
REMARK SMILES IDX 9 1 10 2 11 3 12 4 13 5 14 6 15 7 16 8 17 9 18 10 8 11 7 12
REMARK SMILES IDX 6 13 5 14 4 15 3 16 2 17 1 18
REMARK H PARENT
REMARK Flexibility Score: inf
ROOT
ATOM      1  C   UNL     1     125.872 137.603 145.958  1.00  0.00     0.000 C 
ENDROOT
BRANCH   1   2
ATOM      2  C   UNL     1     127.286 137.138 146.341  1.00  0.00     0.000 C 
BRANCH   2   3
ATOM      3  C   UNL     1     128.045 138.176 147.182  1.00  0.00     0.000 C 
BRANCH   3   4
ATOM      4  C   UNL     1     128.607 137.540 148.462  1.00  0.00     0.000 C 
BRANCH   4   5
ATOM      5  C   UNL     1     130.143 137.429 148.454  1.00  0.00     0.000 C 
BRANCH   5   6
ATOM      6  C   UNL     1     130.691 136.008 148.225  1.00  0.00     0.006 C 
BRANCH   6   7
ATOM      7  C   UNL     1     130.593 135.557 146.762  1.00  0.00     0.053 C 
BRANCH   7   8
ATOM      8  C   UNL     1     131.479 136.395 145.897  1.00  0.00     0.041 C 
ATOM      9  O   UNL     1     132.702 136.117 145.784  1.00  0.00    -0.550 OA
ATOM     10  O   UNL     1     130.945 137.454 145.174  1.00  0.00    -0.550 OA
ENDBRANCH   7   8
ENDBRANCH   6   7
ENDBRANCH   5   6
ENDBRANCH   4   5
ENDBRANCH   3   4
ENDBRANCH   2   3
ENDBRANCH   1   2
BRANCH   1  11
ATOM     11  C   UNL     1     124.773 136.834 146.708  1.00  0.00     0.000 C 
BRANCH  11  12
ATOM     12  C   UNL     1     124.524 137.379 148.125  1.00  0.00    -0.000 C 
BRANCH  12  13
ATOM     13  C   UNL     1     124.405 136.277 149.201  1.00  0.00    -0.000 C 
BRANCH  13  14
ATOM     14  C   UNL     1     125.755 135.910 149.855  1.00  0.00    -0.000 C 
BRANCH  14  15
ATOM     15  C   UNL     1     126.325 134.550 149.405  1.00  0.00    -0.000 C 
BRANCH  15  16
ATOM     16  C   UNL     1     125.335 133.690 148.593  1.00  0.00    -0.000 C 
BRANCH  16  17
ATOM     17  C   UNL     1     125.813 133.440 147.156  1.00  0.00    -0.003 C 
ATOM     18  C   UNL     1     127.334 133.520 147.060  1.00  0.00     0.004 C 
ENDBRANCH  16  17
ENDBRANCH  15  16
ENDBRANCH  14  15
ENDBRANCH  13  14
ENDBRANCH  12  13
ENDBRANCH  11  12
ENDBRANCH   1  11
TORSDOF 14
ENDMDL
