MODEL 1
REMARK VINA RESULT:    -4.631      0.000      0.000
REMARK INTER + INTRA:          -6.407
REMARK INTER:                  -6.255
REMARK INTRA:                  -0.152
REMARK UNBOUND:                -0.152
REMARK SMILES [NH3+]CCCC[C@@H]([NH3+])C(=O)[O-]
REMARK SMILES IDX 4 1 3 2 2 3 1 4 5 8 6 9 7 10 8 14 9 15 10 16
REMARK H PARENT 1 5 1 6 1 7 7 11 7 12 7 13
REMARK Flexibility Score: inf
ROOT
ATOM      1  C   UNL     1      22.302   5.434   6.064  1.00  0.00     0.012 C 
ENDROOT
BRANCH   1   2
ATOM      2  C   UNL     1      22.445   4.356   7.148  1.00  0.00     0.061 C 
BRANCH   2   3
ATOM      3  C   UNL     1      22.472   2.953   6.529  1.00  0.00     0.258 C 
BRANCH   3   4
ATOM      4  N   UNL     1      23.541   2.143   7.114  1.00  0.00    -0.358 N 
ATOM      5  H   UNL     1      23.179   1.669   7.973  1.00  0.00     0.344 HD
ATOM      6  H   UNL     1      24.349   2.752   7.378  1.00  0.00     0.344 HD
ATOM      7  H   UNL     1      23.854   1.415   6.432  1.00  0.00     0.344 HD
ENDBRANCH   3   4
ENDBRANCH   2   3
ENDBRANCH   1   2
BRANCH   1   8
ATOM      8  C   UNL     1      20.891   6.050   5.998  1.00  0.00     0.072 C 
BRANCH   8   9
ATOM      9  C   UNL     1      20.801   7.487   6.571  1.00  0.00     0.227 C 
BRANCH   9  10
ATOM     10  N   UNL     1      19.657   8.200   5.987  1.00  0.00    -0.350 N 
ATOM     11  H   UNL     1      18.974   8.452   6.739  1.00  0.00     0.345 HD
ATOM     12  H   UNL     1      19.168   7.585   5.297  1.00  0.00     0.345 HD
ATOM     13  H   UNL     1      19.976   9.073   5.505  1.00  0.00     0.345 HD
ENDBRANCH   9  10
BRANCH   9  14
ATOM     14  C   UNL     1      20.680   7.485   8.073  1.00  0.00     0.099 C 
ATOM     15  O   UNL     1      20.091   6.543   8.667  1.00  0.00    -0.544 OA
ATOM     16  O   UNL     1      21.187   8.548   8.810  1.00  0.00    -0.544 OA
ENDBRANCH   9  14
ENDBRANCH   8   9
ENDBRANCH   1   8
TORSDOF 7
ENDMDL
MODEL 2
REMARK VINA RESULT:    -4.499      1.554      1.908
REMARK INTER + INTRA:          -6.229
REMARK INTER:                  -6.158
REMARK INTRA:                  -0.071
REMARK UNBOUND:                -0.152
REMARK SMILES [NH3+]CCCC[C@@H]([NH3+])C(=O)[O-]
REMARK SMILES IDX 4 1 3 2 2 3 1 4 5 8 6 9 7 10 8 14 9 15 10 16
REMARK H PARENT 1 5 1 6 1 7 7 11 7 12 7 13
REMARK Flexibility Score: inf
ROOT
ATOM      1  C   UNL     1      22.693   3.984   6.418  1.00  0.00     0.012 C 
ENDROOT
BRANCH   1   2
ATOM      2  C   UNL     1      22.411   2.512   6.749  1.00  0.00     0.061 C 
BRANCH   2   3
ATOM      3  C   UNL     1      23.592   1.878   7.495  1.00  0.00     0.258 C 
BRANCH   3   4
ATOM      4  N   UNL     1      24.349   0.987   6.615  1.00  0.00    -0.358 N 
ATOM      5  H   UNL     1      24.040   0.001   6.779  1.00  0.00     0.344 HD
ATOM      6  H   UNL     1      25.371   1.061   6.822  1.00  0.00     0.344 HD
ATOM      7  H   UNL     1      24.172   1.235   5.615  1.00  0.00     0.344 HD
ENDBRANCH   3   4
ENDBRANCH   2   3
ENDBRANCH   1   2
BRANCH   1   8
ATOM      8  C   UNL     1      21.737   4.963   7.126  1.00  0.00     0.072 C 
BRANCH   8   9
ATOM      9  C   UNL     1      21.659   6.361   6.462  1.00  0.00     0.227 C 
BRANCH   9  10
ATOM     10  N   UNL     1      21.401   6.231   5.022  1.00  0.00    -0.350 N 
ATOM     11  H   UNL     1      20.377   6.090   4.855  1.00  0.00     0.345 HD
ATOM     12  H   UNL     1      21.908   5.399   4.642  1.00  0.00     0.345 HD
ATOM     13  H   UNL     1      21.717   7.089   4.513  1.00  0.00     0.345 HD
ENDBRANCH   9  10
BRANCH   9  14
ATOM     14  C   UNL     1      20.591   7.220   7.089  1.00  0.00     0.099 C 
ATOM     15  O   UNL     1      20.020   8.123   6.421  1.00  0.00    -0.544 OA
ATOM     16  O   UNL     1      20.258   7.044   8.427  1.00  0.00    -0.544 OA
ENDBRANCH   9  14
ENDBRANCH   8   9
ENDBRANCH   1   8
TORSDOF 7
ENDMDL
MODEL 3
REMARK VINA RESULT:    -4.331     17.593     18.336
REMARK INTER + INTRA:          -6.002
REMARK INTER:                  -5.725
REMARK INTRA:                  -0.277
REMARK UNBOUND:                -0.152
REMARK SMILES [NH3+]CCCC[C@@H]([NH3+])C(=O)[O-]
REMARK SMILES IDX 4 1 3 2 2 3 1 4 5 8 6 9 7 10 8 14 9 15 10 16
REMARK H PARENT 1 5 1 6 1 7 7 11 7 12 7 13
REMARK Flexibility Score: inf
ROOT
ATOM      1  C   UNL     1      19.714  -4.841  20.500  1.00  0.00     0.012 C 
ENDROOT
BRANCH   1   2
ATOM      2  C   UNL     1      20.246  -5.946  21.424  1.00  0.00     0.061 C 
BRANCH   2   3
ATOM      3  C   UNL     1      20.966  -5.349  22.640  1.00  0.00     0.258 C 
BRANCH   3   4
ATOM      4  N   UNL     1      20.603  -3.943  22.824  1.00  0.00    -0.358 N 
ATOM      5  H   UNL     1      21.289  -3.496  23.476  1.00  0.00     0.344 HD
ATOM      6  H   UNL     1      19.646  -3.870  23.238  1.00  0.00     0.344 HD
ATOM      7  H   UNL     1      20.632  -3.441  21.908  1.00  0.00     0.344 HD
ENDBRANCH   3   4
ENDBRANCH   2   3
ENDBRANCH   1   2
BRANCH   1   8
ATOM      8  C   UNL     1      18.338  -5.166  19.889  1.00  0.00     0.072 C 
BRANCH   8   9
ATOM      9  C   UNL     1      17.146  -4.921  20.849  1.00  0.00     0.227 C 
BRANCH   9  10
ATOM     10  N   UNL     1      16.875  -6.125  21.647  1.00  0.00    -0.350 N 
ATOM     11  H   UNL     1      15.847  -6.215  21.815  1.00  0.00     0.345 HD
ATOM     12  H   UNL     1      17.351  -6.052  22.576  1.00  0.00     0.345 HD
ATOM     13  H   UNL     1      17.219  -6.980  21.150  1.00  0.00     0.345 HD
ENDBRANCH   9  10
BRANCH   9  14
ATOM     14  C   UNL     1      17.398  -3.754  21.769  1.00  0.00     0.099 C 
ATOM     15  O   UNL     1      17.348  -2.573  21.334  1.00  0.00    -0.544 OA
ATOM     16  O   UNL     1      17.726  -3.980  23.100  1.00  0.00    -0.544 OA
ENDBRANCH   9  14
ENDBRANCH   8   9
ENDBRANCH   1   8
TORSDOF 7
ENDMDL
MODEL 4
REMARK VINA RESULT:    -3.709     22.323     23.261
REMARK INTER + INTRA:          -5.162
REMARK INTER:                  -5.021
REMARK INTRA:                  -0.140
REMARK UNBOUND:                -0.152
REMARK SMILES [NH3+]CCCC[C@@H]([NH3+])C(=O)[O-]
REMARK SMILES IDX 4 1 3 2 2 3 1 4 5 8 6 9 7 10 8 14 9 15 10 16
REMARK H PARENT 1 5 1 6 1 7 7 11 7 12 7 13
REMARK Flexibility Score: inf
ROOT
ATOM      1  C   UNL     1      35.579  -1.548  22.431  1.00  0.00     0.012 C 
ENDROOT
BRANCH   1   2
ATOM      2  C   UNL     1      36.373  -1.825  21.146  1.00  0.00     0.061 C 
BRANCH   2   3
ATOM      3  C   UNL     1      37.011  -3.220  21.183  1.00  0.00     0.258 C 
BRANCH   3   4
ATOM      4  N   UNL     1      37.043  -3.816  19.847  1.00  0.00    -0.358 N 
ATOM      5  H   UNL     1      36.491  -4.705  19.857  1.00  0.00     0.344 HD
ATOM      6  H   UNL     1      38.029  -4.031  19.573  1.00  0.00     0.344 HD
ATOM      7  H   UNL     1      36.617  -3.162  19.151  1.00  0.00     0.344 HD
ENDBRANCH   3   4
ENDBRANCH   2   3
ENDBRANCH   1   2
BRANCH   1   8
ATOM      8  C   UNL     1      36.410  -1.734  23.714  1.00  0.00     0.072 C 
BRANCH   8   9
ATOM      9  C   UNL     1      35.584  -1.642  25.022  1.00  0.00     0.227 C 
BRANCH   9  10
ATOM     10  N   UNL     1      34.932  -0.329  25.125  1.00  0.00    -0.350 N 
ATOM     11  H   UNL     1      34.830   0.093  24.173  1.00  0.00     0.345 HD
ATOM     12  H   UNL     1      35.518   0.315  25.704  1.00  0.00     0.345 HD
ATOM     13  H   UNL     1      33.986  -0.422  25.563  1.00  0.00     0.345 HD
ENDBRANCH   9  10
BRANCH   9  14
ATOM     14  C   UNL     1      34.543  -2.728  25.104  1.00  0.00     0.099 C 
ATOM     15  O   UNL     1      34.883  -3.941  25.124  1.00  0.00    -0.544 OA
ATOM     16  O   UNL     1      33.194  -2.395  25.119  1.00  0.00    -0.544 OA
ENDBRANCH   9  14
ENDBRANCH   8   9
ENDBRANCH   1   8
TORSDOF 7
ENDMDL
MODEL 5
REMARK VINA RESULT:    -3.527      2.529      2.931
REMARK INTER + INTRA:          -4.917
REMARK INTER:                  -5.023
REMARK INTRA:                   0.107
REMARK UNBOUND:                -0.152
REMARK SMILES [NH3+]CCCC[C@@H]([NH3+])C(=O)[O-]
REMARK SMILES IDX 4 1 3 2 2 3 1 4 5 8 6 9 7 10 8 14 9 15 10 16
REMARK H PARENT 1 5 1 6 1 7 7 11 7 12 7 13
REMARK Flexibility Score: inf
ROOT
ATOM      1  C   UNL     1      21.706   3.851   7.085  1.00  0.00     0.012 C 
ENDROOT
BRANCH   1   2
ATOM      2  C   UNL     1      22.863   3.081   6.433  1.00  0.00     0.061 C 
BRANCH   2   3
ATOM      3  C   UNL     1      23.060   1.713   7.099  1.00  0.00     0.258 C 
BRANCH   3   4
ATOM      4  N   UNL     1      24.480   1.373   7.185  1.00  0.00    -0.358 N 
ATOM      5  H   UNL     1      24.941   1.598   6.273  1.00  0.00     0.344 HD
ATOM      6  H   UNL     1      24.594   0.352   7.379  1.00  0.00     0.344 HD
ATOM      7  H   UNL     1      24.938   1.930   7.942  1.00  0.00     0.344 HD
ENDBRANCH   3   4
ENDBRANCH   2   3
ENDBRANCH   1   2
BRANCH   1   8
ATOM      8  C   UNL     1      21.936   5.374   7.130  1.00  0.00     0.072 C 
BRANCH   8   9
ATOM      9  C   UNL     1      21.848   6.068   5.747  1.00  0.00     0.227 C 
BRANCH   9  10
ATOM     10  N   UNL     1      21.023   7.280   5.833  1.00  0.00    -0.350 N 
ATOM     11  H   UNL     1      21.021   7.640   6.816  1.00  0.00     0.345 HD
ATOM     12  H   UNL     1      20.035   7.059   5.568  1.00  0.00     0.345 HD
ATOM     13  H   UNL     1      21.392   8.023   5.195  1.00  0.00     0.345 HD
ENDBRANCH   9  10
BRANCH   9  14
ATOM     14  C   UNL     1      23.210   6.423   5.211  1.00  0.00     0.099 C 
ATOM     15  O   UNL     1      24.022   5.521   4.875  1.00  0.00    -0.544 OA
ATOM     16  O   UNL     1      23.592   7.756   5.120  1.00  0.00    -0.544 OA
ENDBRANCH   9  14
ENDBRANCH   8   9
ENDBRANCH   1   8
TORSDOF 7
ENDMDL
MODEL 6
REMARK VINA RESULT:    -3.522      2.542      4.449
REMARK INTER + INTRA:          -4.910
REMARK INTER:                  -4.931
REMARK INTRA:                   0.022
REMARK UNBOUND:                -0.152
REMARK SMILES [NH3+]CCCC[C@@H]([NH3+])C(=O)[O-]
REMARK SMILES IDX 4 1 3 2 2 3 1 4 5 8 6 9 7 10 8 14 9 15 10 16
REMARK H PARENT 1 5 1 6 1 7 7 11 7 12 7 13
REMARK Flexibility Score: inf
ROOT
ATOM      1  C   UNL     1      21.544   7.186   6.019  1.00  0.00     0.012 C 
ENDROOT
BRANCH   1   2
ATOM      2  C   UNL     1      20.209   7.425   6.740  1.00  0.00     0.061 C 
BRANCH   2   3
ATOM      3  C   UNL     1      20.388   7.369   8.263  1.00  0.00     0.258 C 
BRANCH   3   4
ATOM      4  N   UNL     1      21.285   8.429   8.723  1.00  0.00    -0.358 N 
ATOM      5  H   UNL     1      21.371   9.154   7.974  1.00  0.00     0.344 HD
ATOM      6  H   UNL     1      22.233   8.035   8.923  1.00  0.00     0.344 HD
ATOM      7  H   UNL     1      20.899   8.877   9.585  1.00  0.00     0.344 HD
ENDBRANCH   3   4
ENDBRANCH   2   3
ENDBRANCH   1   2
BRANCH   1   8
ATOM      8  C   UNL     1      21.544   5.922   5.138  1.00  0.00     0.072 C 
BRANCH   8   9
ATOM      9  C   UNL     1      22.726   4.959   5.415  1.00  0.00     0.227 C 
BRANCH   9  10
ATOM     10  N   UNL     1      23.952   5.719   5.690  1.00  0.00    -0.350 N 
ATOM     11  H   UNL     1      24.622   5.615   4.893  1.00  0.00     0.345 HD
ATOM     12  H   UNL     1      24.415   5.349   6.553  1.00  0.00     0.345 HD
ATOM     13  H   UNL     1      23.733   6.734   5.826  1.00  0.00     0.345 HD
ENDBRANCH   9  10
BRANCH   9  14
ATOM     14  C   UNL     1      22.437   4.034   6.568  1.00  0.00     0.099 C 
ATOM     15  O   UNL     1      21.940   4.478   7.637  1.00  0.00    -0.544 OA
ATOM     16  O   UNL     1      22.755   2.685   6.470  1.00  0.00    -0.544 OA
ENDBRANCH   9  14
ENDBRANCH   8   9
ENDBRANCH   1   8
TORSDOF 7
ENDMDL
MODEL 7
REMARK VINA RESULT:    -3.517     18.102     18.936
REMARK INTER + INTRA:          -4.903
REMARK INTER:                  -4.927
REMARK INTRA:                   0.024
REMARK UNBOUND:                -0.152
REMARK SMILES [NH3+]CCCC[C@@H]([NH3+])C(=O)[O-]
REMARK SMILES IDX 4 1 3 2 2 3 1 4 5 8 6 9 7 10 8 14 9 15 10 16
REMARK H PARENT 1 5 1 6 1 7 7 11 7 12 7 13
REMARK Flexibility Score: inf
ROOT
ATOM      1  C   UNL     1      17.831  -5.759  22.874  1.00  0.00     0.012 C 
ENDROOT
BRANCH   1   2
ATOM      2  C   UNL     1      16.875  -6.098  21.721  1.00  0.00     0.061 C 
BRANCH   2   3
ATOM      3  C   UNL     1      16.918  -5.018  20.633  1.00  0.00     0.258 C 
BRANCH   3   4
ATOM      4  N   UNL     1      17.842  -5.391  19.562  1.00  0.00    -0.358 N 
ATOM      5  H   UNL     1      18.717  -4.825  19.653  1.00  0.00     0.344 HD
ATOM      6  H   UNL     1      17.408  -5.197  18.630  1.00  0.00     0.344 HD
ATOM      7  H   UNL     1      18.086  -6.405  19.635  1.00  0.00     0.344 HD
ENDBRANCH   3   4
ENDBRANCH   2   3
ENDBRANCH   1   2
BRANCH   1   8
ATOM      8  C   UNL     1      18.288  -4.288  22.875  1.00  0.00     0.072 C 
BRANCH   8   9
ATOM      9  C   UNL     1      19.663  -4.052  22.200  1.00  0.00     0.227 C 
BRANCH   9  10
ATOM     10  N   UNL     1      20.473  -3.123  22.999  1.00  0.00    -0.350 N 
ATOM     11  H   UNL     1      19.851  -2.533  23.598  1.00  0.00     0.345 HD
ATOM     12  H   UNL     1      21.013  -2.487  22.368  1.00  0.00     0.345 HD
ATOM     13  H   UNL     1      21.141  -3.649  23.610  1.00  0.00     0.345 HD
ENDBRANCH   9  10
BRANCH   9  14
ATOM     14  C   UNL     1      20.420  -5.341  22.006  1.00  0.00     0.099 C 
ATOM     15  O   UNL     1      21.232  -5.745  22.880  1.00  0.00    -0.544 OA
ATOM     16  O   UNL     1      20.254  -6.072  20.836  1.00  0.00    -0.544 OA
ENDBRANCH   9  14
ENDBRANCH   8   9
ENDBRANCH   1   8
TORSDOF 7
ENDMDL
MODEL 8
REMARK VINA RESULT:    -3.436      3.084      5.405
REMARK INTER + INTRA:          -4.794
REMARK INTER:                  -4.728
REMARK INTRA:                  -0.066
REMARK UNBOUND:                -0.152
REMARK SMILES [NH3+]CCCC[C@@H]([NH3+])C(=O)[O-]
REMARK SMILES IDX 4 1 3 2 2 3 1 4 5 8 6 9 7 10 8 14 9 15 10 16
REMARK H PARENT 1 5 1 6 1 7 7 11 7 12 7 13
REMARK Flexibility Score: inf
ROOT
ATOM      1  C   UNL     1      22.264   5.514   6.741  1.00  0.00     0.012 C 
ENDROOT
BRANCH   1   2
ATOM      2  C   UNL     1      20.937   6.063   6.199  1.00  0.00     0.061 C 
BRANCH   2   3
ATOM      3  C   UNL     1      20.530   7.346   6.934  1.00  0.00     0.258 C 
BRANCH   3   4
ATOM      4  N   UNL     1      19.688   8.190   6.086  1.00  0.00    -0.358 N 
ATOM      5  H   UNL     1      20.297   8.730   5.429  1.00  0.00     0.344 HD
ATOM      6  H   UNL     1      19.145   8.863   6.675  1.00  0.00     0.344 HD
ATOM      7  H   UNL     1      19.031   7.598   5.529  1.00  0.00     0.344 HD
ENDBRANCH   3   4
ENDBRANCH   2   3
ENDBRANCH   1   2
BRANCH   1   8
ATOM      8  C   UNL     1      22.137   4.107   7.356  1.00  0.00     0.072 C 
BRANCH   8   9
ATOM      9  C   UNL     1      22.474   2.956   6.374  1.00  0.00     0.227 C 
BRANCH   9  10
ATOM     10  N   UNL     1      23.072   3.490   5.144  1.00  0.00    -0.350 N 
ATOM     11  H   UNL     1      24.076   3.201   5.082  1.00  0.00     0.345 HD
ATOM     12  H   UNL     1      23.036   4.535   5.153  1.00  0.00     0.345 HD
ATOM     13  H   UNL     1      22.560   3.136   4.302  1.00  0.00     0.345 HD
ENDBRANCH   9  10
BRANCH   9  14
ATOM     14  C   UNL     1      23.408   1.948   6.992  1.00  0.00     0.099 C 
ATOM     15  O   UNL     1      23.634   1.959   8.232  1.00  0.00    -0.544 OA
ATOM     16  O   UNL     1      24.058   1.021   6.186  1.00  0.00    -0.544 OA
ENDBRANCH   9  14
ENDBRANCH   8   9
ENDBRANCH   1   8
TORSDOF 7
ENDMDL
MODEL 9
REMARK VINA RESULT:    -3.423      2.266      2.466
REMARK INTER + INTRA:          -4.775
REMARK INTER:                  -4.612
REMARK INTRA:                  -0.163
REMARK UNBOUND:                -0.152
REMARK SMILES [NH3+]CCCC[C@@H]([NH3+])C(=O)[O-]
REMARK SMILES IDX 4 1 3 2 2 3 1 4 5 8 6 9 7 10 8 14 9 15 10 16
REMARK H PARENT 1 5 1 6 1 7 7 11 7 12 7 13
REMARK Flexibility Score: inf
ROOT
ATOM      1  C   UNL     1      21.855   6.015   4.875  1.00  0.00     0.012 C 
ENDROOT
BRANCH   1   2
ATOM      2  C   UNL     1      23.134   5.762   5.685  1.00  0.00     0.061 C 
BRANCH   2   3
ATOM      3  C   UNL     1      24.363   6.340   4.970  1.00  0.00     0.258 C 
BRANCH   3   4
ATOM      4  N   UNL     1      24.474   7.780   5.204  1.00  0.00    -0.358 N 
ATOM      5  H   UNL     1      23.732   8.273   4.656  1.00  0.00     0.344 HD
ATOM      6  H   UNL     1      25.411   8.123   4.890  1.00  0.00     0.344 HD
ATOM      7  H   UNL     1      24.341   7.991   6.219  1.00  0.00     0.344 HD
ENDBRANCH   3   4
ENDBRANCH   2   3
ENDBRANCH   1   2
BRANCH   1   8
ATOM      8  C   UNL     1      20.615   6.264   5.755  1.00  0.00     0.072 C 
BRANCH   8   9
ATOM      9  C   UNL     1      20.640   7.615   6.515  1.00  0.00     0.227 C 
BRANCH   9  10
ATOM     10  N   UNL     1      19.491   8.443   6.125  1.00  0.00    -0.350 N 
ATOM     11  H   UNL     1      18.805   7.867   5.584  1.00  0.00     0.345 HD
ATOM     12  H   UNL     1      19.809   9.229   5.511  1.00  0.00     0.345 HD
ATOM     13  H   UNL     1      19.018   8.838   6.971  1.00  0.00     0.345 HD
ENDBRANCH   9  10
BRANCH   9  14
ATOM     14  C   UNL     1      20.634   7.418   8.008  1.00  0.00     0.099 C 
ATOM     15  O   UNL     1      20.263   6.324   8.509  1.00  0.00    -0.544 OA
ATOM     16  O   UNL     1      21.004   8.463   8.846  1.00  0.00    -0.544 OA
ENDBRANCH   9  14
ENDBRANCH   8   9
ENDBRANCH   1   8
TORSDOF 7
ENDMDL
