MODEL 1
REMARK VINA RESULT:    -3.940      0.000      0.000
REMARK INTER + INTRA:          -4.461
REMARK INTER:                  -4.171
REMARK INTRA:                  -0.290
REMARK UNBOUND:                -0.290
REMARK SMILES c1ccc(-c2ccccc2)cc1
REMARK SMILES IDX 1 1 2 2 3 3 4 4 11 5 12 6 5 7 6 8 10 9 7 10 9 11 8 12
REMARK H PARENT
REMARK Flexibility Score: inf
ROOT
ATOM      1  C   UNL     1      -1.328   6.820   8.424  1.00  0.00     0.000 A 
ATOM      2  C   UNL     1      -0.076   6.682   9.028  1.00  0.00     0.001 A 
ATOM      3  C   UNL     1       0.268   5.485   9.665  1.00  0.00     0.009 A 
ATOM      4  C   UNL     1      -0.642   4.412   9.705  1.00  0.00    -0.018 A 
ATOM      5  C   UNL     1      -1.901   4.564   9.092  1.00  0.00     0.009 A 
ATOM      6  C   UNL     1      -2.238   5.762   8.456  1.00  0.00     0.001 A 
ENDROOT
BRANCH   4   7
ATOM      7  C   UNL     1      -0.280   3.139  10.381  1.00  0.00    -0.018 A 
ATOM      8  C   UNL     1       0.677   2.275   9.816  1.00  0.00     0.009 A 
ATOM      9  C   UNL     1      -0.888   2.778  11.599  1.00  0.00     0.009 A 
ATOM     10  C   UNL     1       1.016   1.079  10.454  1.00  0.00     0.001 A 
ATOM     11  C   UNL     1      -0.545   1.580  12.233  1.00  0.00     0.001 A 
ATOM     12  C   UNL     1       0.406   0.731  11.662  1.00  0.00     0.000 A 
ENDBRANCH   4   7
TORSDOF 1
ENDMDL
MODEL 2
REMARK VINA RESULT:    -3.937      0.098      4.947
REMARK INTER + INTRA:          -4.457
REMARK INTER:                  -4.167
REMARK INTRA:                  -0.290
REMARK UNBOUND:                -0.290
REMARK SMILES c1ccc(-c2ccccc2)cc1
REMARK SMILES IDX 1 1 2 2 3 3 4 4 11 5 12 6 5 7 6 8 10 9 7 10 9 11 8 12
REMARK H PARENT
REMARK Flexibility Score: inf
ROOT
ATOM      1  C   UNL     1       0.535   0.722  11.560  1.00  0.00     0.000 A 
ATOM      2  C   UNL     1      -0.426   1.538  12.160  1.00  0.00     0.001 A 
ATOM      3  C   UNL     1      -0.810   2.736  11.549  1.00  0.00     0.009 A 
ATOM      4  C   UNL     1      -0.232   3.131  10.328  1.00  0.00    -0.018 A 
ATOM      5  C   UNL     1       0.736   2.299   9.733  1.00  0.00     0.009 A 
ATOM      6  C   UNL     1       1.115   1.101  10.349  1.00  0.00     0.001 A 
ENDROOT
BRANCH   4   7
ATOM      7  C   UNL     1      -0.637   4.403   9.676  1.00  0.00    -0.018 A 
ATOM      8  C   UNL     1       0.242   5.502   9.644  1.00  0.00     0.009 A 
ATOM      9  C   UNL     1      -1.906   4.530   9.079  1.00  0.00     0.009 A 
ATOM     10  C   UNL     1      -0.141   6.698   9.031  1.00  0.00     0.001 A 
ATOM     11  C   UNL     1      -2.284   5.728   8.466  1.00  0.00     0.001 A 
ATOM     12  C   UNL     1      -1.403   6.812   8.442  1.00  0.00     0.000 A 
ENDBRANCH   4   7
TORSDOF 1
ENDMDL
MODEL 3
REMARK VINA RESULT:    -3.915      0.079      1.400
REMARK INTER + INTRA:          -4.434
REMARK INTER:                  -4.143
REMARK INTRA:                  -0.291
REMARK UNBOUND:                -0.290
REMARK SMILES c1ccc(-c2ccccc2)cc1
REMARK SMILES IDX 1 1 2 2 3 3 4 4 11 5 12 6 5 7 6 8 10 9 7 10 9 11 8 12
REMARK H PARENT
REMARK Flexibility Score: inf
ROOT
ATOM      1  C   UNL     1      -1.346   6.891   8.476  1.00  0.00     0.000 A 
ATOM      2  C   UNL     1      -2.262   5.838   8.495  1.00  0.00     0.001 A 
ATOM      3  C   UNL     1      -1.922   4.623   9.100  1.00  0.00     0.009 A 
ATOM      4  C   UNL     1      -0.656   4.450   9.690  1.00  0.00    -0.018 A 
ATOM      5  C   UNL     1       0.259   5.520   9.663  1.00  0.00     0.009 A 
ATOM      6  C   UNL     1      -0.087   6.733   9.059  1.00  0.00     0.001 A 
ENDROOT
BRANCH   4   7
ATOM      7  C   UNL     1      -0.291   3.161  10.332  1.00  0.00    -0.018 A 
ATOM      8  C   UNL     1       0.659   2.308   9.737  1.00  0.00     0.009 A 
ATOM      9  C   UNL     1      -0.888   2.771  11.546  1.00  0.00     0.009 A 
ATOM     10  C   UNL     1       1.000   1.096  10.342  1.00  0.00     0.001 A 
ATOM     11  C   UNL     1      -0.542   1.557  12.147  1.00  0.00     0.001 A 
ATOM     12  C   UNL     1       0.401   0.720  11.546  1.00  0.00     0.000 A 
ENDBRANCH   4   7
TORSDOF 1
ENDMDL
MODEL 4
REMARK VINA RESULT:    -3.894      0.468      5.033
REMARK INTER + INTRA:          -4.412
REMARK INTER:                  -4.119
REMARK INTRA:                  -0.292
REMARK UNBOUND:                -0.290
REMARK SMILES c1ccc(-c2ccccc2)cc1
REMARK SMILES IDX 1 1 2 2 3 3 4 4 11 5 12 6 5 7 6 8 10 9 7 10 9 11 8 12
REMARK H PARENT
REMARK Flexibility Score: inf
ROOT
ATOM      1  C   UNL     1       0.034   1.152  11.833  1.00  0.00     0.000 A 
ATOM      2  C   UNL     1      -0.994   1.991  12.267  1.00  0.00     0.001 A 
ATOM      3  C   UNL     1      -1.300   3.155  11.553  1.00  0.00     0.009 A 
ATOM      4  C   UNL     1      -0.574   3.492  10.395  1.00  0.00    -0.018 A 
ATOM      5  C   UNL     1       0.461   2.637   9.968  1.00  0.00     0.009 A 
ATOM      6  C   UNL     1       0.760   1.475  10.685  1.00  0.00     0.001 A 
ENDROOT
BRANCH   4   7
ATOM      7  C   UNL     1      -0.894   4.728   9.635  1.00  0.00    -0.018 A 
ATOM      8  C   UNL     1      -2.119   4.851   8.952  1.00  0.00     0.009 A 
ATOM      9  C   UNL     1       0.021   5.796   9.587  1.00  0.00     0.009 A 
ATOM     10  C   UNL     1      -2.418   6.014   8.237  1.00  0.00     0.001 A 
ATOM     11  C   UNL     1      -0.283   6.958   8.871  1.00  0.00     0.001 A 
ATOM     12  C   UNL     1      -1.502   7.067   8.197  1.00  0.00     0.000 A 
ENDBRANCH   4   7
TORSDOF 1
ENDMDL
MODEL 5
REMARK VINA RESULT:    -3.891      0.534      4.895
REMARK INTER + INTRA:          -4.409
REMARK INTER:                  -4.116
REMARK INTRA:                  -0.293
REMARK UNBOUND:                -0.290
REMARK SMILES c1ccc(-c2ccccc2)cc1
REMARK SMILES IDX 1 1 2 2 3 3 4 4 11 5 12 6 5 7 6 8 10 9 7 10 9 11 8 12
REMARK H PARENT
REMARK Flexibility Score: inf
ROOT
ATOM      1  C   UNL     1       0.002   1.224  11.834  1.00  0.00     0.000 A 
ATOM      2  C   UNL     1       0.731   1.540  10.686  1.00  0.00     0.001 A 
ATOM      3  C   UNL     1       0.435   2.700   9.963  1.00  0.00     0.009 A 
ATOM      4  C   UNL     1      -0.600   3.557  10.383  1.00  0.00    -0.018 A 
ATOM      5  C   UNL     1      -1.329   3.227  11.542  1.00  0.00     0.009 A 
ATOM      6  C   UNL     1      -1.026   2.066  12.261  1.00  0.00     0.001 A 
ENDROOT
BRANCH   4   7
ATOM      7  C   UNL     1      -0.919   4.789   9.616  1.00  0.00    -0.018 A 
ATOM      8  C   UNL     1       0.017   5.838   9.526  1.00  0.00     0.009 A 
ATOM      9  C   UNL     1      -2.160   4.928   8.968  1.00  0.00     0.009 A 
ATOM     10  C   UNL     1      -0.285   6.996   8.805  1.00  0.00     0.001 A 
ATOM     11  C   UNL     1      -2.457   6.089   8.247  1.00  0.00     0.001 A 
ATOM     12  C   UNL     1      -1.521   7.122   8.166  1.00  0.00     0.000 A 
ENDBRANCH   4   7
TORSDOF 1
ENDMDL
MODEL 6
REMARK VINA RESULT:    -3.769      1.368      2.794
REMARK INTER + INTRA:          -4.279
REMARK INTER:                  -3.956
REMARK INTRA:                  -0.323
REMARK UNBOUND:                -0.290
REMARK SMILES c1ccc(-c2ccccc2)cc1
REMARK SMILES IDX 1 1 2 2 3 3 4 4 11 5 12 6 5 7 6 8 10 9 7 10 9 11 8 12
REMARK H PARENT
REMARK Flexibility Score: inf
ROOT
ATOM      1  C   UNL     1      -2.308   8.151   7.553  1.00  0.00     0.000 A 
ATOM      2  C   UNL     1      -2.906   6.912   7.789  1.00  0.00     0.001 A 
ATOM      3  C   UNL     1      -2.190   5.897   8.433  1.00  0.00     0.009 A 
ATOM      4  C   UNL     1      -0.862   6.114   8.846  1.00  0.00    -0.018 A 
ATOM      5  C   UNL     1      -0.270   7.368   8.602  1.00  0.00     0.009 A 
ATOM      6  C   UNL     1      -0.991   8.379   7.959  1.00  0.00     0.001 A 
ENDROOT
BRANCH   4   7
ATOM      7  C   UNL     1      -0.098   5.038   9.529  1.00  0.00    -0.018 A 
ATOM      8  C   UNL     1      -0.731   3.838   9.905  1.00  0.00     0.009 A 
ATOM      9  C   UNL     1       1.272   5.200   9.810  1.00  0.00     0.009 A 
ATOM     10  C   UNL     1      -0.010   2.828  10.547  1.00  0.00     0.001 A 
ATOM     11  C   UNL     1       1.989   4.186  10.452  1.00  0.00     0.001 A 
ATOM     12  C   UNL     1       1.348   3.001  10.821  1.00  0.00     0.000 A 
ENDBRANCH   4   7
TORSDOF 1
ENDMDL
MODEL 7
REMARK VINA RESULT:    -3.768      1.570      5.582
REMARK INTER + INTRA:          -4.279
REMARK INTER:                  -3.956
REMARK INTRA:                  -0.323
REMARK UNBOUND:                -0.290
REMARK SMILES c1ccc(-c2ccccc2)cc1
REMARK SMILES IDX 1 1 2 2 3 3 4 4 11 5 12 6 5 7 6 8 10 9 7 10 9 11 8 12
REMARK H PARENT
REMARK Flexibility Score: inf
ROOT
ATOM      1  C   UNL     1       0.962   3.465  10.645  1.00  0.00     0.000 A 
ATOM      2  C   UNL     1      -0.369   3.279  10.266  1.00  0.00     0.001 A 
ATOM      3  C   UNL     1      -1.056   4.294   9.591  1.00  0.00     0.009 A 
ATOM      4  C   UNL     1      -0.414   5.510   9.289  1.00  0.00    -0.018 A 
ATOM      5  C   UNL     1       0.929   5.685   9.677  1.00  0.00     0.009 A 
ATOM      6  C   UNL     1       1.610   4.666  10.351  1.00  0.00     0.001 A 
ENDROOT
BRANCH   4   7
ATOM      7  C   UNL     1      -1.140   6.590   8.573  1.00  0.00    -0.018 A 
ATOM      8  C   UNL     1      -0.522   7.833   8.337  1.00  0.00     0.009 A 
ATOM      9  C   UNL     1      -2.457   6.388   8.118  1.00  0.00     0.009 A 
ATOM     10  C   UNL     1      -1.208   8.848   7.663  1.00  0.00     0.001 A 
ATOM     11  C   UNL     1      -3.137   7.406   7.444  1.00  0.00     0.001 A 
ATOM     12  C   UNL     1      -2.514   8.635   7.217  1.00  0.00     0.000 A 
ENDBRANCH   4   7
TORSDOF 1
ENDMDL
MODEL 8
REMARK VINA RESULT:    -3.768      1.356      2.223
REMARK INTER + INTRA:          -4.278
REMARK INTER:                  -3.957
REMARK INTRA:                  -0.322
REMARK UNBOUND:                -0.290
REMARK SMILES c1ccc(-c2ccccc2)cc1
REMARK SMILES IDX 1 1 2 2 3 3 4 4 11 5 12 6 5 7 6 8 10 9 7 10 9 11 8 12
REMARK H PARENT
REMARK Flexibility Score: inf
ROOT
ATOM      1  C   UNL     1      -2.284   8.157   7.597  1.00  0.00     0.000 A 
ATOM      2  C   UNL     1      -0.972   8.382   8.016  1.00  0.00     0.001 A 
ATOM      3  C   UNL     1      -0.250   7.361   8.644  1.00  0.00     0.009 A 
ATOM      4  C   UNL     1      -0.840   6.101   8.861  1.00  0.00    -0.018 A 
ATOM      5  C   UNL     1      -2.165   5.887   8.434  1.00  0.00     0.009 A 
ATOM      6  C   UNL     1      -2.880   6.912   7.806  1.00  0.00     0.001 A 
ENDROOT
BRANCH   4   7
ATOM      7  C   UNL     1      -0.078   5.015   9.529  1.00  0.00    -0.018 A 
ATOM      8  C   UNL     1       1.305   5.149   9.762  1.00  0.00     0.009 A 
ATOM      9  C   UNL     1      -0.725   3.835   9.942  1.00  0.00     0.009 A 
ATOM     10  C   UNL     1       2.020   4.126  10.390  1.00  0.00     0.001 A 
ATOM     11  C   UNL     1      -0.004   2.814  10.570  1.00  0.00     0.001 A 
ATOM     12  C   UNL     1       1.367   2.960  10.794  1.00  0.00     0.000 A 
ENDBRANCH   4   7
TORSDOF 1
ENDMDL
MODEL 9
REMARK VINA RESULT:    -3.618      1.568      3.152
REMARK INTER + INTRA:          -4.120
REMARK INTER:                  -3.797
REMARK INTRA:                  -0.323
REMARK UNBOUND:                -0.290
REMARK SMILES c1ccc(-c2ccccc2)cc1
REMARK SMILES IDX 1 1 2 2 3 3 4 4 11 5 12 6 5 7 6 8 10 9 7 10 9 11 8 12
REMARK H PARENT
REMARK Flexibility Score: inf
ROOT
ATOM      1  C   UNL     1      -1.670   9.179   7.340  1.00  0.00     0.000 A 
ATOM      2  C   UNL     1      -2.492   8.059   7.478  1.00  0.00     0.001 A 
ATOM      3  C   UNL     1      -2.015   6.912   8.121  1.00  0.00     0.009 A 
ATOM      4  C   UNL     1      -0.704   6.875   8.632  1.00  0.00    -0.018 A 
ATOM      5  C   UNL     1       0.116   8.011   8.487  1.00  0.00     0.009 A 
ATOM      6  C   UNL     1      -0.368   9.155   7.844  1.00  0.00     0.001 A 
ENDROOT
BRANCH   4   7
ATOM      7  C   UNL     1      -0.194   5.658   9.315  1.00  0.00    -0.018 A 
ATOM      8  C   UNL     1       1.137   5.597   9.769  1.00  0.00     0.009 A 
ATOM      9  C   UNL     1      -1.033   4.547   9.520  1.00  0.00     0.009 A 
ATOM     10  C   UNL     1       1.615   4.451  10.410  1.00  0.00     0.001 A 
ATOM     11  C   UNL     1      -0.550   3.403  10.163  1.00  0.00     0.001 A 
ATOM     12  C   UNL     1       0.773   3.355  10.608  1.00  0.00     0.000 A 
ENDBRANCH   4   7
TORSDOF 1
ENDMDL
