MODEL 1
REMARK VINA RESULT:    -4.808      0.000      0.000
REMARK INTER + INTRA:          -6.951
REMARK INTER:                  -6.494
REMARK INTRA:                  -0.457
REMARK UNBOUND:                -0.457
REMARK SMILES [NH3+]CCCC[C@H]([NH3+])C(=O)[O-]
REMARK SMILES IDX 4 1 3 2 2 3 1 4 5 8 6 9 7 10 8 14 9 15 10 16
REMARK H PARENT 1 5 1 6 1 7 7 11 7 12 7 13
REMARK Flexibility Score: inf
ROOT
ATOM      1  C   UNL     1     150.195 167.755 151.946  1.00  0.00     0.012 C 
ENDROOT
BRANCH   1   2
ATOM      2  C   UNL     1     149.360 168.098 153.196  1.00  0.00     0.061 C 
BRANCH   2   3
ATOM      3  C   UNL     1     149.272 166.972 154.243  1.00  0.00     0.258 C 
BRANCH   3   4
ATOM      4  N   UNL     1     147.993 166.263 154.189  1.00  0.00    -0.358 N 
ATOM      5  H   UNL     1     147.470 166.572 153.337  1.00  0.00     0.344 HD
ATOM      6  H   UNL     1     147.418 166.483 155.034  1.00  0.00     0.344 HD
ATOM      7  H   UNL     1     148.152 165.232 154.121  1.00  0.00     0.344 HD
ENDBRANCH   3   4
ENDBRANCH   2   3
ENDBRANCH   1   2
BRANCH   1   8
ATOM      8  C   UNL     1     149.383 167.563 150.648  1.00  0.00     0.072 C 
BRANCH   8   9
ATOM      9  C   UNL     1     149.090 166.088 150.287  1.00  0.00     0.227 C 
BRANCH   9  10
ATOM     10  N   UNL     1     148.838 165.958 148.847  1.00  0.00    -0.350 N 
ATOM     11  H   UNL     1     148.808 164.951 148.565  1.00  0.00     0.345 HD
ATOM     12  H   UNL     1     147.925 166.408 148.606  1.00  0.00     0.345 HD
ATOM     13  H   UNL     1     149.593 166.443 148.309  1.00  0.00     0.345 HD
ENDBRANCH   9  10
BRANCH   9  14
ATOM     14  C   UNL     1     147.912 165.560 151.064  1.00  0.00     0.099 C 
ATOM     15  O   UNL     1     146.876 166.262 151.196  1.00  0.00    -0.544 OA
ATOM     16  O   UNL     1     147.961 164.294 151.636  1.00  0.00    -0.544 OA
ENDBRANCH   9  14
ENDBRANCH   8   9
ENDBRANCH   1   8
TORSDOF 7
ENDMDL
MODEL 2
REMARK VINA RESULT:    -4.602      2.064      3.657
REMARK INTER + INTRA:          -6.673
REMARK INTER:                  -6.475
REMARK INTRA:                  -0.198
REMARK UNBOUND:                -0.457
REMARK SMILES [NH3+]CCCC[C@H]([NH3+])C(=O)[O-]
REMARK SMILES IDX 4 1 3 2 2 3 1 4 5 8 6 9 7 10 8 14 9 15 10 16
REMARK H PARENT 1 5 1 6 1 7 7 11 7 12 7 13
REMARK Flexibility Score: inf
ROOT
ATOM      1  C   UNL     1     149.924 167.328 150.177  1.00  0.00     0.012 C 
ENDROOT
BRANCH   1   2
ATOM      2  C   UNL     1     149.101 166.349 149.315  1.00  0.00     0.061 C 
BRANCH   2   3
ATOM      3  C   UNL     1     148.381 165.241 150.105  1.00  0.00     0.258 C 
BRANCH   3   4
ATOM      4  N   UNL     1     148.372 163.965 149.387  1.00  0.00    -0.358 N 
ATOM      5  H   UNL     1     147.699 164.030 148.589  1.00  0.00     0.344 HD
ATOM      6  H   UNL     1     148.068 163.193 150.021  1.00  0.00     0.344 HD
ATOM      7  H   UNL     1     149.321 163.760 149.000  1.00  0.00     0.344 HD
ENDBRANCH   3   4
ENDBRANCH   2   3
ENDBRANCH   1   2
BRANCH   1   8
ATOM      8  C   UNL     1     149.130 168.058 151.280  1.00  0.00     0.072 C 
BRANCH   8   9
ATOM      9  C   UNL     1     149.711 167.894 152.703  1.00  0.00     0.227 C 
BRANCH   9  10
ATOM     10  N   UNL     1     150.885 167.012 152.674  1.00  0.00    -0.350 N 
ATOM     11  H   UNL     1     150.692 166.121 153.185  1.00  0.00     0.345 HD
ATOM     12  H   UNL     1     151.136 166.791 151.682  1.00  0.00     0.345 HD
ATOM     13  H   UNL     1     151.701 167.493 153.117  1.00  0.00     0.345 HD
ENDBRANCH   9  10
BRANCH   9  14
ATOM     14  C   UNL     1     148.681 167.344 153.654  1.00  0.00     0.099 C 
ATOM     15  O   UNL     1     147.916 168.124 154.279  1.00  0.00    -0.544 OA
ATOM     16  O   UNL     1     148.563 165.972 153.843  1.00  0.00    -0.544 OA
ENDBRANCH   9  14
ENDBRANCH   8   9
ENDBRANCH   1   8
TORSDOF 7
ENDMDL
MODEL 3
REMARK VINA RESULT:    -4.504     19.685     20.806
REMARK INTER + INTRA:          -6.540
REMARK INTER:                  -6.019
REMARK INTRA:                  -0.521
REMARK UNBOUND:                -0.457
REMARK SMILES [NH3+]CCCC[C@H]([NH3+])C(=O)[O-]
REMARK SMILES IDX 4 1 3 2 2 3 1 4 5 8 6 9 7 10 8 14 9 15 10 16
REMARK H PARENT 1 5 1 6 1 7 7 11 7 12 7 13
REMARK Flexibility Score: inf
ROOT
ATOM      1  C   UNL     1     164.853 167.007 164.855  1.00  0.00     0.012 C 
ENDROOT
BRANCH   1   2
ATOM      2  C   UNL     1     165.568 165.779 165.452  1.00  0.00     0.061 C 
BRANCH   2   3
ATOM      3  C   UNL     1     166.995 165.543 164.925  1.00  0.00     0.258 C 
BRANCH   3   4
ATOM      4  N   UNL     1     167.051 164.457 163.945  1.00  0.00    -0.358 N 
ATOM      5  H   UNL     1     166.083 164.257 163.605  1.00  0.00     0.344 HD
ATOM      6  H   UNL     1     167.439 163.591 164.384  1.00  0.00     0.344 HD
ATOM      7  H   UNL     1     167.637 164.738 163.126  1.00  0.00     0.344 HD
ENDBRANCH   3   4
ENDBRANCH   2   3
ENDBRANCH   1   2
BRANCH   1   8
ATOM      8  C   UNL     1     165.681 167.818 163.835  1.00  0.00     0.072 C 
BRANCH   8   9
ATOM      9  C   UNL     1     165.156 167.745 162.382  1.00  0.00     0.227 C 
BRANCH   9  10
ATOM     10  N   UNL     1     163.957 166.902 162.317  1.00  0.00    -0.350 N 
ATOM     11  H   UNL     1     164.215 165.889 162.318  1.00  0.00     0.345 HD
ATOM     12  H   UNL     1     163.340 167.099 163.139  1.00  0.00     0.345 HD
ATOM     13  H   UNL     1     163.418 167.118 161.446  1.00  0.00     0.345 HD
ENDBRANCH   9  10
BRANCH   9  14
ATOM     14  C   UNL     1     166.210 167.211 161.448  1.00  0.00     0.099 C 
ATOM     15  O   UNL     1     166.845 167.996 160.696  1.00  0.00    -0.544 OA
ATOM     16  O   UNL     1     166.492 165.851 161.414  1.00  0.00    -0.544 OA
ENDBRANCH   9  14
ENDBRANCH   8   9
ENDBRANCH   1   8
TORSDOF 7
ENDMDL
MODEL 4
REMARK VINA RESULT:    -4.456      2.491      2.820
REMARK INTER + INTRA:          -6.475
REMARK INTER:                  -6.376
REMARK INTRA:                  -0.099
REMARK UNBOUND:                -0.457
REMARK SMILES [NH3+]CCCC[C@H]([NH3+])C(=O)[O-]
REMARK SMILES IDX 4 1 3 2 2 3 1 4 5 8 6 9 7 10 8 14 9 15 10 16
REMARK H PARENT 1 5 1 6 1 7 7 11 7 12 7 13
REMARK Flexibility Score: inf
ROOT
ATOM      1  C   UNL     1     148.876 166.855 151.465  1.00  0.00     0.012 C 
ENDROOT
BRANCH   1   2
ATOM      2  C   UNL     1     148.588 167.950 152.511  1.00  0.00     0.061 C 
BRANCH   2   3
ATOM      3  C   UNL     1     148.709 167.492 153.976  1.00  0.00     0.258 C 
BRANCH   3   4
ATOM      4  N   UNL     1     147.984 166.246 154.230  1.00  0.00    -0.358 N 
ATOM      5  H   UNL     1     148.045 166.020 155.249  1.00  0.00     0.344 HD
ATOM      6  H   UNL     1     148.408 165.461 153.685  1.00  0.00     0.344 HD
ATOM      7  H   UNL     1     146.976 166.354 153.977  1.00  0.00     0.344 HD
ENDBRANCH   3   4
ENDBRANCH   2   3
ENDBRANCH   1   2
BRANCH   1   8
ATOM      8  C   UNL     1     149.587 167.342 150.185  1.00  0.00     0.072 C 
BRANCH   8   9
ATOM      9  C   UNL     1     149.854 166.234 149.140  1.00  0.00     0.227 C 
BRANCH   9  10
ATOM     10  N   UNL     1     148.962 165.091 149.372  1.00  0.00    -0.350 N 
ATOM     11  H   UNL     1     149.333 164.480 150.135  1.00  0.00     0.345 HD
ATOM     12  H   UNL     1     148.010 165.434 149.639  1.00  0.00     0.345 HD
ATOM     13  H   UNL     1     148.871 164.528 148.495  1.00  0.00     0.345 HD
ENDBRANCH   9  10
BRANCH   9  14
ATOM     14  C   UNL     1     151.290 165.780 149.180  1.00  0.00     0.099 C 
ATOM     15  O   UNL     1     151.740 165.025 148.279  1.00  0.00    -0.544 OA
ATOM     16  O   UNL     1     152.127 166.195 150.208  1.00  0.00    -0.544 OA
ENDBRANCH   9  14
ENDBRANCH   8   9
ENDBRANCH   1   8
TORSDOF 7
ENDMDL
MODEL 5
REMARK VINA RESULT:    -4.414     19.988     21.046
REMARK INTER + INTRA:          -6.419
REMARK INTER:                  -6.322
REMARK INTRA:                  -0.097
REMARK UNBOUND:                -0.457
REMARK SMILES [NH3+]CCCC[C@H]([NH3+])C(=O)[O-]
REMARK SMILES IDX 4 1 3 2 2 3 1 4 5 8 6 9 7 10 8 14 9 15 10 16
REMARK H PARENT 1 5 1 6 1 7 7 11 7 12 7 13
REMARK Flexibility Score: inf
ROOT
ATOM      1  C   UNL     1     166.198 166.932 163.542  1.00  0.00     0.012 C 
ENDROOT
BRANCH   1   2
ATOM      2  C   UNL     1     166.275 168.014 162.446  1.00  0.00     0.061 C 
BRANCH   2   3
ATOM      3  C   UNL     1     166.290 167.474 161.004  1.00  0.00     0.258 C 
BRANCH   3   4
ATOM      4  N   UNL     1     166.959 166.176 160.905  1.00  0.00    -0.358 N 
ATOM      5  H   UNL     1     166.544 165.526 161.611  1.00  0.00     0.344 HD
ATOM      6  H   UNL     1     167.981 166.277 161.100  1.00  0.00     0.344 HD
ATOM      7  H   UNL     1     166.814 165.765 159.955  1.00  0.00     0.344 HD
ENDBRANCH   3   4
ENDBRANCH   2   3
ENDBRANCH   1   2
BRANCH   1   8
ATOM      8  C   UNL     1     165.551 167.385 164.868  1.00  0.00     0.072 C 
BRANCH   8   9
ATOM      9  C   UNL     1     165.239 166.236 165.854  1.00  0.00     0.227 C 
BRANCH   9  10
ATOM     10  N   UNL     1     166.073 165.066 165.551  1.00  0.00    -0.350 N 
ATOM     11  H   UNL     1     165.603 164.447 164.851  1.00  0.00     0.345 HD
ATOM     12  H   UNL     1     166.995 165.379 165.167  1.00  0.00     0.345 HD
ATOM     13  H   UNL     1     166.252 164.522 166.426  1.00  0.00     0.345 HD
ENDBRANCH   9  10
BRANCH   9  14
ATOM     14  C   UNL     1     163.783 165.855 165.804  1.00  0.00     0.099 C 
ATOM     15  O   UNL     1     163.296 165.101 166.686  1.00  0.00    -0.544 OA
ATOM     16  O   UNL     1     162.967 166.337 164.788  1.00  0.00    -0.544 OA
ENDBRANCH   9  14
ENDBRANCH   8   9
ENDBRANCH   1   8
TORSDOF 7
ENDMDL
MODEL 6
REMARK VINA RESULT:    -4.384      2.410      2.780
REMARK INTER + INTRA:          -6.378
REMARK INTER:                  -5.866
REMARK INTRA:                  -0.512
REMARK UNBOUND:                -0.457
REMARK SMILES [NH3+]CCCC[C@H]([NH3+])C(=O)[O-]
REMARK SMILES IDX 4 1 3 2 2 3 1 4 5 8 6 9 7 10 8 14 9 15 10 16
REMARK H PARENT 1 5 1 6 1 7 7 11 7 12 7 13
REMARK Flexibility Score: inf
ROOT
ATOM      1  C   UNL     1     150.534 167.040 149.320  1.00  0.00     0.012 C 
ENDROOT
BRANCH   1   2
ATOM      2  C   UNL     1     151.650 166.111 149.840  1.00  0.00     0.061 C 
BRANCH   2   3
ATOM      3  C   UNL     1     152.389 166.624 151.089  1.00  0.00     0.258 C 
BRANCH   3   4
ATOM      4  N   UNL     1     151.466 167.039 152.147  1.00  0.00    -0.358 N 
ATOM      5  H   UNL     1     151.003 166.191 152.545  1.00  0.00     0.344 HD
ATOM      6  H   UNL     1     150.732 167.674 151.761  1.00  0.00     0.344 HD
ATOM      7  H   UNL     1     151.988 167.519 152.916  1.00  0.00     0.344 HD
ENDBRANCH   3   4
ENDBRANCH   2   3
ENDBRANCH   1   2
BRANCH   1   8
ATOM      8  C   UNL     1     149.155 166.372 149.141  1.00  0.00     0.072 C 
BRANCH   8   9
ATOM      9  C   UNL     1     148.862 165.228 150.140  1.00  0.00     0.227 C 
BRANCH   9  10
ATOM     10  N   UNL     1     148.117 164.152 149.475  1.00  0.00    -0.350 N 
ATOM     11  H   UNL     1     148.223 163.251 149.995  1.00  0.00     0.345 HD
ATOM     12  H   UNL     1     147.102 164.402 149.428  1.00  0.00     0.345 HD
ATOM     13  H   UNL     1     148.468 164.028 148.498  1.00  0.00     0.345 HD
ENDBRANCH   9  10
BRANCH   9  14
ATOM     14  C   UNL     1     148.088 165.729 151.331  1.00  0.00     0.099 C 
ATOM     15  O   UNL     1     146.879 166.057 151.207  1.00  0.00    -0.544 OA
ATOM     16  O   UNL     1     148.701 165.826 152.574  1.00  0.00    -0.544 OA
ENDBRANCH   9  14
ENDBRANCH   8   9
ENDBRANCH   1   8
TORSDOF 7
ENDMDL
MODEL 7
REMARK VINA RESULT:    -4.354      6.414      7.056
REMARK INTER + INTRA:          -6.338
REMARK INTER:                  -5.845
REMARK INTRA:                  -0.493
REMARK UNBOUND:                -0.457
REMARK SMILES [NH3+]CCCC[C@H]([NH3+])C(=O)[O-]
REMARK SMILES IDX 4 1 3 2 2 3 1 4 5 8 6 9 7 10 8 14 9 15 10 16
REMARK H PARENT 1 5 1 6 1 7 7 11 7 12 7 13
REMARK Flexibility Score: inf
ROOT
ATOM      1  C   UNL     1     156.296 164.269 150.614  1.00  0.00     0.012 C 
ENDROOT
BRANCH   1   2
ATOM      2  C   UNL     1     155.229 164.552 151.690  1.00  0.00     0.061 C 
BRANCH   2   3
ATOM      3  C   UNL     1     154.551 165.930 151.582  1.00  0.00     0.258 C 
BRANCH   3   4
ATOM      4  N   UNL     1     153.320 165.882 150.791  1.00  0.00    -0.358 N 
ATOM      5  H   UNL     1     153.498 165.333 149.920  1.00  0.00     0.344 HD
ATOM      6  H   UNL     1     153.019 166.847 150.526  1.00  0.00     0.344 HD
ATOM      7  H   UNL     1     152.561 165.405 151.330  1.00  0.00     0.344 HD
ENDBRANCH   3   4
ENDBRANCH   2   3
ENDBRANCH   1   2
BRANCH   1   8
ATOM      8  C   UNL     1     155.875 163.263 149.522  1.00  0.00     0.072 C 
BRANCH   8   9
ATOM      9  C   UNL     1     154.554 162.514 149.815  1.00  0.00     0.227 C 
BRANCH   9  10
ATOM     10  N   UNL     1     154.824 161.096 150.080  1.00  0.00    -0.350 N 
ATOM     11  H   UNL     1     155.366 160.668 149.295  1.00  0.00     0.345 HD
ATOM     12  H   UNL     1     155.371 160.999 150.967  1.00  0.00     0.345 HD
ATOM     13  H   UNL     1     153.921 160.579 150.196  1.00  0.00     0.345 HD
ENDBRANCH   9  10
BRANCH   9  14
ATOM     14  C   UNL     1     153.586 162.647 148.669  1.00  0.00     0.099 C 
ATOM     15  O   UNL     1     153.299 161.645 147.964  1.00  0.00    -0.544 OA
ATOM     16  O   UNL     1     152.998 163.874 148.388  1.00  0.00    -0.544 OA
ENDBRANCH   9  14
ENDBRANCH   8   9
ENDBRANCH   1   8
TORSDOF 7
ENDMDL
MODEL 8
REMARK VINA RESULT:    -4.345      1.603      3.503
REMARK INTER + INTRA:          -6.325
REMARK INTER:                  -5.884
REMARK INTRA:                  -0.441
REMARK UNBOUND:                -0.457
REMARK SMILES [NH3+]CCCC[C@H]([NH3+])C(=O)[O-]
REMARK SMILES IDX 4 1 3 2 2 3 1 4 5 8 6 9 7 10 8 14 9 15 10 16
REMARK H PARENT 1 5 1 6 1 7 7 11 7 12 7 13
REMARK Flexibility Score: inf
ROOT
ATOM      1  C   UNL     1     150.257 167.091 151.407  1.00  0.00     0.012 C 
ENDROOT
BRANCH   1   2
ATOM      2  C   UNL     1     150.803 166.615 150.046  1.00  0.00     0.061 C 
BRANCH   2   3
ATOM      3  C   UNL     1     149.725 166.253 149.008  1.00  0.00     0.258 C 
BRANCH   3   4
ATOM      4  N   UNL     1     148.986 165.044 149.373  1.00  0.00    -0.358 N 
ATOM      5  H   UNL     1     147.965 165.213 149.227  1.00  0.00     0.344 HD
ATOM      6  H   UNL     1     149.148 164.809 150.379  1.00  0.00     0.344 HD
ATOM      7  H   UNL     1     149.277 164.244 148.767  1.00  0.00     0.344 HD
ENDBRANCH   3   4
ENDBRANCH   2   3
ENDBRANCH   1   2
BRANCH   1   8
ATOM      8  C   UNL     1     149.113 168.125 151.330  1.00  0.00     0.072 C 
BRANCH   8   9
ATOM      9  C   UNL     1     148.111 168.060 152.505  1.00  0.00     0.227 C 
BRANCH   9  10
ATOM     10  N   UNL     1     148.825 168.119 153.786  1.00  0.00    -0.350 N 
ATOM     11  H   UNL     1     149.312 169.037 153.897  1.00  0.00     0.345 HD
ATOM     12  H   UNL     1     148.149 167.992 154.575  1.00  0.00     0.345 HD
ATOM     13  H   UNL     1     149.531 167.348 153.835  1.00  0.00     0.345 HD
ENDBRANCH   9  10
BRANCH   9  14
ATOM     14  C   UNL     1     147.275 166.808 152.441  1.00  0.00     0.099 C 
ATOM     15  O   UNL     1     146.889 166.250 153.501  1.00  0.00    -0.544 OA
ATOM     16  O   UNL     1     146.921 166.264 151.212  1.00  0.00    -0.544 OA
ENDBRANCH   9  14
ENDBRANCH   8   9
ENDBRANCH   1   8
TORSDOF 7
ENDMDL
MODEL 9
REMARK VINA RESULT:    -4.316      2.128      4.170
REMARK INTER + INTRA:          -6.286
REMARK INTER:                  -5.840
REMARK INTRA:                  -0.447
REMARK UNBOUND:                -0.457
REMARK SMILES [NH3+]CCCC[C@H]([NH3+])C(=O)[O-]
REMARK SMILES IDX 4 1 3 2 2 3 1 4 5 8 6 9 7 10 8 14 9 15 10 16
REMARK H PARENT 1 5 1 6 1 7 7 11 7 12 7 13
REMARK Flexibility Score: inf
ROOT
ATOM      1  C   UNL     1     147.335 165.921 150.650  1.00  0.00     0.012 C 
ENDROOT
BRANCH   1   2
ATOM      2  C   UNL     1     148.377 164.809 150.420  1.00  0.00     0.061 C 
BRANCH   2   3
ATOM      3  C   UNL     1     149.487 165.161 149.414  1.00  0.00     0.258 C 
BRANCH   3   4
ATOM      4  N   UNL     1     149.524 166.593 149.108  1.00  0.00    -0.358 N 
ATOM      5  H   UNL     1     149.446 167.132 150.000  1.00  0.00     0.344 HD
ATOM      6  H   UNL     1     148.726 166.853 148.486  1.00  0.00     0.344 HD
ATOM      7  H   UNL     1     150.431 166.843 148.652  1.00  0.00     0.344 HD
ENDBRANCH   3   4
ENDBRANCH   2   3
ENDBRANCH   1   2
BRANCH   1   8
ATOM      8  C   UNL     1     147.576 166.799 151.896  1.00  0.00     0.072 C 
BRANCH   8   9
ATOM      9  C   UNL     1     148.539 166.183 152.938  1.00  0.00     0.227 C 
BRANCH   9  10
ATOM     10  N   UNL     1     147.907 166.161 154.263  1.00  0.00    -0.350 N 
ATOM     11  H   UNL     1     147.156 165.434 154.304  1.00  0.00     0.345 HD
ATOM     12  H   UNL     1     148.626 165.953 154.994  1.00  0.00     0.345 HD
ATOM     13  H   UNL     1     147.490 167.098 154.473  1.00  0.00     0.345 HD
ENDBRANCH   9  10
BRANCH   9  14
ATOM     14  C   UNL     1     149.836 166.946 153.001  1.00  0.00     0.099 C 
ATOM     15  O   UNL     1     150.219 167.625 152.013  1.00  0.00    -0.544 OA
ATOM     16  O   UNL     1     150.615 166.910 154.151  1.00  0.00    -0.544 OA
ENDBRANCH   9  14
ENDBRANCH   8   9
ENDBRANCH   1   8
TORSDOF 7
ENDMDL
