MODEL 1
REMARK VINA RESULT:    -3.843      0.000      0.000
REMARK INTER + INTRA:          -4.106
REMARK INTER:                  -4.068
REMARK INTRA:                  -0.039
REMARK UNBOUND:                -0.039
REMARK SMILES COc1ccc2ccc(=O)oc2c1
REMARK SMILES IDX 3 1 13 2 12 3 6 4 5 5 4 6 7 7 8 8 9 9 10 10 11 11 2 12 1 13
REMARK H PARENT
REMARK Flexibility Score: inf
ROOT
ATOM      1  C   UNL     1       5.430   2.438 -14.962  1.00  0.00     0.122 A 
ATOM      2  C   UNL     1       5.004   3.088 -16.127  1.00  0.00     0.094 A 
ATOM      3  C   UNL     1       4.304   2.390 -17.116  1.00  0.00     0.142 A 
ATOM      4  C   UNL     1       4.024   1.018 -16.941  1.00  0.00     0.018 A 
ATOM      5  C   UNL     1       4.446   0.362 -15.778  1.00  0.00     0.016 A 
ATOM      6  C   UNL     1       5.145   1.067 -14.792  1.00  0.00     0.047 A 
ATOM      7  C   UNL     1       3.322   0.346 -17.947  1.00  0.00     0.019 A 
ATOM      8  C   UNL     1       2.923   1.044 -19.086  1.00  0.00     0.094 A 
ATOM      9  C   UNL     1       3.237   2.404 -19.193  1.00  0.00     0.336 A 
ATOM     10  O   UNL     1       2.887   3.052 -20.212  1.00  0.00    -0.246 OA
ATOM     11  O   UNL     1       3.906   3.019 -18.219  1.00  0.00    -0.423 OA
ENDROOT
BRANCH   1  12
ATOM     12  O   UNL     1       6.127   3.184 -14.001  1.00  0.00    -0.497 OA
ATOM     13  C   UNL     1       7.154   4.124 -14.302  1.00  0.00     0.278 C 
ENDBRANCH   1  12
TORSDOF 1
ENDMDL
MODEL 2
REMARK VINA RESULT:    -3.731      1.644      2.393
REMARK INTER + INTRA:          -3.988
REMARK INTER:                  -3.955
REMARK INTRA:                  -0.033
REMARK UNBOUND:                -0.039
REMARK SMILES COc1ccc2ccc(=O)oc2c1
REMARK SMILES IDX 3 1 13 2 12 3 6 4 5 5 4 6 7 7 8 8 9 9 10 10 11 11 2 12 1 13
REMARK H PARENT
REMARK Flexibility Score: inf
ROOT
ATOM      1  C   UNL     1       4.860   2.756 -15.559  1.00  0.00     0.122 A 
ATOM      2  C   UNL     1       4.536   1.512 -16.116  1.00  0.00     0.094 A 
ATOM      3  C   UNL     1       3.978   1.428 -17.395  1.00  0.00     0.142 A 
ATOM      4  C   UNL     1       3.736   2.606 -18.134  1.00  0.00     0.018 A 
ATOM      5  C   UNL     1       4.058   3.853 -17.583  1.00  0.00     0.016 A 
ATOM      6  C   UNL     1       4.617   3.929 -16.303  1.00  0.00     0.047 A 
ATOM      7  C   UNL     1       3.177   2.492 -19.410  1.00  0.00     0.019 A 
ATOM      8  C   UNL     1       2.875   1.227 -19.913  1.00  0.00     0.094 A 
ATOM      9  C   UNL     1       3.141   0.101 -19.124  1.00  0.00     0.336 A 
ATOM     10  O   UNL     1       2.875  -1.048 -19.560  1.00  0.00    -0.246 OA
ATOM     11  O   UNL     1       3.674   0.240 -17.913  1.00  0.00    -0.423 OA
ENDROOT
BRANCH   1  12
ATOM     12  O   UNL     1       5.417   2.784 -14.273  1.00  0.00    -0.497 OA
ATOM     13  C   UNL     1       6.517   3.604 -13.891  1.00  0.00     0.278 C 
ENDBRANCH   1  12
TORSDOF 1
ENDMDL
MODEL 3
REMARK VINA RESULT:    -3.335      1.199      4.715
REMARK INTER + INTRA:          -3.569
REMARK INTER:                  -3.536
REMARK INTRA:                  -0.033
REMARK UNBOUND:                -0.039
REMARK SMILES COc1ccc2ccc(=O)oc2c1
REMARK SMILES IDX 3 1 13 2 12 3 6 4 5 5 4 6 7 7 8 8 9 9 10 10 11 11 2 12 1 13
REMARK H PARENT
REMARK Flexibility Score: inf
ROOT
ATOM      1  C   UNL     1       3.482   1.946 -18.865  1.00  0.00     0.122 A 
ATOM      2  C   UNL     1       4.296   2.873 -18.202  1.00  0.00     0.094 A 
ATOM      3  C   UNL     1       4.863   2.564 -16.962  1.00  0.00     0.142 A 
ATOM      4  C   UNL     1       4.614   1.307 -16.370  1.00  0.00     0.018 A 
ATOM      5  C   UNL     1       3.801   0.375 -17.028  1.00  0.00     0.016 A 
ATOM      6  C   UNL     1       3.237   0.691 -18.269  1.00  0.00     0.047 A 
ATOM      7  C   UNL     1       5.194   1.026 -15.130  1.00  0.00     0.019 A 
ATOM      8  C   UNL     1       5.996   1.987 -14.516  1.00  0.00     0.094 A 
ATOM      9  C   UNL     1       6.199   3.213 -15.160  1.00  0.00     0.336 A 
ATOM     10  O   UNL     1       6.919   4.094 -14.623  1.00  0.00    -0.246 OA
ATOM     11  O   UNL     1       5.634   3.454 -16.341  1.00  0.00    -0.423 OA
ENDROOT
BRANCH   1  12
ATOM     12  O   UNL     1       2.939   2.306 -20.106  1.00  0.00    -0.497 OA
ATOM     13  C   UNL     1       2.875   1.443 -21.238  1.00  0.00     0.278 C 
ENDBRANCH   1  12
TORSDOF 1
ENDMDL
MODEL 4
REMARK VINA RESULT:    -3.214      1.807      5.133
REMARK INTER + INTRA:          -3.440
REMARK INTER:                  -3.407
REMARK INTRA:                  -0.033
REMARK UNBOUND:                -0.039
REMARK SMILES COc1ccc2ccc(=O)oc2c1
REMARK SMILES IDX 3 1 13 2 12 3 6 4 5 5 4 6 7 7 8 8 9 9 10 10 11 11 2 12 1 13
REMARK H PARENT
REMARK Flexibility Score: inf
ROOT
ATOM      1  C   UNL     1       3.152   0.425 -18.879  1.00  0.00     0.122 A 
ATOM      2  C   UNL     1       3.721   0.396 -17.599  1.00  0.00     0.094 A 
ATOM      3  C   UNL     1       4.016   1.585 -16.925  1.00  0.00     0.142 A 
ATOM      4  C   UNL     1       3.739   2.826 -17.537  1.00  0.00     0.018 A 
ATOM      5  C   UNL     1       3.169   2.861 -18.816  1.00  0.00     0.016 A 
ATOM      6  C   UNL     1       2.877   1.668 -19.485  1.00  0.00     0.047 A 
ATOM      7  C   UNL     1       4.045   3.999 -16.839  1.00  0.00     0.019 A 
ATOM      8  C   UNL     1       4.611   3.910 -15.568  1.00  0.00     0.094 A 
ATOM      9  C   UNL     1       4.859   2.645 -15.023  1.00  0.00     0.336 A 
ATOM     10  O   UNL     1       5.369   2.543 -13.878  1.00  0.00    -0.246 OA
ATOM     11  O   UNL     1       4.558   1.545 -15.710  1.00  0.00    -0.423 OA
ENDROOT
BRANCH   1  12
ATOM     12  O   UNL     1       2.875  -0.796 -19.511  1.00  0.00    -0.497 OA
ATOM     13  C   UNL     1       3.064  -1.043 -20.901  1.00  0.00     0.278 C 
ENDBRANCH   1  12
TORSDOF 1
ENDMDL
MODEL 5
REMARK VINA RESULT:    -2.886      2.134      3.398
REMARK INTER + INTRA:          -3.094
REMARK INTER:                  -3.058
REMARK INTRA:                  -0.036
REMARK UNBOUND:                -0.039
REMARK SMILES COc1ccc2ccc(=O)oc2c1
REMARK SMILES IDX 3 1 13 2 12 3 6 4 5 5 4 6 7 7 8 8 9 9 10 10 11 11 2 12 1 13
REMARK H PARENT
REMARK Flexibility Score: inf
ROOT
ATOM      1  C   UNL     1       3.278   2.028 -17.635  1.00  0.00     0.122 A 
ATOM      2  C   UNL     1       3.227   2.294 -19.010  1.00  0.00     0.094 A 
ATOM      3  C   UNL     1       3.110   1.251 -19.933  1.00  0.00     0.142 A 
ATOM      4  C   UNL     1       3.043  -0.084 -19.478  1.00  0.00     0.018 A 
ATOM      5  C   UNL     1       3.093  -0.356 -18.105  1.00  0.00     0.016 A 
ATOM      6  C   UNL     1       3.209   0.693 -17.187  1.00  0.00     0.047 A 
ATOM      7  C   UNL     1       2.926  -1.107 -20.424  1.00  0.00     0.019 A 
ATOM      8  C   UNL     1       2.880  -0.783 -21.779  1.00  0.00     0.094 A 
ATOM      9  C   UNL     1       2.953   0.563 -22.158  1.00  0.00     0.336 A 
ATOM     10  O   UNL     1       2.913   0.876 -23.376  1.00  0.00    -0.246 OA
ATOM     11  O   UNL     1       3.064   1.516 -21.236  1.00  0.00    -0.423 OA
ENDROOT
BRANCH   1  12
ATOM     12  O   UNL     1       3.396   3.111 -16.752  1.00  0.00    -0.497 OA
ATOM     13  C   UNL     1       3.415   2.993 -15.333  1.00  0.00     0.278 C 
ENDBRANCH   1  12
TORSDOF 1
ENDMDL
MODEL 6
REMARK VINA RESULT:    -2.634      2.552      5.432
REMARK INTER + INTRA:          -2.827
REMARK INTER:                  -2.794
REMARK INTRA:                  -0.033
REMARK UNBOUND:                -0.039
REMARK SMILES COc1ccc2ccc(=O)oc2c1
REMARK SMILES IDX 3 1 13 2 12 3 6 4 5 5 4 6 7 7 8 8 9 9 10 10 11 11 2 12 1 13
REMARK H PARENT
REMARK Flexibility Score: inf
ROOT
ATOM      1  C   UNL     1       2.877   0.581 -21.466  1.00  0.00     0.122 A 
ATOM      2  C   UNL     1       2.880   1.749 -20.692  1.00  0.00     0.094 A 
ATOM      3  C   UNL     1       2.881   1.677 -19.296  1.00  0.00     0.142 A 
ATOM      4  C   UNL     1       2.879   0.419 -18.658  1.00  0.00     0.018 A 
ATOM      5  C   UNL     1       2.876  -0.753 -19.426  1.00  0.00     0.016 A 
ATOM      6  C   UNL     1       2.875  -0.674 -20.822  1.00  0.00     0.047 A 
ATOM      7  C   UNL     1       2.880   0.378 -17.260  1.00  0.00     0.019 A 
ATOM      8  C   UNL     1       2.883   1.573 -16.541  1.00  0.00     0.094 A 
ATOM      9  C   UNL     1       2.884   2.785 -17.241  1.00  0.00     0.336 A 
ATOM     10  O   UNL     1       2.886   3.874 -16.611  1.00  0.00    -0.246 OA
ATOM     11  O   UNL     1       2.883   2.794 -18.572  1.00  0.00    -0.423 OA
ENDROOT
BRANCH   1  12
ATOM     12  O   UNL     1       2.876   0.708 -22.862  1.00  0.00    -0.497 OA
ATOM     13  C   UNL     1       4.047   0.703 -23.672  1.00  0.00     0.278 C 
ENDBRANCH   1  12
TORSDOF 1
ENDMDL
MODEL 7
REMARK VINA RESULT:    -1.471      1.608      2.590
REMARK INTER + INTRA:          -1.596
REMARK INTER:                  -1.553
REMARK INTRA:                  -0.042
REMARK UNBOUND:                -0.039
REMARK SMILES COc1ccc2ccc(=O)oc2c1
REMARK SMILES IDX 3 1 13 2 12 3 6 4 5 5 4 6 7 7 8 8 9 9 10 10 11 11 2 12 1 13
REMARK H PARENT
REMARK Flexibility Score: inf
ROOT
ATOM      1  C   UNL     1       4.500   1.859 -15.324  1.00  0.00     0.122 A 
ATOM      2  C   UNL     1       4.238   1.245 -16.555  1.00  0.00     0.094 A 
ATOM      3  C   UNL     1       3.784   1.997 -17.642  1.00  0.00     0.142 A 
ATOM      4  C   UNL     1       3.587   3.387 -17.501  1.00  0.00     0.018 A 
ATOM      5  C   UNL     1       3.848   4.007 -16.272  1.00  0.00     0.016 A 
ATOM      6  C   UNL     1       4.302   3.248 -15.188  1.00  0.00     0.047 A 
ATOM      7  C   UNL     1       3.133   4.114 -18.605  1.00  0.00     0.019 A 
ATOM      8  C   UNL     1       2.888   3.450 -19.807  1.00  0.00     0.094 A 
ATOM      9  C   UNL     1       3.104   2.069 -19.875  1.00  0.00     0.336 A 
ATOM     10  O   UNL     1       2.889   1.451 -20.949  1.00  0.00    -0.246 OA
ATOM     11  O   UNL     1       3.538   1.402 -18.807  1.00  0.00    -0.423 OA
ENDROOT
BRANCH   1  12
ATOM     12  O   UNL     1       4.954   1.059 -14.265  1.00  0.00    -0.497 OA
ATOM     13  C   UNL     1       5.529  -0.235 -14.422  1.00  0.00     0.278 C 
ENDBRANCH   1  12
TORSDOF 1
ENDMDL
MODEL 8
REMARK VINA RESULT:    -1.059      2.466      5.677
REMARK INTER + INTRA:          -1.160
REMARK INTER:                  -1.125
REMARK INTRA:                  -0.035
REMARK UNBOUND:                -0.039
REMARK SMILES COc1ccc2ccc(=O)oc2c1
REMARK SMILES IDX 3 1 13 2 12 3 6 4 5 5 4 6 7 7 8 8 9 9 10 10 11 11 2 12 1 13
REMARK H PARENT
REMARK Flexibility Score: inf
ROOT
ATOM      1  C   UNL     1       3.017   1.040 -21.041  1.00  0.00     0.122 A 
ATOM      2  C   UNL     1       3.178   0.225 -19.913  1.00  0.00     0.094 A 
ATOM      3  C   UNL     1       3.323   0.789 -18.642  1.00  0.00     0.142 A 
ATOM      4  C   UNL     1       3.308   2.192 -18.492  1.00  0.00     0.018 A 
ATOM      5  C   UNL     1       3.148   3.013 -19.616  1.00  0.00     0.016 A 
ATOM      6  C   UNL     1       3.003   2.441 -20.884  1.00  0.00     0.047 A 
ATOM      7  C   UNL     1       3.455   2.729 -17.209  1.00  0.00     0.019 A 
ATOM      8  C   UNL     1       3.612   1.869 -16.122  1.00  0.00     0.094 A 
ATOM      9  C   UNL     1       3.618   0.487 -16.346  1.00  0.00     0.336 A 
ATOM     10  O   UNL     1       3.758  -0.306 -15.379  1.00  0.00    -0.246 OA
ATOM     11  O   UNL     1       3.475   0.004 -17.578  1.00  0.00    -0.423 OA
ENDROOT
BRANCH   1  12
ATOM     12  O   UNL     1       2.875   0.423 -22.292  1.00  0.00    -0.497 OA
ATOM     13  C   UNL     1       3.098   1.074 -23.540  1.00  0.00     0.278 C 
ENDBRANCH   1  12
TORSDOF 1
ENDMDL
