MODEL 1
REMARK VINA RESULT:    -2.475      0.000      0.000
REMARK INTER + INTRA:          -2.475
REMARK INTER:                  -2.475
REMARK INTRA:                   0.000
REMARK UNBOUND:                 0.000
REMARK SMILES CC(=O)[O-]
REMARK SMILES IDX 1 1 2 2 3 3 4 4
REMARK H PARENT
REMARK Flexibility Score: inf
ROOT
ATOM      1  C   UNL     1     -37.184 -21.748  36.782  1.00  0.00     0.063 C 
ATOM      2  C   UNL     1     -36.265 -22.337  35.768  1.00  0.00     0.038 C 
ATOM      3  O   UNL     1     -35.383 -23.165  36.119  1.00  0.00    -0.550 OA
ATOM      4  O   UNL     1     -36.410 -22.015  34.425  1.00  0.00    -0.550 OA
ENDROOT
TORSDOF 0
ENDMDL
MODEL 2
REMARK VINA RESULT:    -2.267     15.365     15.910
REMARK INTER + INTRA:          -2.267
REMARK INTER:                  -2.267
REMARK INTRA:                   0.000
REMARK UNBOUND:                 0.000
REMARK SMILES CC(=O)[O-]
REMARK SMILES IDX 1 1 2 2 3 3 4 4
REMARK H PARENT
REMARK Flexibility Score: inf
ROOT
ATOM      1  C   UNL     1     -43.568 -10.976  30.361  1.00  0.00     0.063 C 
ATOM      2  C   UNL     1     -44.016  -9.555  30.386  1.00  0.00     0.038 C 
ATOM      3  O   UNL     1     -43.603  -8.778  31.286  1.00  0.00    -0.550 OA
ATOM      4  O   UNL     1     -44.850  -9.069  29.388  1.00  0.00    -0.550 OA
ENDROOT
TORSDOF 0
ENDMDL
MODEL 3
REMARK VINA RESULT:    -2.197      1.442      2.595
REMARK INTER + INTRA:          -2.197
REMARK INTER:                  -2.197
REMARK INTRA:                   0.000
REMARK UNBOUND:                 0.000
REMARK SMILES CC(=O)[O-]
REMARK SMILES IDX 1 1 2 2 3 3 4 4
REMARK H PARENT
REMARK Flexibility Score: inf
ROOT
ATOM      1  C   UNL     1     -36.234 -24.209  33.949  1.00  0.00     0.063 C 
ATOM      2  C   UNL     1     -36.079 -22.987  34.788  1.00  0.00     0.038 C 
ATOM      3  O   UNL     1     -36.430 -21.863  34.340  1.00  0.00    -0.550 OA
ATOM      4  O   UNL     1     -35.597 -23.089  36.087  1.00  0.00    -0.550 OA
ENDROOT
TORSDOF 0
ENDMDL
MODEL 4
REMARK VINA RESULT:    -1.767     14.240     14.592
REMARK INTER + INTRA:          -1.767
REMARK INTER:                  -1.767
REMARK INTRA:                   0.000
REMARK UNBOUND:                 0.000
REMARK SMILES CC(=O)[O-]
REMARK SMILES IDX 1 1 2 2 3 3 4 4
REMARK H PARENT
REMARK Flexibility Score: inf
ROOT
ATOM      1  C   UNL     1     -48.506 -21.112  26.373  1.00  0.00     0.063 C 
ATOM      2  C   UNL     1     -47.969 -20.233  27.450  1.00  0.00     0.038 C 
ATOM      3  O   UNL     1     -48.074 -20.576  28.657  1.00  0.00    -0.550 OA
ATOM      4  O   UNL     1     -47.303 -19.059  27.124  1.00  0.00    -0.550 OA
ENDROOT
TORSDOF 0
ENDMDL
MODEL 5
REMARK VINA RESULT:    -1.761     14.164     14.603
REMARK INTER + INTRA:          -1.761
REMARK INTER:                  -1.761
REMARK INTRA:                   0.000
REMARK UNBOUND:                 0.000
REMARK SMILES CC(=O)[O-]
REMARK SMILES IDX 1 1 2 2 3 3 4 4
REMARK H PARENT
REMARK Flexibility Score: inf
ROOT
ATOM      1  C   UNL     1     -47.245 -19.152  27.014  1.00  0.00     0.063 C 
ATOM      2  C   UNL     1     -48.043 -20.318  27.486  1.00  0.00     0.038 C 
ATOM      3  O   UNL     1     -48.046 -20.631  28.706  1.00  0.00    -0.550 OA
ATOM      4  O   UNL     1     -48.829 -21.033  26.592  1.00  0.00    -0.550 OA
ENDROOT
TORSDOF 0
ENDMDL
MODEL 6
REMARK VINA RESULT:    -1.746     13.616     14.118
REMARK INTER + INTRA:          -1.746
REMARK INTER:                  -1.746
REMARK INTRA:                   0.000
REMARK UNBOUND:                 0.000
REMARK SMILES CC(=O)[O-]
REMARK SMILES IDX 1 1 2 2 3 3 4 4
REMARK H PARENT
REMARK Flexibility Score: inf
ROOT
ATOM      1  C   UNL     1     -35.785 -13.302  23.993  1.00  0.00     0.063 C 
ATOM      2  C   UNL     1     -34.912 -13.277  25.200  1.00  0.00     0.038 C 
ATOM      3  O   UNL     1     -34.932 -12.283  25.974  1.00  0.00    -0.550 OA
ATOM      4  O   UNL     1     -34.112 -14.370  25.504  1.00  0.00    -0.550 OA
ENDROOT
TORSDOF 0
ENDMDL
MODEL 7
REMARK VINA RESULT:    -1.739      7.879      8.275
REMARK INTER + INTRA:          -1.739
REMARK INTER:                  -1.739
REMARK INTRA:                   0.000
REMARK UNBOUND:                 0.000
REMARK SMILES CC(=O)[O-]
REMARK SMILES IDX 1 1 2 2 3 3 4 4
REMARK H PARENT
REMARK Flexibility Score: inf
ROOT
ATOM      1  C   UNL     1     -38.231 -21.538  28.427  1.00  0.00     0.063 C 
ATOM      2  C   UNL     1     -39.233 -20.436  28.470  1.00  0.00     0.038 C 
ATOM      3  O   UNL     1     -40.163 -20.460  29.319  1.00  0.00    -0.550 OA
ATOM      4  O   UNL     1     -39.115 -19.353  27.609  1.00  0.00    -0.550 OA
ENDROOT
TORSDOF 0
ENDMDL
MODEL 8
REMARK VINA RESULT:    -1.697      7.676      8.121
REMARK INTER + INTRA:          -1.697
REMARK INTER:                  -1.697
REMARK INTRA:                   0.000
REMARK UNBOUND:                 0.000
REMARK SMILES CC(=O)[O-]
REMARK SMILES IDX 1 1 2 2 3 3 4 4
REMARK H PARENT
REMARK Flexibility Score: inf
ROOT
ATOM      1  C   UNL     1     -40.021 -20.500  28.918  1.00  0.00     0.063 C 
ATOM      2  C   UNL     1     -38.763 -20.860  28.205  1.00  0.00     0.038 C 
ATOM      3  O   UNL     1     -37.998 -21.741  28.679  1.00  0.00    -0.550 OA
ATOM      4  O   UNL     1     -38.455 -20.263  26.990  1.00  0.00    -0.550 OA
ENDROOT
TORSDOF 0
ENDMDL
MODEL 9
REMARK VINA RESULT:    -1.670     12.899     13.307
REMARK INTER + INTRA:          -1.670
REMARK INTER:                  -1.670
REMARK INTRA:                   0.000
REMARK UNBOUND:                 0.000
REMARK SMILES CC(=O)[O-]
REMARK SMILES IDX 1 1 2 2 3 3 4 4
REMARK H PARENT
REMARK Flexibility Score: inf
ROOT
ATOM      1  C   UNL     1     -48.056 -20.391  27.978  1.00  0.00     0.063 C 
ATOM      2  C   UNL     1     -46.778 -21.142  27.823  1.00  0.00     0.038 C 
ATOM      3  O   UNL     1     -45.900 -20.736  27.016  1.00  0.00    -0.550 OA
ATOM      4  O   UNL     1     -46.528 -22.262  28.605  1.00  0.00    -0.550 OA
ENDROOT
TORSDOF 0
ENDMDL
