MODEL 1
REMARK VINA RESULT:    -3.682      0.000      0.000
REMARK INTER + INTRA:          -4.794
REMARK INTER:                  -4.543
REMARK INTRA:                  -0.252
REMARK UNBOUND:                -0.252
REMARK SMILES CCCCCC(=O)[O-]
REMARK SMILES IDX 4 1 5 2 6 3 7 4 8 5 3 6 2 7 1 8
REMARK H PARENT
REMARK Flexibility Score: inf
ROOT
ATOM      1  C   UNL     1      61.735   1.488  19.799  1.00  0.00     0.006 C 
ENDROOT
BRANCH   1   2
ATOM      2  C   UNL     1      63.142   1.098  19.330  1.00  0.00     0.053 C 
BRANCH   2   3
ATOM      3  C   UNL     1      64.178   1.720  20.212  1.00  0.00     0.041 C 
ATOM      4  O   UNL     1      64.235   1.417  21.433  1.00  0.00    -0.550 OA
ATOM      5  O   UNL     1      65.048   2.674  19.698  1.00  0.00    -0.550 OA
ENDBRANCH   2   3
ENDBRANCH   1   2
BRANCH   1   6
ATOM      6  C   UNL     1      61.483   3.006  19.740  1.00  0.00     0.000 C 
BRANCH   6   7
ATOM      7  C   UNL     1      60.884   3.611  21.022  1.00  0.00    -0.003 C 
ATOM      8  C   UNL     1      61.901   4.402  21.842  1.00  0.00     0.004 C 
ENDBRANCH   6   7
ENDBRANCH   1   6
TORSDOF 4
ENDMDL
MODEL 2
REMARK VINA RESULT:    -3.656      1.867      3.588
REMARK INTER + INTRA:          -4.762
REMARK INTER:                  -4.605
REMARK INTRA:                  -0.157
REMARK UNBOUND:                -0.252
REMARK SMILES CCCCCC(=O)[O-]
REMARK SMILES IDX 4 1 5 2 6 3 7 4 8 5 3 6 2 7 1 8
REMARK H PARENT
REMARK Flexibility Score: inf
ROOT
ATOM      1  C   UNL     1      60.905   3.501  20.827  1.00  0.00     0.006 C 
ENDROOT
BRANCH   1   2
ATOM      2  C   UNL     1      61.547   4.556  21.737  1.00  0.00     0.053 C 
BRANCH   2   3
ATOM      3  C   UNL     1      62.459   3.906  22.728  1.00  0.00     0.041 C 
ATOM      4  O   UNL     1      63.648   4.303  22.849  1.00  0.00    -0.550 OA
ATOM      5  O   UNL     1      62.013   2.828  23.483  1.00  0.00    -0.550 OA
ENDBRANCH   2   3
ENDBRANCH   1   2
BRANCH   1   6
ATOM      6  C   UNL     1      61.870   2.974  19.748  1.00  0.00     0.000 C 
BRANCH   6   7
ATOM      7  C   UNL     1      62.107   1.454  19.781  1.00  0.00    -0.003 C 
ATOM      8  C   UNL     1      63.454   1.046  19.189  1.00  0.00     0.004 C 
ENDBRANCH   6   7
ENDBRANCH   1   6
TORSDOF 4
ENDMDL
MODEL 3
REMARK VINA RESULT:    -3.653      4.962      5.932
REMARK INTER + INTRA:          -4.759
REMARK INTER:                  -4.649
REMARK INTRA:                  -0.110
REMARK UNBOUND:                -0.252
REMARK SMILES CCCCCC(=O)[O-]
REMARK SMILES IDX 4 1 5 2 6 3 7 4 8 5 3 6 2 7 1 8
REMARK H PARENT
REMARK Flexibility Score: inf
ROOT
ATOM      1  C   UNL     1      66.537   3.900  23.811  1.00  0.00     0.006 C 
ENDROOT
BRANCH   1   2
ATOM      2  C   UNL     1      65.854   2.616  24.298  1.00  0.00     0.053 C 
BRANCH   2   3
ATOM      3  C   UNL     1      65.251   1.876  23.146  1.00  0.00     0.041 C 
ATOM      4  O   UNL     1      65.341   0.621  23.083  1.00  0.00    -0.550 OA
ATOM      5  O   UNL     1      64.634   2.574  22.116  1.00  0.00    -0.550 OA
ENDBRANCH   2   3
ENDBRANCH   1   2
BRANCH   1   6
ATOM      6  C   UNL     1      66.433   5.056  24.824  1.00  0.00     0.000 C 
BRANCH   6   7
ATOM      7  C   UNL     1      66.821   4.686  26.267  1.00  0.00    -0.003 C 
ATOM      8  C   UNL     1      68.320   4.808  26.533  1.00  0.00     0.004 C 
ENDBRANCH   6   7
ENDBRANCH   1   6
TORSDOF 4
ENDMDL
MODEL 4
REMARK VINA RESULT:    -3.632      4.215      5.207
REMARK INTER + INTRA:          -4.733
REMARK INTER:                  -4.624
REMARK INTRA:                  -0.109
REMARK UNBOUND:                -0.252
REMARK SMILES CCCCCC(=O)[O-]
REMARK SMILES IDX 4 1 5 2 6 3 7 4 8 5 3 6 2 7 1 8
REMARK H PARENT
REMARK Flexibility Score: inf
ROOT
ATOM      1  C   UNL     1      65.721   2.498  24.392  1.00  0.00     0.006 C 
ENDROOT
BRANCH   1   2
ATOM      2  C   UNL     1      65.392   1.537  23.244  1.00  0.00     0.053 C 
BRANCH   2   3
ATOM      3  C   UNL     1      64.310   2.105  22.381  1.00  0.00     0.041 C 
ATOM      4  O   UNL     1      64.307   1.885  21.140  1.00  0.00    -0.550 OA
ATOM      5  O   UNL     1      63.332   2.921  22.937  1.00  0.00    -0.550 OA
ENDBRANCH   2   3
ENDBRANCH   1   2
BRANCH   1   6
ATOM      6  C   UNL     1      66.733   3.588  23.991  1.00  0.00     0.000 C 
BRANCH   6   7
ATOM      7  C   UNL     1      66.616   4.901  24.784  1.00  0.00    -0.003 C 
ATOM      8  C   UNL     1      66.935   4.735  26.269  1.00  0.00     0.004 C 
ENDBRANCH   6   7
ENDBRANCH   1   6
TORSDOF 4
ENDMDL
MODEL 5
REMARK VINA RESULT:    -3.632      2.406      3.612
REMARK INTER + INTRA:          -4.733
REMARK INTER:                  -4.523
REMARK INTRA:                  -0.209
REMARK UNBOUND:                -0.252
REMARK SMILES CCCCCC(=O)[O-]
REMARK SMILES IDX 4 1 5 2 6 3 7 4 8 5 3 6 2 7 1 8
REMARK H PARENT
REMARK Flexibility Score: inf
ROOT
ATOM      1  C   UNL     1      63.533   1.522  19.165  1.00  0.00     0.006 C 
ENDROOT
BRANCH   1   2
ATOM      2  C   UNL     1      62.338   1.419  20.121  1.00  0.00     0.053 C 
BRANCH   2   3
ATOM      3  C   UNL     1      61.645   2.741  20.234  1.00  0.00     0.041 C 
ATOM      4  O   UNL     1      61.247   3.338  19.199  1.00  0.00    -0.550 OA
ATOM      5  O   UNL     1      61.485   3.338  21.479  1.00  0.00    -0.550 OA
ENDBRANCH   2   3
ENDBRANCH   1   2
BRANCH   1   6
ATOM      6  C   UNL     1      64.683   2.375  19.733  1.00  0.00     0.000 C 
BRANCH   6   7
ATOM      7  C   UNL     1      65.463   3.187  18.684  1.00  0.00    -0.003 C 
ATOM      8  C   UNL     1      64.771   4.495  18.305  1.00  0.00     0.004 C 
ENDBRANCH   6   7
ENDBRANCH   1   6
TORSDOF 4
ENDMDL
MODEL 6
REMARK VINA RESULT:    -3.538      2.517      3.795
REMARK INTER + INTRA:          -4.617
REMARK INTER:                  -4.502
REMARK INTRA:                  -0.115
REMARK UNBOUND:                -0.252
REMARK SMILES CCCCCC(=O)[O-]
REMARK SMILES IDX 4 1 5 2 6 3 7 4 8 5 3 6 2 7 1 8
REMARK H PARENT
REMARK Flexibility Score: inf
ROOT
ATOM      1  C   UNL     1      62.174   2.345  19.500  1.00  0.00     0.006 C 
ENDROOT
BRANCH   1   2
ATOM      2  C   UNL     1      60.993   3.241  19.894  1.00  0.00     0.053 C 
BRANCH   2   3
ATOM      3  C   UNL     1      61.028   3.537  21.360  1.00  0.00     0.041 C 
ATOM      4  O   UNL     1      61.243   4.710  21.764  1.00  0.00    -0.550 OA
ATOM      5  O   UNL     1      60.876   2.508  22.282  1.00  0.00    -0.550 OA
ENDBRANCH   2   3
ENDBRANCH   1   2
BRANCH   1   6
ATOM      6  C   UNL     1      63.537   2.940  19.900  1.00  0.00     0.000 C 
BRANCH   6   7
ATOM      7  C   UNL     1      64.204   3.809  18.818  1.00  0.00    -0.003 C 
ATOM      8  C   UNL     1      65.651   3.409  18.538  1.00  0.00     0.004 C 
ENDBRANCH   6   7
ENDBRANCH   1   6
TORSDOF 4
ENDMDL
MODEL 7
REMARK VINA RESULT:    -3.513     11.488     13.230
REMARK INTER + INTRA:          -4.586
REMARK INTER:                  -4.389
REMARK INTRA:                  -0.198
REMARK UNBOUND:                -0.252
REMARK SMILES CCCCCC(=O)[O-]
REMARK SMILES IDX 4 1 5 2 6 3 7 4 8 5 3 6 2 7 1 8
REMARK H PARENT
REMARK Flexibility Score: inf
ROOT
ATOM      1  C   UNL     1      75.485   3.979  22.248  1.00  0.00     0.006 C 
ENDROOT
BRANCH   1   2
ATOM      2  C   UNL     1      74.719   3.829  20.928  1.00  0.00     0.053 C 
BRANCH   2   3
ATOM      3  C   UNL     1      73.864   2.601  20.957  1.00  0.00     0.041 C 
ATOM      4  O   UNL     1      73.923   1.767  20.015  1.00  0.00    -0.550 OA
ATOM      5  O   UNL     1      72.965   2.403  21.997  1.00  0.00    -0.550 OA
ENDBRANCH   2   3
ENDBRANCH   1   2
BRANCH   1   6
ATOM      6  C   UNL     1      76.585   2.916  22.427  1.00  0.00     0.000 C 
BRANCH   6   7
ATOM      7  C   UNL     1      77.684   2.937  21.350  1.00  0.00    -0.003 C 
ATOM      8  C   UNL     1      78.558   4.188  21.412  1.00  0.00     0.004 C 
ENDBRANCH   6   7
ENDBRANCH   1   6
TORSDOF 4
ENDMDL
MODEL 8
REMARK VINA RESULT:    -3.510     12.609     14.122
REMARK INTER + INTRA:          -4.582
REMARK INTER:                  -4.492
REMARK INTRA:                  -0.090
REMARK UNBOUND:                -0.252
REMARK SMILES CCCCCC(=O)[O-]
REMARK SMILES IDX 4 1 5 2 6 3 7 4 8 5 3 6 2 7 1 8
REMARK H PARENT
REMARK Flexibility Score: inf
ROOT
ATOM      1  C   UNL     1      76.270   3.100  22.444  1.00  0.00     0.006 C 
ENDROOT
BRANCH   1   2
ATOM      2  C   UNL     1      77.360   2.875  21.389  1.00  0.00     0.053 C 
BRANCH   2   3
ATOM      3  C   UNL     1      78.565   3.707  21.697  1.00  0.00     0.041 C 
ATOM      4  O   UNL     1      78.839   4.712  20.988  1.00  0.00    -0.550 OA
ATOM      5  O   UNL     1      79.415   3.344  22.734  1.00  0.00    -0.550 OA
ENDBRANCH   2   3
ENDBRANCH   1   2
BRANCH   1   6
ATOM      6  C   UNL     1      74.996   3.741  21.863  1.00  0.00     0.000 C 
BRANCH   6   7
ATOM      7  C   UNL     1      73.857   2.752  21.559  1.00  0.00    -0.003 C 
ATOM      8  C   UNL     1      74.005   2.067  20.203  1.00  0.00     0.004 C 
ENDBRANCH   6   7
ENDBRANCH   1   6
TORSDOF 4
ENDMDL
MODEL 9
REMARK VINA RESULT:    -3.488     12.840     14.498
REMARK INTER + INTRA:          -4.556
REMARK INTER:                  -4.368
REMARK INTRA:                  -0.188
REMARK UNBOUND:                -0.252
REMARK SMILES CCCCCC(=O)[O-]
REMARK SMILES IDX 4 1 5 2 6 3 7 4 8 5 3 6 2 7 1 8
REMARK H PARENT
REMARK Flexibility Score: inf
ROOT
ATOM      1  C   UNL     1      77.681   2.872  21.373  1.00  0.00     0.006 C 
ENDROOT
BRANCH   1   2
ATOM      2  C   UNL     1      76.363   2.892  22.156  1.00  0.00     0.053 C 
BRANCH   2   3
ATOM      3  C   UNL     1      75.211   3.141  21.235  1.00  0.00     0.041 C 
ATOM      4  O   UNL     1      74.966   4.309  20.829  1.00  0.00    -0.550 OA
ATOM      5  O   UNL     1      74.377   2.094  20.864  1.00  0.00    -0.550 OA
ENDBRANCH   2   3
ENDBRANCH   1   2
BRANCH   1   6
ATOM      6  C   UNL     1      78.728   3.852  21.936  1.00  0.00     0.000 C 
BRANCH   6   7
ATOM      7  C   UNL     1      79.081   5.024  21.003  1.00  0.00    -0.003 C 
ATOM      8  C   UNL     1      78.021   6.123  20.994  1.00  0.00     0.004 C 
ENDBRANCH   6   7
ENDBRANCH   1   6
TORSDOF 4
ENDMDL
