MODEL 1
REMARK VINA RESULT:    -3.097      0.000      0.000
REMARK INTER + INTRA:          -3.368
REMARK INTER:                  -3.368
REMARK INTRA:                   0.000
REMARK UNBOUND:                 0.000
REMARK SMILES [NH3+]CC(=O)[O-]
REMARK SMILES IDX 2 1 1 2 3 6 4 7 5 8
REMARK H PARENT 1 3 1 4 1 5
REMARK Flexibility Score: inf
ROOT
ATOM      1  C   UNL     1     -34.864  -5.029  -5.780  1.00  0.00     0.312 C 
ENDROOT
BRANCH   1   2
ATOM      2  N   UNL     1     -36.089  -5.729  -6.159  1.00  0.00    -0.353 N 
ATOM      3  H   UNL     1     -36.925  -5.147  -5.920  1.00  0.00     0.344 HD
ATOM      4  H   UNL     1     -36.083  -5.933  -7.186  1.00  0.00     0.344 HD
ATOM      5  H   UNL     1     -36.144  -6.632  -5.635  1.00  0.00     0.344 HD
ENDBRANCH   1   2
BRANCH   1   6
ATOM      6  C   UNL     1     -34.301  -4.279  -6.948  1.00  0.00     0.096 C 
ATOM      7  O   UNL     1     -33.416  -4.805  -7.672  1.00  0.00    -0.544 OA
ATOM      8  O   UNL     1     -34.792  -3.019  -7.266  1.00  0.00    -0.544 OA
ENDBRANCH   1   6
TORSDOF 2
ENDMDL
MODEL 2
REMARK VINA RESULT:    -3.038      2.014      2.390
REMARK INTER + INTRA:          -3.305
REMARK INTER:                  -3.305
REMARK INTRA:                   0.000
REMARK UNBOUND:                 0.000
REMARK SMILES [NH3+]CC(=O)[O-]
REMARK SMILES IDX 2 1 1 2 3 6 4 7 5 8
REMARK H PARENT 1 3 1 4 1 5
REMARK Flexibility Score: inf
ROOT
ATOM      1  C   UNL     1     -33.824  -4.951  -7.876  1.00  0.00     0.312 C 
ENDROOT
BRANCH   1   2
ATOM      2  N   UNL     1     -32.763  -5.721  -7.231  1.00  0.00    -0.353 N 
ATOM      3  H   UNL     1     -31.861  -5.592  -7.746  1.00  0.00     0.344 HD
ATOM      4  H   UNL     1     -32.649  -5.413  -6.237  1.00  0.00     0.344 HD
ATOM      5  H   UNL     1     -33.018  -6.734  -7.244  1.00  0.00     0.344 HD
ENDBRANCH   1   2
BRANCH   1   6
ATOM      6  C   UNL     1     -34.531  -4.087  -6.879  1.00  0.00     0.096 C 
ATOM      7  O   UNL     1     -34.643  -2.849  -7.080  1.00  0.00    -0.544 OA
ATOM      8  O   UNL     1     -35.112  -4.657  -5.753  1.00  0.00    -0.544 OA
ENDBRANCH   1   6
TORSDOF 2
ENDMDL
MODEL 3
REMARK VINA RESULT:    -3.015      2.447      2.727
REMARK INTER + INTRA:          -3.280
REMARK INTER:                  -3.280
REMARK INTRA:                   0.000
REMARK UNBOUND:                 0.000
REMARK SMILES [NH3+]CC(=O)[O-]
REMARK SMILES IDX 2 1 1 2 3 6 4 7 5 8
REMARK H PARENT 1 3 1 4 1 5
REMARK Flexibility Score: inf
ROOT
ATOM      1  C   UNL     1     -35.172  -3.816  -7.501  1.00  0.00     0.312 C 
ENDROOT
BRANCH   1   2
ATOM      2  N   UNL     1     -34.358  -2.795  -6.847  1.00  0.00    -0.353 N 
ATOM      3  H   UNL     1     -34.773  -2.544  -5.919  1.00  0.00     0.344 HD
ATOM      4  H   UNL     1     -33.381  -3.145  -6.713  1.00  0.00     0.344 HD
ATOM      5  H   UNL     1     -34.333  -1.940  -7.448  1.00  0.00     0.344 HD
ENDBRANCH   1   2
BRANCH   1   6
ATOM      6  C   UNL     1     -35.395  -4.981  -6.586  1.00  0.00     0.096 C 
ATOM      7  O   UNL     1     -36.417  -5.704  -6.718  1.00  0.00    -0.544 OA
ATOM      8  O   UNL     1     -34.446  -5.298  -5.623  1.00  0.00    -0.544 OA
ENDBRANCH   1   6
TORSDOF 2
ENDMDL
MODEL 4
REMARK VINA RESULT:    -2.970      2.294      2.439
REMARK INTER + INTRA:          -3.231
REMARK INTER:                  -3.231
REMARK INTRA:                   0.000
REMARK UNBOUND:                 0.000
REMARK SMILES [NH3+]CC(=O)[O-]
REMARK SMILES IDX 2 1 1 2 3 6 4 7 5 8
REMARK H PARENT 1 3 1 4 1 5
REMARK Flexibility Score: inf
ROOT
ATOM      1  C   UNL     1     -34.024  -3.646  -8.016  1.00  0.00     0.312 C 
ENDROOT
BRANCH   1   2
ATOM      2  N   UNL     1     -34.454  -2.669  -7.017  1.00  0.00    -0.353 N 
ATOM      3  H   UNL     1     -33.631  -2.333  -6.465  1.00  0.00     0.344 HD
ATOM      4  H   UNL     1     -34.921  -1.858  -7.486  1.00  0.00     0.344 HD
ATOM      5  H   UNL     1     -35.136  -3.122  -6.367  1.00  0.00     0.344 HD
ENDBRANCH   1   2
BRANCH   1   6
ATOM      6  C   UNL     1     -33.562  -4.908  -7.356  1.00  0.00     0.096 C 
ATOM      7  O   UNL     1     -32.903  -5.760  -8.008  1.00  0.00    -0.544 OA
ATOM      8  O   UNL     1     -33.815  -5.119  -6.006  1.00  0.00    -0.544 OA
ENDBRANCH   1   6
TORSDOF 2
ENDMDL
MODEL 5
REMARK VINA RESULT:    -2.854     12.652     12.753
REMARK INTER + INTRA:          -3.104
REMARK INTER:                  -3.104
REMARK INTRA:                   0.000
REMARK UNBOUND:                 0.000
REMARK SMILES [NH3+]CC(=O)[O-]
REMARK SMILES IDX 2 1 1 2 3 6 4 7 5 8
REMARK H PARENT 1 3 1 4 1 5
REMARK Flexibility Score: inf
ROOT
ATOM      1  C   UNL     1     -26.120   2.135  -2.818  1.00  0.00     0.312 C 
ENDROOT
BRANCH   1   2
ATOM      2  N   UNL     1     -25.289   1.033  -3.299  1.00  0.00    -0.353 N 
ATOM      3  H   UNL     1     -24.414   1.406  -3.736  1.00  0.00     0.344 HD
ATOM      4  H   UNL     1     -25.044   0.396  -2.506  1.00  0.00     0.344 HD
ATOM      5  H   UNL     1     -25.821   0.491  -4.017  1.00  0.00     0.344 HD
ENDBRANCH   1   2
BRANCH   1   6
ATOM      6  C   UNL     1     -25.277   3.183  -2.158  1.00  0.00     0.096 C 
ATOM      7  O   UNL     1     -24.075   2.943  -1.874  1.00  0.00    -0.544 OA
ATOM      8  O   UNL     1     -25.807   4.442  -1.904  1.00  0.00    -0.544 OA
ENDBRANCH   1   6
TORSDOF 2
ENDMDL
MODEL 6
REMARK VINA RESULT:    -2.839     10.731     10.816
REMARK INTER + INTRA:          -3.088
REMARK INTER:                  -3.088
REMARK INTRA:                   0.000
REMARK UNBOUND:                 0.000
REMARK SMILES [NH3+]CC(=O)[O-]
REMARK SMILES IDX 2 1 1 2 3 6 4 7 5 8
REMARK H PARENT 1 3 1 4 1 5
REMARK Flexibility Score: inf
ROOT
ATOM      1  C   UNL     1     -26.216   1.513  -2.256  1.00  0.00     0.312 C 
ENDROOT
BRANCH   1   2
ATOM      2  N   UNL     1     -25.344   1.278  -3.405  1.00  0.00    -0.353 N 
ATOM      3  H   UNL     1     -25.245   2.155  -3.967  1.00  0.00     0.344 HD
ATOM      4  H   UNL     1     -24.402   0.957  -3.081  1.00  0.00     0.344 HD
ATOM      5  H   UNL     1     -25.765   0.535  -4.008  1.00  0.00     0.344 HD
ENDBRANCH   1   2
BRANCH   1   6
ATOM      6  C   UNL     1     -27.012   0.285  -1.936  1.00  0.00     0.096 C 
ATOM      7  O   UNL     1     -26.687  -0.826  -2.429  1.00  0.00    -0.544 OA
ATOM      8  O   UNL     1     -28.082   0.361  -1.053  1.00  0.00    -0.544 OA
ENDBRANCH   1   6
TORSDOF 2
ENDMDL
MODEL 7
REMARK VINA RESULT:    -2.765      2.454      2.675
REMARK INTER + INTRA:          -3.007
REMARK INTER:                  -3.007
REMARK INTRA:                   0.000
REMARK UNBOUND:                 0.000
REMARK SMILES [NH3+]CC(=O)[O-]
REMARK SMILES IDX 2 1 1 2 3 6 4 7 5 8
REMARK H PARENT 1 3 1 4 1 5
REMARK Flexibility Score: inf
ROOT
ATOM      1  C   UNL     1     -34.043  -4.776  -6.769  1.00  0.00     0.312 C 
ENDROOT
BRANCH   1   2
ATOM      2  N   UNL     1     -32.846  -5.550  -7.094  1.00  0.00    -0.353 N 
ATOM      3  H   UNL     1     -32.720  -5.599  -8.132  1.00  0.00     0.344 HD
ATOM      4  H   UNL     1     -32.004  -5.110  -6.655  1.00  0.00     0.344 HD
ATOM      5  H   UNL     1     -32.955  -6.521  -6.720  1.00  0.00     0.344 HD
ENDBRANCH   1   2
BRANCH   1   6
ATOM      6  C   UNL     1     -35.275  -5.482  -7.246  1.00  0.00     0.096 C 
ATOM      7  O   UNL     1     -36.215  -5.727  -6.446  1.00  0.00    -0.544 OA
ATOM      8  O   UNL     1     -35.404  -5.823  -8.587  1.00  0.00    -0.544 OA
ENDBRANCH   1   6
TORSDOF 2
ENDMDL
MODEL 8
REMARK VINA RESULT:    -2.723     10.582     10.750
REMARK INTER + INTRA:          -2.961
REMARK INTER:                  -2.961
REMARK INTRA:                   0.000
REMARK UNBOUND:                 0.000
REMARK SMILES [NH3+]CC(=O)[O-]
REMARK SMILES IDX 2 1 1 2 3 6 4 7 5 8
REMARK H PARENT 1 3 1 4 1 5
REMARK Flexibility Score: inf
ROOT
ATOM      1  C   UNL     1     -30.276 -13.789  -2.735  1.00  0.00     0.312 C 
ENDROOT
BRANCH   1   2
ATOM      2  N   UNL     1     -31.320 -14.801  -2.886  1.00  0.00    -0.353 N 
ATOM      3  H   UNL     1     -31.420 -15.066  -3.894  1.00  0.00     0.344 HD
ATOM      4  H   UNL     1     -31.084 -15.648  -2.319  1.00  0.00     0.344 HD
ATOM      5  H   UNL     1     -32.228 -14.408  -2.548  1.00  0.00     0.344 HD
ENDBRANCH   1   2
BRANCH   1   6
ATOM      6  C   UNL     1     -30.669 -12.775  -1.705  1.00  0.00     0.096 C 
ATOM      7  O   UNL     1     -29.795 -12.040  -1.175  1.00  0.00    -0.544 OA
ATOM      8  O   UNL     1     -32.006 -12.608  -1.369  1.00  0.00    -0.544 OA
ENDBRANCH   1   6
TORSDOF 2
ENDMDL
MODEL 9
REMARK VINA RESULT:    -2.689      9.986     10.274
REMARK INTER + INTRA:          -2.925
REMARK INTER:                  -2.925
REMARK INTRA:                   0.000
REMARK UNBOUND:                 0.000
REMARK SMILES [NH3+]CC(=O)[O-]
REMARK SMILES IDX 2 1 1 2 3 6 4 7 5 8
REMARK H PARENT 1 3 1 4 1 5
REMARK Flexibility Score: inf
ROOT
ATOM      1  C   UNL     1     -40.969  -2.754   1.671  1.00  0.00     0.312 C 
ENDROOT
BRANCH   1   2
ATOM      2  N   UNL     1     -41.606  -3.778   0.845  1.00  0.00    -0.353 N 
ATOM      3  H   UNL     1     -40.960  -4.073   0.077  1.00  0.00     0.344 HD
ATOM      4  H   UNL     1     -41.857  -4.607   1.433  1.00  0.00     0.344 HD
ATOM      5  H   UNL     1     -42.477  -3.385   0.423  1.00  0.00     0.344 HD
ENDBRANCH   1   2
BRANCH   1   6
ATOM      6  C   UNL     1     -39.540  -3.109   1.946  1.00  0.00     0.096 C 
ATOM      7  O   UNL     1     -38.637  -2.240   1.827  1.00  0.00    -0.544 OA
ATOM      8  O   UNL     1     -39.214  -4.387   2.383  1.00  0.00    -0.544 OA
ENDBRANCH   1   6
TORSDOF 2
ENDMDL
