MODEL 1
REMARK VINA RESULT:    -5.344      0.000      0.000
REMARK INTER + INTRA:          -5.500
REMARK INTER:                  -5.500
REMARK INTRA:                   0.000
REMARK UNBOUND:                 0.000
REMARK SMILES C=C1[C@H](O)C[C@@]23C[C@@H]1C(C)(C)[C@H]2CC[C@@H]3C
REMARK SMILES IDX 16 1 15 2 14 3 13 4 12 5 6 6 7 7 8 8 9 9 10 10 11 11 2 12
REMARK SMILES IDX 1 13 3 14 5 15 4 16
REMARK H PARENT 4 17
REMARK Flexibility Score: inf
ROOT
ATOM      1  C   UNL     1     127.504 138.691 149.901  1.00  0.00     0.008 C 
ATOM      2  C   UNL     1     127.901 138.105 148.534  1.00  0.00    -0.008 C 
ATOM      3  C   UNL     1     128.994 136.995 148.659  1.00  0.00     0.004 C 
ATOM      4  C   UNL     1     128.326 135.636 148.323  1.00  0.00     0.005 C 
ATOM      5  C   UNL     1     126.855 135.990 148.371  1.00  0.00     0.002 C 
ATOM      6  C   UNL     1     126.749 137.391 147.784  1.00  0.00    -0.020 C 
ATOM      7  C   UNL     1     125.270 137.650 148.043  1.00  0.00     0.016 C 
ATOM      8  C   UNL     1     124.668 136.357 147.423  1.00  0.00     0.023 C 
ATOM      9  C   UNL     1     125.658 135.189 147.819  1.00  0.00    -0.025 C 
ATOM     10  C   UNL     1     126.071 134.230 146.674  1.00  0.00     0.012 C 
ATOM     11  C   UNL     1     125.011 134.329 148.932  1.00  0.00     0.012 C 
ATOM     12  C   UNL     1     124.629 136.579 145.928  1.00  0.00    -0.045 C 
ATOM     13  C   UNL     1     123.568 136.186 145.206  1.00  0.00     0.011 C 
ATOM     14  C   UNL     1     125.793 137.293 145.269  1.00  0.00     0.140 C 
ATOM     15  C   UNL     1     127.019 137.489 146.221  1.00  0.00     0.044 C 
ENDROOT
BRANCH  14  16
ATOM     16  O   UNL     1     126.191 136.591 144.119  1.00  0.00    -0.389 OA
ATOM     17  H   UNL     1     125.471 136.713 143.447  1.00  0.00     0.211 HD
ENDBRANCH  14  16
TORSDOF 1
ENDMDL
MODEL 2
REMARK VINA RESULT:    -4.944      1.282      2.480
REMARK INTER + INTRA:          -5.089
REMARK INTER:                  -5.089
REMARK INTRA:                   0.000
REMARK UNBOUND:                 0.000
REMARK SMILES C=C1[C@H](O)C[C@@]23C[C@@H]1C(C)(C)[C@H]2CC[C@@H]3C
REMARK SMILES IDX 16 1 15 2 14 3 13 4 12 5 6 6 7 7 8 8 9 9 10 10 11 11 2 12
REMARK SMILES IDX 1 13 3 14 5 15 4 16
REMARK H PARENT 4 17
REMARK Flexibility Score: inf
ROOT
ATOM      1  C   UNL     1     125.444 139.229 149.823  1.00  0.00     0.008 C 
ATOM      2  C   UNL     1     125.646 139.058 148.307  1.00  0.00    -0.008 C 
ATOM      3  C   UNL     1     126.904 139.824 147.785  1.00  0.00     0.004 C 
ATOM      4  C   UNL     1     127.971 138.769 147.394  1.00  0.00     0.005 C 
ATOM      5  C   UNL     1     127.415 137.511 148.025  1.00  0.00     0.002 C 
ATOM      6  C   UNL     1     125.904 137.599 147.855  1.00  0.00    -0.020 C 
ATOM      7  C   UNL     1     125.499 136.370 148.660  1.00  0.00     0.016 C 
ATOM      8  C   UNL     1     126.428 135.311 148.002  1.00  0.00     0.023 C 
ATOM      9  C   UNL     1     127.806 136.045 147.749  1.00  0.00    -0.025 C 
ATOM     10  C   UNL     1     128.428 135.860 146.342  1.00  0.00     0.012 C 
ATOM     11  C   UNL     1     128.845 135.549 148.784  1.00  0.00     0.012 C 
ATOM     12  C   UNL     1     125.762 134.903 146.707  1.00  0.00    -0.045 C 
ATOM     13  C   UNL     1     125.741 133.617 146.325  1.00  0.00     0.011 C 
ATOM     14  C   UNL     1     125.081 135.971 145.873  1.00  0.00     0.140 C 
ATOM     15  C   UNL     1     125.383 137.426 146.364  1.00  0.00     0.044 C 
ENDROOT
BRANCH  14  16
ATOM     16  O   UNL     1     125.458 135.835 144.527  1.00  0.00    -0.389 OA
ATOM     17  H   UNL     1     124.624 135.673 144.013  1.00  0.00     0.211 HD
ENDBRANCH  14  16
TORSDOF 1
ENDMDL
MODEL 3
REMARK VINA RESULT:    -4.902     17.156     18.373
REMARK INTER + INTRA:          -5.046
REMARK INTER:                  -5.046
REMARK INTRA:                   0.000
REMARK UNBOUND:                 0.000
REMARK SMILES C=C1[C@H](O)C[C@@]23C[C@@H]1C(C)(C)[C@H]2CC[C@@H]3C
REMARK SMILES IDX 16 1 15 2 14 3 13 4 12 5 6 6 7 7 8 8 9 9 10 10 11 11 2 12
REMARK SMILES IDX 1 13 3 14 5 15 4 16
REMARK H PARENT 4 17
REMARK Flexibility Score: inf
ROOT
ATOM      1  C   UNL     1     138.190 133.583 132.241  1.00  0.00     0.008 C 
ATOM      2  C   UNL     1     137.424 132.282 131.943  1.00  0.00    -0.008 C 
ATOM      3  C   UNL     1     138.310 131.226 131.206  1.00  0.00     0.004 C 
ATOM      4  C   UNL     1     138.594 130.071 132.200  1.00  0.00     0.005 C 
ATOM      5  C   UNL     1     138.164 130.680 133.518  1.00  0.00     0.002 C 
ATOM      6  C   UNL     1     136.936 131.523 133.202  1.00  0.00    -0.020 C 
ATOM      7  C   UNL     1     136.731 132.171 134.566  1.00  0.00     0.016 C 
ATOM      8  C   UNL     1     136.756 130.901 135.463  1.00  0.00     0.023 C 
ATOM      9  C   UNL     1     137.878 129.967 134.856  1.00  0.00    -0.025 C 
ATOM     10  C   UNL     1     137.492 128.480 134.657  1.00  0.00     0.012 C 
ATOM     11  C   UNL     1     139.123 130.003 135.776  1.00  0.00     0.012 C 
ATOM     12  C   UNL     1     135.384 130.275 135.354  1.00  0.00    -0.045 C 
ATOM     13  C   UNL     1     134.773 129.774 136.440  1.00  0.00     0.011 C 
ATOM     14  C   UNL     1     134.695 130.264 134.003  1.00  0.00     0.140 C 
ATOM     15  C   UNL     1     135.631 130.697 132.827  1.00  0.00     0.044 C 
ENDROOT
BRANCH  14  16
ATOM     16  O   UNL     1     134.170 128.986 133.748  1.00  0.00    -0.389 OA
ATOM     17  H   UNL     1     133.482 128.816 134.444  1.00  0.00     0.211 HD
ENDBRANCH  14  16
TORSDOF 1
ENDMDL
MODEL 4
REMARK VINA RESULT:    -4.732      1.542      4.300
REMARK INTER + INTRA:          -4.871
REMARK INTER:                  -4.871
REMARK INTRA:                   0.000
REMARK UNBOUND:                 0.000
REMARK SMILES C=C1[C@H](O)C[C@@]23C[C@@H]1C(C)(C)[C@H]2CC[C@@H]3C
REMARK SMILES IDX 16 1 15 2 14 3 13 4 12 5 6 6 7 7 8 8 9 9 10 10 11 11 2 12
REMARK SMILES IDX 1 13 3 14 5 15 4 16
REMARK H PARENT 4 17
REMARK Flexibility Score: inf
ROOT
ATOM      1  C   UNL     1     125.496 133.751 147.786  1.00  0.00     0.008 C 
ATOM      2  C   UNL     1     125.931 134.816 146.764  1.00  0.00    -0.008 C 
ATOM      3  C   UNL     1     124.742 135.726 146.313  1.00  0.00     0.004 C 
ATOM      4  C   UNL     1     124.974 137.137 146.914  1.00  0.00     0.005 C 
ATOM      5  C   UNL     1     126.060 136.869 147.933  1.00  0.00     0.002 C 
ATOM      6  C   UNL     1     126.973 135.829 147.298  1.00  0.00    -0.020 C 
ATOM      7  C   UNL     1     127.896 135.563 148.482  1.00  0.00     0.016 C 
ATOM      8  C   UNL     1     128.290 137.025 148.836  1.00  0.00     0.023 C 
ATOM      9  C   UNL     1     126.976 137.883 148.648  1.00  0.00    -0.025 C 
ATOM     10  C   UNL     1     127.132 139.200 147.845  1.00  0.00     0.012 C 
ATOM     11  C   UNL     1     126.406 138.254 150.039  1.00  0.00     0.012 C 
ATOM     12  C   UNL     1     129.370 137.426 147.856  1.00  0.00    -0.045 C 
ATOM     13  C   UNL     1     130.437 138.129 148.264  1.00  0.00     0.011 C 
ATOM     14  C   UNL     1     129.242 136.979 146.412  1.00  0.00     0.140 C 
ATOM     15  C   UNL     1     127.846 136.355 146.079  1.00  0.00     0.044 C 
ENDROOT
BRANCH  14  16
ATOM     16  O   UNL     1     129.495 138.064 145.556  1.00  0.00    -0.389 OA
ATOM     17  H   UNL     1     130.476 138.085 145.406  1.00  0.00     0.211 HD
ENDBRANCH  14  16
TORSDOF 1
ENDMDL
MODEL 5
REMARK VINA RESULT:    -4.729     10.949     12.688
REMARK INTER + INTRA:          -4.868
REMARK INTER:                  -4.868
REMARK INTRA:                   0.000
REMARK UNBOUND:                 0.000
REMARK SMILES C=C1[C@H](O)C[C@@]23C[C@@H]1C(C)(C)[C@H]2CC[C@@H]3C
REMARK SMILES IDX 16 1 15 2 14 3 13 4 12 5 6 6 7 7 8 8 9 9 10 10 11 11 2 12
REMARK SMILES IDX 1 13 3 14 5 15 4 16
REMARK H PARENT 4 17
REMARK Flexibility Score: inf
ROOT
ATOM      1  C   UNL     1     134.854 137.129 140.897  1.00  0.00     0.008 C 
ATOM      2  C   UNL     1     135.451 135.867 141.545  1.00  0.00    -0.008 C 
ATOM      3  C   UNL     1     136.290 135.020 140.533  1.00  0.00     0.004 C 
ATOM      4  C   UNL     1     137.782 135.148 140.935  1.00  0.00     0.005 C 
ATOM      5  C   UNL     1     137.747 136.308 141.907  1.00  0.00     0.002 C 
ATOM      6  C   UNL     1     136.452 136.147 142.692  1.00  0.00    -0.020 C 
ATOM      7  C   UNL     1     136.493 137.444 143.493  1.00  0.00     0.016 C 
ATOM      8  C   UNL     1     137.930 137.341 144.078  1.00  0.00     0.023 C 
ATOM      9  C   UNL     1     138.826 136.745 142.919  1.00  0.00    -0.025 C 
ATOM     10  C   UNL     1     139.764 135.577 143.316  1.00  0.00     0.012 C 
ATOM     11  C   UNL     1     139.711 137.870 142.329  1.00  0.00     0.012 C 
ATOM     12  C   UNL     1     137.844 136.403 145.261  1.00  0.00    -0.045 C 
ATOM     13  C   UNL     1     138.510 136.670 146.395  1.00  0.00     0.011 C 
ATOM     14  C   UNL     1     136.954 135.179 145.155  1.00  0.00     0.140 C 
ATOM     15  C   UNL     1     136.425 134.923 143.705  1.00  0.00     0.044 C 
ENDROOT
BRANCH  14  16
ATOM     16  O   UNL     1     137.646 134.047 145.617  1.00  0.00    -0.389 OA
ATOM     17  H   UNL     1     138.379 133.878 144.969  1.00  0.00     0.211 HD
ENDBRANCH  14  16
TORSDOF 1
ENDMDL
MODEL 6
REMARK VINA RESULT:    -4.729     17.592     18.821
REMARK INTER + INTRA:          -4.867
REMARK INTER:                  -4.867
REMARK INTRA:                   0.000
REMARK UNBOUND:                 0.000
REMARK SMILES C=C1[C@H](O)C[C@@]23C[C@@H]1C(C)(C)[C@H]2CC[C@@H]3C
REMARK SMILES IDX 16 1 15 2 14 3 13 4 12 5 6 6 7 7 8 8 9 9 10 10 11 11 2 12
REMARK SMILES IDX 1 13 3 14 5 15 4 16
REMARK H PARENT 4 17
REMARK Flexibility Score: inf
ROOT
ATOM      1  C   UNL     1     136.934 130.750 136.917  1.00  0.00     0.008 C 
ATOM      2  C   UNL     1     136.162 131.283 135.697  1.00  0.00    -0.008 C 
ATOM      3  C   UNL     1     136.370 132.818 135.487  1.00  0.00     0.004 C 
ATOM      4  C   UNL     1     137.232 133.007 134.213  1.00  0.00     0.005 C 
ATOM      5  C   UNL     1     137.750 131.605 133.973  1.00  0.00     0.002 C 
ATOM      6  C   UNL     1     136.603 130.674 134.343  1.00  0.00    -0.020 C 
ATOM      7  C   UNL     1     137.321 129.337 134.200  1.00  0.00     0.016 C 
ATOM      8  C   UNL     1     137.923 129.518 132.778  1.00  0.00     0.023 C 
ATOM      9  C   UNL     1     138.395 131.025 132.698  1.00  0.00    -0.025 C 
ATOM     10  C   UNL     1     137.978 131.803 131.425  1.00  0.00     0.012 C 
ATOM     11  C   UNL     1     139.940 131.081 132.789  1.00  0.00     0.012 C 
ATOM     12  C   UNL     1     136.806 129.226 131.801  1.00  0.00    -0.045 C 
ATOM     13  C   UNL     1     137.040 128.513 130.689  1.00  0.00     0.011 C 
ATOM     14  C   UNL     1     135.409 129.719 132.126  1.00  0.00     0.140 C 
ATOM     15  C   UNL     1     135.367 130.699 133.345  1.00  0.00     0.044 C 
ENDROOT
BRANCH  14  16
ATOM     16  O   UNL     1     134.849 130.338 130.997  1.00  0.00    -0.389 OA
ATOM     17  H   UNL     1     134.029 129.826 130.768  1.00  0.00     0.211 HD
ENDBRANCH  14  16
TORSDOF 1
ENDMDL
MODEL 7
REMARK VINA RESULT:    -4.709     10.823     12.474
REMARK INTER + INTRA:          -4.847
REMARK INTER:                  -4.847
REMARK INTRA:                   0.000
REMARK UNBOUND:                 0.000
REMARK SMILES C=C1[C@H](O)C[C@@]23C[C@@H]1C(C)(C)[C@H]2CC[C@@H]3C
REMARK SMILES IDX 16 1 15 2 14 3 13 4 12 5 6 6 7 7 8 8 9 9 10 10 11 11 2 12
REMARK SMILES IDX 1 13 3 14 5 15 4 16
REMARK H PARENT 4 17
REMARK Flexibility Score: inf
ROOT
ATOM      1  C   UNL     1     139.843 138.001 142.245  1.00  0.00     0.008 C 
ATOM      2  C   UNL     1     139.208 136.921 143.139  1.00  0.00    -0.008 C 
ATOM      3  C   UNL     1     138.376 137.535 144.312  1.00  0.00     0.004 C 
ATOM      4  C   UNL     1     136.878 137.259 144.022  1.00  0.00     0.005 C 
ATOM      5  C   UNL     1     136.913 136.829 142.571  1.00  0.00     0.002 C 
ATOM      6  C   UNL     1     138.187 136.009 142.416  1.00  0.00    -0.020 C 
ATOM      7  C   UNL     1     138.152 135.792 140.907  1.00  0.00     0.016 C 
ATOM      8  C   UNL     1     136.700 135.255 140.756  1.00  0.00     0.023 C 
ATOM      9  C   UNL     1     135.820 136.106 141.758  1.00  0.00    -0.025 C 
ATOM     10  C   UNL     1     134.851 135.303 142.663  1.00  0.00     0.012 C 
ATOM     11  C   UNL     1     134.970 137.120 140.954  1.00  0.00     0.012 C 
ATOM     12  C   UNL     1     136.742 133.794 141.146  1.00  0.00    -0.045 C 
ATOM     13  C   UNL     1     136.056 132.880 140.444  1.00  0.00     0.011 C 
ATOM     14  C   UNL     1     137.611 133.380 142.318  1.00  0.00     0.140 C 
ATOM     15  C   UNL     1     138.167 134.592 143.135  1.00  0.00     0.044 C 
ENDROOT
BRANCH  14  16
ATOM     16  O   UNL     1     136.888 132.525 143.166  1.00  0.00    -0.389 OA
ATOM     17  H   UNL     1     136.414 133.105 143.818  1.00  0.00     0.211 HD
ENDBRANCH  14  16
TORSDOF 1
ENDMDL
MODEL 8
REMARK VINA RESULT:    -4.673      1.878      3.784
REMARK INTER + INTRA:          -4.810
REMARK INTER:                  -4.810
REMARK INTRA:                   0.000
REMARK UNBOUND:                 0.000
REMARK SMILES C=C1[C@H](O)C[C@@]23C[C@@H]1C(C)(C)[C@H]2CC[C@@H]3C
REMARK SMILES IDX 16 1 15 2 14 3 13 4 12 5 6 6 7 7 8 8 9 9 10 10 11 11 2 12
REMARK SMILES IDX 1 13 3 14 5 15 4 16
REMARK H PARENT 4 17
REMARK Flexibility Score: inf
ROOT
ATOM      1  C   UNL     1     124.735 133.163 149.764  1.00  0.00     0.008 C 
ATOM      2  C   UNL     1     126.009 133.988 149.505  1.00  0.00    -0.008 C 
ATOM      3  C   UNL     1     126.874 133.397 148.345  1.00  0.00     0.004 C 
ATOM      4  C   UNL     1     126.777 134.369 147.142  1.00  0.00     0.005 C 
ATOM      5  C   UNL     1     125.615 135.252 147.545  1.00  0.00     0.002 C 
ATOM      6  C   UNL     1     125.748 135.445 149.049  1.00  0.00    -0.020 C 
ATOM      7  C   UNL     1     124.451 136.203 149.310  1.00  0.00     0.016 C 
ATOM      8  C   UNL     1     124.583 137.319 148.235  1.00  0.00     0.023 C 
ATOM      9  C   UNL     1     125.200 136.617 146.959  1.00  0.00    -0.025 C 
ATOM     10  C   UNL     1     126.386 137.351 146.285  1.00  0.00     0.012 C 
ATOM     11  C   UNL     1     124.095 136.444 145.889  1.00  0.00     0.012 C 
ATOM     12  C   UNL     1     125.517 138.359 148.812  1.00  0.00    -0.045 C 
ATOM     13  C   UNL     1     125.263 139.667 148.656  1.00  0.00     0.011 C 
ATOM     14  C   UNL     1     126.722 137.893 149.606  1.00  0.00     0.140 C 
ATOM     15  C   UNL     1     126.970 136.351 149.507  1.00  0.00     0.044 C 
ENDROOT
BRANCH  14  16
ATOM     16  O   UNL     1     127.868 138.587 149.183  1.00  0.00    -0.389 OA
ATOM     17  H   UNL     1     127.808 139.499 149.571  1.00  0.00     0.211 HD
ENDBRANCH  14  16
TORSDOF 1
ENDMDL
MODEL 9
REMARK VINA RESULT:    -4.615     18.219     19.466
REMARK INTER + INTRA:          -4.750
REMARK INTER:                  -4.750
REMARK INTRA:                   0.000
REMARK UNBOUND:                 0.000
REMARK SMILES C=C1[C@H](O)C[C@@]23C[C@@H]1C(C)(C)[C@H]2CC[C@@H]3C
REMARK SMILES IDX 16 1 15 2 14 3 13 4 12 5 6 6 7 7 8 8 9 9 10 10 11 11 2 12
REMARK SMILES IDX 1 13 3 14 5 15 4 16
REMARK H PARENT 4 17
REMARK Flexibility Score: inf
ROOT
ATOM      1  C   UNL     1     141.044 131.518 132.423  1.00  0.00     0.008 C 
ATOM      2  C   UNL     1     139.691 132.240 132.560  1.00  0.00    -0.008 C 
ATOM      3  C   UNL     1     139.189 132.824 131.200  1.00  0.00     0.004 C 
ATOM      4  C   UNL     1     137.964 131.986 130.751  1.00  0.00     0.005 C 
ATOM      5  C   UNL     1     138.050 130.787 131.671  1.00  0.00     0.002 C 
ATOM      6  C   UNL     1     138.522 131.331 133.013  1.00  0.00    -0.020 C 
ATOM      7  C   UNL     1     138.703 130.013 133.757  1.00  0.00     0.016 C 
ATOM      8  C   UNL     1     137.318 129.364 133.475  1.00  0.00     0.023 C 
ATOM      9  C   UNL     1     136.966 129.734 131.978  1.00  0.00    -0.025 C 
ATOM     10  C   UNL     1     135.536 130.275 131.728  1.00  0.00     0.012 C 
ATOM     11  C   UNL     1     137.148 128.480 131.088  1.00  0.00     0.012 C 
ATOM     12  C   UNL     1     136.347 129.989 134.452  1.00  0.00    -0.045 C 
ATOM     13  C   UNL     1     135.421 129.240 135.070  1.00  0.00     0.011 C 
ATOM     14  C   UNL     1     136.470 131.471 134.750  1.00  0.00     0.140 C 
ATOM     15  C   UNL     1     137.458 132.216 133.793  1.00  0.00     0.044 C 
ENDROOT
BRANCH  14  16
ATOM     16  O   UNL     1     135.202 132.075 134.690  1.00  0.00    -0.389 OA
ATOM     17  H   UNL     1     134.656 131.527 134.068  1.00  0.00     0.211 HD
ENDBRANCH  14  16
TORSDOF 1
ENDMDL
