MODEL 1
REMARK VINA RESULT:    -3.343      0.000      0.000
REMARK INTER + INTRA:          -4.360
REMARK INTER:                  -4.125
REMARK INTRA:                  -0.235
REMARK UNBOUND:                -0.235
REMARK SMILES C=CC[C@H](C)C(=O)CC
REMARK SMILES IDX 4 1 5 2 6 3 7 4 8 5 9 6 3 7 2 8 1 9
REMARK H PARENT
REMARK Flexibility Score: inf
ROOT
ATOM      1  C   UNL     1      10.482  15.936   1.159  1.00  0.00     0.057 C 
ATOM      2  C   UNL     1      11.328  17.049   1.787  1.00  0.00     0.016 C 
ENDROOT
BRANCH   1   3
ATOM      3  C   UNL     1       9.117  15.891   1.814  1.00  0.00     0.135 C 
ATOM      4  O   UNL     1       8.550  16.934   2.108  1.00  0.00    -0.299 OA
BRANCH   3   5
ATOM      5  C   UNL     1       8.447  14.579   2.125  1.00  0.00     0.072 C 
ATOM      6  C   UNL     1       6.929  14.723   2.086  1.00  0.00     0.012 C 
ENDBRANCH   3   5
ENDBRANCH   1   3
BRANCH   1   7
ATOM      7  C   UNL     1      11.202  14.577   1.276  1.00  0.00     0.038 C 
BRANCH   7   8
ATOM      8  C   UNL     1      11.251  13.845  -0.039  1.00  0.00    -0.034 C 
ATOM      9  C   UNL     1      10.308  14.009  -0.972  1.00  0.00     0.004 C 
ENDBRANCH   7   8
ENDBRANCH   1   7
TORSDOF 4
ENDMDL
MODEL 2
REMARK VINA RESULT:    -3.118      0.972      2.788
REMARK INTER + INTRA:          -4.083
REMARK INTER:                  -3.733
REMARK INTRA:                  -0.349
REMARK UNBOUND:                -0.235
REMARK SMILES C=CC[C@H](C)C(=O)CC
REMARK SMILES IDX 4 1 5 2 6 3 7 4 8 5 9 6 3 7 2 8 1 9
REMARK H PARENT
REMARK Flexibility Score: inf
ROOT
ATOM      1  C   UNL     1       9.632  15.150   1.558  1.00  0.00     0.057 C 
ATOM      2  C   UNL     1       8.263  14.754   2.123  1.00  0.00     0.016 C 
ENDROOT
BRANCH   1   3
ATOM      3  C   UNL     1       9.825  16.649   1.670  1.00  0.00     0.135 C 
ATOM      4  O   UNL     1       8.870  17.366   1.931  1.00  0.00    -0.299 OA
BRANCH   3   5
ATOM      5  C   UNL     1      11.176  17.277   1.450  1.00  0.00     0.072 C 
ATOM      6  C   UNL     1      12.271  16.458   2.125  1.00  0.00     0.012 C 
ENDBRANCH   3   5
ENDBRANCH   1   3
BRANCH   1   7
ATOM      7  C   UNL     1       9.771  14.679   0.095  1.00  0.00     0.038 C 
BRANCH   7   8
ATOM      8  C   UNL     1      10.911  13.711  -0.083  1.00  0.00    -0.034 C 
ATOM      9  C   UNL     1      11.634  13.673  -1.208  1.00  0.00     0.004 C 
ENDBRANCH   7   8
ENDBRANCH   1   7
TORSDOF 4
ENDMDL
MODEL 3
REMARK VINA RESULT:    -3.088      2.391      4.229
REMARK INTER + INTRA:          -4.045
REMARK INTER:                  -3.716
REMARK INTRA:                  -0.330
REMARK UNBOUND:                -0.235
REMARK SMILES C=CC[C@H](C)C(=O)CC
REMARK SMILES IDX 4 1 5 2 6 3 7 4 8 5 9 6 3 7 2 8 1 9
REMARK H PARENT
REMARK Flexibility Score: inf
ROOT
ATOM      1  C   UNL     1      10.611  14.638   0.225  1.00  0.00     0.057 C 
ATOM      2  C   UNL     1       9.655  14.145  -0.867  1.00  0.00     0.016 C 
ENDROOT
BRANCH   1   3
ATOM      3  C   UNL     1      11.698  13.609   0.465  1.00  0.00     0.135 C 
ATOM      4  O   UNL     1      12.394  13.234  -0.468  1.00  0.00    -0.299 OA
BRANCH   3   5
ATOM      5  C   UNL     1      11.928  13.026   1.833  1.00  0.00     0.072 C 
ATOM      6  C   UNL     1      13.420  12.895   2.123  1.00  0.00     0.012 C 
ENDBRANCH   3   5
ENDBRANCH   1   3
BRANCH   1   7
ATOM      7  C   UNL     1       9.838  14.944   1.525  1.00  0.00     0.038 C 
BRANCH   7   8
ATOM      8  C   UNL     1      10.074  16.350   2.008  1.00  0.00    -0.034 C 
ATOM      9  C   UNL     1      11.225  16.990   1.778  1.00  0.00     0.004 C 
ENDBRANCH   7   8
ENDBRANCH   1   7
TORSDOF 4
ENDMDL
MODEL 4
REMARK VINA RESULT:    -2.690      1.541      3.624
REMARK INTER + INTRA:          -3.555
REMARK INTER:                  -3.189
REMARK INTRA:                  -0.365
REMARK UNBOUND:                -0.235
REMARK SMILES C=CC[C@H](C)C(=O)CC
REMARK SMILES IDX 4 1 5 2 6 3 7 4 8 5 9 6 3 7 2 8 1 9
REMARK H PARENT
REMARK Flexibility Score: inf
ROOT
ATOM      1  C   UNL     1       9.240  15.168   1.277  1.00  0.00     0.057 C 
ATOM      2  C   UNL     1       8.081  14.391   1.910  1.00  0.00     0.016 C 
ENDROOT
BRANCH   1   3
ATOM      3  C   UNL     1      10.449  14.267   1.128  1.00  0.00     0.135 C 
ATOM      4  O   UNL     1      10.993  13.813   2.125  1.00  0.00    -0.299 OA
BRANCH   3   5
ATOM      5  C   UNL     1      11.006  13.930  -0.229  1.00  0.00     0.072 C 
ATOM      6  C   UNL     1       9.988  14.234  -1.323  1.00  0.00     0.012 C 
ENDBRANCH   3   5
ENDBRANCH   1   3
BRANCH   1   7
ATOM      7  C   UNL     1       9.577  16.418   2.116  1.00  0.00     0.038 C 
BRANCH   7   8
ATOM      8  C   UNL     1      10.698  17.222   1.513  1.00  0.00    -0.034 C 
ATOM      9  C   UNL     1      11.880  17.353   2.125  1.00  0.00     0.004 C 
ENDBRANCH   7   8
ENDBRANCH   1   7
TORSDOF 4
ENDMDL
MODEL 5
REMARK VINA RESULT:    -2.676      1.761      3.759
REMARK INTER + INTRA:          -3.537
REMARK INTER:                  -3.568
REMARK INTRA:                   0.030
REMARK UNBOUND:                -0.235
REMARK SMILES C=CC[C@H](C)C(=O)CC
REMARK SMILES IDX 4 1 5 2 6 3 7 4 8 5 9 6 3 7 2 8 1 9
REMARK H PARENT
REMARK Flexibility Score: inf
ROOT
ATOM      1  C   UNL     1      10.341  14.905   1.428  1.00  0.00     0.057 C 
ATOM      2  C   UNL     1      11.235  16.149   1.461  1.00  0.00     0.016 C 
ENDROOT
BRANCH   1   3
ATOM      3  C   UNL     1      10.768  13.989   0.299  1.00  0.00     0.135 C 
ATOM      4  O   UNL     1      10.046  13.853  -0.678  1.00  0.00    -0.299 OA
BRANCH   3   5
ATOM      5  C   UNL     1      12.064  13.226   0.365  1.00  0.00     0.072 C 
ATOM      6  C   UNL     1      12.608  13.203   1.790  1.00  0.00     0.012 C 
ENDBRANCH   3   5
ENDBRANCH   1   3
BRANCH   1   7
ATOM      7  C   UNL     1       8.858  15.307   1.287  1.00  0.00     0.038 C 
BRANCH   7   8
ATOM      8  C   UNL     1       7.953  14.442   2.125  1.00  0.00    -0.034 C 
ATOM      9  C   UNL     1       6.627  14.442   1.959  1.00  0.00     0.004 C 
ENDBRANCH   7   8
ENDBRANCH   1   7
TORSDOF 4
ENDMDL
MODEL 6
REMARK VINA RESULT:    -2.670      1.639      2.501
REMARK INTER + INTRA:          -3.530
REMARK INTER:                  -3.239
REMARK INTRA:                  -0.291
REMARK UNBOUND:                -0.235
REMARK SMILES C=CC[C@H](C)C(=O)CC
REMARK SMILES IDX 4 1 5 2 6 3 7 4 8 5 9 6 3 7 2 8 1 9
REMARK H PARENT
REMARK Flexibility Score: inf
ROOT
ATOM      1  C   UNL     1      11.196  15.568   0.995  1.00  0.00     0.057 C 
ATOM      2  C   UNL     1      11.122  17.078   1.241  1.00  0.00     0.016 C 
ENDROOT
BRANCH   1   3
ATOM      3  C   UNL     1       9.800  14.994   0.868  1.00  0.00     0.135 C 
ATOM      4  O   UNL     1       9.057  14.985   1.840  1.00  0.00    -0.299 OA
BRANCH   3   5
ATOM      5  C   UNL     1       9.311  14.416  -0.433  1.00  0.00     0.072 C 
ATOM      6  C   UNL     1      10.484  14.019  -1.324  1.00  0.00     0.012 C 
ENDBRANCH   3   5
ENDBRANCH   1   3
BRANCH   1   7
ATOM      7  C   UNL     1      11.984  14.872   2.124  1.00  0.00     0.038 C 
BRANCH   7   8
ATOM      8  C   UNL     1      12.097  13.386   1.907  1.00  0.00    -0.034 C 
ATOM      9  C   UNL     1      12.778  12.875   0.876  1.00  0.00     0.004 C 
ENDBRANCH   7   8
ENDBRANCH   1   7
TORSDOF 4
ENDMDL
MODEL 7
REMARK VINA RESULT:    -2.656      1.825      3.792
REMARK INTER + INTRA:          -3.512
REMARK INTER:                  -3.200
REMARK INTRA:                  -0.312
REMARK UNBOUND:                -0.235
REMARK SMILES C=CC[C@H](C)C(=O)CC
REMARK SMILES IDX 4 1 5 2 6 3 7 4 8 5 9 6 3 7 2 8 1 9
REMARK H PARENT
REMARK Flexibility Score: inf
ROOT
ATOM      1  C   UNL     1       9.827  14.858   0.844  1.00  0.00     0.057 C 
ATOM      2  C   UNL     1       9.783  14.135  -0.506  1.00  0.00     0.016 C 
ENDROOT
BRANCH   1   3
ATOM      3  C   UNL     1      11.255  14.938   1.344  1.00  0.00     0.135 C 
ATOM      4  O   UNL     1      12.027  14.016   1.126  1.00  0.00    -0.299 OA
BRANCH   3   5
ATOM      5  C   UNL     1      11.741  16.132   2.123  1.00  0.00     0.072 C 
ATOM      6  C   UNL     1      10.863  17.349   1.852  1.00  0.00     0.012 C 
ENDBRANCH   3   5
ENDBRANCH   1   3
BRANCH   1   7
ATOM      7  C   UNL     1       8.917  14.149   1.869  1.00  0.00     0.038 C 
BRANCH   7   8
ATOM      8  C   UNL     1       7.645  14.914   2.125  1.00  0.00    -0.034 C 
ATOM      9  C   UNL     1       6.444  14.335   2.029  1.00  0.00     0.004 C 
ENDBRANCH   7   8
ENDBRANCH   1   7
TORSDOF 4
ENDMDL
MODEL 8
REMARK VINA RESULT:    -2.300      1.505      1.863
REMARK INTER + INTRA:          -3.073
REMARK INTER:                  -2.931
REMARK INTRA:                  -0.141
REMARK UNBOUND:                -0.235
REMARK SMILES C=CC[C@H](C)C(=O)CC
REMARK SMILES IDX 4 1 5 2 6 3 7 4 8 5 9 6 3 7 2 8 1 9
REMARK H PARENT
REMARK Flexibility Score: inf
ROOT
ATOM      1  C   UNL     1      11.003  15.567   1.182  1.00  0.00     0.057 C 
ATOM      2  C   UNL     1      12.130  15.123   2.121  1.00  0.00     0.016 C 
ENDROOT
BRANCH   1   3
ATOM      3  C   UNL     1      10.200  16.679   1.827  1.00  0.00     0.135 C 
ATOM      4  O   UNL     1      10.748  17.730   2.125  1.00  0.00    -0.299 OA
BRANCH   3   5
ATOM      5  C   UNL     1       8.733  16.507   2.123  1.00  0.00     0.072 C 
ATOM      6  C   UNL     1       7.995  17.835   1.993  1.00  0.00     0.012 C 
ENDBRANCH   3   5
ENDBRANCH   1   3
BRANCH   1   7
ATOM      7  C   UNL     1      10.102  14.371   0.813  1.00  0.00     0.038 C 
BRANCH   7   8
ATOM      8  C   UNL     1      10.394  13.845  -0.567  1.00  0.00    -0.034 C 
ATOM      9  C   UNL     1      11.632  13.511  -0.947  1.00  0.00     0.004 C 
ENDBRANCH   7   8
ENDBRANCH   1   7
TORSDOF 4
ENDMDL
MODEL 9
REMARK VINA RESULT:    -1.788      1.922      3.751
REMARK INTER + INTRA:          -2.442
REMARK INTER:                  -2.170
REMARK INTRA:                  -0.272
REMARK UNBOUND:                -0.235
REMARK SMILES C=CC[C@H](C)C(=O)CC
REMARK SMILES IDX 4 1 5 2 6 3 7 4 8 5 9 6 3 7 2 8 1 9
REMARK H PARENT
REMARK Flexibility Score: inf
ROOT
ATOM      1  C   UNL     1      10.590  15.752   2.101  1.00  0.00     0.057 C 
ATOM      2  C   UNL     1      11.243  17.002   1.502  1.00  0.00     0.016 C 
ENDROOT
BRANCH   1   3
ATOM      3  C   UNL     1      11.015  14.522   1.324  1.00  0.00     0.135 C 
ATOM      4  O   UNL     1      12.009  13.899   1.671  1.00  0.00    -0.299 OA
BRANCH   3   5
ATOM      5  C   UNL     1      10.243  14.058   0.118  1.00  0.00     0.072 C 
ATOM      6  C   UNL     1      11.120  14.083  -1.130  1.00  0.00     0.012 C 
ENDBRANCH   3   5
ENDBRANCH   1   3
BRANCH   1   7
ATOM      7  C   UNL     1       9.054  15.897   2.116  1.00  0.00     0.038 C 
BRANCH   7   8
ATOM      8  C   UNL     1       8.620  17.339   2.125  1.00  0.00    -0.034 C 
ATOM      9  C   UNL     1       7.329  17.686   2.096  1.00  0.00     0.004 C 
ENDBRANCH   7   8
ENDBRANCH   1   7
TORSDOF 4
ENDMDL
