MODEL 1
REMARK VINA RESULT:    -4.062      0.000      0.000
REMARK INTER + INTRA:          -4.248
REMARK INTER:                  -5.012
REMARK INTRA:                   0.765
REMARK UNBOUND:                 0.765
REMARK SMILES CC1=CC=CC(C)(C)CC1=O
REMARK SMILES IDX 1 1 2 2 3 3 10 4 11 5 9 6 4 8 5 9 6 10 7 11 8 12
REMARK H PARENT
REMARK Flexibility Score: 80.00
ROOT
ATOM      1  C   UNL     1       2.768 -17.904  30.065  1.00  0.00     0.048 C 
ATOM      2  C   UNL     1       3.501 -16.734  29.451  1.00  0.00    -0.008 C 
ATOM      3  C   UNL     1       3.485 -15.564  30.123  1.00  0.00     0.007 C 
ENDROOT
BRANCH   2   4
ATOM      4  C   UNL     1       4.244 -16.990  28.193  1.00  0.00     0.159 C 
ATOM      5  O   UNL     1       4.410 -18.182  27.815  1.00  0.00    -0.295 OA
BRANCH   4   6
ATOM      6  C   UNL     1       4.806 -15.903  27.330  1.00  0.00     0.091 CG0
ATOM      7  G   UNL     1       5.843 -15.019  28.059  1.00  0.00     0.000 G0
ENDBRANCH   4   6
ENDBRANCH   2   4
BRANCH   3   8
ATOM      8  C   UNL     1       4.125 -14.268  29.792  1.00  0.00    -0.003 C 
ATOM      9  C   UNL     1       5.121 -14.014  28.934  1.00  0.00    -0.020 C 
BRANCH   9  10
ATOM     10  C   UNL     1       5.826 -15.019  28.054  1.00  0.00    -0.010 CG0
ATOM     11  C   UNL     1       6.631 -14.246  26.984  1.00  0.00     0.016 C 
ATOM     12  C   UNL     1       6.824 -15.847  28.895  1.00  0.00     0.016 C 
ATOM     13  G   UNL     1       4.784 -15.899  27.329  1.00  0.00     0.000 G0
ENDBRANCH   9  10
ENDBRANCH   3   8
TORSDOF 0
ENDMDL
MODEL 2
REMARK VINA RESULT:    -3.541      9.102     10.479
REMARK INTER + INTRA:          -3.604
REMARK INTER:                  -4.369
REMARK INTRA:                   0.765
REMARK UNBOUND:                 0.765
REMARK SMILES CC1=CC=CC(C)(C)CC1=O
REMARK SMILES IDX 1 1 2 2 3 3 10 4 11 5 9 6 4 8 5 9 6 10 7 11 8 12
REMARK H PARENT
REMARK Flexibility Score: 80.00
ROOT
ATOM      1  C   UNL     1       4.414 -24.835  22.497  1.00  0.00     0.048 C 
ATOM      2  C   UNL     1       3.336 -24.795  23.555  1.00  0.00    -0.008 C 
ATOM      3  C   UNL     1       3.727 -24.820  24.847  1.00  0.00     0.007 C 
ENDROOT
BRANCH   2   4
ATOM      4  C   UNL     1       1.935 -24.654  23.085  1.00  0.00     0.159 C 
ATOM      5  O   UNL     1       1.725 -24.354  21.878  1.00  0.00    -0.295 OA
BRANCH   4   6
ATOM      6  C   UNL     1       0.744 -24.859  23.969  1.00  0.00     0.091 CG0
ATOM      7  G   UNL     1       0.697 -23.884  25.167  1.00  0.00     0.000 G0
ENDBRANCH   4   6
ENDBRANCH   2   4
BRANCH   3   8
ATOM      8  C   UNL     1       2.916 -24.767  26.087  1.00  0.00    -0.003 C 
ATOM      9  C   UNL     1       1.650 -24.363  26.251  1.00  0.00    -0.020 C 
BRANCH   9  10
ATOM     10  C   UNL     1       0.715 -23.878  25.168  1.00  0.00    -0.010 CG0
ATOM     11  C   UNL     1      -0.723 -23.868  25.736  1.00  0.00     0.016 C 
ATOM     12  C   UNL     1       1.079 -22.430  24.765  1.00  0.00     0.016 C 
ATOM     13  G   UNL     1       0.752 -24.856  23.972  1.00  0.00     0.000 G0
ENDBRANCH   9  10
ENDBRANCH   3   8
TORSDOF 0
ENDMDL
MODEL 3
REMARK VINA RESULT:    -3.521      8.967     10.235
REMARK INTER + INTRA:          -3.580
REMARK INTER:                  -4.315
REMARK INTRA:                   0.735
REMARK UNBOUND:                 0.765
REMARK SMILES CC1=CC=CC(C)(C)CC1=O
REMARK SMILES IDX 1 1 2 2 3 3 10 4 11 5 9 6 4 8 5 9 6 10 7 11 8 12
REMARK H PARENT
REMARK Flexibility Score: 80.00
ROOT
ATOM      1  C   UNL     1       0.067 -22.619  23.029  1.00  0.00     0.048 C 
ATOM      2  C   UNL     1       1.284 -23.200  23.710  1.00  0.00    -0.008 C 
ATOM      3  C   UNL     1       1.543 -22.803  24.974  1.00  0.00     0.007 C 
ENDROOT
BRANCH   2   4
ATOM      4  C   UNL     1       2.055 -24.221  22.958  1.00  0.00     0.159 C 
ATOM      5  O   UNL     1       1.560 -24.703  21.902  1.00  0.00    -0.295 OA
BRANCH   4   6
ATOM      6  C   UNL     1       3.407 -24.711  23.378  1.00  0.00     0.091 CG0
ATOM      7  G   UNL     1       3.407 -25.380  24.771  1.00  0.00     0.000 G0
ENDBRANCH   4   6
ENDBRANCH   2   4
BRANCH   3   8
ATOM      8  C   UNL     1       2.630 -23.211  25.895  1.00  0.00    -0.003 C 
ATOM      9  C   UNL     1       3.419 -24.291  25.844  1.00  0.00    -0.020 C 
BRANCH   9  10
ATOM     10  C   UNL     1       3.402 -25.366  24.783  1.00  0.00    -0.010 CG0
ATOM     11  C   UNL     1       4.704 -26.190  24.906  1.00  0.00     0.016 C 
ATOM     12  C   UNL     1       2.208 -26.320  25.017  1.00  0.00     0.016 C 
ATOM     13  G   UNL     1       3.376 -24.714  23.382  1.00  0.00     0.000 G0
ENDBRANCH   9  10
ENDBRANCH   3   8
TORSDOF 0
ENDMDL
MODEL 4
REMARK VINA RESULT:    -3.434      8.880     10.463
REMARK INTER + INTRA:          -3.472
REMARK INTER:                  -4.231
REMARK INTRA:                   0.759
REMARK UNBOUND:                 0.765
REMARK SMILES CC1=CC=CC(C)(C)CC1=O
REMARK SMILES IDX 1 1 2 2 3 3 10 4 11 5 9 6 4 8 5 9 6 10 7 11 8 12
REMARK H PARENT
REMARK Flexibility Score: 80.00
ROOT
ATOM      1  C   UNL     1       7.057 -17.629  16.885  1.00  0.00     0.048 C 
ATOM      2  C   UNL     1       8.045 -17.961  17.978  1.00  0.00    -0.008 C 
ATOM      3  C   UNL     1       9.262 -17.379  17.919  1.00  0.00     0.007 C 
ENDROOT
BRANCH   2   4
ATOM      4  C   UNL     1       7.570 -18.845  19.072  1.00  0.00     0.159 C 
ATOM      5  O   UNL     1       6.338 -19.104  19.153  1.00  0.00    -0.295 OA
BRANCH   4   6
ATOM      6  C   UNL     1       8.479 -19.463  20.089  1.00  0.00     0.091 CG0
ATOM      7  G   UNL     1       9.266 -18.421  20.916  1.00  0.00     0.000 G0
ENDBRANCH   4   6
ENDBRANCH   2   4
BRANCH   3   8
ATOM      8  C   UNL     1      10.413 -17.487  18.846  1.00  0.00    -0.003 C 
ATOM      9  C   UNL     1      10.437 -17.905  20.118  1.00  0.00    -0.020 C 
BRANCH   9  10
ATOM     10  C   UNL     1       9.260 -18.409  20.920  1.00  0.00    -0.010 CG0
ATOM     11  C   UNL     1       9.800 -19.106  22.189  1.00  0.00     0.016 C 
ATOM     12  C   UNL     1       8.379 -17.220  21.366  1.00  0.00     0.016 C 
ATOM     13  G   UNL     1       8.476 -19.454  20.094  1.00  0.00     0.000 G0
ENDBRANCH   9  10
ENDBRANCH   3   8
TORSDOF 0
ENDMDL
MODEL 5
REMARK VINA RESULT:    -3.418      9.967     11.101
REMARK INTER + INTRA:          -3.453
REMARK INTER:                  -4.220
REMARK INTRA:                   0.767
REMARK UNBOUND:                 0.765
REMARK SMILES CC1=CC=CC(C)(C)CC1=O
REMARK SMILES IDX 1 1 2 2 3 3 10 4 11 5 9 6 4 8 5 9 6 10 7 11 8 12
REMARK H PARENT
REMARK Flexibility Score: 80.00
ROOT
ATOM      1  C   UNL     1       6.871 -17.616  16.306  1.00  0.00     0.048 C 
ATOM      2  C   UNL     1       7.595 -17.647  17.631  1.00  0.00    -0.008 C 
ATOM      3  C   UNL     1       7.019 -18.331  18.643  1.00  0.00     0.007 C 
ENDROOT
BRANCH   2   4
ATOM      4  C   UNL     1       8.922 -16.985  17.691  1.00  0.00     0.159 C 
ATOM      5  O   UNL     1       9.463 -16.608  16.615  1.00  0.00    -0.295 OA
BRANCH   4   6
ATOM      6  C   UNL     1       9.659 -16.724  18.968  1.00  0.00     0.091 CG0
ATOM      7  G   UNL     1       9.970 -18.011  19.766  1.00  0.00     0.000 G0
ENDBRANCH   4   6
ENDBRANCH   2   4
BRANCH   3   8
ATOM      8  C   UNL     1       7.495 -18.560  20.028  1.00  0.00    -0.003 C 
ATOM      9  C   UNL     1       8.732 -18.443  20.526  1.00  0.00    -0.020 C 
BRANCH   9  10
ATOM     10  C   UNL     1       9.966 -18.008  19.771  1.00  0.00    -0.010 CG0
ATOM     11  C   UNL     1      11.074 -17.681  20.799  1.00  0.00     0.016 C 
ATOM     12  C   UNL     1      10.471 -19.163  18.876  1.00  0.00     0.016 C 
ATOM     13  G   UNL     1       9.660 -16.724  18.968  1.00  0.00     0.000 G0
ENDBRANCH   9  10
ENDBRANCH   3   8
TORSDOF 0
ENDMDL
MODEL 6
REMARK VINA RESULT:    -3.296      8.757      9.733
REMARK INTER + INTRA:          -3.302
REMARK INTER:                  -4.055
REMARK INTRA:                   0.753
REMARK UNBOUND:                 0.765
REMARK SMILES CC1=CC=CC(C)(C)CC1=O
REMARK SMILES IDX 1 1 2 2 3 3 10 4 11 5 9 6 4 8 5 9 6 10 7 11 8 12
REMARK H PARENT
REMARK Flexibility Score: 80.00
ROOT
ATOM      1  C   UNL     1       6.666 -18.407  19.464  1.00  0.00     0.048 C 
ATOM      2  C   UNL     1       8.010 -18.272  20.140  1.00  0.00    -0.008 C 
ATOM      3  C   UNL     1       8.137 -17.327  21.096  1.00  0.00     0.007 C 
ENDROOT
BRANCH   2   4
ATOM      4  C   UNL     1       9.063 -19.243  19.749  1.00  0.00     0.159 C 
ATOM      5  O   UNL     1       8.738 -20.247  19.058  1.00  0.00    -0.295 OA
BRANCH   4   6
ATOM      6  C   UNL     1      10.505 -19.091  20.121  1.00  0.00     0.091 CG0
ATOM      7  G   UNL     1      10.741 -19.064  21.648  1.00  0.00     0.000 G0
ENDBRANCH   4   6
ENDBRANCH   2   4
BRANCH   3   8
ATOM      8  C   UNL     1       9.305 -16.980  21.941  1.00  0.00    -0.003 C 
ATOM      9  C   UNL     1      10.404 -17.700  22.198  1.00  0.00    -0.020 C 
BRANCH   9  10
ATOM     10  C   UNL     1      10.733 -19.066  21.644  1.00  0.00    -0.010 CG0
ATOM     11  C   UNL     1      12.233 -19.342  21.893  1.00  0.00     0.016 C 
ATOM     12  C   UNL     1       9.918 -20.147  22.390  1.00  0.00     0.016 C 
ATOM     13  G   UNL     1      10.487 -19.083  20.118  1.00  0.00     0.000 G0
ENDBRANCH   9  10
ENDBRANCH   3   8
TORSDOF 0
ENDMDL
MODEL 7
REMARK VINA RESULT:    -3.201      4.568      6.562
REMARK INTER + INTRA:          -3.185
REMARK INTER:                  -3.937
REMARK INTRA:                   0.751
REMARK UNBOUND:                 0.765
REMARK SMILES CC1=CC=CC(C)(C)CC1=O
REMARK SMILES IDX 1 1 2 2 3 3 10 4 11 5 9 6 4 8 5 9 6 10 7 11 8 12
REMARK H PARENT
REMARK Flexibility Score: 80.00
ROOT
ATOM      1  C   UNL     1       9.654 -11.381  23.518  1.00  0.00     0.048 C 
ATOM      2  C   UNL     1       8.516 -12.319  23.849  1.00  0.00    -0.008 C 
ATOM      3  C   UNL     1       7.374 -12.191  23.139  1.00  0.00     0.007 C 
ENDROOT
BRANCH   2   4
ATOM      4  C   UNL     1       8.774 -13.357  24.878  1.00  0.00     0.159 C 
ATOM      5  O   UNL     1       9.958 -13.540  25.273  1.00  0.00    -0.295 OA
BRANCH   4   6
ATOM      6  C   UNL     1       7.698 -14.200  25.488  1.00  0.00     0.091 CG0
ATOM      7  G   UNL     1       6.917 -15.038  24.451  1.00  0.00     0.000 G0
ENDBRANCH   4   6
ENDBRANCH   2   4
BRANCH   3   8
ATOM      8  C   UNL     1       6.116 -12.970  23.215  1.00  0.00    -0.003 C 
ATOM      9  C   UNL     1       5.901 -14.177  23.754  1.00  0.00    -0.020 C 
BRANCH   9  10
ATOM     10  C   UNL     1       6.922 -15.040  24.457  1.00  0.00    -0.010 CG0
ATOM     11  C   UNL     1       6.170 -16.148  25.231  1.00  0.00     0.016 C 
ATOM     12  C   UNL     1       7.841 -15.723  23.419  1.00  0.00     0.016 C 
ATOM     13  G   UNL     1       7.708 -14.189  25.480  1.00  0.00     0.000 G0
ENDBRANCH   9  10
ENDBRANCH   3   8
TORSDOF 0
ENDMDL
MODEL 8
REMARK VINA RESULT:    -3.190      3.074      4.816
REMARK INTER + INTRA:          -3.171
REMARK INTER:                  -3.922
REMARK INTRA:                   0.751
REMARK UNBOUND:                 0.765
REMARK SMILES CC1=CC=CC(C)(C)CC1=O
REMARK SMILES IDX 1 1 2 2 3 3 10 4 11 5 9 6 4 8 5 9 6 10 7 11 8 12
REMARK H PARENT
REMARK Flexibility Score: 80.00
ROOT
ATOM      1  C   UNL     1       5.478 -15.790  27.809  1.00  0.00     0.048 C 
ATOM      2  C   UNL     1       6.273 -15.202  26.667  1.00  0.00    -0.008 C 
ATOM      3  C   UNL     1       6.015 -15.660  25.424  1.00  0.00     0.007 C 
ENDROOT
BRANCH   2   4
ATOM      4  C   UNL     1       7.224 -14.111  26.999  1.00  0.00     0.159 C 
ATOM      5  O   UNL     1       7.180 -13.594  28.148  1.00  0.00    -0.295 OA
BRANCH   4   6
ATOM      6  C   UNL     1       8.250 -13.590  26.040  1.00  0.00     0.091 CG0
ATOM      7  G   UNL     1       7.637 -13.021  24.740  1.00  0.00     0.000 G0
ENDBRANCH   4   6
ENDBRANCH   2   4
BRANCH   3   8
ATOM      8  C   UNL     1       6.604 -15.264  24.123  1.00  0.00    -0.003 C 
ATOM      9  C   UNL     1       7.282 -14.153  23.807  1.00  0.00    -0.020 C 
BRANCH   9  10
ATOM     10  C   UNL     1       7.640 -13.023  24.742  1.00  0.00    -0.010 CG0
ATOM     11  C   UNL     1       8.720 -12.152  24.061  1.00  0.00     0.016 C 
ATOM     12  C   UNL     1       6.400 -12.135  24.996  1.00  0.00     0.016 C 
ATOM     13  G   UNL     1       8.238 -13.596  26.047  1.00  0.00     0.000 G0
ENDBRANCH   9  10
ENDBRANCH   3   8
TORSDOF 0
ENDMDL
MODEL 9
REMARK VINA RESULT:    -3.162      5.590      7.203
REMARK INTER + INTRA:          -3.137
REMARK INTER:                  -3.892
REMARK INTRA:                   0.755
REMARK UNBOUND:                 0.765
REMARK SMILES CC1=CC=CC(C)(C)CC1=O
REMARK SMILES IDX 1 1 2 2 3 3 10 4 11 5 9 6 4 8 5 9 6 10 7 11 8 12
REMARK H PARENT
REMARK Flexibility Score: 80.00
ROOT
ATOM      1  C   UNL     1      11.404 -13.735  22.671  1.00  0.00     0.048 C 
ATOM      2  C   UNL     1      10.038 -13.926  23.285  1.00  0.00    -0.008 C 
ATOM      3  C   UNL     1       9.876 -13.564  24.575  1.00  0.00     0.007 C 
ENDROOT
BRANCH   2   4
ATOM      4  C   UNL     1       8.962 -14.427  22.394  1.00  0.00     0.159 C 
ATOM      5  O   UNL     1       9.169 -14.465  21.150  1.00  0.00    -0.295 OA
BRANCH   4   6
ATOM      6  C   UNL     1       7.633 -14.907  22.892  1.00  0.00     0.091 CG0
ATOM      7  G   UNL     1       6.849 -13.828  23.672  1.00  0.00     0.000 G0
ENDBRANCH   4   6
ENDBRANCH   2   4
BRANCH   3   8
ATOM      8  C   UNL     1       8.666 -13.607  25.430  1.00  0.00    -0.003 C 
ATOM      9  C   UNL     1       7.380 -13.701  25.069  1.00  0.00    -0.020 C 
BRANCH   9  10
ATOM     10  C   UNL     1       6.850 -13.819  23.659  1.00  0.00    -0.010 CG0
ATOM     11  C   UNL     1       5.371 -14.264  23.733  1.00  0.00     0.016 C 
ATOM     12  C   UNL     1       6.899 -12.442  22.960  1.00  0.00     0.016 C 
ATOM     13  G   UNL     1       7.641 -14.904  22.895  1.00  0.00     0.000 G0
ENDBRANCH   9  10
ENDBRANCH   3   8
TORSDOF 0
ENDMDL
