MODEL 1
REMARK VINA RESULT:    -3.989      0.000      0.000
REMARK INTER + INTRA:          -6.320
REMARK INTER:                  -6.088
REMARK INTRA:                  -0.232
REMARK UNBOUND:                -0.232
REMARK SMILES CC1=CCC[C@@H](C)C(=O)C[C@@H](C(C)C)C(=O)C1
REMARK SMILES IDX 8 1 9 2 6 3 7 4 5 5 4 6 3 7 2 8 1 9 10 11 11 12 15 13 16 14
REMARK SMILES IDX 17 15 12 17 13 18 14 19
REMARK H PARENT
REMARK Flexibility Score: 70.00
ROOT
ATOM      1  C   UNL     1      -2.959  -1.611  -2.040  1.00  0.00     0.136 C 
ATOM      2  O   UNL     1      -3.779  -1.775  -2.932  1.00  0.00    -0.299 OA
ENDROOT
BRANCH   1   3
ATOM      3  C   UNL     1      -1.645  -0.922  -2.347  1.00  0.00     0.053 C 
ATOM      4  C   UNL     1      -1.165  -1.342  -3.741  1.00  0.00     0.016 C 
BRANCH   3   5
ATOM      5  C   UNL     1      -0.556  -1.239  -1.293  1.00  0.00     0.015 C 
BRANCH   5   6
ATOM      6  C   UNL     1      -0.138  -0.030  -0.442  1.00  0.00     0.028 C 
BRANCH   6   7
ATOM      7  C   UNL     1       0.210  -0.440   0.970  1.00  0.00    -0.028 C 
ATOM      8  C   UNL     1      -0.628  -0.366   2.028  1.00  0.00    -0.070 CG0
ATOM      9  C   UNL     1      -0.122  -0.838   3.368  1.00  0.00     0.039 C 
ATOM     10  G   UNL     1      -2.048   0.163   1.922  1.00  0.00     0.000 G0
ENDBRANCH   6   7
ENDBRANCH   5   6
ENDBRANCH   3   5
ENDBRANCH   1   3
BRANCH   1  11
ATOM     11  C   UNL     1      -3.302  -2.057  -0.637  1.00  0.00     0.087 C 
BRANCH  11  12
ATOM     12  C   UNL     1      -3.831  -0.911   0.262  1.00  0.00     0.066 C 
BRANCH  12  13
ATOM     13  C   UNL     1      -3.101  -0.867   1.602  1.00  0.00     0.140 C 
ATOM     14  O   UNL     1      -3.393  -1.684   2.463  1.00  0.00    -0.299 OA
BRANCH  13  15
ATOM     15  C   UNL     1      -2.057   0.178   1.940  1.00  0.00     0.106 CG0
ATOM     16  G   UNL     1      -0.637  -0.357   2.007  1.00  0.00     0.000 G0
ENDBRANCH  13  15
ENDBRANCH  12  13
BRANCH  12  17
ATOM     17  C   UNL     1      -5.382  -0.981   0.425  1.00  0.00    -0.006 C 
ATOM     18  C   UNL     1      -6.154   0.025  -0.447  1.00  0.00     0.008 C 
ATOM     19  C   UNL     1      -5.908  -2.401   0.166  1.00  0.00     0.008 C 
ENDBRANCH  12  17
ENDBRANCH  11  12
ENDBRANCH   1  11
TORSDOF 1
ENDMDL
MODEL 2
REMARK VINA RESULT:    -3.819      1.603      4.023
REMARK INTER + INTRA:          -6.061
REMARK INTER:                  -5.898
REMARK INTRA:                  -0.164
REMARK UNBOUND:                -0.232
REMARK SMILES CC1=CCC[C@@H](C)C(=O)C[C@@H](C(C)C)C(=O)C1
REMARK SMILES IDX 8 1 9 2 6 3 7 4 5 5 4 6 3 7 2 8 1 9 10 11 11 12 15 13 16 14
REMARK SMILES IDX 17 15 12 17 13 18 14 19
REMARK H PARENT
REMARK Flexibility Score: 70.00
ROOT
ATOM      1  C   UNL     1      -3.025  -0.484   1.731  1.00  0.00     0.136 C 
ATOM      2  O   UNL     1      -3.834  -0.206   2.604  1.00  0.00    -0.299 OA
ENDROOT
BRANCH   1   3
ATOM      3  C   UNL     1      -1.667  -1.034   2.116  1.00  0.00     0.053 C 
ATOM      4  C   UNL     1      -1.522  -1.006   3.641  1.00  0.00     0.016 C 
BRANCH   3   5
ATOM      5  C   UNL     1      -0.507  -0.245   1.458  1.00  0.00     0.015 C 
BRANCH   5   6
ATOM      6  C   UNL     1       0.241  -1.027   0.367  1.00  0.00     0.028 C 
BRANCH   6   7
ATOM      7  C   UNL     1      -0.034  -0.462  -1.006  1.00  0.00    -0.028 C 
ATOM      8  C   UNL     1      -0.910  -0.980  -1.898  1.00  0.00    -0.070 CG0
ATOM      9  C   UNL     1      -1.075  -0.276  -3.221  1.00  0.00     0.039 C 
ATOM     10  G   UNL     1      -1.729  -2.229  -1.620  1.00  0.00     0.000 G0
ENDBRANCH   6   7
ENDBRANCH   5   6
ENDBRANCH   3   5
ENDBRANCH   1   3
BRANCH   1  11
ATOM     11  C   UNL     1      -3.423  -0.319   0.282  1.00  0.00     0.087 C 
BRANCH  11  12
ATOM     12  C   UNL     1      -4.001  -1.610  -0.349  1.00  0.00     0.066 C 
BRANCH  12  13
ATOM     13  C   UNL     1      -3.235  -2.011  -1.607  1.00  0.00     0.140 C 
ATOM     14  O   UNL     1      -3.854  -2.201  -2.643  1.00  0.00    -0.299 OA
BRANCH  13  15
ATOM     15  C   UNL     1      -1.736  -2.234  -1.625  1.00  0.00     0.106 CG0
ATOM     16  G   UNL     1      -0.921  -0.980  -1.886  1.00  0.00     0.000 G0
ENDBRANCH  13  15
ENDBRANCH  12  13
BRANCH  12  17
ATOM     17  C   UNL     1      -5.538  -1.489  -0.595  1.00  0.00    -0.006 C 
ATOM     18  C   UNL     1      -6.390  -2.459   0.242  1.00  0.00     0.008 C 
ATOM     19  C   UNL     1      -6.027  -0.049  -0.377  1.00  0.00     0.008 C 
ENDBRANCH  12  17
ENDBRANCH  11  12
ENDBRANCH   1  11
TORSDOF 1
ENDMDL
MODEL 3
REMARK VINA RESULT:    -3.811      2.015      4.372
REMARK INTER + INTRA:          -6.048
REMARK INTER:                  -5.757
REMARK INTRA:                  -0.291
REMARK UNBOUND:                -0.232
REMARK SMILES CC1=CCC[C@@H](C)C(=O)C[C@@H](C(C)C)C(=O)C1
REMARK SMILES IDX 8 1 9 2 6 3 7 4 5 5 4 6 3 7 2 8 1 9 10 11 11 12 15 13 16 14
REMARK SMILES IDX 17 15 12 17 13 18 14 19
REMARK H PARENT
REMARK Flexibility Score: 70.00
ROOT
ATOM      1  C   UNL     1      -0.897  -1.035  -0.888  1.00  0.00     0.136 C 
ATOM      2  O   UNL     1       0.040  -0.517  -1.478  1.00  0.00    -0.299 OA
ENDROOT
BRANCH   1   3
ATOM      3  C   UNL     1      -1.536  -2.288  -1.452  1.00  0.00     0.053 C 
ATOM      4  C   UNL     1      -0.532  -3.005  -2.361  1.00  0.00     0.016 C 
BRANCH   3   5
ATOM      5  C   UNL     1      -2.836  -1.982  -2.236  1.00  0.00     0.015 C 
BRANCH   5   6
ATOM      6  C   UNL     1      -4.068  -2.746  -1.727  1.00  0.00     0.028 C 
BRANCH   6   7
ATOM      7  C   UNL     1      -5.144  -1.803  -1.241  1.00  0.00    -0.028 C 
ATOM      8  C   UNL     1      -5.377  -1.493   0.054  1.00  0.00    -0.070 CG0
ATOM      9  C   UNL     1      -6.483  -0.514   0.360  1.00  0.00     0.039 C 
ATOM     10  G   UNL     1      -4.575  -2.080   1.202  1.00  0.00     0.000 G0
ENDBRANCH   6   7
ENDBRANCH   5   6
ENDBRANCH   3   5
ENDBRANCH   1   3
BRANCH   1  11
ATOM     11  C   UNL     1      -1.362  -0.438   0.420  1.00  0.00     0.087 C 
BRANCH  11  12
ATOM     12  C   UNL     1      -1.973  -1.479   1.391  1.00  0.00     0.066 C 
BRANCH  12  13
ATOM     13  C   UNL     1      -3.440  -1.178   1.686  1.00  0.00     0.140 C 
ATOM     14  O   UNL     1      -3.720  -0.200   2.363  1.00  0.00    -0.299 OA
BRANCH  13  15
ATOM     15  C   UNL     1      -4.576  -2.065   1.217  1.00  0.00     0.106 CG0
ATOM     16  G   UNL     1      -5.366  -1.502   0.048  1.00  0.00     0.000 G0
ENDBRANCH  13  15
ENDBRANCH  12  13
BRANCH  12  17
ATOM     17  C   UNL     1      -1.117  -1.624   2.688  1.00  0.00    -0.006 C 
ATOM     18  C   UNL     1      -0.219  -2.873   2.716  1.00  0.00     0.008 C 
ATOM     19  C   UNL     1      -0.268  -0.369   2.939  1.00  0.00     0.008 C 
ENDBRANCH  12  17
ENDBRANCH  11  12
ENDBRANCH   1  11
TORSDOF 1
ENDMDL
MODEL 4
REMARK VINA RESULT:    -3.793      1.290      1.604
REMARK INTER + INTRA:          -6.021
REMARK INTER:                  -6.012
REMARK INTRA:                  -0.009
REMARK UNBOUND:                -0.232
REMARK SMILES CC1=CCC[C@@H](C)C(=O)C[C@@H](C(C)C)C(=O)C1
REMARK SMILES IDX 8 1 9 2 6 3 7 4 5 5 4 6 3 7 2 8 1 9 10 11 11 12 15 13 16 14
REMARK SMILES IDX 17 15 12 17 13 18 14 19
REMARK H PARENT
REMARK Flexibility Score: 70.00
ROOT
ATOM      1  C   UNL     1      -3.856  -1.921  -0.739  1.00  0.00     0.136 C 
ATOM      2  O   UNL     1      -4.518  -2.671  -1.441  1.00  0.00    -0.299 OA
ENDROOT
BRANCH   1   3
ATOM      3  C   UNL     1      -2.721  -1.127  -1.354  1.00  0.00     0.053 C 
ATOM      4  C   UNL     1      -2.950  -0.999  -2.864  1.00  0.00     0.016 C 
BRANCH   3   5
ATOM      5  C   UNL     1      -1.340  -1.771  -1.079  1.00  0.00     0.015 C 
BRANCH   5   6
ATOM      6  C   UNL     1      -0.230  -0.758  -0.754  1.00  0.00     0.028 C 
BRANCH   6   7
ATOM      7  C   UNL     1       0.378  -1.019   0.604  1.00  0.00    -0.028 C 
ATOM      8  C   UNL     1      -0.115  -0.558   1.776  1.00  0.00    -0.070 CG0
ATOM      9  C   UNL     1       0.611  -0.931   3.045  1.00  0.00     0.039 C 
ATOM     10  G   UNL     1      -1.359   0.307   1.866  1.00  0.00     0.000 G0
ENDBRANCH   6   7
ENDBRANCH   5   6
ENDBRANCH   3   5
ENDBRANCH   1   3
BRANCH   1  11
ATOM     11  C   UNL     1      -4.222  -1.766   0.719  1.00  0.00     0.087 C 
BRANCH  11  12
ATOM     12  C   UNL     1      -3.873  -0.372   1.298  1.00  0.00     0.066 C 
BRANCH  12  13
ATOM     13  C   UNL     1      -2.636  -0.428   2.190  1.00  0.00     0.140 C 
ATOM     14  O   UNL     1      -2.684  -1.068   3.230  1.00  0.00    -0.299 OA
BRANCH  13  15
ATOM     15  C   UNL     1      -1.354   0.315   1.872  1.00  0.00     0.106 CG0
ATOM     16  G   UNL     1      -0.124  -0.572   1.785  1.00  0.00     0.000 G0
ENDBRANCH  13  15
ENDBRANCH  12  13
BRANCH  12  17
ATOM     17  C   UNL     1      -5.101   0.275   2.013  1.00  0.00    -0.006 C 
ATOM     18  C   UNL     1      -4.855   1.706   2.521  1.00  0.00     0.008 C 
ATOM     19  C   UNL     1      -6.347   0.250   1.115  1.00  0.00     0.008 C 
ENDBRANCH  12  17
ENDBRANCH  11  12
ENDBRANCH   1  11
TORSDOF 1
ENDMDL
MODEL 5
REMARK VINA RESULT:    -3.740      1.839      4.229
REMARK INTER + INTRA:          -5.940
REMARK INTER:                  -5.823
REMARK INTRA:                  -0.117
REMARK UNBOUND:                -0.232
REMARK SMILES CC1=CCC[C@@H](C)C(=O)C[C@@H](C(C)C)C(=O)C1
REMARK SMILES IDX 8 1 9 2 6 3 7 4 5 5 4 6 3 7 2 8 1 9 10 11 11 12 15 13 16 14
REMARK SMILES IDX 17 15 12 17 13 18 14 19
REMARK H PARENT
REMARK Flexibility Score: 70.00
ROOT
ATOM      1  C   UNL     1      -2.965  -2.033  -1.683  1.00  0.00     0.136 C 
ATOM      2  O   UNL     1      -2.362  -2.660  -2.542  1.00  0.00    -0.299 OA
ENDROOT
BRANCH   1   3
ATOM      3  C   UNL     1      -4.368  -2.455  -1.294  1.00  0.00     0.053 C 
ATOM      4  C   UNL     1      -4.982  -3.282  -2.427  1.00  0.00     0.016 C 
BRANCH   3   5
ATOM      5  C   UNL     1      -5.275  -1.243  -0.969  1.00  0.00     0.015 C 
BRANCH   5   6
ATOM      6  C   UNL     1      -5.964  -1.326   0.402  1.00  0.00     0.028 C 
BRANCH   6   7
ATOM      7  C   UNL     1      -5.832  -0.031   1.169  1.00  0.00    -0.028 C 
ATOM      8  C   UNL     1      -4.801   0.287   1.984  1.00  0.00    -0.070 CG0
ATOM      9  C   UNL     1      -4.821   1.636   2.658  1.00  0.00     0.039 C 
ATOM     10  G   UNL     1      -3.633  -0.648   2.242  1.00  0.00     0.000 G0
ENDBRANCH   6   7
ENDBRANCH   5   6
ENDBRANCH   3   5
ENDBRANCH   1   3
BRANCH   1  11
ATOM     11  C   UNL     1      -2.272  -0.880  -0.993  1.00  0.00     0.087 C 
BRANCH  11  12
ATOM     12  C   UNL     1      -1.759  -1.230   0.427  1.00  0.00     0.066 C 
BRANCH  12  13
ATOM     13  C   UNL     1      -2.358  -0.304   1.483  1.00  0.00     0.140 C 
ATOM     14  O   UNL     1      -1.784   0.741   1.749  1.00  0.00    -0.299 OA
BRANCH  13  15
ATOM     15  C   UNL     1      -3.615  -0.641   2.260  1.00  0.00     0.106 CG0
ATOM     16  G   UNL     1      -4.792   0.275   1.971  1.00  0.00     0.000 G0
ENDBRANCH  13  15
ENDBRANCH  12  13
BRANCH  12  17
ATOM     17  C   UNL     1      -0.200  -1.271   0.479  1.00  0.00    -0.006 C 
ATOM     18  C   UNL     1       0.396  -2.689   0.445  1.00  0.00     0.008 C 
ATOM     19  C   UNL     1       0.419  -0.422  -0.642  1.00  0.00     0.008 C 
ENDBRANCH  12  17
ENDBRANCH  11  12
ENDBRANCH   1  11
TORSDOF 1
ENDMDL
MODEL 6
REMARK VINA RESULT:    -3.728      2.018      4.966
REMARK INTER + INTRA:          -5.922
REMARK INTER:                  -5.789
REMARK INTRA:                  -0.133
REMARK UNBOUND:                -0.232
REMARK SMILES CC1=CCC[C@@H](C)C(=O)C[C@@H](C(C)C)C(=O)C1
REMARK SMILES IDX 8 1 9 2 6 3 7 4 5 5 4 6 3 7 2 8 1 9 10 11 11 12 15 13 16 14
REMARK SMILES IDX 17 15 12 17 13 18 14 19
REMARK H PARENT
REMARK Flexibility Score: 70.00
ROOT
ATOM      1  C   UNL     1      -4.017  -0.268   1.498  1.00  0.00     0.136 C 
ATOM      2  O   UNL     1      -4.293   0.613   2.299  1.00  0.00    -0.299 OA
ENDROOT
BRANCH   1   3
ATOM      3  C   UNL     1      -4.938  -0.526   0.323  1.00  0.00     0.053 C 
ATOM      4  C   UNL     1      -6.118   0.449   0.378  1.00  0.00     0.016 C 
BRANCH   3   5
ATOM      5  C   UNL     1      -5.456  -1.985   0.293  1.00  0.00     0.015 C 
BRANCH   5   6
ATOM      6  C   UNL     1      -4.760  -2.876  -0.748  1.00  0.00     0.028 C 
BRANCH   6   7
ATOM      7  C   UNL     1      -4.078  -2.051  -1.814  1.00  0.00    -0.028 C 
ATOM      8  C   UNL     1      -2.751  -1.798  -1.870  1.00  0.00    -0.070 CG0
ATOM      9  C   UNL     1      -2.235  -0.969  -3.019  1.00  0.00     0.039 C 
ATOM     10  G   UNL     1      -1.768  -2.315  -0.834  1.00  0.00     0.000 G0
ENDBRANCH   6   7
ENDBRANCH   5   6
ENDBRANCH   3   5
ENDBRANCH   1   3
BRANCH   1  11
ATOM     11  C   UNL     1      -2.733  -1.045   1.675  1.00  0.00     0.087 C 
BRANCH  11  12
ATOM     12  C   UNL     1      -1.511  -0.380   0.994  1.00  0.00     0.066 C 
BRANCH  12  13
ATOM     13  C   UNL     1      -0.947  -1.253  -0.125  1.00  0.00     0.140 C 
ATOM     14  O   UNL     1       0.199  -1.065  -0.502  1.00  0.00    -0.299 OA
BRANCH  13  15
ATOM     15  C   UNL     1      -1.762  -2.319  -0.830  1.00  0.00     0.106 CG0
ATOM     16  G   UNL     1      -2.756  -1.778  -1.842  1.00  0.00     0.000 G0
ENDBRANCH  13  15
ENDBRANCH  12  13
BRANCH  12  17
ATOM     17  C   UNL     1      -0.427   0.032   2.039  1.00  0.00    -0.006 C 
ATOM     18  C   UNL     1      -0.385   1.539   2.345  1.00  0.00     0.008 C 
ATOM     19  C   UNL     1      -0.583  -0.759   3.346  1.00  0.00     0.008 C 
ENDBRANCH  12  17
ENDBRANCH  11  12
ENDBRANCH   1  11
TORSDOF 1
ENDMDL
MODEL 7
REMARK VINA RESULT:    -3.671      2.096      5.247
REMARK INTER + INTRA:          -5.836
REMARK INTER:                  -6.076
REMARK INTRA:                   0.241
REMARK UNBOUND:                -0.232
REMARK SMILES CC1=CCC[C@@H](C)C(=O)C[C@@H](C(C)C)C(=O)C1
REMARK SMILES IDX 8 1 9 2 6 3 7 4 5 5 4 6 3 7 2 8 1 9 10 11 11 12 15 13 16 14
REMARK SMILES IDX 17 15 12 17 13 18 14 19
REMARK H PARENT
REMARK Flexibility Score: 70.00
ROOT
ATOM      1  C   UNL     1      -1.177  -0.537   1.257  1.00  0.00     0.136 C 
ATOM      2  O   UNL     1      -0.357   0.348   1.059  1.00  0.00    -0.299 OA
ENDROOT
BRANCH   1   3
ATOM      3  C   UNL     1      -2.067  -0.472   2.483  1.00  0.00     0.053 C 
ATOM      4  C   UNL     1      -1.331  -1.087   3.678  1.00  0.00     0.016 C 
BRANCH   3   5
ATOM      5  C   UNL     1      -3.419  -1.193   2.263  1.00  0.00     0.015 C 
BRANCH   5   6
ATOM      6  C   UNL     1      -4.469  -0.345   1.528  1.00  0.00     0.028 C 
BRANCH   6   7
ATOM      7  C   UNL     1      -5.491  -1.211   0.830  1.00  0.00    -0.028 C 
ATOM      8  C   UNL     1      -5.491  -1.501  -0.490  1.00  0.00    -0.070 CG0
ATOM      9  C   UNL     1      -6.581  -2.401  -1.018  1.00  0.00     0.039 C 
ATOM     10  G   UNL     1      -4.446  -0.967  -1.454  1.00  0.00     0.000 G0
ENDBRANCH   6   7
ENDBRANCH   5   6
ENDBRANCH   3   5
ENDBRANCH   1   3
BRANCH   1  11
ATOM     11  C   UNL     1      -1.317  -1.648   0.243  1.00  0.00     0.087 C 
BRANCH  11  12
ATOM     12  C   UNL     1      -1.793  -1.158  -1.148  1.00  0.00     0.066 C 
BRANCH  12  13
ATOM     13  C   UNL     1      -3.144  -1.760  -1.523  1.00  0.00     0.140 C 
ATOM     14  O   UNL     1      -3.189  -2.916  -1.917  1.00  0.00    -0.299 OA
BRANCH  13  15
ATOM     15  C   UNL     1      -4.440  -0.976  -1.475  1.00  0.00     0.106 CG0
ATOM     16  G   UNL     1      -5.463  -1.518  -0.492  1.00  0.00     0.000 G0
ENDBRANCH  13  15
ENDBRANCH  12  13
BRANCH  12  17
ATOM     17  C   UNL     1      -0.705  -1.395  -2.241  1.00  0.00    -0.006 C 
ATOM     18  C   UNL     1      -0.000  -2.760  -2.145  1.00  0.00     0.008 C 
ATOM     19  C   UNL     1      -1.281  -1.207  -3.653  1.00  0.00     0.008 C 
ENDBRANCH  12  17
ENDBRANCH  11  12
ENDBRANCH   1  11
TORSDOF 1
ENDMDL
MODEL 8
REMARK VINA RESULT:    -3.636      1.637      3.899
REMARK INTER + INTRA:          -5.782
REMARK INTER:                  -5.720
REMARK INTRA:                  -0.062
REMARK UNBOUND:                -0.232
REMARK SMILES CC1=CCC[C@@H](C)C(=O)C[C@@H](C(C)C)C(=O)C1
REMARK SMILES IDX 8 1 9 2 6 3 7 4 5 5 4 6 3 7 2 8 1 9 10 11 11 12 15 13 16 14
REMARK SMILES IDX 17 15 12 17 13 18 14 19
REMARK H PARENT
REMARK Flexibility Score: 70.00
ROOT
ATOM      1  C   UNL     1      -3.902  -2.317  -1.196  1.00  0.00     0.136 C 
ATOM      2  O   UNL     1      -4.139  -3.143  -2.066  1.00  0.00    -0.299 OA
ENDROOT
BRANCH   1   3
ATOM      3  C   UNL     1      -4.740  -2.298   0.067  1.00  0.00     0.053 C 
ATOM      4  C   UNL     1      -6.168  -1.863  -0.278  1.00  0.00     0.016 C 
BRANCH   3   5
ATOM      5  C   UNL     1      -4.146  -1.364   1.149  1.00  0.00     0.015 C 
BRANCH   5   6
ATOM      6  C   UNL     1      -3.270  -2.084   2.186  1.00  0.00     0.028 C 
BRANCH   6   7
ATOM      7  C   UNL     1      -2.311  -1.130   2.859  1.00  0.00    -0.028 C 
ATOM      8  C   UNL     1      -1.012  -0.967   2.520  1.00  0.00    -0.070 CG0
ATOM      9  C   UNL     1      -0.201   0.047   3.289  1.00  0.00     0.039 C 
ATOM     10  G   UNL     1      -0.345  -1.751   1.404  1.00  0.00     0.000 G0
ENDBRANCH   6   7
ENDBRANCH   5   6
ENDBRANCH   3   5
ENDBRANCH   1   3
BRANCH   1  11
ATOM     11  C   UNL     1      -2.741  -1.367  -1.383  1.00  0.00     0.087 C 
BRANCH  11  12
ATOM     12  C   UNL     1      -1.367  -2.000  -1.049  1.00  0.00     0.066 C 
BRANCH  12  13
ATOM     13  C   UNL     1      -0.623  -1.198   0.015  1.00  0.00     0.140 C 
ATOM     14  O   UNL     1      -0.205  -0.084  -0.266  1.00  0.00    -0.299 OA
BRANCH  13  15
ATOM     15  C   UNL     1      -0.333  -1.735   1.403  1.00  0.00     0.106 CG0
ATOM     16  G   UNL     1      -1.002  -0.961   2.525  1.00  0.00     0.000 G0
ENDBRANCH  13  15
ENDBRANCH  12  13
BRANCH  12  17
ATOM     17  C   UNL     1      -0.513  -2.226  -2.336  1.00  0.00    -0.006 C 
ATOM     18  C   UNL     1      -0.257  -3.705  -2.673  1.00  0.00     0.008 C 
ATOM     19  C   UNL     1      -1.134  -1.518  -3.550  1.00  0.00     0.008 C 
ENDBRANCH  12  17
ENDBRANCH  11  12
ENDBRANCH   1  11
TORSDOF 1
ENDMDL
MODEL 9
REMARK VINA RESULT:    -3.543      2.075      4.698
REMARK INTER + INTRA:          -5.640
REMARK INTER:                  -5.368
REMARK INTRA:                  -0.272
REMARK UNBOUND:                -0.232
REMARK SMILES CC1=CCC[C@@H](C)C(=O)C[C@@H](C(C)C)C(=O)C1
REMARK SMILES IDX 8 1 9 2 6 3 7 4 5 5 4 6 3 7 2 8 1 9 10 11 11 12 15 13 16 14
REMARK SMILES IDX 17 15 12 17 13 18 14 19
REMARK H PARENT
REMARK Flexibility Score: 70.00
ROOT
ATOM      1  C   UNL     1      -3.395  -0.246   2.022  1.00  0.00     0.136 C 
ATOM      2  O   UNL     1      -3.204   0.953   2.166  1.00  0.00    -0.299 OA
ENDROOT
BRANCH   1   3
ATOM      3  C   UNL     1      -4.566  -0.722   1.187  1.00  0.00     0.053 C 
ATOM      4  C   UNL     1      -4.591  -2.254   1.173  1.00  0.00     0.016 C 
BRANCH   3   5
ATOM      5  C   UNL     1      -4.511  -0.179  -0.263  1.00  0.00     0.015 C 
BRANCH   5   6
ATOM      6  C   UNL     1      -3.607  -0.993  -1.202  1.00  0.00     0.028 C 
BRANCH   6   7
ATOM      7  C   UNL     1      -2.303  -0.278  -1.471  1.00  0.00    -0.028 C 
ATOM      8  C   UNL     1      -1.111  -0.604  -0.923  1.00  0.00    -0.070 CG0
ATOM      9  C   UNL     1       0.097   0.207  -1.319  1.00  0.00     0.039 C 
ATOM     10  G   UNL     1      -0.940  -1.747   0.063  1.00  0.00     0.000 G0
ENDBRANCH   6   7
ENDBRANCH   5   6
ENDBRANCH   3   5
ENDBRANCH   1   3
BRANCH   1  11
ATOM     11  C   UNL     1      -2.424  -1.224   2.642  1.00  0.00     0.087 C 
BRANCH  11  12
ATOM     12  C   UNL     1      -0.946  -0.765   2.553  1.00  0.00     0.066 C 
BRANCH  12  13
ATOM     13  C   UNL     1      -0.232  -1.402   1.364  1.00  0.00     0.140 C 
ATOM     14  O   UNL     1       0.971  -1.604   1.434  1.00  0.00    -0.299 OA
BRANCH  13  15
ATOM     15  C   UNL     1      -0.937  -1.756   0.070  1.00  0.00     0.106 CG0
ATOM     16  G   UNL     1      -1.096  -0.592  -0.893  1.00  0.00     0.000 G0
ENDBRANCH  13  15
ENDBRANCH  12  13
BRANCH  12  17
ATOM     17  C   UNL     1      -0.193  -0.997   3.900  1.00  0.00    -0.006 C 
ATOM     18  C   UNL     1       0.441   0.273   4.496  1.00  0.00     0.008 C 
ATOM     19  C   UNL     1      -1.105  -1.659   4.944  1.00  0.00     0.008 C 
ENDBRANCH  12  17
ENDBRANCH  11  12
ENDBRANCH   1  11
TORSDOF 1
ENDMDL
