MODEL 1
REMARK VINA RESULT:    -7.222      0.000      0.000
REMARK INTER + INTRA:          -8.604
REMARK INTER:                  -8.488
REMARK INTRA:                  -0.115
REMARK UNBOUND:                -0.115
REMARK SMILES O=c1c(O)c(-c2ccc(O)c(O)c2)oc2cc(O)ccc12
REMARK SMILES IDX 5 1 3 2 2 3 1 4 21 5 15 6 14 7 16 8 17 9 19 10 20 11 6 12
REMARK SMILES IDX 7 13 8 14 9 15 13 16 11 17 10 18 12 20 4 22 18 24
REMARK H PARENT 10 19 12 21 4 23 18 25
REMARK Flexibility Score: inf
ROOT
ATOM      1  C   UNL     1       2.014  35.233  46.186  1.00  0.00     0.180 A 
ATOM      2  C   UNL     1       1.474  36.222  45.338  1.00  0.00     0.208 A 
ATOM      3  C   UNL     1       1.759  36.164  43.965  1.00  0.00     0.235 A 
ATOM      4  O   UNL     1       1.296  37.042  43.186  1.00  0.00    -0.285 OA
ATOM      5  C   UNL     1       2.554  35.118  43.469  1.00  0.00     0.069 A 
ATOM      6  C   UNL     1       3.038  34.155  44.380  1.00  0.00     0.142 A 
ATOM      7  O   UNL     1       2.751  34.251  45.673  1.00  0.00    -0.452 OA
ATOM      8  C   UNL     1       3.825  33.093  43.922  1.00  0.00     0.094 A 
ATOM      9  C   UNL     1       4.138  32.982  42.560  1.00  0.00     0.119 A 
ATOM     10  C   UNL     1       3.662  33.936  41.656  1.00  0.00     0.047 A 
ATOM     11  C   UNL     1       2.873  35.001  42.103  1.00  0.00     0.020 A 
ENDROOT
BRANCH   1  12
ATOM     12  C   UNL     1       1.775  35.235  47.648  1.00  0.00     0.025 A 
ATOM     13  C   UNL     1       2.197  36.333  48.413  1.00  0.00     0.016 A 
ATOM     14  C   UNL     1       1.964  36.367  49.790  1.00  0.00     0.051 A 
ATOM     15  C   UNL     1       1.292  35.312  50.420  1.00  0.00     0.157 A 
ATOM     16  C   UNL     1       1.083  34.187  48.280  1.00  0.00     0.062 A 
ATOM     17  C   UNL     1       0.845  34.219  49.658  1.00  0.00     0.158 A 
BRANCH  15  18
ATOM     18  O   UNL     1       1.062  35.347  51.795  1.00  0.00    -0.504 OA
ATOM     19  H   UNL     1       0.363  34.756  52.231  1.00  0.00     0.293 HD
ENDBRANCH  15  18
BRANCH  17  20
ATOM     20  O   UNL     1       0.160  33.159  50.253  1.00  0.00    -0.504 OA
ATOM     21  H   UNL     1       0.106  32.244  49.822  1.00  0.00     0.293 HD
ENDBRANCH  17  20
ENDBRANCH   1  12
BRANCH   2  22
ATOM     22  O   UNL     1       0.645  37.221  45.853  1.00  0.00    -0.502 OA
ATOM     23  H   UNL     1       1.010  38.031  46.340  1.00  0.00     0.293 HD
ENDBRANCH   2  22
BRANCH   9  24
ATOM     24  O   UNL     1       4.923  31.927  42.096  1.00  0.00    -0.508 OA
ATOM     25  H   UNL     1       5.455  32.002  41.238  1.00  0.00     0.293 HD
ENDBRANCH   9  24
TORSDOF 5
ENDMDL
MODEL 2
REMARK VINA RESULT:    -7.082      1.389      3.223
REMARK INTER + INTRA:          -8.439
REMARK INTER:                  -8.405
REMARK INTRA:                  -0.034
REMARK UNBOUND:                -0.115
REMARK SMILES O=c1c(O)c(-c2ccc(O)c(O)c2)oc2cc(O)ccc12
REMARK SMILES IDX 5 1 3 2 2 3 1 4 21 5 15 6 14 7 16 8 17 9 19 10 20 11 6 12
REMARK SMILES IDX 7 13 8 14 9 15 13 16 11 17 10 18 12 20 4 22 18 24
REMARK H PARENT 10 19 12 21 4 23 18 25
REMARK Flexibility Score: inf
ROOT
ATOM      1  C   UNL     1       1.871  35.616  46.243  1.00  0.00     0.180 A 
ATOM      2  C   UNL     1       2.457  34.568  45.503  1.00  0.00     0.208 A 
ATOM      3  C   UNL     1       2.603  34.720  44.115  1.00  0.00     0.235 A 
ATOM      4  O   UNL     1       3.116  33.793  43.429  1.00  0.00    -0.285 OA
ATOM      5  C   UNL     1       2.181  35.912  43.503  1.00  0.00     0.069 A 
ATOM      6  C   UNL     1       1.625  36.921  44.317  1.00  0.00     0.142 A 
ATOM      7  O   UNL     1       1.498  36.735  45.626  1.00  0.00    -0.452 OA
ATOM      8  C   UNL     1       1.202  38.126  43.746  1.00  0.00     0.094 A 
ATOM      9  C   UNL     1       1.326  38.335  42.365  1.00  0.00     0.119 A 
ATOM     10  C   UNL     1       1.875  37.335  41.557  1.00  0.00     0.047 A 
ATOM     11  C   UNL     1       2.302  36.127  42.118  1.00  0.00     0.020 A 
ENDROOT
BRANCH   1  12
ATOM     12  C   UNL     1       1.667  35.525  47.707  1.00  0.00     0.025 A 
ATOM     13  C   UNL     1       2.082  36.584  48.529  1.00  0.00     0.016 A 
ATOM     14  C   UNL     1       1.880  36.529  49.910  1.00  0.00     0.051 A 
ATOM     15  C   UNL     1       1.248  35.422  50.489  1.00  0.00     0.157 A 
ATOM     16  C   UNL     1       1.013  34.424  48.289  1.00  0.00     0.062 A 
ATOM     17  C   UNL     1       0.808  34.367  49.672  1.00  0.00     0.158 A 
BRANCH  15  18
ATOM     18  O   UNL     1       1.050  35.368  51.868  1.00  0.00    -0.504 OA
ATOM     19  H   UNL     1       0.126  35.462  52.275  1.00  0.00     0.293 HD
ENDBRANCH  15  18
BRANCH  17  20
ATOM     20  O   UNL     1       0.161  33.256  50.216  1.00  0.00    -0.504 OA
ATOM     21  H   UNL     1       0.122  33.091  51.213  1.00  0.00     0.293 HD
ENDBRANCH  17  20
ENDBRANCH   1  12
BRANCH   2  22
ATOM     22  O   UNL     1       2.914  33.415  46.147  1.00  0.00    -0.502 OA
ATOM     23  H   UNL     1       3.104  33.389  47.141  1.00  0.00     0.293 HD
ENDBRANCH   2  22
BRANCH   9  24
ATOM     24  O   UNL     1       0.906  39.532  41.788  1.00  0.00    -0.508 OA
ATOM     25  H   UNL     1       0.135  40.064  42.174  1.00  0.00     0.293 HD
ENDBRANCH   9  24
TORSDOF 5
ENDMDL
MODEL 3
REMARK VINA RESULT:    -6.529      3.745      6.515
REMARK INTER + INTRA:          -7.790
REMARK INTER:                  -7.721
REMARK INTRA:                  -0.069
REMARK UNBOUND:                -0.115
REMARK SMILES O=c1c(O)c(-c2ccc(O)c(O)c2)oc2cc(O)ccc12
REMARK SMILES IDX 5 1 3 2 2 3 1 4 21 5 15 6 14 7 16 8 17 9 19 10 20 11 6 12
REMARK SMILES IDX 7 13 8 14 9 15 13 16 11 17 10 18 12 20 4 22 18 24
REMARK H PARENT 10 19 12 21 4 23 18 25
REMARK Flexibility Score: inf
ROOT
ATOM      1  C   UNL     1       4.039  33.782  42.847  1.00  0.00     0.180 A 
ATOM      2  C   UNL     1       4.490  34.441  41.685  1.00  0.00     0.208 A 
ATOM      3  C   UNL     1       3.928  35.684  41.351  1.00  0.00     0.235 A 
ATOM      4  O   UNL     1       4.308  36.290  40.311  1.00  0.00    -0.285 OA
ATOM      5  C   UNL     1       2.950  36.246  42.187  1.00  0.00     0.069 A 
ATOM      6  C   UNL     1       2.569  35.533  43.344  1.00  0.00     0.142 A 
ATOM      7  O   UNL     1       3.120  34.356  43.620  1.00  0.00    -0.452 OA
ATOM      8  C   UNL     1       1.605  36.065  44.207  1.00  0.00     0.094 A 
ATOM      9  C   UNL     1       1.012  37.304  43.926  1.00  0.00     0.119 A 
ATOM     10  C   UNL     1       1.387  38.011  42.780  1.00  0.00     0.047 A 
ATOM     11  C   UNL     1       2.351  37.489  41.911  1.00  0.00     0.020 A 
ENDROOT
BRANCH   1  12
ATOM     12  C   UNL     1       4.568  32.461  43.256  1.00  0.00     0.025 A 
ATOM     13  C   UNL     1       3.690  31.373  43.375  1.00  0.00     0.016 A 
ATOM     14  C   UNL     1       4.171  30.112  43.739  1.00  0.00     0.051 A 
ATOM     15  C   UNL     1       5.537  29.918  43.976  1.00  0.00     0.157 A 
ATOM     16  C   UNL     1       5.943  32.258  43.475  1.00  0.00     0.062 A 
ATOM     17  C   UNL     1       6.427  30.996  43.838  1.00  0.00     0.158 A 
BRANCH  15  18
ATOM     18  O   UNL     1       6.014  28.660  44.342  1.00  0.00    -0.504 OA
ATOM     19  H   UNL     1       6.259  27.963  43.647  1.00  0.00     0.293 HD
ENDBRANCH  15  18
BRANCH  17  20
ATOM     20  O   UNL     1       7.796  30.832  44.053  1.00  0.00    -0.504 OA
ATOM     21  H   UNL     1       8.181  30.678  44.976  1.00  0.00     0.293 HD
ENDBRANCH  17  20
ENDBRANCH   1  12
BRANCH   2  22
ATOM     22  O   UNL     1       5.501  33.881  40.899  1.00  0.00    -0.502 OA
ATOM     23  H   UNL     1       6.428  34.284  40.841  1.00  0.00     0.293 HD
ENDBRANCH   2  22
BRANCH   9  24
ATOM     24  O   UNL     1       0.050  37.840  44.780  1.00  0.00    -0.508 OA
ATOM     25  H   UNL     1      -0.713  38.405  44.428  1.00  0.00     0.293 HD
ENDBRANCH   9  24
TORSDOF 5
ENDMDL
MODEL 4
REMARK VINA RESULT:    -6.493      5.628      8.169
REMARK INTER + INTRA:          -7.747
REMARK INTER:                  -7.589
REMARK INTRA:                  -0.158
REMARK UNBOUND:                -0.115
REMARK SMILES O=c1c(O)c(-c2ccc(O)c(O)c2)oc2cc(O)ccc12
REMARK SMILES IDX 5 1 3 2 2 3 1 4 21 5 15 6 14 7 16 8 17 9 19 10 20 11 6 12
REMARK SMILES IDX 7 13 8 14 9 15 13 16 11 17 10 18 12 20 4 22 18 24
REMARK H PARENT 10 19 12 21 4 23 18 25
REMARK Flexibility Score: inf
ROOT
ATOM      1  C   UNL     1       0.836  40.882  43.015  1.00  0.00     0.180 A 
ATOM      2  C   UNL     1      -0.311  40.325  43.618  1.00  0.00     0.208 A 
ATOM      3  C   UNL     1      -0.361  38.937  43.822  1.00  0.00     0.235 A 
ATOM      4  O   UNL     1      -1.380  38.413  44.350  1.00  0.00    -0.285 OA
ATOM      5  C   UNL     1       0.733  38.144  43.440  1.00  0.00     0.069 A 
ATOM      6  C   UNL     1       1.853  38.781  42.864  1.00  0.00     0.142 A 
ATOM      7  O   UNL     1       1.857  40.096  42.681  1.00  0.00    -0.452 OA
ATOM      8  C   UNL     1       2.966  38.026  42.479  1.00  0.00     0.094 A 
ATOM      9  C   UNL     1       2.973  36.636  42.662  1.00  0.00     0.119 A 
ATOM     10  C   UNL     1       1.864  36.003  43.231  1.00  0.00     0.047 A 
ATOM     11  C   UNL     1       0.746  36.748  43.620  1.00  0.00     0.020 A 
ENDROOT
BRANCH   1  12
ATOM     12  C   UNL     1       0.957  42.335  42.750  1.00  0.00     0.025 A 
ATOM     13  C   UNL     1       0.077  42.945  41.844  1.00  0.00     0.016 A 
ATOM     14  C   UNL     1       0.159  44.318  41.594  1.00  0.00     0.051 A 
ATOM     15  C   UNL     1       1.112  45.101  42.257  1.00  0.00     0.157 A 
ATOM     16  C   UNL     1       1.899  43.128  43.430  1.00  0.00     0.062 A 
ATOM     17  C   UNL     1       1.982  44.503  43.184  1.00  0.00     0.158 A 
BRANCH  15  18
ATOM     18  O   UNL     1       1.193  46.471  42.004  1.00  0.00    -0.504 OA
ATOM     19  H   UNL     1       2.059  46.983  42.131  1.00  0.00     0.293 HD
ENDBRANCH  15  18
BRANCH  17  20
ATOM     20  O   UNL     1       2.932  45.258  43.872  1.00  0.00    -0.504 OA
ATOM     21  H   UNL     1       3.043  45.198  44.876  1.00  0.00     0.293 HD
ENDBRANCH  17  20
ENDBRANCH   1  12
BRANCH   2  22
ATOM     22  O   UNL     1      -1.363  41.146  44.034  1.00  0.00    -0.502 OA
ATOM     23  H   UNL     1      -2.178  40.782  44.512  1.00  0.00     0.293 HD
ENDBRANCH   2  22
BRANCH   9  24
ATOM     24  O   UNL     1       4.077  35.876  42.281  1.00  0.00    -0.508 OA
ATOM     25  H   UNL     1       4.966  35.956  42.762  1.00  0.00     0.293 HD
ENDBRANCH   9  24
TORSDOF 5
ENDMDL
MODEL 5
REMARK VINA RESULT:    -6.492      3.571      5.800
REMARK INTER + INTRA:          -7.746
REMARK INTER:                  -7.655
REMARK INTRA:                  -0.091
REMARK UNBOUND:                -0.115
REMARK SMILES O=c1c(O)c(-c2ccc(O)c(O)c2)oc2cc(O)ccc12
REMARK SMILES IDX 5 1 3 2 2 3 1 4 21 5 15 6 14 7 16 8 17 9 19 10 20 11 6 12
REMARK SMILES IDX 7 13 8 14 9 15 13 16 11 17 10 18 12 20 4 22 18 24
REMARK H PARENT 10 19 12 21 4 23 18 25
REMARK Flexibility Score: inf
ROOT
ATOM      1  C   UNL     1       3.464  33.584  43.372  1.00  0.00     0.180 A 
ATOM      2  C   UNL     1       4.859  33.400  43.270  1.00  0.00     0.208 A 
ATOM      3  C   UNL     1       5.383  32.107  43.420  1.00  0.00     0.235 A 
ATOM      4  O   UNL     1       6.628  31.918  43.342  1.00  0.00    -0.285 OA
ATOM      5  C   UNL     1       4.511  31.031  43.648  1.00  0.00     0.069 A 
ATOM      6  C   UNL     1       3.126  31.294  43.714  1.00  0.00     0.142 A 
ATOM      7  O   UNL     1       2.671  32.534  43.575  1.00  0.00    -0.452 OA
ATOM      8  C   UNL     1       2.224  30.247  43.930  1.00  0.00     0.094 A 
ATOM      9  C   UNL     1       2.691  28.934  44.083  1.00  0.00     0.119 A 
ATOM     10  C   UNL     1       4.062  28.671  44.020  1.00  0.00     0.047 A 
ATOM     11  C   UNL     1       4.973  29.710  43.803  1.00  0.00     0.020 A 
ENDROOT
BRANCH   1  12
ATOM     12  C   UNL     1       2.836  34.919  43.244  1.00  0.00     0.025 A 
ATOM     13  C   UNL     1       2.978  35.635  42.046  1.00  0.00     0.016 A 
ATOM     14  C   UNL     1       2.377  36.888  41.895  1.00  0.00     0.051 A 
ATOM     15  C   UNL     1       1.613  37.435  42.933  1.00  0.00     0.157 A 
ATOM     16  C   UNL     1       2.051  35.463  44.277  1.00  0.00     0.062 A 
ATOM     17  C   UNL     1       1.446  36.715  44.128  1.00  0.00     0.158 A 
BRANCH  15  18
ATOM     18  O   UNL     1       1.016  38.686  42.781  1.00  0.00    -0.504 OA
ATOM     19  H   UNL     1       0.767  39.048  41.867  1.00  0.00     0.293 HD
ENDBRANCH  15  18
BRANCH  17  20
ATOM     20  O   UNL     1       0.679  37.226  45.175  1.00  0.00    -0.504 OA
ATOM     21  H   UNL     1       0.816  38.162  45.535  1.00  0.00     0.293 HD
ENDBRANCH  17  20
ENDBRANCH   1  12
BRANCH   2  22
ATOM     22  O   UNL     1       5.697  34.483  42.992  1.00  0.00    -0.502 OA
ATOM     23  H   UNL     1       6.270  34.921  43.703  1.00  0.00     0.293 HD
ENDBRANCH   2  22
BRANCH   9  24
ATOM     24  O   UNL     1       1.799  27.885  44.300  1.00  0.00    -0.508 OA
ATOM     25  H   UNL     1       1.255  27.820  45.152  1.00  0.00     0.293 HD
ENDBRANCH   9  24
TORSDOF 5
ENDMDL
MODEL 6
REMARK VINA RESULT:    -6.390      5.880      8.304
REMARK INTER + INTRA:          -7.626
REMARK INTER:                  -7.480
REMARK INTRA:                  -0.146
REMARK UNBOUND:                -0.115
REMARK SMILES O=c1c(O)c(-c2ccc(O)c(O)c2)oc2cc(O)ccc12
REMARK SMILES IDX 5 1 3 2 2 3 1 4 21 5 15 6 14 7 16 8 17 9 19 10 20 11 6 12
REMARK SMILES IDX 7 13 8 14 9 15 13 16 11 17 10 18 12 20 4 22 18 24
REMARK H PARENT 10 19 12 21 4 23 18 25
REMARK Flexibility Score: inf
ROOT
ATOM      1  C   UNL     1       2.545  41.069  41.969  1.00  0.00     0.180 A 
ATOM      2  C   UNL     1       3.536  40.855  40.988  1.00  0.00     0.208 A 
ATOM      3  C   UNL     1       3.821  39.539  40.591  1.00  0.00     0.235 A 
ATOM      4  O   UNL     1       4.710  39.321  39.722  1.00  0.00    -0.285 OA
ATOM      5  C   UNL     1       3.105  38.475  41.164  1.00  0.00     0.069 A 
ATOM      6  C   UNL     1       2.114  38.775  42.122  1.00  0.00     0.142 A 
ATOM      7  O   UNL     1       1.880  40.034  42.475  1.00  0.00    -0.452 OA
ATOM      8  C   UNL     1       1.373  37.743  42.707  1.00  0.00     0.094 A 
ATOM      9  C   UNL     1       1.612  36.409  42.347  1.00  0.00     0.119 A 
ATOM     10  C   UNL     1       2.595  36.110  41.399  1.00  0.00     0.047 A 
ATOM     11  C   UNL     1       3.341  37.135  40.807  1.00  0.00     0.020 A 
ENDROOT
BRANCH   1  12
ATOM     12  C   UNL     1       2.199  42.425  42.453  1.00  0.00     0.025 A 
ATOM     13  C   UNL     1       0.879  42.885  42.330  1.00  0.00     0.016 A 
ATOM     14  C   UNL     1       0.526  44.153  42.799  1.00  0.00     0.051 A 
ATOM     15  C   UNL     1       1.482  44.973  43.410  1.00  0.00     0.157 A 
ATOM     16  C   UNL     1       3.153  43.243  43.086  1.00  0.00     0.062 A 
ATOM     17  C   UNL     1       2.801  44.513  43.558  1.00  0.00     0.158 A 
BRANCH  15  18
ATOM     18  O   UNL     1       1.127  46.239  43.876  1.00  0.00    -0.504 OA
ATOM     19  H   UNL     1       1.826  46.944  44.081  1.00  0.00     0.293 HD
ENDBRANCH  15  18
BRANCH  17  20
ATOM     20  O   UNL     1       3.774  45.299  44.176  1.00  0.00    -0.504 OA
ATOM     21  H   UNL     1       4.713  44.961  44.343  1.00  0.00     0.293 HD
ENDBRANCH  17  20
ENDBRANCH   1  12
BRANCH   2  22
ATOM     22  O   UNL     1       4.196  41.937  40.400  1.00  0.00    -0.502 OA
ATOM     23  H   UNL     1       3.707  42.770  40.097  1.00  0.00     0.293 HD
ENDBRANCH   2  22
BRANCH   9  24
ATOM     24  O   UNL     1       0.879  35.375  42.926  1.00  0.00    -0.508 OA
ATOM     25  H   UNL     1       0.314  35.526  43.754  1.00  0.00     0.293 HD
ENDBRANCH   9  24
TORSDOF 5
ENDMDL
MODEL 7
REMARK VINA RESULT:    -6.200      3.513      6.161
REMARK INTER + INTRA:          -7.403
REMARK INTER:                  -7.179
REMARK INTRA:                  -0.223
REMARK UNBOUND:                -0.115
REMARK SMILES O=c1c(O)c(-c2ccc(O)c(O)c2)oc2cc(O)ccc12
REMARK SMILES IDX 5 1 3 2 2 3 1 4 21 5 15 6 14 7 16 8 17 9 19 10 20 11 6 12
REMARK SMILES IDX 7 13 8 14 9 15 13 16 11 17 10 18 12 20 4 22 18 24
REMARK H PARENT 10 19 12 21 4 23 18 25
REMARK Flexibility Score: inf
ROOT
ATOM      1  C   UNL     1       3.510  33.992  43.229  1.00  0.00     0.180 A 
ATOM      2  C   UNL     1       2.816  34.626  44.280  1.00  0.00     0.208 A 
ATOM      3  C   UNL     1       2.227  35.878  44.043  1.00  0.00     0.235 A 
ATOM      4  O   UNL     1       1.608  36.470  44.970  1.00  0.00    -0.285 OA
ATOM      5  C   UNL     1       2.328  36.458  42.768  1.00  0.00     0.069 A 
ATOM      6  C   UNL     1       3.020  35.749  41.764  1.00  0.00     0.142 A 
ATOM      7  O   UNL     1       3.570  34.569  42.032  1.00  0.00    -0.452 OA
ATOM      8  C   UNL     1       3.134  36.289  40.478  1.00  0.00     0.094 A 
ATOM      9  C   UNL     1       2.562  37.534  40.183  1.00  0.00     0.119 A 
ATOM     10  C   UNL     1       1.877  38.239  41.177  1.00  0.00     0.047 A 
ATOM     11  C   UNL     1       1.757  37.708  42.465  1.00  0.00     0.020 A 
ENDROOT
BRANCH   1  12
ATOM     12  C   UNL     1       4.174  32.680  43.405  1.00  0.00     0.025 A 
ATOM     13  C   UNL     1       3.391  31.519  43.499  1.00  0.00     0.016 A 
ATOM     14  C   UNL     1       3.995  30.268  43.644  1.00  0.00     0.051 A 
ATOM     15  C   UNL     1       5.391  30.157  43.683  1.00  0.00     0.157 A 
ATOM     16  C   UNL     1       5.575  32.563  43.424  1.00  0.00     0.062 A 
ATOM     17  C   UNL     1       6.184  31.311  43.566  1.00  0.00     0.158 A 
BRANCH  15  18
ATOM     18  O   UNL     1       5.992  28.907  43.830  1.00  0.00    -0.504 OA
ATOM     19  H   UNL     1       6.931  28.727  43.494  1.00  0.00     0.293 HD
ENDBRANCH  15  18
BRANCH  17  20
ATOM     20  O   UNL     1       7.577  31.233  43.587  1.00  0.00    -0.504 OA
ATOM     21  H   UNL     1       8.163  32.047  43.453  1.00  0.00     0.293 HD
ENDBRANCH  17  20
ENDBRANCH   1  12
BRANCH   2  22
ATOM     22  O   UNL     1       2.689  34.002  45.524  1.00  0.00    -0.502 OA
ATOM     23  H   UNL     1       2.112  33.181  45.662  1.00  0.00     0.293 HD
ENDBRANCH   2  22
BRANCH   9  24
ATOM     24  O   UNL     1       2.671  38.080  38.905  1.00  0.00    -0.508 OA
ATOM     25  H   UNL     1       2.930  37.511  38.107  1.00  0.00     0.293 HD
ENDBRANCH   9  24
TORSDOF 5
ENDMDL
MODEL 8
REMARK VINA RESULT:    -6.181      3.787      6.493
REMARK INTER + INTRA:          -7.380
REMARK INTER:                  -7.098
REMARK INTRA:                  -0.282
REMARK UNBOUND:                -0.115
REMARK SMILES O=c1c(O)c(-c2ccc(O)c(O)c2)oc2cc(O)ccc12
REMARK SMILES IDX 5 1 3 2 2 3 1 4 21 5 15 6 14 7 16 8 17 9 19 10 20 11 6 12
REMARK SMILES IDX 7 13 8 14 9 15 13 16 11 17 10 18 12 20 4 22 18 24
REMARK H PARENT 10 19 12 21 4 23 18 25
REMARK Flexibility Score: inf
ROOT
ATOM      1  C   UNL     1       1.855  37.740  43.240  1.00  0.00     0.180 A 
ATOM      2  C   UNL     1       0.643  38.363  43.607  1.00  0.00     0.208 A 
ATOM      3  C   UNL     1       0.524  39.753  43.453  1.00  0.00     0.235 A 
ATOM      4  O   UNL     1      -0.545  40.335  43.782  1.00  0.00    -0.285 OA
ATOM      5  C   UNL     1       1.600  40.483  42.923  1.00  0.00     0.069 A 
ATOM      6  C   UNL     1       2.770  39.782  42.559  1.00  0.00     0.142 A 
ATOM      7  O   UNL     1       2.845  38.467  42.728  1.00  0.00    -0.452 OA
ATOM      8  C   UNL     1       3.860  40.473  42.018  1.00  0.00     0.094 A 
ATOM      9  C   UNL     1       3.796  41.862  41.837  1.00  0.00     0.119 A 
ATOM     10  C   UNL     1       2.639  42.558  42.199  1.00  0.00     0.047 A 
ATOM     11  C   UNL     1       1.543  41.877  42.739  1.00  0.00     0.020 A 
ENDROOT
BRANCH   1  12
ATOM     12  C   UNL     1       2.064  36.281  43.390  1.00  0.00     0.025 A 
ATOM     13  C   UNL     1       2.351  35.753  44.658  1.00  0.00     0.016 A 
ATOM     14  C   UNL     1       2.532  34.378  44.827  1.00  0.00     0.051 A 
ATOM     15  C   UNL     1       2.415  33.510  43.734  1.00  0.00     0.157 A 
ATOM     16  C   UNL     1       1.927  35.405  42.299  1.00  0.00     0.062 A 
ATOM     17  C   UNL     1       2.105  34.027  42.465  1.00  0.00     0.158 A 
BRANCH  15  18
ATOM     18  O   UNL     1       2.598  32.138  43.905  1.00  0.00    -0.504 OA
ATOM     19  H   UNL     1       3.376  31.649  43.475  1.00  0.00     0.293 HD
ENDBRANCH  15  18
BRANCH  17  20
ATOM     20  O   UNL     1       1.967  33.187  41.359  1.00  0.00    -0.504 OA
ATOM     21  H   UNL     1       1.737  33.542  40.440  1.00  0.00     0.293 HD
ENDBRANCH  17  20
ENDBRANCH   1  12
BRANCH   2  22
ATOM     22  O   UNL     1      -0.428  37.603  44.085  1.00  0.00    -0.502 OA
ATOM     23  H   UNL     1      -0.311  36.657  44.427  1.00  0.00     0.293 HD
ENDBRANCH   2  22
BRANCH   9  24
ATOM     24  O   UNL     1       4.877  42.557  41.300  1.00  0.00    -0.508 OA
ATOM     25  H   UNL     1       4.903  42.822  40.323  1.00  0.00     0.293 HD
ENDBRANCH   9  24
TORSDOF 5
ENDMDL
MODEL 9
REMARK VINA RESULT:    -6.172      8.124      9.340
REMARK INTER + INTRA:          -7.369
REMARK INTER:                  -7.465
REMARK INTRA:                   0.096
REMARK UNBOUND:                -0.115
REMARK SMILES O=c1c(O)c(-c2ccc(O)c(O)c2)oc2cc(O)ccc12
REMARK SMILES IDX 5 1 3 2 2 3 1 4 21 5 15 6 14 7 16 8 17 9 19 10 20 11 6 12
REMARK SMILES IDX 7 13 8 14 9 15 13 16 11 17 10 18 12 20 4 22 18 24
REMARK H PARENT 10 19 12 21 4 23 18 25
REMARK Flexibility Score: inf
ROOT
ATOM      1  C   UNL     1       3.000  42.042  41.292  1.00  0.00     0.180 A 
ATOM      2  C   UNL     1       2.273  40.866  41.012  1.00  0.00     0.208 A 
ATOM      3  C   UNL     1       2.911  39.826  40.317  1.00  0.00     0.235 A 
ATOM      4  O   UNL     1       2.279  38.768  40.046  1.00  0.00    -0.285 OA
ATOM      5  C   UNL     1       4.255  39.974  39.937  1.00  0.00     0.069 A 
ATOM      6  C   UNL     1       4.918  41.172  40.275  1.00  0.00     0.142 A 
ATOM      7  O   UNL     1       4.276  42.135  40.926  1.00  0.00    -0.452 OA
ATOM      8  C   UNL     1       6.260  41.352  39.922  1.00  0.00     0.094 A 
ATOM      9  C   UNL     1       6.950  40.345  39.231  1.00  0.00     0.119 A 
ATOM     10  C   UNL     1       6.293  39.158  38.894  1.00  0.00     0.047 A 
ATOM     11  C   UNL     1       4.952  38.968  39.243  1.00  0.00     0.020 A 
ENDROOT
BRANCH   1  12
ATOM     12  C   UNL     1       2.392  43.190  42.003  1.00  0.00     0.025 A 
ATOM     13  C   UNL     1       1.107  43.624  41.642  1.00  0.00     0.016 A 
ATOM     14  C   UNL     1       0.506  44.691  42.313  1.00  0.00     0.051 A 
ATOM     15  C   UNL     1       1.173  45.331  43.365  1.00  0.00     0.157 A 
ATOM     16  C   UNL     1       3.051  43.822  43.073  1.00  0.00     0.062 A 
ATOM     17  C   UNL     1       2.451  44.890  43.749  1.00  0.00     0.158 A 
BRANCH  15  18
ATOM     18  O   UNL     1       0.572  46.398  44.032  1.00  0.00    -0.504 OA
ATOM     19  H   UNL     1       0.707  47.356  43.731  1.00  0.00     0.293 HD
ENDBRANCH  15  18
BRANCH  17  20
ATOM     20  O   UNL     1       3.136  45.497  44.802  1.00  0.00    -0.504 OA
ATOM     21  H   UNL     1       3.082  45.148  45.751  1.00  0.00     0.293 HD
ENDBRANCH  17  20
ENDBRANCH   1  12
BRANCH   2  22
ATOM     22  O   UNL     1       0.952  40.729  41.447  1.00  0.00    -0.502 OA
ATOM     23  H   UNL     1       0.184  40.573  40.806  1.00  0.00     0.293 HD
ENDBRANCH   2  22
BRANCH   9  24
ATOM     24  O   UNL     1       8.286  40.517  38.875  1.00  0.00    -0.508 OA
ATOM     25  H   UNL     1       8.822  41.313  39.200  1.00  0.00     0.293 HD
ENDBRANCH   9  24
TORSDOF 5
ENDMDL
