MODEL 1
REMARK VINA RESULT:    -6.498      0.000      0.000
REMARK INTER + INTRA:         -12.393
REMARK INTER:                 -10.296
REMARK INTRA:                  -2.097
REMARK UNBOUND:                -2.097
REMARK SMILES C[C@H]1O[C@H](O[C@@H]2[C@H](Oc3cc(O)c4c(c3)O[C@H](c3ccc(O)cc3)CC4=O)O[C@H](CO)[C@H](O)[C@@H]2O)[C@@H](O)[C@H](O)[C@H]1O
REMARK SMILES IDX 6 1 34 2 32 3 29 4 28 5 7 6 5 7 4 8 1 9 2 10 40 11 3 12
REMARK SMILES IDX 38 13 36 14 41 15 39 17 37 19 35 21 8 23 9 24 10 25 15 26
REMARK SMILES IDX 11 27 14 28 13 29 16 30 26 31 17 32 27 33 25 34 12 35 18 37
REMARK SMILES IDX 19 38 24 39 20 40 23 41 21 42 22 43 33 45 30 47 31 48
REMARK H PARENT 41 16 39 18 37 20 35 22 12 36 22 44 33 46 31 49
REMARK Flexibility Score: inf
ROOT
ATOM      1  C   UNL     1      13.205  -7.929  37.420  1.00  0.00     0.221 C 
ATOM      2  C   UNL     1      14.043  -9.171  37.791  1.00  0.00     0.181 C 
ATOM      3  C   UNL     1      15.563  -8.884  37.829  1.00  0.00     0.177 C 
ATOM      4  C   UNL     1      15.886  -7.374  37.949  1.00  0.00     0.179 C 
ATOM      5  O   UNL     1      14.961  -6.696  38.794  1.00  0.00    -0.332 OA
ATOM      6  C   UNL     1      13.580  -6.795  38.418  1.00  0.00     0.339 C 
ENDROOT
BRANCH   1   7
ATOM      7  O   UNL     1      13.395  -7.534  36.065  1.00  0.00    -0.337 OA
BRANCH   7   8
ATOM      8  C   UNL     1      12.195  -7.080  35.467  1.00  0.00     0.282 C 
ATOM      9  C   UNL     1      12.052  -6.117  32.114  1.00  0.00     0.041 C 
ATOM     10  C   UNL     1      12.998  -6.553  33.249  1.00  0.00     0.150 C 
ATOM     11  C   UNL     1      13.363  -8.065  33.210  1.00  0.00     0.174 C 
ATOM     12  O   UNL     1      12.464  -6.087  34.482  1.00  0.00    -0.344 OA
ATOM     13  C   UNL     1      12.215  -8.967  33.761  1.00  0.00     0.179 C 
ATOM     14  C   UNL     1      11.414  -8.269  34.879  1.00  0.00     0.202 C 
BRANCH  11  15
ATOM     15  O   UNL     1      13.768  -8.482  31.918  1.00  0.00    -0.388 OA
ATOM     16  H   UNL     1      13.857  -7.671  31.336  1.00  0.00     0.211 HD
ENDBRANCH  11  15
BRANCH  13  17
ATOM     17  O   UNL     1      12.752 -10.167  34.258  1.00  0.00    -0.387 OA
ATOM     18  H   UNL     1      11.988 -10.738  34.509  1.00  0.00     0.211 HD
ENDBRANCH  13  17
BRANCH  14  19
ATOM     19  O   UNL     1      10.183  -7.841  34.373  1.00  0.00    -0.385 OA
ATOM     20  H   UNL     1       9.963  -6.991  34.848  1.00  0.00     0.211 HD
ENDBRANCH  14  19
ENDBRANCH   7   8
ENDBRANCH   1   7
BRANCH   2  21
ATOM     21  O   UNL     1      13.736 -10.295  36.994  1.00  0.00    -0.387 OA
ATOM     22  H   UNL     1      13.477 -11.039  37.621  1.00  0.00     0.211 HD
ENDBRANCH   2  21
BRANCH   6  23
ATOM     23  O   UNL     1      13.102  -5.513  37.979  1.00  0.00    -0.462 OA
BRANCH  23  24
ATOM     24  C   UNL     1      12.352  -4.764  38.897  1.00  0.00     0.130 A 
ATOM     25  C   UNL     1      12.015  -5.301  40.141  1.00  0.00     0.093 A 
ATOM     26  C   UNL     1      11.585  -3.716  38.404  1.00  0.00     0.094 A 
ATOM     27  C   UNL     1      10.748  -5.054  40.683  1.00  0.00     0.133 A 
ATOM     28  C   UNL     1      10.229  -3.734  38.719  1.00  0.00     0.138 A 
ATOM     29  C   UNL     1       9.792  -4.362  39.906  1.00  0.00     0.102 A 
ATOM     30  O   UNL     1       9.304  -3.218  37.804  1.00  0.00    -0.484 OA
ATOM     31  C   UNL     1       8.335  -4.351  40.193  1.00  0.00     0.174 C 
ATOM     32  C   UNL     1       7.908  -3.500  37.941  1.00  0.00     0.211 C 
ATOM     33  O   UNL     1       7.799  -5.225  40.930  1.00  0.00    -0.294 OA
ATOM     34  C   UNL     1       7.476  -3.394  39.410  1.00  0.00     0.131 C 
BRANCH  27  35
ATOM     35  O   UNL     1      10.461  -5.540  41.959  1.00  0.00    -0.507 OA
ATOM     36  H   UNL     1      10.168  -6.489  42.122  1.00  0.00     0.293 HD
ENDBRANCH  27  35
BRANCH  32  37
ATOM     37  C   UNL     1       7.097  -2.611  37.033  1.00  0.00    -0.007 A 
ATOM     38  C   UNL     1       7.081  -2.838  35.642  1.00  0.00     0.011 A 
ATOM     39  C   UNL     1       6.330  -1.565  37.563  1.00  0.00     0.011 A 
ATOM     40  C   UNL     1       6.361  -1.995  34.792  1.00  0.00     0.046 A 
ATOM     41  C   UNL     1       5.604  -0.733  36.722  1.00  0.00     0.046 A 
ATOM     42  C   UNL     1       5.614  -0.935  35.337  1.00  0.00     0.115 A 
BRANCH  42  43
ATOM     43  O   UNL     1       4.875  -0.102  34.512  1.00  0.00    -0.508 OA
ATOM     44  H   UNL     1       5.078   0.895  34.447  1.00  0.00     0.293 HD
ENDBRANCH  42  43
ENDBRANCH  32  37
ENDBRANCH  23  24
ENDBRANCH   6  23
BRANCH   3  45
ATOM     45  O   UNL     1      16.220  -9.455  36.727  1.00  0.00    -0.387 OA
ATOM     46  H   UNL     1      15.526  -9.960  36.215  1.00  0.00     0.211 HD
ENDBRANCH   3  45
BRANCH   4  47
ATOM     47  C   UNL     1      16.096  -6.614  36.610  1.00  0.00     0.191 C 
BRANCH  47  48
ATOM     48  O   UNL     1      15.674  -5.277  36.751  1.00  0.00    -0.394 OA
ATOM     49  H   UNL     1      15.612  -5.093  37.721  1.00  0.00     0.210 HD
ENDBRANCH  47  48
ENDBRANCH   4  47
TORSDOF 14
ENDMDL
MODEL 2
REMARK VINA RESULT:    -6.437      2.703      6.320
REMARK INTER + INTRA:         -12.297
REMARK INTER:                  -9.969
REMARK INTRA:                  -2.328
REMARK UNBOUND:                -2.097
REMARK SMILES C[C@H]1O[C@H](O[C@@H]2[C@H](Oc3cc(O)c4c(c3)O[C@H](c3ccc(O)cc3)CC4=O)O[C@H](CO)[C@H](O)[C@@H]2O)[C@@H](O)[C@H](O)[C@H]1O
REMARK SMILES IDX 6 1 34 2 32 3 29 4 28 5 7 6 5 7 4 8 1 9 2 10 40 11 3 12
REMARK SMILES IDX 38 13 36 14 41 15 39 17 37 19 35 21 8 23 9 24 10 25 15 26
REMARK SMILES IDX 11 27 14 28 13 29 16 30 26 31 17 32 27 33 25 34 12 35 18 37
REMARK SMILES IDX 19 38 24 39 20 40 23 41 21 42 22 43 33 45 30 47 31 48
REMARK H PARENT 41 16 39 18 37 20 35 22 12 36 22 44 33 46 31 49
REMARK Flexibility Score: inf
ROOT
ATOM      1  C   UNL     1      11.543  -3.209  34.425  1.00  0.00     0.221 C 
ATOM      2  C   UNL     1      12.149  -2.746  33.084  1.00  0.00     0.181 C 
ATOM      3  C   UNL     1      12.262  -3.888  32.046  1.00  0.00     0.177 C 
ATOM      4  C   UNL     1      11.351  -5.095  32.380  1.00  0.00     0.179 C 
ATOM      5  O   UNL     1      10.102  -4.684  32.928  1.00  0.00    -0.332 OA
ATOM      6  C   UNL     1      10.172  -3.878  34.113  1.00  0.00     0.339 C 
ENDROOT
BRANCH   1   7
ATOM      7  O   UNL     1      12.412  -4.079  35.141  1.00  0.00    -0.337 OA
BRANCH   7   8
ATOM      8  C   UNL     1      13.021  -3.438  36.246  1.00  0.00     0.282 C 
ATOM      9  C   UNL     1      12.225  -4.282  39.539  1.00  0.00     0.041 C 
ATOM     10  C   UNL     1      11.856  -4.526  38.063  1.00  0.00     0.150 C 
ATOM     11  C   UNL     1      12.491  -5.815  37.467  1.00  0.00     0.174 C 
ATOM     12  O   UNL     1      12.108  -3.331  37.335  1.00  0.00    -0.344 OA
ATOM     13  C   UNL     1      13.997  -5.624  37.106  1.00  0.00     0.179 C 
ATOM     14  C   UNL     1      14.305  -4.183  36.650  1.00  0.00     0.202 C 
BRANCH  11  15
ATOM     15  O   UNL     1      12.305  -6.939  38.310  1.00  0.00    -0.388 OA
ATOM     16  H   UNL     1      13.125  -7.053  38.874  1.00  0.00     0.211 HD
ENDBRANCH  11  15
BRANCH  13  17
ATOM     17  O   UNL     1      14.356  -6.518  36.083  1.00  0.00    -0.387 OA
ATOM     18  H   UNL     1      14.077  -6.103  35.232  1.00  0.00     0.211 HD
ENDBRANCH  13  17
BRANCH  14  19
ATOM     19  O   UNL     1      14.962  -3.500  37.678  1.00  0.00    -0.385 OA
ATOM     20  H   UNL     1      15.772  -3.085  37.268  1.00  0.00     0.211 HD
ENDBRANCH  14  19
ENDBRANCH   7   8
ENDBRANCH   1   7
BRANCH   2  21
ATOM     21  O   UNL     1      13.369  -2.054  33.246  1.00  0.00    -0.387 OA
ATOM     22  H   UNL     1      13.430  -1.383  32.499  1.00  0.00     0.211 HD
ENDBRANCH   2  21
BRANCH   6  23
ATOM     23  O   UNL     1       9.668  -4.620  35.237  1.00  0.00    -0.462 OA
BRANCH  23  24
ATOM     24  C   UNL     1       8.421  -4.234  35.747  1.00  0.00     0.130 A 
ATOM     25  C   UNL     1       7.532  -3.498  34.962  1.00  0.00     0.093 A 
ATOM     26  C   UNL     1       8.272  -4.186  37.127  1.00  0.00     0.094 A 
ATOM     27  C   UNL     1       6.778  -2.472  35.542  1.00  0.00     0.133 A 
ATOM     28  C   UNL     1       7.829  -2.981  37.665  1.00  0.00     0.138 A 
ATOM     29  C   UNL     1       7.019  -2.121  36.890  1.00  0.00     0.102 A 
ATOM     30  O   UNL     1       8.276  -2.587  38.932  1.00  0.00    -0.484 OA
ATOM     31  C   UNL     1       6.574  -0.849  37.514  1.00  0.00     0.174 C 
ATOM     32  C   UNL     1       8.106  -1.239  39.379  1.00  0.00     0.211 C 
ATOM     33  O   UNL     1       6.259   0.154  36.815  1.00  0.00    -0.294 OA
ATOM     34  C   UNL     1       6.710  -0.719  39.007  1.00  0.00     0.131 C 
BRANCH  27  35
ATOM     35  O   UNL     1       5.844  -1.800  34.754  1.00  0.00    -0.507 OA
ATOM     36  H   UNL     1       6.042  -0.914  34.318  1.00  0.00     0.293 HD
ENDBRANCH  27  35
BRANCH  32  37
ATOM     37  C   UNL     1       8.390  -1.131  40.855  1.00  0.00    -0.007 A 
ATOM     38  C   UNL     1       8.570   0.130  41.456  1.00  0.00     0.011 A 
ATOM     39  C   UNL     1       8.455  -2.283  41.652  1.00  0.00     0.011 A 
ATOM     40  C   UNL     1       8.870   0.234  42.817  1.00  0.00     0.046 A 
ATOM     41  C   UNL     1       8.742  -2.182  43.006  1.00  0.00     0.046 A 
ATOM     42  C   UNL     1       8.954  -0.932  43.599  1.00  0.00     0.115 A 
BRANCH  42  43
ATOM     43  O   UNL     1       9.229  -0.848  44.954  1.00  0.00    -0.508 OA
ATOM     44  H   UNL     1      10.096  -1.217  45.343  1.00  0.00     0.293 HD
ENDBRANCH  42  43
ENDBRANCH  32  37
ENDBRANCH  23  24
ENDBRANCH   6  23
BRANCH   3  45
ATOM     45  O   UNL     1      13.596  -4.294  31.875  1.00  0.00    -0.387 OA
ATOM     46  H   UNL     1      13.565  -5.178  31.410  1.00  0.00     0.211 HD
ENDBRANCH   3  45
BRANCH   4  47
ATOM     47  C   UNL     1      12.000  -6.226  33.227  1.00  0.00     0.191 C 
BRANCH  47  48
ATOM     48  O   UNL     1      12.444  -7.259  32.378  1.00  0.00    -0.394 OA
ATOM     49  H   UNL     1      13.066  -7.819  32.905  1.00  0.00     0.210 HD
ENDBRANCH  47  48
ENDBRANCH   4  47
TORSDOF 14
ENDMDL
MODEL 3
REMARK VINA RESULT:    -6.436      3.033      5.556
REMARK INTER + INTRA:         -12.296
REMARK INTER:                 -10.087
REMARK INTRA:                  -2.209
REMARK UNBOUND:                -2.097
REMARK SMILES C[C@H]1O[C@H](O[C@@H]2[C@H](Oc3cc(O)c4c(c3)O[C@H](c3ccc(O)cc3)CC4=O)O[C@H](CO)[C@H](O)[C@@H]2O)[C@@H](O)[C@H](O)[C@H]1O
REMARK SMILES IDX 6 1 34 2 32 3 29 4 28 5 7 6 5 7 4 8 1 9 2 10 40 11 3 12
REMARK SMILES IDX 38 13 36 14 41 15 39 17 37 19 35 21 8 23 9 24 10 25 15 26
REMARK SMILES IDX 11 27 14 28 13 29 16 30 26 31 17 32 27 33 25 34 12 35 18 37
REMARK SMILES IDX 19 38 24 39 20 40 23 41 21 42 22 43 33 45 30 47 31 48
REMARK H PARENT 41 16 39 18 37 20 35 22 12 36 22 44 33 46 31 49
REMARK Flexibility Score: inf
ROOT
ATOM      1  C   UNL     1      11.930  -5.186  37.415  1.00  0.00     0.221 C 
ATOM      2  C   UNL     1      13.322  -5.591  37.944  1.00  0.00     0.181 C 
ATOM      3  C   UNL     1      14.301  -4.397  38.046  1.00  0.00     0.177 C 
ATOM      4  C   UNL     1      13.577  -3.027  38.050  1.00  0.00     0.179 C 
ATOM      5  O   UNL     1      12.352  -3.073  38.775  1.00  0.00    -0.332 OA
ATOM      6  C   UNL     1      11.396  -4.045  38.330  1.00  0.00     0.339 C 
ENDROOT
BRANCH   1   7
ATOM      7  O   UNL     1      11.963  -4.803  36.045  1.00  0.00    -0.337 OA
BRANCH   7   8
ATOM      8  C   UNL     1      11.060  -5.557  35.256  1.00  0.00     0.282 C 
ATOM      9  C   UNL     1      10.534  -4.860  31.876  1.00  0.00     0.041 C 
ATOM     10  C   UNL     1      11.238  -4.373  33.156  1.00  0.00     0.150 C 
ATOM     11  C   UNL     1      12.733  -4.796  33.245  1.00  0.00     0.174 C 
ATOM     12  O   UNL     1      10.437  -4.734  34.274  1.00  0.00    -0.344 OA
ATOM     13  C   UNL     1      12.905  -6.289  33.665  1.00  0.00     0.179 C 
ATOM     14  C   UNL     1      11.786  -6.755  34.620  1.00  0.00     0.202 C 
BRANCH  11  15
ATOM     15  O   UNL     1      13.437  -4.516  32.047  1.00  0.00    -0.388 OA
ATOM     16  H   UNL     1      14.417  -4.633  32.220  1.00  0.00     0.211 HD
ENDBRANCH  11  15
BRANCH  13  17
ATOM     17  O   UNL     1      14.150  -6.465  34.293  1.00  0.00    -0.387 OA
ATOM     18  H   UNL     1      14.000  -6.340  35.260  1.00  0.00     0.211 HD
ENDBRANCH  13  17
BRANCH  14  19
ATOM     19  O   UNL     1      10.880  -7.558  33.919  1.00  0.00    -0.385 OA
ATOM     20  H   UNL     1      10.834  -7.187  32.993  1.00  0.00     0.211 HD
ENDBRANCH  14  19
ENDBRANCH   7   8
ENDBRANCH   1   7
BRANCH   2  21
ATOM     21  O   UNL     1      13.882  -6.676  37.234  1.00  0.00    -0.387 OA
ATOM     22  H   UNL     1      14.303  -6.298  36.402  1.00  0.00     0.211 HD
ENDBRANCH   2  21
BRANCH   6  23
ATOM     23  O   UNL     1      10.260  -3.380  37.750  1.00  0.00    -0.462 OA
BRANCH  23  24
ATOM     24  C   UNL     1       9.134  -3.214  38.569  1.00  0.00     0.130 A 
ATOM     25  C   UNL     1       8.983  -2.059  39.339  1.00  0.00     0.093 A 
ATOM     26  C   UNL     1       8.437  -4.353  38.950  1.00  0.00     0.094 A 
ATOM     27  C   UNL     1       8.461  -2.152  40.634  1.00  0.00     0.133 A 
ATOM     28  C   UNL     1       8.255  -4.545  40.317  1.00  0.00     0.138 A 
ATOM     29  C   UNL     1       8.208  -3.429  41.183  1.00  0.00     0.102 A 
ATOM     30  O   UNL     1       8.223  -5.846  40.830  1.00  0.00    -0.484 OA
ATOM     31  C   UNL     1       8.011  -3.692  42.631  1.00  0.00     0.174 C 
ATOM     32  C   UNL     1       8.357  -6.080  42.235  1.00  0.00     0.211 C 
ATOM     33  O   UNL     1       8.395  -2.871  43.510  1.00  0.00    -0.294 OA
ATOM     34  C   UNL     1       7.532  -5.061  43.034  1.00  0.00     0.131 C 
BRANCH  27  35
ATOM     35  O   UNL     1       8.252  -0.977  41.356  1.00  0.00    -0.507 OA
ATOM     36  H   UNL     1       8.232  -0.070  40.919  1.00  0.00     0.293 HD
ENDBRANCH  27  35
BRANCH  32  37
ATOM     37  C   UNL     1       8.001  -7.505  42.572  1.00  0.00    -0.007 A 
ATOM     38  C   UNL     1       7.486  -8.364  41.580  1.00  0.00     0.011 A 
ATOM     39  C   UNL     1       8.199  -8.000  43.868  1.00  0.00     0.011 A 
ATOM     40  C   UNL     1       7.120  -9.676  41.895  1.00  0.00     0.046 A 
ATOM     41  C   UNL     1       7.847  -9.306  44.181  1.00  0.00     0.046 A 
ATOM     42  C   UNL     1       7.304 -10.150  43.206  1.00  0.00     0.115 A 
BRANCH  42  43
ATOM     43  O   UNL     1       6.967 -11.454  43.532  1.00  0.00    -0.508 OA
ATOM     44  H   UNL     1       7.545 -12.009  44.163  1.00  0.00     0.293 HD
ENDBRANCH  42  43
ENDBRANCH  32  37
ENDBRANCH  23  24
ENDBRANCH   6  23
BRANCH   3  45
ATOM     45  O   UNL     1      15.279  -4.449  37.039  1.00  0.00    -0.387 OA
ATOM     46  H   UNL     1      15.163  -5.328  36.578  1.00  0.00     0.211 HD
ENDBRANCH   3  45
BRANCH   4  47
ATOM     47  C   UNL     1      13.392  -2.350  36.663  1.00  0.00     0.191 C 
BRANCH  47  48
ATOM     48  O   UNL     1      14.538  -1.593  36.347  1.00  0.00    -0.394 OA
ATOM     49  H   UNL     1      15.036  -1.457  37.191  1.00  0.00     0.210 HD
ENDBRANCH  47  48
ENDBRANCH   4  47
TORSDOF 14
ENDMDL
MODEL 4
REMARK VINA RESULT:    -6.340      3.239      6.109
REMARK INTER + INTRA:         -12.143
REMARK INTER:                 -10.139
REMARK INTRA:                  -2.004
REMARK UNBOUND:                -2.097
REMARK SMILES C[C@H]1O[C@H](O[C@@H]2[C@H](Oc3cc(O)c4c(c3)O[C@H](c3ccc(O)cc3)CC4=O)O[C@H](CO)[C@H](O)[C@@H]2O)[C@@H](O)[C@H](O)[C@H]1O
REMARK SMILES IDX 6 1 34 2 32 3 29 4 28 5 7 6 5 7 4 8 1 9 2 10 40 11 3 12
REMARK SMILES IDX 38 13 36 14 41 15 39 17 37 19 35 21 8 23 9 24 10 25 15 26
REMARK SMILES IDX 11 27 14 28 13 29 16 30 26 31 17 32 27 33 25 34 12 35 18 37
REMARK SMILES IDX 19 38 24 39 20 40 23 41 21 42 22 43 33 45 30 47 31 48
REMARK H PARENT 41 16 39 18 37 20 35 22 12 36 22 44 33 46 31 49
REMARK Flexibility Score: inf
ROOT
ATOM      1  C   UNL     1      14.638  -4.715  36.712  1.00  0.00     0.221 C 
ATOM      2  C   UNL     1      14.913  -4.251  35.266  1.00  0.00     0.181 C 
ATOM      3  C   UNL     1      13.620  -3.967  34.467  1.00  0.00     0.177 C 
ATOM      4  C   UNL     1      12.385  -3.757  35.378  1.00  0.00     0.179 C 
ATOM      5  O   UNL     1      12.715  -3.049  36.569  1.00  0.00    -0.332 OA
ATOM      6  C   UNL     1      13.737  -3.639  37.386  1.00  0.00     0.339 C 
ENDROOT
BRANCH   1   7
ATOM      7  O   UNL     1      14.053  -6.011  36.762  1.00  0.00    -0.337 OA
BRANCH   7   8
ATOM      8  C   UNL     1      14.967  -6.995  37.209  1.00  0.00     0.282 C 
ATOM      9  C   UNL     1      14.969  -8.154  40.502  1.00  0.00     0.041 C 
ATOM     10  C   UNL     1      14.350  -7.120  39.543  1.00  0.00     0.150 C 
ATOM     11  C   UNL     1      12.966  -7.547  38.975  1.00  0.00     0.174 C 
ATOM     12  O   UNL     1      15.326  -6.771  38.569  1.00  0.00    -0.344 OA
ATOM     13  C   UNL     1      13.092  -8.599  37.830  1.00  0.00     0.179 C 
ATOM     14  C   UNL     1      14.378  -8.401  36.999  1.00  0.00     0.202 C 
BRANCH  11  15
ATOM     15  O   UNL     1      12.089  -7.999  39.992  1.00  0.00    -0.388 OA
ATOM     16  H   UNL     1      11.833  -7.216  40.562  1.00  0.00     0.211 HD
ENDBRANCH  11  15
BRANCH  13  17
ATOM     17  O   UNL     1      11.976  -8.512  36.981  1.00  0.00    -0.387 OA
ATOM     18  H   UNL     1      11.250  -8.102  37.507  1.00  0.00     0.211 HD
ENDBRANCH  13  17
BRANCH  14  19
ATOM     19  O   UNL     1      15.313  -9.379  37.348  1.00  0.00    -0.385 OA
ATOM     20  H   UNL     1      15.762  -9.655  36.500  1.00  0.00     0.211 HD
ENDBRANCH  14  19
ENDBRANCH   7   8
ENDBRANCH   1   7
BRANCH   2  21
ATOM     21  O   UNL     1      15.786  -5.116  34.571  1.00  0.00    -0.387 OA
ATOM     22  H   UNL     1      15.991  -4.681  33.688  1.00  0.00     0.211 HD
ENDBRANCH   2  21
BRANCH   6  23
ATOM     23  O   UNL     1      13.164  -4.113  38.616  1.00  0.00    -0.462 OA
BRANCH  23  24
ATOM     24  C   UNL     1      11.855  -3.704  38.908  1.00  0.00     0.130 A 
ATOM     25  C   UNL     1      11.611  -2.440  39.448  1.00  0.00     0.093 A 
ATOM     26  C   UNL     1      10.893  -4.690  39.085  1.00  0.00     0.094 A 
ATOM     27  C   UNL     1      10.633  -2.285  40.437  1.00  0.00     0.133 A 
ATOM     28  C   UNL     1      10.182  -4.660  40.281  1.00  0.00     0.138 A 
ATOM     29  C   UNL     1       9.991  -3.432  40.954  1.00  0.00     0.102 A 
ATOM     30  O   UNL     1       9.751  -5.861  40.856  1.00  0.00    -0.484 OA
ATOM     31  C   UNL     1       9.224  -3.458  42.226  1.00  0.00     0.174 C 
ATOM     32  C   UNL     1       9.307  -5.902  42.216  1.00  0.00     0.211 C 
ATOM     33  O   UNL     1       9.374  -2.566  43.106  1.00  0.00    -0.294 OA
ATOM     34  C   UNL     1       8.417  -4.692  42.529  1.00  0.00     0.131 C 
BRANCH  27  35
ATOM     35  O   UNL     1      10.357  -1.002  40.909  1.00  0.00    -0.507 OA
ATOM     36  H   UNL     1       9.471  -0.548  40.755  1.00  0.00     0.293 HD
ENDBRANCH  27  35
BRANCH  32  37
ATOM     37  C   UNL     1       8.628  -7.214  42.512  1.00  0.00    -0.007 A 
ATOM     38  C   UNL     1       8.571  -7.705  43.831  1.00  0.00     0.011 A 
ATOM     39  C   UNL     1       8.023  -7.949  41.483  1.00  0.00     0.011 A 
ATOM     40  C   UNL     1       7.975  -8.939  44.107  1.00  0.00     0.046 A 
ATOM     41  C   UNL     1       7.419  -9.169  41.755  1.00  0.00     0.046 A 
ATOM     42  C   UNL     1       7.392  -9.675  43.060  1.00  0.00     0.115 A 
BRANCH  42  43
ATOM     43  O   UNL     1       6.777 -10.890  43.316  1.00  0.00    -0.508 OA
ATOM     44  H   UNL     1       7.247 -11.620  43.851  1.00  0.00     0.293 HD
ENDBRANCH  42  43
ENDBRANCH  32  37
ENDBRANCH  23  24
ENDBRANCH   6  23
BRANCH   3  45
ATOM     45  O   UNL     1      13.377  -4.968  33.512  1.00  0.00    -0.387 OA
ATOM     46  H   UNL     1      13.489  -4.538  32.617  1.00  0.00     0.211 HD
ENDBRANCH   3  45
BRANCH   4  47
ATOM     47  C   UNL     1      11.540  -5.025  35.686  1.00  0.00     0.191 C 
BRANCH  47  48
ATOM     48  O   UNL     1      10.169  -4.716  35.596  1.00  0.00    -0.394 OA
ATOM     49  H   UNL     1      10.064  -4.077  34.848  1.00  0.00     0.210 HD
ENDBRANCH  47  48
ENDBRANCH   4  47
TORSDOF 14
ENDMDL
MODEL 5
REMARK VINA RESULT:    -6.322      2.131      3.137
REMARK INTER + INTRA:         -12.114
REMARK INTER:                  -9.702
REMARK INTRA:                  -2.413
REMARK UNBOUND:                -2.097
REMARK SMILES C[C@H]1O[C@H](O[C@@H]2[C@H](Oc3cc(O)c4c(c3)O[C@H](c3ccc(O)cc3)CC4=O)O[C@H](CO)[C@H](O)[C@@H]2O)[C@@H](O)[C@H](O)[C@H]1O
REMARK SMILES IDX 6 1 34 2 32 3 29 4 28 5 7 6 5 7 4 8 1 9 2 10 40 11 3 12
REMARK SMILES IDX 38 13 36 14 41 15 39 17 37 19 35 21 8 23 9 24 10 25 15 26
REMARK SMILES IDX 11 27 14 28 13 29 16 30 26 31 17 32 27 33 25 34 12 35 18 37
REMARK SMILES IDX 19 38 24 39 20 40 23 41 21 42 22 43 33 45 30 47 31 48
REMARK H PARENT 41 16 39 18 37 20 35 22 12 36 22 44 33 46 31 49
REMARK Flexibility Score: inf
ROOT
ATOM      1  C   UNL     1      12.554  -5.550  35.842  1.00  0.00     0.221 C 
ATOM      2  C   UNL     1      12.229  -6.782  34.972  1.00  0.00     0.181 C 
ATOM      3  C   UNL     1      13.262  -7.923  35.130  1.00  0.00     0.177 C 
ATOM      4  C   UNL     1      14.108  -7.791  36.421  1.00  0.00     0.179 C 
ATOM      5  O   UNL     1      13.338  -7.304  37.516  1.00  0.00    -0.332 OA
ATOM      6  C   UNL     1      12.692  -6.039  37.313  1.00  0.00     0.339 C 
ENDROOT
BRANCH   1   7
ATOM      7  O   UNL     1      13.718  -4.863  35.395  1.00  0.00    -0.337 OA
BRANCH   7   8
ATOM      8  C   UNL     1      13.480  -3.483  35.190  1.00  0.00     0.282 C 
ATOM      9  C   UNL     1      16.026  -1.290  34.242  1.00  0.00     0.041 C 
ATOM     10  C   UNL     1      15.721  -2.736  34.677  1.00  0.00     0.150 C 
ATOM     11  C   UNL     1      15.593  -3.731  33.488  1.00  0.00     0.174 C 
ATOM     12  O   UNL     1      14.615  -2.712  35.571  1.00  0.00    -0.344 OA
ATOM     13  C   UNL     1      14.218  -3.613  32.759  1.00  0.00     0.179 C 
ATOM     14  C   UNL     1      13.080  -3.225  33.727  1.00  0.00     0.202 C 
BRANCH  11  15
ATOM     15  O   UNL     1      16.669  -3.610  32.574  1.00  0.00    -0.388 OA
ATOM     16  H   UNL     1      16.917  -2.642  32.501  1.00  0.00     0.211 HD
ENDBRANCH  11  15
BRANCH  13  17
ATOM     17  O   UNL     1      13.902  -4.835  32.142  1.00  0.00    -0.387 OA
ATOM     18  H   UNL     1      14.292  -5.546  32.703  1.00  0.00     0.211 HD
ENDBRANCH  13  17
BRANCH  14  19
ATOM     19  O   UNL     1      12.750  -1.879  33.541  1.00  0.00    -0.385 OA
ATOM     20  H   UNL     1      12.085  -1.652  34.250  1.00  0.00     0.211 HD
ENDBRANCH  14  19
ENDBRANCH   7   8
ENDBRANCH   1   7
BRANCH   2  21
ATOM     21  O   UNL     1      12.007  -6.452  33.617  1.00  0.00    -0.387 OA
ATOM     22  H   UNL     1      12.890  -6.150  33.239  1.00  0.00     0.211 HD
ENDBRANCH   2  21
BRANCH   6  23
ATOM     23  O   UNL     1      13.298  -5.043  38.156  1.00  0.00    -0.462 OA
BRANCH  23  24
ATOM     24  C   UNL     1      12.462  -4.392  39.074  1.00  0.00     0.130 A 
ATOM     25  C   UNL     1      12.111  -5.011  40.274  1.00  0.00     0.093 A 
ATOM     26  C   UNL     1      11.647  -3.374  38.597  1.00  0.00     0.094 A 
ATOM     27  C   UNL     1      10.809  -4.875  40.771  1.00  0.00     0.133 A 
ATOM     28  C   UNL     1      10.283  -3.496  38.850  1.00  0.00     0.138 A 
ATOM     29  C   UNL     1       9.841  -4.211  39.986  1.00  0.00     0.102 A 
ATOM     30  O   UNL     1       9.363  -2.997  37.921  1.00  0.00    -0.484 OA
ATOM     31  C   UNL     1       8.376  -4.309  40.208  1.00  0.00     0.174 C 
ATOM     32  C   UNL     1       7.985  -3.377  37.981  1.00  0.00     0.211 C 
ATOM     33  O   UNL     1       7.871  -5.252  40.879  1.00  0.00    -0.294 OA
ATOM     34  C   UNL     1       7.487  -3.373  39.433  1.00  0.00     0.131 C 
BRANCH  27  35
ATOM     35  O   UNL     1      10.504  -5.442  42.008  1.00  0.00    -0.507 OA
ATOM     36  H   UNL     1       9.584  -5.386  42.416  1.00  0.00     0.293 HD
ENDBRANCH  27  35
BRANCH  32  37
ATOM     37  C   UNL     1       7.154  -2.500  37.081  1.00  0.00    -0.007 A 
ATOM     38  C   UNL     1       7.132  -2.723  35.690  1.00  0.00     0.011 A 
ATOM     39  C   UNL     1       6.374  -1.466  37.619  1.00  0.00     0.011 A 
ATOM     40  C   UNL     1       6.392  -1.890  34.846  1.00  0.00     0.046 A 
ATOM     41  C   UNL     1       5.629  -0.645  36.784  1.00  0.00     0.046 A 
ATOM     42  C   UNL     1       5.633  -0.844  35.399  1.00  0.00     0.115 A 
BRANCH  42  43
ATOM     43  O   UNL     1       4.875  -0.021  34.581  1.00  0.00    -0.508 OA
ATOM     44  H   UNL     1       5.044   0.984  34.538  1.00  0.00     0.293 HD
ENDBRANCH  42  43
ENDBRANCH  32  37
ENDBRANCH  23  24
ENDBRANCH   6  23
BRANCH   3  45
ATOM     45  O   UNL     1      14.085  -8.029  33.996  1.00  0.00    -0.387 OA
ATOM     46  H   UNL     1      15.018  -7.847  34.306  1.00  0.00     0.211 HD
ENDBRANCH   3  45
BRANCH   4  47
ATOM     47  C   UNL     1      15.450  -7.020  36.282  1.00  0.00     0.191 C 
BRANCH  47  48
ATOM     48  O   UNL     1      15.910  -6.631  37.556  1.00  0.00    -0.394 OA
ATOM     49  H   UNL     1      15.144  -6.216  38.025  1.00  0.00     0.210 HD
ENDBRANCH  47  48
ENDBRANCH   4  47
TORSDOF 14
ENDMDL
MODEL 6
REMARK VINA RESULT:    -6.294      1.457      2.349
REMARK INTER + INTRA:         -12.070
REMARK INTER:                  -9.692
REMARK INTRA:                  -2.378
REMARK UNBOUND:                -2.097
REMARK SMILES C[C@H]1O[C@H](O[C@@H]2[C@H](Oc3cc(O)c4c(c3)O[C@H](c3ccc(O)cc3)CC4=O)O[C@H](CO)[C@H](O)[C@@H]2O)[C@@H](O)[C@H](O)[C@H]1O
REMARK SMILES IDX 6 1 34 2 32 3 29 4 28 5 7 6 5 7 4 8 1 9 2 10 40 11 3 12
REMARK SMILES IDX 38 13 36 14 41 15 39 17 37 19 35 21 8 23 9 24 10 25 15 26
REMARK SMILES IDX 11 27 14 28 13 29 16 30 26 31 17 32 27 33 25 34 12 35 18 37
REMARK SMILES IDX 19 38 24 39 20 40 23 41 21 42 22 43 33 45 30 47 31 48
REMARK H PARENT 41 16 39 18 37 20 35 22 12 36 22 44 33 46 31 49
REMARK Flexibility Score: inf
ROOT
ATOM      1  C   UNL     1      12.828  -6.916  37.144  1.00  0.00     0.221 C 
ATOM      2  C   UNL     1      13.156  -8.423  37.130  1.00  0.00     0.181 C 
ATOM      3  C   UNL     1      14.659  -8.716  37.351  1.00  0.00     0.177 C 
ATOM      4  C   UNL     1      15.416  -7.522  37.985  1.00  0.00     0.179 C 
ATOM      5  O   UNL     1      14.623  -6.840  38.951  1.00  0.00    -0.332 OA
ATOM      6  C   UNL     1      13.365  -6.331  38.483  1.00  0.00     0.339 C 
ENDROOT
BRANCH   1   7
ATOM      7  O   UNL     1      13.359  -6.235  36.012  1.00  0.00    -0.337 OA
BRANCH   7   8
ATOM      8  C   UNL     1      12.457  -6.228  34.921  1.00  0.00     0.282 C 
ATOM      9  C   UNL     1      10.551  -3.415  34.120  1.00  0.00     0.041 C 
ATOM     10  C   UNL     1      11.528  -4.008  35.152  1.00  0.00     0.150 C 
ATOM     11  C   UNL     1      13.003  -3.558  34.945  1.00  0.00     0.174 C 
ATOM     12  O   UNL     1      11.323  -5.415  35.207  1.00  0.00    -0.344 OA
ATOM     13  C   UNL     1      13.700  -4.324  33.778  1.00  0.00     0.179 C 
ATOM     14  C   UNL     1      13.179  -5.770  33.641  1.00  0.00     0.202 C 
BRANCH  11  15
ATOM     15  O   UNL     1      13.112  -2.155  34.775  1.00  0.00    -0.388 OA
ATOM     16  H   UNL     1      13.400  -1.971  33.833  1.00  0.00     0.211 HD
ENDBRANCH  11  15
BRANCH  13  17
ATOM     17  O   UNL     1      15.089  -4.353  33.993  1.00  0.00    -0.387 OA
ATOM     18  H   UNL     1      15.375  -5.290  33.878  1.00  0.00     0.211 HD
ENDBRANCH  13  17
BRANCH  14  19
ATOM     19  O   UNL     1      12.320  -5.853  32.540  1.00  0.00    -0.385 OA
ATOM     20  H   UNL     1      11.897  -6.756  32.581  1.00  0.00     0.211 HD
ENDBRANCH  14  19
ENDBRANCH   7   8
ENDBRANCH   1   7
BRANCH   2  21
ATOM     21  O   UNL     1      12.650  -9.082  35.989  1.00  0.00    -0.387 OA
ATOM     22  H   UNL     1      13.442  -9.389  35.449  1.00  0.00     0.211 HD
ENDBRANCH   2  21
BRANCH   6  23
ATOM     23  O   UNL     1      13.397  -4.894  38.468  1.00  0.00    -0.462 OA
BRANCH  23  24
ATOM     24  C   UNL     1      12.518  -4.229  39.334  1.00  0.00     0.130 A 
ATOM     25  C   UNL     1      12.151  -4.806  40.551  1.00  0.00     0.093 A 
ATOM     26  C   UNL     1      11.689  -3.256  38.792  1.00  0.00     0.094 A 
ATOM     27  C   UNL     1      10.833  -4.686  41.006  1.00  0.00     0.133 A 
ATOM     28  C   UNL     1      10.322  -3.407  39.013  1.00  0.00     0.138 A 
ATOM     29  C   UNL     1       9.868  -4.084  40.167  1.00  0.00     0.102 A 
ATOM     30  O   UNL     1       9.415  -2.975  38.039  1.00  0.00    -0.484 OA
ATOM     31  C   UNL     1       8.401  -4.215  40.354  1.00  0.00     0.174 C 
ATOM     32  C   UNL     1       8.048  -3.391  38.079  1.00  0.00     0.211 C 
ATOM     33  O   UNL     1       7.904  -5.143  41.052  1.00  0.00    -0.294 OA
ATOM     34  C   UNL     1       7.509  -3.339  39.516  1.00  0.00     0.131 C 
BRANCH  27  35
ATOM     35  O   UNL     1      10.508  -5.208  42.258  1.00  0.00    -0.507 OA
ATOM     36  H   UNL     1       9.977  -4.689  42.939  1.00  0.00     0.293 HD
ENDBRANCH  27  35
BRANCH  32  37
ATOM     37  C   UNL     1       7.218  -2.578  37.119  1.00  0.00    -0.007 A 
ATOM     38  C   UNL     1       6.451  -1.491  37.584  1.00  0.00     0.011 A 
ATOM     39  C   UNL     1       7.218  -2.877  35.750  1.00  0.00     0.011 A 
ATOM     40  C   UNL     1       5.651  -0.756  36.704  1.00  0.00     0.046 A 
ATOM     41  C   UNL     1       6.433  -2.142  34.872  1.00  0.00     0.046 A 
ATOM     42  C   UNL     1       5.644  -1.084  35.337  1.00  0.00     0.115 A 
BRANCH  42  43
ATOM     43  O   UNL     1       4.875  -0.353  34.446  1.00  0.00    -0.508 OA
ATOM     44  H   UNL     1       5.305   0.235  33.732  1.00  0.00     0.293 HD
ENDBRANCH  42  43
ENDBRANCH  32  37
ENDBRANCH  23  24
ENDBRANCH   6  23
BRANCH   3  45
ATOM     45  O   UNL     1      15.280  -9.133  36.162  1.00  0.00    -0.387 OA
ATOM     46  H   UNL     1      15.310 -10.132  36.194  1.00  0.00     0.211 HD
ENDBRANCH   3  45
BRANCH   4  47
ATOM     47  C   UNL     1      16.079  -6.529  36.989  1.00  0.00     0.191 C 
BRANCH  47  48
ATOM     48  O   UNL     1      16.043  -5.226  37.523  1.00  0.00    -0.394 OA
ATOM     49  H   UNL     1      16.579  -5.238  38.354  1.00  0.00     0.210 HD
ENDBRANCH  47  48
ENDBRANCH   4  47
TORSDOF 14
ENDMDL
MODEL 7
REMARK VINA RESULT:    -6.258      9.664     14.113
REMARK INTER + INTRA:         -12.014
REMARK INTER:                  -9.389
REMARK INTRA:                  -2.624
REMARK UNBOUND:                -2.097
REMARK SMILES C[C@H]1O[C@H](O[C@@H]2[C@H](Oc3cc(O)c4c(c3)O[C@H](c3ccc(O)cc3)CC4=O)O[C@H](CO)[C@H](O)[C@@H]2O)[C@@H](O)[C@H](O)[C@H]1O
REMARK SMILES IDX 6 1 34 2 32 3 29 4 28 5 7 6 5 7 4 8 1 9 2 10 40 11 3 12
REMARK SMILES IDX 38 13 36 14 41 15 39 17 37 19 35 21 8 23 9 24 10 25 15 26
REMARK SMILES IDX 11 27 14 28 13 29 16 30 26 31 17 32 27 33 25 34 12 35 18 37
REMARK SMILES IDX 19 38 24 39 20 40 23 41 21 42 22 43 33 45 30 47 31 48
REMARK H PARENT 41 16 39 18 37 20 35 22 12 36 22 44 33 46 31 49
REMARK Flexibility Score: inf
ROOT
ATOM      1  C   UNL     1      22.573 -11.314  44.510  1.00  0.00     0.221 C 
ATOM      2  C   UNL     1      22.764 -10.806  45.954  1.00  0.00     0.181 C 
ATOM      3  C   UNL     1      24.007 -11.411  46.648  1.00  0.00     0.177 C 
ATOM      4  C   UNL     1      25.024 -12.008  45.643  1.00  0.00     0.179 C 
ATOM      5  O   UNL     1      25.118 -11.228  44.454  1.00  0.00    -0.332 OA
ATOM      6  C   UNL     1      23.893 -11.031  43.735  1.00  0.00     0.339 C 
ENDROOT
BRANCH   1   7
ATOM      7  O   UNL     1      22.209 -12.689  44.464  1.00  0.00    -0.337 OA
BRANCH   7   8
ATOM      8  C   UNL     1      20.805 -12.873  44.489  1.00  0.00     0.282 C 
ATOM      9  C   UNL     1      19.308 -15.811  43.344  1.00  0.00     0.041 C 
ATOM     10  C   UNL     1      20.644 -15.055  43.461  1.00  0.00     0.150 C 
ATOM     11  C   UNL     1      21.508 -15.499  44.676  1.00  0.00     0.174 C 
ATOM     12  O   UNL     1      20.379 -13.660  43.381  1.00  0.00    -0.344 OA
ATOM     13  C   UNL     1      20.998 -14.896  46.021  1.00  0.00     0.179 C 
ATOM     14  C   UNL     1      20.377 -13.496  45.829  1.00  0.00     0.202 C 
BRANCH  11  15
ATOM     15  O   UNL     1      21.625 -16.909  44.758  1.00  0.00    -0.388 OA
ATOM     16  H   UNL     1      21.587 -17.286  43.831  1.00  0.00     0.211 HD
ENDBRANCH  11  15
BRANCH  13  17
ATOM     17  O   UNL     1      22.062 -14.807  46.935  1.00  0.00    -0.387 OA
ATOM     18  H   UNL     1      22.218 -15.719  47.278  1.00  0.00     0.211 HD
ENDBRANCH  13  17
BRANCH  14  19
ATOM     19  O   UNL     1      18.984 -13.591  45.900  1.00  0.00    -0.385 OA
ATOM     20  H   UNL     1      18.633 -13.216  45.044  1.00  0.00     0.211 HD
ENDBRANCH  14  19
ENDBRANCH   7   8
ENDBRANCH   1   7
BRANCH   2  21
ATOM     21  O   UNL     1      21.599 -10.943  46.741  1.00  0.00    -0.387 OA
ATOM     22  H   UNL     1      21.752 -11.718  47.363  1.00  0.00     0.211 HD
ENDBRANCH   2  21
BRANCH   6  23
ATOM     23  O   UNL     1      23.943 -11.738  42.484  1.00  0.00    -0.462 OA
BRANCH  23  24
ATOM     24  C   UNL     1      23.255 -11.170  41.404  1.00  0.00     0.130 A 
ATOM     25  C   UNL     1      23.523  -9.860  41.003  1.00  0.00     0.093 A 
ATOM     26  C   UNL     1      22.033 -11.727  41.050  1.00  0.00     0.094 A 
ATOM     27  C   UNL     1      22.472  -9.028  40.600  1.00  0.00     0.133 A 
ATOM     28  C   UNL     1      20.942 -10.863  41.004  1.00  0.00     0.138 A 
ATOM     29  C   UNL     1      21.143  -9.493  40.719  1.00  0.00     0.102 A 
ATOM     30  O   UNL     1      19.671 -11.341  41.341  1.00  0.00    -0.484 OA
ATOM     31  C   UNL     1      19.945  -8.617  40.682  1.00  0.00     0.174 C 
ATOM     32  C   UNL     1      18.599 -10.434  41.613  1.00  0.00     0.211 C 
ATOM     33  O   UNL     1      20.028  -7.374  40.890  1.00  0.00    -0.294 OA
ATOM     34  C   UNL     1      18.596  -9.281  40.600  1.00  0.00     0.131 C 
BRANCH  27  35
ATOM     35  O   UNL     1      22.773  -7.748  40.135  1.00  0.00    -0.507 OA
ATOM     36  H   UNL     1      23.209  -7.586  39.242  1.00  0.00     0.293 HD
ENDBRANCH  27  35
BRANCH  32  37
ATOM     37  C   UNL     1      17.283 -11.167  41.659  1.00  0.00    -0.007 A 
ATOM     38  C   UNL     1      17.231 -12.555  41.419  1.00  0.00     0.011 A 
ATOM     39  C   UNL     1      16.098 -10.483  41.966  1.00  0.00     0.011 A 
ATOM     40  C   UNL     1      16.010 -13.234  41.424  1.00  0.00     0.046 A 
ATOM     41  C   UNL     1      14.885 -11.157  41.983  1.00  0.00     0.046 A 
ATOM     42  C   UNL     1      14.827 -12.528  41.711  1.00  0.00     0.115 A 
BRANCH  42  43
ATOM     43  O   UNL     1      13.609 -13.188  41.743  1.00  0.00    -0.508 OA
ATOM     44  H   UNL     1      13.557 -14.206  41.715  1.00  0.00     0.293 HD
ENDBRANCH  42  43
ENDBRANCH  32  37
ENDBRANCH  23  24
ENDBRANCH   6  23
BRANCH   3  45
ATOM     45  O   UNL     1      23.641 -12.359  47.618  1.00  0.00    -0.387 OA
ATOM     46  H   UNL     1      24.207 -13.166  47.452  1.00  0.00     0.211 HD
ENDBRANCH   3  45
BRANCH   4  47
ATOM     47  C   UNL     1      24.858 -13.519  45.321  1.00  0.00     0.191 C 
BRANCH  47  48
ATOM     48  O   UNL     1      25.124 -14.283  46.475  1.00  0.00    -0.394 OA
ATOM     49  H   UNL     1      25.958 -14.787  46.303  1.00  0.00     0.210 HD
ENDBRANCH  47  48
ENDBRANCH   4  47
TORSDOF 14
ENDMDL
MODEL 8
REMARK VINA RESULT:    -6.215      1.352      4.047
REMARK INTER + INTRA:         -11.945
REMARK INTER:                 -10.052
REMARK INTRA:                  -1.893
REMARK UNBOUND:                -2.097
REMARK SMILES C[C@H]1O[C@H](O[C@@H]2[C@H](Oc3cc(O)c4c(c3)O[C@H](c3ccc(O)cc3)CC4=O)O[C@H](CO)[C@H](O)[C@@H]2O)[C@@H](O)[C@H](O)[C@H]1O
REMARK SMILES IDX 6 1 34 2 32 3 29 4 28 5 7 6 5 7 4 8 1 9 2 10 40 11 3 12
REMARK SMILES IDX 38 13 36 14 41 15 39 17 37 19 35 21 8 23 9 24 10 25 15 26
REMARK SMILES IDX 11 27 14 28 13 29 16 30 26 31 17 32 27 33 25 34 12 35 18 37
REMARK SMILES IDX 19 38 24 39 20 40 23 41 21 42 22 43 33 45 30 47 31 48
REMARK H PARENT 41 16 39 18 37 20 35 22 12 36 22 44 33 46 31 49
REMARK Flexibility Score: inf
ROOT
ATOM      1  C   UNL     1      14.619  -6.335  36.624  1.00  0.00     0.221 C 
ATOM      2  C   UNL     1      15.116  -6.107  35.181  1.00  0.00     0.181 C 
ATOM      3  C   UNL     1      14.198  -6.752  34.116  1.00  0.00     0.177 C 
ATOM      4  C   UNL     1      12.783  -7.072  34.659  1.00  0.00     0.179 C 
ATOM      5  O   UNL     1      12.318  -6.072  35.560  1.00  0.00    -0.332 OA
ATOM      6  C   UNL     1      13.152  -5.820  36.700  1.00  0.00     0.339 C 
ENDROOT
BRANCH   1   7
ATOM      7  O   UNL     1      14.729  -7.696  37.025  1.00  0.00    -0.337 OA
BRANCH   7   8
ATOM      8  C   UNL     1      15.919  -7.945  37.751  1.00  0.00     0.282 C 
ATOM      9  C   UNL     1      16.034  -7.744  41.234  1.00  0.00     0.041 C 
ATOM     10  C   UNL     1      15.148  -7.502  39.999  1.00  0.00     0.150 C 
ATOM     11  C   UNL     1      14.160  -8.666  39.702  1.00  0.00     0.174 C 
ATOM     12  O   UNL     1      15.985  -7.124  38.913  1.00  0.00    -0.344 OA
ATOM     13  C   UNL     1      14.860  -9.881  39.017  1.00  0.00     0.179 C 
ATOM     14  C   UNL     1      16.022  -9.439  38.103  1.00  0.00     0.202 C 
BRANCH  11  15
ATOM     15  O   UNL     1      13.451  -9.071  40.861  1.00  0.00    -0.388 OA
ATOM     16  H   UNL     1      14.094  -9.116  41.628  1.00  0.00     0.211 HD
ENDBRANCH  11  15
BRANCH  13  17
ATOM     17  O   UNL     1      13.924 -10.602  38.258  1.00  0.00    -0.387 OA
ATOM     18  H   UNL     1      13.171  -9.990  38.078  1.00  0.00     0.211 HD
ENDBRANCH  13  17
BRANCH  14  19
ATOM     19  O   UNL     1      17.240  -9.709  38.734  1.00  0.00    -0.385 OA
ATOM     20  H   UNL     1      17.953  -9.354  38.133  1.00  0.00     0.211 HD
ENDBRANCH  14  19
ENDBRANCH   7   8
ENDBRANCH   1   7
BRANCH   2  21
ATOM     21  O   UNL     1      16.469  -6.471  35.005  1.00  0.00    -0.387 OA
ATOM     22  H   UNL     1      16.573  -7.405  35.366  1.00  0.00     0.211 HD
ENDBRANCH   2  21
BRANCH   6  23
ATOM     23  O   UNL     1      12.488  -6.264  37.896  1.00  0.00    -0.462 OA
BRANCH  23  24
ATOM     24  C   UNL     1      11.984  -5.274  38.750  1.00  0.00     0.130 A 
ATOM     25  C   UNL     1      11.717  -5.561  40.090  1.00  0.00     0.093 A 
ATOM     26  C   UNL     1      11.341  -4.187  38.172  1.00  0.00     0.094 A 
ATOM     27  C   UNL     1      10.582  -5.021  40.703  1.00  0.00     0.133 A 
ATOM     28  C   UNL     1      10.048  -3.920  38.612  1.00  0.00     0.138 A 
ATOM     29  C   UNL     1       9.661  -4.288  39.921  1.00  0.00     0.102 A 
ATOM     30  O   UNL     1       9.113  -3.383  37.719  1.00  0.00    -0.484 OA
ATOM     31  C   UNL     1       8.270  -3.979  40.338  1.00  0.00     0.174 C 
ATOM     32  C   UNL     1       7.717  -3.393  38.030  1.00  0.00     0.211 C 
ATOM     33  O   UNL     1       7.695  -4.632  41.253  1.00  0.00    -0.294 OA
ATOM     34  C   UNL     1       7.488  -3.006  39.498  1.00  0.00     0.131 C 
BRANCH  27  35
ATOM     35  O   UNL     1      10.376  -5.264  42.062  1.00  0.00    -0.507 OA
ATOM     36  H   UNL     1       9.670  -5.899  42.396  1.00  0.00     0.293 HD
ENDBRANCH  27  35
BRANCH  32  37
ATOM     37  C   UNL     1       6.956  -2.512  37.073  1.00  0.00    -0.007 A 
ATOM     38  C   UNL     1       6.822  -2.879  35.719  1.00  0.00     0.011 A 
ATOM     39  C   UNL     1       6.351  -1.330  37.523  1.00  0.00     0.011 A 
ATOM     40  C   UNL     1       6.148  -2.048  34.819  1.00  0.00     0.046 A 
ATOM     41  C   UNL     1       5.671  -0.509  36.634  1.00  0.00     0.046 A 
ATOM     42  C   UNL     1       5.566  -0.854  35.282  1.00  0.00     0.115 A 
BRANCH  42  43
ATOM     43  O   UNL     1       4.875  -0.029  34.410  1.00  0.00    -0.508 OA
ATOM     44  H   UNL     1       5.007   0.982  34.421  1.00  0.00     0.293 HD
ENDBRANCH  42  43
ENDBRANCH  32  37
ENDBRANCH  23  24
ENDBRANCH   6  23
BRANCH   3  45
ATOM     45  O   UNL     1      14.792  -7.893  33.551  1.00  0.00    -0.387 OA
ATOM     46  H   UNL     1      15.573  -8.121  34.131  1.00  0.00     0.211 HD
ENDBRANCH   3  45
BRANCH   4  47
ATOM     47  C   UNL     1      12.582  -8.499  35.241  1.00  0.00     0.191 C 
BRANCH  47  48
ATOM     48  O   UNL     1      12.429  -9.424  34.189  1.00  0.00    -0.394 OA
ATOM     49  H   UNL     1      11.475  -9.411  33.928  1.00  0.00     0.210 HD
ENDBRANCH  47  48
ENDBRANCH   4  47
TORSDOF 14
ENDMDL
MODEL 9
REMARK VINA RESULT:    -6.202      3.013      5.140
REMARK INTER + INTRA:         -11.925
REMARK INTER:                 -10.000
REMARK INTRA:                  -1.925
REMARK UNBOUND:                -2.097
REMARK SMILES C[C@H]1O[C@H](O[C@@H]2[C@H](Oc3cc(O)c4c(c3)O[C@H](c3ccc(O)cc3)CC4=O)O[C@H](CO)[C@H](O)[C@@H]2O)[C@@H](O)[C@H](O)[C@H]1O
REMARK SMILES IDX 6 1 34 2 32 3 29 4 28 5 7 6 5 7 4 8 1 9 2 10 40 11 3 12
REMARK SMILES IDX 38 13 36 14 41 15 39 17 37 19 35 21 8 23 9 24 10 25 15 26
REMARK SMILES IDX 11 27 14 28 13 29 16 30 26 31 17 32 27 33 25 34 12 35 18 37
REMARK SMILES IDX 19 38 24 39 20 40 23 41 21 42 22 43 33 45 30 47 31 48
REMARK H PARENT 41 16 39 18 37 20 35 22 12 36 22 44 33 46 31 49
REMARK Flexibility Score: inf
ROOT
ATOM      1  C   UNL     1      12.459  -6.093  36.842  1.00  0.00     0.221 C 
ATOM      2  C   UNL     1      13.087  -7.488  36.645  1.00  0.00     0.181 C 
ATOM      3  C   UNL     1      14.621  -7.495  36.846  1.00  0.00     0.177 C 
ATOM      4  C   UNL     1      15.128  -6.260  37.632  1.00  0.00     0.179 C 
ATOM      5  O   UNL     1      14.225  -5.878  38.666  1.00  0.00    -0.332 OA
ATOM      6  C   UNL     1      12.884  -5.582  38.250  1.00  0.00     0.339 C 
ENDROOT
BRANCH   1   7
ATOM      7  O   UNL     1      12.825  -5.184  35.810  1.00  0.00    -0.337 OA
BRANCH   7   8
ATOM      8  C   UNL     1      11.697  -4.594  35.190  1.00  0.00     0.282 C 
ATOM      9  C   UNL     1      12.016  -2.236  32.635  1.00  0.00     0.041 C 
ATOM     10  C   UNL     1      12.796  -3.070  33.669  1.00  0.00     0.150 C 
ATOM     11  C   UNL     1      13.412  -4.373  33.084  1.00  0.00     0.174 C 
ATOM     12  O   UNL     1      11.972  -3.248  34.815  1.00  0.00    -0.344 OA
ATOM     13  C   UNL     1      12.351  -5.504  32.906  1.00  0.00     0.179 C 
ATOM     14  C   UNL     1      11.251  -5.442  33.986  1.00  0.00     0.202 C 
BRANCH  11  15
ATOM     15  O   UNL     1      14.113  -4.134  31.876  1.00  0.00    -0.388 OA
ATOM     16  H   UNL     1      13.496  -4.318  31.108  1.00  0.00     0.211 HD
ENDBRANCH  11  15
BRANCH  13  17
ATOM     17  O   UNL     1      12.982  -6.758  32.962  1.00  0.00    -0.387 OA
ATOM     18  H   UNL     1      12.606  -7.231  33.741  1.00  0.00     0.211 HD
ENDBRANCH  13  17
BRANCH  14  19
ATOM     19  O   UNL     1      10.080  -4.919  33.428  1.00  0.00    -0.385 OA
ATOM     20  H   UNL     1       9.639  -4.386  34.148  1.00  0.00     0.211 HD
ENDBRANCH  14  19
ENDBRANCH   7   8
ENDBRANCH   1   7
BRANCH   2  21
ATOM     21  O   UNL     1      12.710  -8.090  35.424  1.00  0.00    -0.387 OA
ATOM     22  H   UNL     1      13.295  -7.695  34.707  1.00  0.00     0.211 HD
ENDBRANCH   2  21
BRANCH   6  23
ATOM     23  O   UNL     1      12.623  -4.178  38.413  1.00  0.00    -0.462 OA
BRANCH  23  24
ATOM     24  C   UNL     1      11.324  -3.812  38.791  1.00  0.00     0.130 A 
ATOM     25  C   UNL     1      11.075  -2.559  39.353  1.00  0.00     0.093 A 
ATOM     26  C   UNL     1      10.408  -4.830  39.026  1.00  0.00     0.094 A 
ATOM     27  C   UNL     1      10.159  -2.438  40.404  1.00  0.00     0.133 A 
ATOM     28  C   UNL     1       9.775  -4.826  40.266  1.00  0.00     0.138 A 
ATOM     29  C   UNL     1       9.590  -3.608  40.957  1.00  0.00     0.102 A 
ATOM     30  O   UNL     1       9.422  -6.043  40.862  1.00  0.00    -0.484 OA
ATOM     31  C   UNL     1       8.909  -3.662  42.275  1.00  0.00     0.174 C 
ATOM     32  C   UNL     1       9.070  -6.101  42.247  1.00  0.00     0.211 C 
ATOM     33  O   UNL     1       9.088  -2.768  43.149  1.00  0.00    -0.294 OA
ATOM     34  C   UNL     1       8.163  -4.922  42.624  1.00  0.00     0.131 C 
BRANCH  27  35
ATOM     35  O   UNL     1       9.874  -1.166  40.900  1.00  0.00    -0.507 OA
ATOM     36  H   UNL     1       9.069  -0.978  41.474  1.00  0.00     0.293 HD
ENDBRANCH  27  35
BRANCH  32  37
ATOM     37  C   UNL     1       8.453  -7.436  42.580  1.00  0.00    -0.007 A 
ATOM     38  C   UNL     1       7.859  -8.219  41.571  1.00  0.00     0.011 A 
ATOM     39  C   UNL     1       8.486  -7.925  43.894  1.00  0.00     0.011 A 
ATOM     40  C   UNL     1       7.254  -9.440  41.880  1.00  0.00     0.046 A 
ATOM     41  C   UNL     1       7.895  -9.143  44.202  1.00  0.00     0.046 A 
ATOM     42  C   UNL     1       7.275  -9.906  43.207  1.00  0.00     0.115 A 
BRANCH  42  43
ATOM     43  O   UNL     1       6.699 -11.125  43.530  1.00  0.00    -0.508 OA
ATOM     44  H   UNL     1       6.671 -11.459  44.492  1.00  0.00     0.293 HD
ENDBRANCH  42  43
ENDBRANCH  32  37
ENDBRANCH  23  24
ENDBRANCH   6  23
BRANCH   3  45
ATOM     45  O   UNL     1      15.297  -7.626  35.622  1.00  0.00    -0.387 OA
ATOM     46  H   UNL     1      16.273  -7.648  35.839  1.00  0.00     0.211 HD
ENDBRANCH   3  45
BRANCH   4  47
ATOM     47  C   UNL     1      15.562  -5.037  36.776  1.00  0.00     0.191 C 
BRANCH  47  48
ATOM     48  O   UNL     1      15.270  -3.845  37.467  1.00  0.00    -0.394 OA
ATOM     49  H   UNL     1      15.169  -3.133  36.788  1.00  0.00     0.210 HD
ENDBRANCH  47  48
ENDBRANCH   4  47
TORSDOF 14
ENDMDL
