MODEL 1
REMARK VINA RESULT:    21.241      0.000      0.000
REMARK INTER + INTRA:          27.569
REMARK INTER:                  24.966
REMARK INTRA:                   2.603
REMARK UNBOUND:                 2.603
REMARK SMILES C=C(C)[C@H]1CC[C@@]2(CO)CC[C@]3(C)[C@H](CC[C@H]4[C@@]5(C)CC[C@H](O)C(C)(C)[C@H]5CC[C@@]43C)[C@@H]12
REMARK SMILES IDX 4 1 5 2 6 3 7 4 32 5 14 6 15 7 16 8 17 9 18 10 20 11 21 12
REMARK SMILES IDX 22 13 24 14 27 15 28 16 29 17 30 18 12 19 11 20 10 21 13 22
REMARK SMILES IDX 31 23 25 24 26 25 19 26 2 27 3 28 1 29 8 30 9 31 23 33
REMARK H PARENT 9 32 23 34
REMARK Flexibility Score: inf
ROOT
ATOM      1  C   UNL     1      43.926  19.480  -1.825  1.00  0.00     0.018 C 
ATOM      2  C   UNL     1      42.866  19.405  -0.711  1.00  0.00     0.009 C 
ATOM      3  C   UNL     1      42.305  20.808  -0.543  1.00  0.00     0.010 C 
ATOM      4  C   UNL     1      42.678  21.599  -1.811  1.00  0.00    -0.003 C 
ATOM      5  C   UNL     1      44.049  20.984  -2.266  1.00  0.00     0.008 C 
ATOM      6  C   UNL     1      45.343  21.724  -1.740  1.00  0.00    -0.000 C 
ATOM      7  C   UNL     1      46.603  21.336  -2.593  1.00  0.00     0.005 C 
ATOM      8  C   UNL     1      47.854  22.208  -2.332  1.00  0.00     0.005 C 
ATOM      9  C   UNL     1      47.778  22.858  -0.934  1.00  0.00     0.002 C 
ATOM     10  C   UNL     1      49.159  23.216  -0.226  1.00  0.00    -0.026 C 
ATOM     11  C   UNL     1      50.034  24.143  -1.120  1.00  0.00     0.010 C 
ATOM     12  C   UNL     1      51.275  24.688  -0.414  1.00  0.00     0.033 C 
ATOM     13  C   UNL     1      50.911  25.429   0.883  1.00  0.00     0.120 C 
ATOM     14  C   UNL     1      50.175  24.521   1.916  1.00  0.00    -0.006 C 
ATOM     15  C   UNL     1      48.902  23.820   1.232  1.00  0.00     0.003 C 
ATOM     16  C   UNL     1      47.632  24.721   1.324  1.00  0.00     0.005 C 
ATOM     17  C   UNL     1      46.380  24.193   0.607  1.00  0.00     0.008 C 
ATOM     18  C   UNL     1      46.591  23.910  -0.909  1.00  0.00    -0.024 C 
ATOM     19  C   UNL     1      45.251  23.288  -1.646  1.00  0.00    -0.024 C 
ATOM     20  C   UNL     1      43.965  23.628  -0.845  1.00  0.00     0.008 C 
ATOM     21  C   UNL     1      42.686  23.123  -1.505  1.00  0.00     0.010 C 
ATOM     22  C   UNL     1      45.058  23.843  -3.109  1.00  0.00     0.012 C 
ATOM     23  C   UNL     1      46.942  25.278  -1.584  1.00  0.00     0.012 C 
ATOM     24  C   UNL     1      51.157  23.471   2.532  1.00  0.00     0.014 C 
ATOM     25  C   UNL     1      49.753  25.424   3.118  1.00  0.00     0.014 C 
ATOM     26  C   UNL     1      49.939  21.866  -0.052  1.00  0.00     0.012 C 
ENDROOT
BRANCH   1  27
ATOM     27  C   UNL     1      45.195  18.687  -1.499  1.00  0.00    -0.077 C 
ATOM     28  C   UNL     1      46.543  19.249  -1.883  1.00  0.00     0.039 C 
ATOM     29  C   UNL     1      45.159  17.466  -0.933  1.00  0.00     0.008 C 
ENDBRANCH   1  27
BRANCH   4  30
ATOM     30  C   UNL     1      41.580  21.391  -2.907  1.00  0.00     0.163 C 
BRANCH  30  31
ATOM     31  O   UNL     1      40.807  22.539  -3.121  1.00  0.00    -0.396 OA
ATOM     32  H   UNL     1      40.191  22.609  -2.345  1.00  0.00     0.210 HD
ENDBRANCH  30  31
ENDBRANCH   4  30
BRANCH  13  33
ATOM     33  O   UNL     1      52.080  25.963   1.456  1.00  0.00    -0.393 OA
ATOM     34  H   UNL     1      52.066  26.941   1.289  1.00  0.00     0.210 HD
ENDBRANCH  13  33
TORSDOF 4
ENDMDL
