MODEL 1
REMARK VINA RESULT:    -2.935      0.000      0.000
REMARK INTER + INTRA:          -2.935
REMARK INTER:                  -2.935
REMARK INTRA:                   0.000
REMARK UNBOUND:                 0.000
REMARK SMILES CC(=O)[O-]
REMARK SMILES IDX 1 1 2 2 3 3 4 4
REMARK H PARENT
REMARK Flexibility Score: inf
ROOT
ATOM      1  C   UNL     1      10.201  13.473  20.266  1.00  0.00     0.063 C 
ATOM      2  C   UNL     1      10.105  14.803  19.596  1.00  0.00     0.038 C 
ATOM      3  O   UNL     1       9.119  15.553  19.819  1.00  0.00    -0.550 OA
ATOM      4  O   UNL     1      11.076  15.194  18.682  1.00  0.00    -0.550 OA
ENDROOT
TORSDOF 0
ENDMDL
MODEL 2
REMARK VINA RESULT:    -2.930      0.132      1.625
REMARK INTER + INTRA:          -2.930
REMARK INTER:                  -2.930
REMARK INTRA:                   0.000
REMARK UNBOUND:                 0.000
REMARK SMILES CC(=O)[O-]
REMARK SMILES IDX 1 1 2 2 3 3 4 4
REMARK H PARENT
REMARK Flexibility Score: inf
ROOT
ATOM      1  C   UNL     1      10.249  13.474  20.096  1.00  0.00     0.063 C 
ATOM      2  C   UNL     1      10.116  14.831  19.492  1.00  0.00     0.038 C 
ATOM      3  O   UNL     1      10.986  15.251  18.684  1.00  0.00    -0.550 OA
ATOM      4  O   UNL     1       9.062  15.657  19.861  1.00  0.00    -0.550 OA
ENDROOT
TORSDOF 0
ENDMDL
MODEL 3
REMARK VINA RESULT:    -2.488     16.624     17.145
REMARK INTER + INTRA:          -2.488
REMARK INTER:                  -2.488
REMARK INTRA:                   0.000
REMARK UNBOUND:                 0.000
REMARK SMILES CC(=O)[O-]
REMARK SMILES IDX 1 1 2 2 3 3 4 4
REMARK H PARENT
REMARK Flexibility Score: inf
ROOT
ATOM      1  C   UNL     1      24.369   7.269  27.176  1.00  0.00     0.063 C 
ATOM      2  C   UNL     1      23.581   6.603  26.098  1.00  0.00     0.038 C 
ATOM      3  O   UNL     1      24.147   6.244  25.032  1.00  0.00    -0.550 OA
ATOM      4  O   UNL     1      22.211   6.426  26.245  1.00  0.00    -0.550 OA
ENDROOT
TORSDOF 0
ENDMDL
MODEL 4
REMARK VINA RESULT:    -2.325     14.660     15.100
REMARK INTER + INTRA:          -2.325
REMARK INTER:                  -2.325
REMARK INTRA:                   0.000
REMARK UNBOUND:                 0.000
REMARK SMILES CC(=O)[O-]
REMARK SMILES IDX 1 1 2 2 3 3 4 4
REMARK H PARENT
REMARK Flexibility Score: inf
ROOT
ATOM      1  C   UNL     1      21.713  11.079  26.247  1.00  0.00     0.063 C 
ATOM      2  C   UNL     1      22.465  11.469  27.475  1.00  0.00     0.038 C 
ATOM      3  O   UNL     1      22.853  12.657  27.628  1.00  0.00    -0.550 OA
ATOM      4  O   UNL     1      22.786  10.511  28.428  1.00  0.00    -0.550 OA
ENDROOT
TORSDOF 0
ENDMDL
MODEL 5
REMARK VINA RESULT:    -2.319     14.640     15.048
REMARK INTER + INTRA:          -2.319
REMARK INTER:                  -2.319
REMARK INTRA:                   0.000
REMARK UNBOUND:                 0.000
REMARK SMILES CC(=O)[O-]
REMARK SMILES IDX 1 1 2 2 3 3 4 4
REMARK H PARENT
REMARK Flexibility Score: inf
ROOT
ATOM      1  C   UNL     1      25.226  19.200  23.715  1.00  0.00     0.063 C 
ATOM      2  C   UNL     1      23.875  19.305  23.093  1.00  0.00     0.038 C 
ATOM      3  O   UNL     1      23.445  18.380  22.356  1.00  0.00    -0.550 OA
ATOM      4  O   UNL     1      23.109  20.449  23.282  1.00  0.00    -0.550 OA
ENDROOT
TORSDOF 0
ENDMDL
MODEL 6
REMARK VINA RESULT:    -2.295     14.527     14.629
REMARK INTER + INTRA:          -2.295
REMARK INTER:                  -2.295
REMARK INTRA:                   0.000
REMARK UNBOUND:                 0.000
REMARK SMILES CC(=O)[O-]
REMARK SMILES IDX 1 1 2 2 3 3 4 4
REMARK H PARENT
REMARK Flexibility Score: inf
ROOT
ATOM      1  C   UNL     1      23.146  19.221  25.027  1.00  0.00     0.063 C 
ATOM      2  C   UNL     1      23.306  19.596  23.593  1.00  0.00     0.038 C 
ATOM      3  O   UNL     1      23.140  20.790  23.229  1.00  0.00    -0.550 OA
ATOM      4  O   UNL     1      23.585  18.620  22.645  1.00  0.00    -0.550 OA
ENDROOT
TORSDOF 0
ENDMDL
MODEL 7
REMARK VINA RESULT:    -2.250      1.789      2.271
REMARK INTER + INTRA:          -2.250
REMARK INTER:                  -2.250
REMARK INTRA:                   0.000
REMARK UNBOUND:                 0.000
REMARK SMILES CC(=O)[O-]
REMARK SMILES IDX 1 1 2 2 3 3 4 4
REMARK H PARENT
REMARK Flexibility Score: inf
ROOT
ATOM      1  C   UNL     1      10.955  15.050  19.432  1.00  0.00     0.063 C 
ATOM      2  C   UNL     1      10.015  14.672  20.526  1.00  0.00     0.038 C 
ATOM      3  O   UNL     1      10.139  13.565  21.112  1.00  0.00    -0.550 OA
ATOM      4  O   UNL     1       8.966  15.517  20.866  1.00  0.00    -0.550 OA
ENDROOT
TORSDOF 0
ENDMDL
MODEL 8
REMARK VINA RESULT:    -2.192      6.356      6.887
REMARK INTER + INTRA:          -2.192
REMARK INTER:                  -2.192
REMARK INTRA:                   0.000
REMARK UNBOUND:                 0.000
REMARK SMILES CC(=O)[O-]
REMARK SMILES IDX 1 1 2 2 3 3 4 4
REMARK H PARENT
REMARK Flexibility Score: inf
ROOT
ATOM      1  C   UNL     1       9.424   8.854  24.491  1.00  0.00     0.063 C 
ATOM      2  C   UNL     1       9.614  10.329  24.598  1.00  0.00     0.038 C 
ATOM      3  O   UNL     1       9.433  11.064  23.592  1.00  0.00    -0.550 OA
ATOM      4  O   UNL     1      10.044  10.891  25.794  1.00  0.00    -0.550 OA
ENDROOT
TORSDOF 0
ENDMDL
MODEL 9
REMARK VINA RESULT:    -2.099      4.016      4.602
REMARK INTER + INTRA:          -2.099
REMARK INTER:                  -2.099
REMARK INTRA:                   0.000
REMARK UNBOUND:                 0.000
REMARK SMILES CC(=O)[O-]
REMARK SMILES IDX 1 1 2 2 3 3 4 4
REMARK H PARENT
REMARK Flexibility Score: inf
ROOT
ATOM      1  C   UNL     1      10.108  13.560  23.834  1.00  0.00     0.063 C 
ATOM      2  C   UNL     1       9.759  12.444  22.907  1.00  0.00     0.038 C 
ATOM      3  O   UNL     1      10.413  12.278  21.844  1.00  0.00    -0.550 OA
ATOM      4  O   UNL     1       8.677  11.619  23.187  1.00  0.00    -0.550 OA
ENDROOT
TORSDOF 0
ENDMDL
