MODEL 1
REMARK VINA RESULT:    -2.418      0.000      0.000
REMARK INTER + INTRA:          -2.418
REMARK INTER:                  -2.418
REMARK INTRA:                   0.000
REMARK UNBOUND:                 0.000
REMARK SMILES CC(=O)[O-]
REMARK SMILES IDX 1 1 2 2 3 3 4 4
REMARK H PARENT
REMARK Flexibility Score: inf
ROOT
ATOM      1  C   UNL     1      14.166 -11.107  29.286  1.00  0.00     0.063 C 
ATOM      2  C   UNL     1      12.713 -10.918  29.012  1.00  0.00     0.038 C 
ATOM      3  O   UNL     1      12.234 -11.247  27.895  1.00  0.00    -0.550 OA
ATOM      4  O   UNL     1      11.873 -10.431  30.005  1.00  0.00    -0.550 OA
ENDROOT
TORSDOF 0
ENDMDL
MODEL 2
REMARK VINA RESULT:    -2.369     10.505     10.973
REMARK INTER + INTRA:          -2.369
REMARK INTER:                  -2.369
REMARK INTRA:                   0.000
REMARK UNBOUND:                 0.000
REMARK SMILES CC(=O)[O-]
REMARK SMILES IDX 1 1 2 2 3 3 4 4
REMARK H PARENT
REMARK Flexibility Score: inf
ROOT
ATOM      1  C   UNL     1       1.640 -15.163  29.762  1.00  0.00     0.063 C 
ATOM      2  C   UNL     1       3.002 -15.319  29.177  1.00  0.00     0.038 C 
ATOM      3  O   UNL     1       3.986 -15.559  29.924  1.00  0.00    -0.550 OA
ATOM      4  O   UNL     1       3.181 -15.254  27.801  1.00  0.00    -0.550 OA
ENDROOT
TORSDOF 0
ENDMDL
MODEL 3
REMARK VINA RESULT:    -2.355     14.743     14.963
REMARK INTER + INTRA:          -2.355
REMARK INTER:                  -2.355
REMARK INTRA:                   0.000
REMARK UNBOUND:                 0.000
REMARK SMILES CC(=O)[O-]
REMARK SMILES IDX 1 1 2 2 3 3 4 4
REMARK H PARENT
REMARK Flexibility Score: inf
ROOT
ATOM      1  C   UNL     1       2.944 -20.779  30.280  1.00  0.00     0.063 C 
ATOM      2  C   UNL     1       2.433 -21.465  31.501  1.00  0.00     0.038 C 
ATOM      3  O   UNL     1       2.722 -22.672  31.715  1.00  0.00    -0.550 OA
ATOM      4  O   UNL     1       1.683 -20.761  32.434  1.00  0.00    -0.550 OA
ENDROOT
TORSDOF 0
ENDMDL
MODEL 4
REMARK VINA RESULT:    -2.286      6.864      7.232
REMARK INTER + INTRA:          -2.286
REMARK INTER:                  -2.286
REMARK INTRA:                   0.000
REMARK UNBOUND:                 0.000
REMARK SMILES CC(=O)[O-]
REMARK SMILES IDX 1 1 2 2 3 3 4 4
REMARK H PARENT
REMARK Flexibility Score: inf
ROOT
ATOM      1  C   UNL     1      12.346  -5.126  30.826  1.00  0.00     0.063 C 
ATOM      2  C   UNL     1      13.017  -4.662  32.074  1.00  0.00     0.038 C 
ATOM      3  O   UNL     1      12.329  -4.289  33.059  1.00  0.00    -0.550 OA
ATOM      4  O   UNL     1      14.403  -4.692  32.172  1.00  0.00    -0.550 OA
ENDROOT
TORSDOF 0
ENDMDL
MODEL 5
REMARK VINA RESULT:    -2.282      1.767      2.422
REMARK INTER + INTRA:          -2.282
REMARK INTER:                  -2.282
REMARK INTRA:                   0.000
REMARK UNBOUND:                 0.000
REMARK SMILES CC(=O)[O-]
REMARK SMILES IDX 1 1 2 2 3 3 4 4
REMARK H PARENT
REMARK Flexibility Score: inf
ROOT
ATOM      1  C   UNL     1      12.570 -11.175  28.532  1.00  0.00     0.063 C 
ATOM      2  C   UNL     1      13.529 -10.881  29.634  1.00  0.00     0.038 C 
ATOM      3  O   UNL     1      13.129 -10.314  30.685  1.00  0.00    -0.550 OA
ATOM      4  O   UNL     1      14.855 -11.281  29.530  1.00  0.00    -0.550 OA
ENDROOT
TORSDOF 0
ENDMDL
MODEL 6
REMARK VINA RESULT:    -2.271     14.431     14.740
REMARK INTER + INTRA:          -2.271
REMARK INTER:                  -2.271
REMARK INTRA:                   0.000
REMARK UNBOUND:                 0.000
REMARK SMILES CC(=O)[O-]
REMARK SMILES IDX 1 1 2 2 3 3 4 4
REMARK H PARENT
REMARK Flexibility Score: inf
ROOT
ATOM      1  C   UNL     1       2.601 -22.304  31.903  1.00  0.00     0.063 C 
ATOM      2  C   UNL     1       2.402 -21.011  31.189  1.00  0.00     0.038 C 
ATOM      3  O   UNL     1       1.937 -20.016  31.804  1.00  0.00    -0.550 OA
ATOM      4  O   UNL     1       2.780 -20.883  29.858  1.00  0.00    -0.550 OA
ENDROOT
TORSDOF 0
ENDMDL
MODEL 7
REMARK VINA RESULT:    -2.268      6.125      6.477
REMARK INTER + INTRA:          -2.268
REMARK INTER:                  -2.268
REMARK INTRA:                   0.000
REMARK UNBOUND:                 0.000
REMARK SMILES CC(=O)[O-]
REMARK SMILES IDX 1 1 2 2 3 3 4 4
REMARK H PARENT
REMARK Flexibility Score: inf
ROOT
ATOM      1  C   UNL     1      12.853  -4.007  32.446  1.00  0.00     0.063 C 
ATOM      2  C   UNL     1      12.859  -5.201  31.555  1.00  0.00     0.038 C 
ATOM      3  O   UNL     1      12.372  -5.126  30.396  1.00  0.00    -0.550 OA
ATOM      4  O   UNL     1      13.451  -6.384  31.978  1.00  0.00    -0.550 OA
ENDROOT
TORSDOF 0
ENDMDL
MODEL 8
REMARK VINA RESULT:    -2.204     10.405     10.796
REMARK INTER + INTRA:          -2.204
REMARK INTER:                  -2.204
REMARK INTRA:                   0.000
REMARK UNBOUND:                 0.000
REMARK SMILES CC(=O)[O-]
REMARK SMILES IDX 1 1 2 2 3 3 4 4
REMARK H PARENT
REMARK Flexibility Score: inf
ROOT
ATOM      1  C   UNL     1       3.252 -15.249  29.152  1.00  0.00     0.063 C 
ATOM      2  C   UNL     1       3.540 -16.147  30.306  1.00  0.00     0.038 C 
ATOM      3  O   UNL     1       2.605 -16.781  30.861  1.00  0.00    -0.550 OA
ATOM      4  O   UNL     1       4.848 -16.330  30.737  1.00  0.00    -0.550 OA
ENDROOT
TORSDOF 0
ENDMDL
MODEL 9
REMARK VINA RESULT:    -2.194     10.487     10.857
REMARK INTER + INTRA:          -2.194
REMARK INTER:                  -2.194
REMARK INTRA:                   0.000
REMARK UNBOUND:                 0.000
REMARK SMILES CC(=O)[O-]
REMARK SMILES IDX 1 1 2 2 3 3 4 4
REMARK H PARENT
REMARK Flexibility Score: inf
ROOT
ATOM      1  C   UNL     1       3.243 -15.285  29.264  1.00  0.00     0.063 C 
ATOM      2  C   UNL     1       3.576 -16.268  30.334  1.00  0.00     0.038 C 
ATOM      3  O   UNL     1       4.767 -16.402  30.719  1.00  0.00    -0.550 OA
ATOM      4  O   UNL     1       2.567 -17.000  30.947  1.00  0.00    -0.550 OA
ENDROOT
TORSDOF 0
ENDMDL
