MODEL 1
REMARK VINA RESULT:    -6.087      0.000      0.000
REMARK INTER + INTRA:          -6.621
REMARK INTER:                  -6.621
REMARK INTRA:                   0.000
REMARK UNBOUND:                 0.000
REMARK SMILES Cc1cc(O)c2c(c1)C(=O)c1cc(O)cc(O)c1C2=O
REMARK SMILES IDX 1 1 2 2 8 3 7 4 6 5 4 6 3 7 19 8 20 9 18 10 11 11 9 12 10 13
REMARK SMILES IDX 12 14 13 15 15 16 16 17 5 18 17 20 14 22
REMARK H PARENT 5 19 17 21 14 23
REMARK Flexibility Score: inf
ROOT
ATOM      1  C   UNL     1      62.881   7.021  16.781  1.00  0.00     0.044 C 
ATOM      2  C   UNL     1      64.017   7.928  16.410  1.00  0.00    -0.047 A 
ATOM      3  C   UNL     1      65.024   7.478  15.550  1.00  0.00     0.016 A 
ATOM      4  C   UNL     1      66.108   8.309  15.219  1.00  0.00     0.038 A 
ATOM      5  C   UNL     1      66.183   9.613  15.758  1.00  0.00     0.076 A 
ATOM      6  C   UNL     1      65.204  10.032  16.694  1.00  0.00     0.127 A 
ATOM      7  C   UNL     1      64.125   9.195  16.993  1.00  0.00     0.050 A 
ATOM      8  C   UNL     1      67.260  10.514  15.270  1.00  0.00     0.201 C 
ATOM      9  O   UNL     1      67.070  11.759  15.239  1.00  0.00    -0.288 OA
ATOM     10  C   UNL     1      68.480   9.935  14.647  1.00  0.00     0.076 A 
ATOM     11  C   UNL     1      68.402   8.630  14.112  1.00  0.00     0.041 A 
ATOM     12  C   UNL     1      67.175   7.822  14.313  1.00  0.00     0.194 C 
ATOM     13  O   UNL     1      67.051   6.708  13.732  1.00  0.00    -0.289 OA
ATOM     14  C   UNL     1      69.489   8.102  13.395  1.00  0.00     0.059 A 
ATOM     15  C   UNL     1      70.655   8.852  13.221  1.00  0.00     0.120 A 
ATOM     16  C   UNL     1      70.751  10.125  13.782  1.00  0.00     0.093 A 
ATOM     17  C   UNL     1      69.690  10.666  14.517  1.00  0.00     0.131 A 
ENDROOT
BRANCH   6  18
ATOM     18  O   UNL     1      65.283  11.250  17.375  1.00  0.00    -0.507 OA
ATOM     19  H   UNL     1      65.778  12.057  17.021  1.00  0.00     0.293 HD
ENDBRANCH   6  18
BRANCH  17  20
ATOM     20  O   UNL     1      69.894  11.906  15.125  1.00  0.00    -0.507 OA
ATOM     21  H   UNL     1      70.804  12.248  15.406  1.00  0.00     0.293 HD
ENDBRANCH  17  20
BRANCH  15  22
ATOM     22  O   UNL     1      71.730   8.337  12.500  1.00  0.00    -0.508 OA
ATOM     23  H   UNL     1      72.582   8.035  12.960  1.00  0.00     0.293 HD
ENDBRANCH  15  22
TORSDOF 3
ENDMDL
MODEL 2
REMARK VINA RESULT:    -5.737      1.620      3.620
REMARK INTER + INTRA:          -6.240
REMARK INTER:                  -6.240
REMARK INTRA:                   0.000
REMARK UNBOUND:                 0.000
REMARK SMILES Cc1cc(O)c2c(c1)C(=O)c1cc(O)cc(O)c1C2=O
REMARK SMILES IDX 1 1 2 2 8 3 7 4 6 5 4 6 3 7 19 8 20 9 18 10 11 11 9 12 10 13
REMARK SMILES IDX 12 14 13 15 15 16 16 17 5 18 17 20 14 22
REMARK H PARENT 5 19 17 21 14 23
REMARK Flexibility Score: inf
ROOT
ATOM      1  C   UNL     1      62.299   6.756  17.243  1.00  0.00     0.044 C 
ATOM      2  C   UNL     1      63.474   7.123  16.384  1.00  0.00    -0.047 A 
ATOM      3  C   UNL     1      64.148   8.330  16.592  1.00  0.00     0.016 A 
ATOM      4  C   UNL     1      65.232   8.696  15.776  1.00  0.00     0.038 A 
ATOM      5  C   UNL     1      65.647   7.837  14.733  1.00  0.00     0.076 A 
ATOM      6  C   UNL     1      64.907   6.655  14.475  1.00  0.00     0.127 A 
ATOM      7  C   UNL     1      63.845   6.303  15.313  1.00  0.00     0.050 A 
ATOM      8  C   UNL     1      66.885   8.184  13.988  1.00  0.00     0.201 C 
ATOM      9  O   UNL     1      67.600   7.269  13.500  1.00  0.00    -0.288 OA
ATOM     10  C   UNL     1      67.374   9.587  13.984  1.00  0.00     0.076 A 
ATOM     11  C   UNL     1      66.954  10.445  15.025  1.00  0.00     0.041 A 
ATOM     12  C   UNL     1      65.936   9.981  15.998  1.00  0.00     0.194 C 
ATOM     13  O   UNL     1      65.651  10.692  17.001  1.00  0.00    -0.289 OA
ATOM     14  C   UNL     1      67.501  11.735  15.134  1.00  0.00     0.059 A 
ATOM     15  C   UNL     1      68.447  12.183  14.207  1.00  0.00     0.120 A 
ATOM     16  C   UNL     1      68.833  11.355  13.154  1.00  0.00     0.093 A 
ATOM     17  C   UNL     1      68.289  10.074  13.013  1.00  0.00     0.131 A 
ENDROOT
BRANCH   6  18
ATOM     18  O   UNL     1      65.167   5.826  13.381  1.00  0.00    -0.507 OA
ATOM     19  H   UNL     1      66.097   5.551  13.097  1.00  0.00     0.293 HD
ENDBRANCH   6  18
BRANCH  17  20
ATOM     20  O   UNL     1      68.655   9.339  11.884  1.00  0.00    -0.507 OA
ATOM     21  H   UNL     1      69.246   9.703  11.148  1.00  0.00     0.293 HD
ENDBRANCH  17  20
BRANCH  15  22
ATOM     22  O   UNL     1      69.001  13.456  14.318  1.00  0.00    -0.508 OA
ATOM     23  H   UNL     1      69.516  13.741  15.144  1.00  0.00     0.293 HD
ENDBRANCH  15  22
TORSDOF 3
ENDMDL
MODEL 3
REMARK VINA RESULT:    -5.394      1.994      6.219
REMARK INTER + INTRA:          -5.867
REMARK INTER:                  -5.867
REMARK INTRA:                   0.000
REMARK UNBOUND:                 0.000
REMARK SMILES Cc1cc(O)c2c(c1)C(=O)c1cc(O)cc(O)c1C2=O
REMARK SMILES IDX 1 1 2 2 8 3 7 4 6 5 4 6 3 7 19 8 20 9 18 10 11 11 9 12 10 13
REMARK SMILES IDX 12 14 13 15 15 16 16 17 5 18 17 20 14 22
REMARK H PARENT 5 19 17 21 14 23
REMARK Flexibility Score: inf
ROOT
ATOM      1  C   UNL     1      69.345  12.766  14.918  1.00  0.00     0.044 C 
ATOM      2  C   UNL     1      68.463  11.595  14.595  1.00  0.00    -0.047 A 
ATOM      3  C   UNL     1      67.411  11.250  15.449  1.00  0.00     0.016 A 
ATOM      4  C   UNL     1      66.597  10.139  15.171  1.00  0.00     0.038 A 
ATOM      5  C   UNL     1      66.842   9.360  14.018  1.00  0.00     0.076 A 
ATOM      6  C   UNL     1      67.962   9.664  13.203  1.00  0.00     0.127 A 
ATOM      7  C   UNL     1      68.745  10.787  13.489  1.00  0.00     0.050 A 
ATOM      8  C   UNL     1      65.874   8.285  13.677  1.00  0.00     0.201 C 
ATOM      9  O   UNL     1      65.690   7.967  12.472  1.00  0.00    -0.288 OA
ATOM     10  C   UNL     1      64.993   7.724  14.734  1.00  0.00     0.076 A 
ATOM     11  C   UNL     1      64.752   8.504  15.888  1.00  0.00     0.041 A 
ATOM     12  C   UNL     1      65.488   9.776  16.085  1.00  0.00     0.194 C 
ATOM     13  O   UNL     1      65.187  10.537  17.046  1.00  0.00    -0.289 OA
ATOM     14  C   UNL     1      63.819   8.070  16.844  1.00  0.00     0.059 A 
ATOM     15  C   UNL     1      63.138   6.861  16.672  1.00  0.00     0.120 A 
ATOM     16  C   UNL     1      63.402   6.069  15.555  1.00  0.00     0.093 A 
ATOM     17  C   UNL     1      64.341   6.470  14.599  1.00  0.00     0.131 A 
ENDROOT
BRANCH   6  18
ATOM     18  O   UNL     1      68.353   8.863  12.127  1.00  0.00    -0.507 OA
ATOM     19  H   UNL     1      68.912   9.198  11.355  1.00  0.00     0.293 HD
ENDBRANCH   6  18
BRANCH  17  20
ATOM     20  O   UNL     1      64.619   5.582  13.558  1.00  0.00    -0.507 OA
ATOM     21  H   UNL     1      63.949   5.332  12.842  1.00  0.00     0.293 HD
ENDBRANCH  17  20
BRANCH  15  22
ATOM     22  O   UNL     1      62.202   6.434  17.611  1.00  0.00    -0.508 OA
ATOM     23  H   UNL     1      61.280   6.852  17.671  1.00  0.00     0.293 HD
ENDBRANCH  15  22
TORSDOF 3
ENDMDL
MODEL 4
REMARK VINA RESULT:    -5.307      2.232      5.669
REMARK INTER + INTRA:          -5.772
REMARK INTER:                  -5.772
REMARK INTRA:                   0.000
REMARK UNBOUND:                 0.000
REMARK SMILES Cc1cc(O)c2c(c1)C(=O)c1cc(O)cc(O)c1C2=O
REMARK SMILES IDX 1 1 2 2 8 3 7 4 6 5 4 6 3 7 19 8 20 9 18 10 11 11 9 12 10 13
REMARK SMILES IDX 12 14 13 15 15 16 16 17 5 18 17 20 14 22
REMARK H PARENT 5 19 17 21 14 23
REMARK Flexibility Score: inf
ROOT
ATOM      1  C   UNL     1      69.983  10.601  14.255  1.00  0.00     0.044 C 
ATOM      2  C   UNL     1      68.631  10.087  14.654  1.00  0.00    -0.047 A 
ATOM      3  C   UNL     1      68.142   8.896  14.108  1.00  0.00     0.016 A 
ATOM      4  C   UNL     1      66.865   8.421  14.454  1.00  0.00     0.038 A 
ATOM      5  C   UNL     1      66.066   9.151  15.361  1.00  0.00     0.076 A 
ATOM      6  C   UNL     1      66.533  10.400  15.845  1.00  0.00     0.127 A 
ATOM      7  C   UNL     1      67.815  10.842  15.503  1.00  0.00     0.050 A 
ATOM      8  C   UNL     1      64.788   8.546  15.816  1.00  0.00     0.201 C 
ATOM      9  O   UNL     1      64.342   8.811  16.965  1.00  0.00    -0.288 OA
ATOM     10  C   UNL     1      64.140   7.488  14.997  1.00  0.00     0.076 A 
ATOM     11  C   UNL     1      64.941   6.762  14.088  1.00  0.00     0.041 A 
ATOM     12  C   UNL     1      66.351   7.162  13.865  1.00  0.00     0.194 C 
ATOM     13  O   UNL     1      67.106   6.443  13.153  1.00  0.00    -0.289 OA
ATOM     14  C   UNL     1      64.398   5.665  13.398  1.00  0.00     0.059 A 
ATOM     15  C   UNL     1      63.063   5.296  13.591  1.00  0.00     0.120 A 
ATOM     16  C   UNL     1      62.258   6.036  14.456  1.00  0.00     0.093 A 
ATOM     17  C   UNL     1      62.770   7.143  15.140  1.00  0.00     0.131 A 
ENDROOT
BRANCH   6  18
ATOM     18  O   UNL     1      65.749  11.246  16.633  1.00  0.00    -0.507 OA
ATOM     19  H   UNL     1      66.132  11.918  17.283  1.00  0.00     0.293 HD
ENDBRANCH   6  18
BRANCH  17  20
ATOM     20  O   UNL     1      61.880   7.888  15.917  1.00  0.00    -0.507 OA
ATOM     21  H   UNL     1      61.236   7.476  16.579  1.00  0.00     0.293 HD
ENDBRANCH  17  20
BRANCH  15  22
ATOM     22  O   UNL     1      62.525   4.202  12.918  1.00  0.00    -0.508 OA
ATOM     23  H   UNL     1      62.517   4.153  11.905  1.00  0.00     0.293 HD
ENDBRANCH  15  22
TORSDOF 3
ENDMDL
MODEL 5
REMARK VINA RESULT:    -5.083      8.476     10.239
REMARK INTER + INTRA:          -5.529
REMARK INTER:                  -5.529
REMARK INTRA:                   0.000
REMARK UNBOUND:                 0.000
REMARK SMILES Cc1cc(O)c2c(c1)C(=O)c1cc(O)cc(O)c1C2=O
REMARK SMILES IDX 1 1 2 2 8 3 7 4 6 5 4 6 3 7 19 8 20 9 18 10 11 11 9 12 10 13
REMARK SMILES IDX 12 14 13 15 15 16 16 17 5 18 17 20 14 22
REMARK H PARENT 5 19 17 21 14 23
REMARK Flexibility Score: inf
ROOT
ATOM      1  C   UNL     1      75.514   9.009  11.825  1.00  0.00     0.044 C 
ATOM      2  C   UNL     1      75.893   8.773  13.258  1.00  0.00    -0.047 A 
ATOM      3  C   UNL     1      75.259   7.769  13.997  1.00  0.00     0.016 A 
ATOM      4  C   UNL     1      75.586   7.559  15.348  1.00  0.00     0.038 A 
ATOM      5  C   UNL     1      76.564   8.368  15.968  1.00  0.00     0.076 A 
ATOM      6  C   UNL     1      77.141   9.438  15.238  1.00  0.00     0.127 A 
ATOM      7  C   UNL     1      76.814   9.615  13.890  1.00  0.00     0.050 A 
ATOM      8  C   UNL     1      76.989   8.022  17.349  1.00  0.00     0.201 C 
ATOM      9  O   UNL     1      78.163   8.282  17.727  1.00  0.00    -0.288 OA
ATOM     10  C   UNL     1      76.097   7.205  18.213  1.00  0.00     0.076 A 
ATOM     11  C   UNL     1      75.118   6.399  17.589  1.00  0.00     0.041 A 
ATOM     12  C   UNL     1      74.905   6.497  16.126  1.00  0.00     0.194 C 
ATOM     13  O   UNL     1      74.124   5.692  15.547  1.00  0.00    -0.289 OA
ATOM     14  C   UNL     1      74.349   5.511  18.360  1.00  0.00     0.059 A 
ATOM     15  C   UNL     1      74.534   5.430  19.743  1.00  0.00     0.120 A 
ATOM     16  C   UNL     1      75.471   6.253  20.367  1.00  0.00     0.093 A 
ATOM     17  C   UNL     1      76.235   7.160  19.625  1.00  0.00     0.131 A 
ENDROOT
BRANCH   6  18
ATOM     18  O   UNL     1      78.009  10.367  15.817  1.00  0.00    -0.507 OA
ATOM     19  H   UNL     1      77.863  10.774  16.731  1.00  0.00     0.293 HD
ENDBRANCH   6  18
BRANCH  17  20
ATOM     20  O   UNL     1      77.085   8.014  20.330  1.00  0.00    -0.507 OA
ATOM     21  H   UNL     1      77.994   7.737  20.676  1.00  0.00     0.293 HD
ENDBRANCH  17  20
BRANCH  15  22
ATOM     22  O   UNL     1      73.783   4.541  20.509  1.00  0.00    -0.508 OA
ATOM     23  H   UNL     1      72.938   4.835  20.988  1.00  0.00     0.293 HD
ENDBRANCH  15  22
TORSDOF 3
ENDMDL
MODEL 6
REMARK VINA RESULT:    -5.037      2.264      2.473
REMARK INTER + INTRA:          -5.478
REMARK INTER:                  -5.478
REMARK INTRA:                   0.000
REMARK UNBOUND:                 0.000
REMARK SMILES Cc1cc(O)c2c(c1)C(=O)c1cc(O)cc(O)c1C2=O
REMARK SMILES IDX 1 1 2 2 8 3 7 4 6 5 4 6 3 7 19 8 20 9 18 10 11 11 9 12 10 13
REMARK SMILES IDX 12 14 13 15 15 16 16 17 5 18 17 20 14 22
REMARK H PARENT 5 19 17 21 14 23
REMARK Flexibility Score: inf
ROOT
ATOM      1  C   UNL     1      61.877   6.398  13.939  1.00  0.00     0.044 C 
ATOM      2  C   UNL     1      63.127   7.134  14.326  1.00  0.00    -0.047 A 
ATOM      3  C   UNL     1      63.866   7.822  13.359  1.00  0.00     0.016 A 
ATOM      4  C   UNL     1      65.053   8.491  13.706  1.00  0.00     0.038 A 
ATOM      5  C   UNL     1      65.505   8.470  15.044  1.00  0.00     0.076 A 
ATOM      6  C   UNL     1      64.796   7.701  16.002  1.00  0.00     0.127 A 
ATOM      7  C   UNL     1      63.608   7.061  15.638  1.00  0.00     0.050 A 
ATOM      8  C   UNL     1      66.678   9.309  15.403  1.00  0.00     0.201 C 
ATOM      9  O   UNL     1      66.778   9.783  16.566  1.00  0.00    -0.288 OA
ATOM     10  C   UNL     1      67.627   9.741  14.343  1.00  0.00     0.076 A 
ATOM     11  C   UNL     1      67.173   9.757  13.005  1.00  0.00     0.041 A 
ATOM     12  C   UNL     1      65.835   9.211  12.674  1.00  0.00     0.194 C 
ATOM     13  O   UNL     1      65.373   9.338  11.506  1.00  0.00    -0.289 OA
ATOM     14  C   UNL     1      67.992  10.288  11.995  1.00  0.00     0.059 A 
ATOM     15  C   UNL     1      69.262  10.785  12.300  1.00  0.00     0.120 A 
ATOM     16  C   UNL     1      69.730  10.734  13.612  1.00  0.00     0.093 A 
ATOM     17  C   UNL     1      68.941  10.192  14.633  1.00  0.00     0.131 A 
ENDROOT
BRANCH   6  18
ATOM     18  O   UNL     1      65.252   7.517  17.310  1.00  0.00    -0.507 OA
ATOM     19  H   UNL     1      65.745   8.226  17.835  1.00  0.00     0.293 HD
ENDBRANCH   6  18
BRANCH  17  20
ATOM     20  O   UNL     1      69.513  10.091  15.903  1.00  0.00    -0.507 OA
ATOM     21  H   UNL     1      70.068   9.301  16.205  1.00  0.00     0.293 HD
ENDBRANCH  17  20
BRANCH  15  22
ATOM     22  O   UNL     1      70.072  11.324  11.303  1.00  0.00    -0.508 OA
ATOM     23  H   UNL     1      70.623  10.734  10.690  1.00  0.00     0.293 HD
ENDBRANCH  15  22
TORSDOF 3
ENDMDL
MODEL 7
REMARK VINA RESULT:    -4.967      9.302     10.233
REMARK INTER + INTRA:          -5.402
REMARK INTER:                  -5.402
REMARK INTRA:                   0.000
REMARK UNBOUND:                 0.000
REMARK SMILES Cc1cc(O)c2c(c1)C(=O)c1cc(O)cc(O)c1C2=O
REMARK SMILES IDX 1 1 2 2 8 3 7 4 6 5 4 6 3 7 19 8 20 9 18 10 11 11 9 12 10 13
REMARK SMILES IDX 12 14 13 15 15 16 16 17 5 18 17 20 14 22
REMARK H PARENT 5 19 17 21 14 23
REMARK Flexibility Score: inf
ROOT
ATOM      1  C   UNL     1      74.219  -0.375  19.592  1.00  0.00     0.044 C 
ATOM      2  C   UNL     1      74.383   1.109  19.744  1.00  0.00    -0.047 A 
ATOM      3  C   UNL     1      74.560   1.916  18.616  1.00  0.00     0.016 A 
ATOM      4  C   UNL     1      74.742   3.303  18.748  1.00  0.00     0.038 A 
ATOM      5  C   UNL     1      74.747   3.891  20.033  1.00  0.00     0.076 A 
ATOM      6  C   UNL     1      74.651   3.057  21.176  1.00  0.00     0.127 A 
ATOM      7  C   UNL     1      74.450   1.682  21.018  1.00  0.00     0.050 A 
ATOM      8  C   UNL     1      74.793   5.373  20.127  1.00  0.00     0.201 C 
ATOM      9  O   UNL     1      74.247   5.957  21.101  1.00  0.00    -0.288 OA
ATOM     10  C   UNL     1      75.313   6.169  18.984  1.00  0.00     0.076 A 
ATOM     11  C   UNL     1      75.310   5.577  17.701  1.00  0.00     0.041 A 
ATOM     12  C   UNL     1      74.938   4.150  17.548  1.00  0.00     0.194 C 
ATOM     13  O   UNL     1      74.811   3.651  16.395  1.00  0.00    -0.289 OA
ATOM     14  C   UNL     1      75.664   6.342  16.577  1.00  0.00     0.059 A 
ATOM     15  C   UNL     1      76.035   7.682  16.719  1.00  0.00     0.120 A 
ATOM     16  C   UNL     1      76.078   8.258  17.988  1.00  0.00     0.093 A 
ATOM     17  C   UNL     1      75.750   7.512  19.125  1.00  0.00     0.131 A 
ENDROOT
BRANCH   6  18
ATOM     18  O   UNL     1      74.786   3.543  22.479  1.00  0.00    -0.507 OA
ATOM     19  H   UNL     1      75.670   3.602  22.964  1.00  0.00     0.293 HD
ENDBRANCH   6  18
BRANCH  17  20
ATOM     20  O   UNL     1      75.905   8.131  20.367  1.00  0.00    -0.507 OA
ATOM     21  H   UNL     1      75.659   9.095  20.546  1.00  0.00     0.293 HD
ENDBRANCH  17  20
BRANCH  15  22
ATOM     22  O   UNL     1      76.374   8.447  15.606  1.00  0.00    -0.508 OA
ATOM     23  H   UNL     1      76.812   8.032  14.790  1.00  0.00     0.293 HD
ENDBRANCH  15  22
TORSDOF 3
ENDMDL
MODEL 8
REMARK VINA RESULT:    -4.924      1.349      6.309
REMARK INTER + INTRA:          -5.355
REMARK INTER:                  -5.355
REMARK INTRA:                   0.000
REMARK UNBOUND:                 0.000
REMARK SMILES Cc1cc(O)c2c(c1)C(=O)c1cc(O)cc(O)c1C2=O
REMARK SMILES IDX 1 1 2 2 8 3 7 4 6 5 4 6 3 7 19 8 20 9 18 10 11 11 9 12 10 13
REMARK SMILES IDX 12 14 13 15 15 16 16 17 5 18 17 20 14 22
REMARK H PARENT 5 19 17 21 14 23
REMARK Flexibility Score: inf
ROOT
ATOM      1  C   UNL     1      73.199   9.012  13.480  1.00  0.00     0.044 C 
ATOM      2  C   UNL     1      71.748   8.645  13.594  1.00  0.00    -0.047 A 
ATOM      3  C   UNL     1      70.854   9.503  14.243  1.00  0.00     0.016 A 
ATOM      4  C   UNL     1      69.499   9.157  14.380  1.00  0.00     0.038 A 
ATOM      5  C   UNL     1      69.032   7.930  13.857  1.00  0.00     0.076 A 
ATOM      6  C   UNL     1      69.958   7.028  13.275  1.00  0.00     0.127 A 
ATOM      7  C   UNL     1      71.298   7.404  13.132  1.00  0.00     0.050 A 
ATOM      8  C   UNL     1      67.570   7.665  13.888  1.00  0.00     0.201 C 
ATOM      9  O   UNL     1      67.044   6.948  12.995  1.00  0.00    -0.288 OA
ATOM     10  C   UNL     1      66.708   8.395  14.854  1.00  0.00     0.076 A 
ATOM     11  C   UNL     1      67.180   9.619  15.378  1.00  0.00     0.041 A 
ATOM     12  C   UNL     1      68.561  10.068  15.076  1.00  0.00     0.194 C 
ATOM     13  O   UNL     1      68.944  11.216  15.435  1.00  0.00    -0.289 OA
ATOM     14  C   UNL     1      66.340  10.405  16.185  1.00  0.00     0.059 A 
ATOM     15  C   UNL     1      65.045   9.977  16.489  1.00  0.00     0.120 A 
ATOM     16  C   UNL     1      64.590   8.750  16.007  1.00  0.00     0.093 A 
ATOM     17  C   UNL     1      65.413   7.940  15.218  1.00  0.00     0.131 A 
ENDROOT
BRANCH   6  18
ATOM     18  O   UNL     1      69.602   5.742  12.860  1.00  0.00    -0.507 OA
ATOM     19  H   UNL     1      69.816   4.907  13.387  1.00  0.00     0.293 HD
ENDBRANCH   6  18
BRANCH  17  20
ATOM     20  O   UNL     1      64.922   6.686  14.850  1.00  0.00    -0.507 OA
ATOM     21  H   UNL     1      65.505   5.936  14.504  1.00  0.00     0.293 HD
ENDBRANCH  17  20
BRANCH  15  22
ATOM     22  O   UNL     1      64.205  10.759  17.277  1.00  0.00    -0.508 OA
ATOM     23  H   UNL     1      64.558  11.287  18.068  1.00  0.00     0.293 HD
ENDBRANCH  15  22
TORSDOF 3
ENDMDL
MODEL 9
REMARK VINA RESULT:    -4.801      7.672      9.304
REMARK INTER + INTRA:          -5.222
REMARK INTER:                  -5.222
REMARK INTRA:                   0.000
REMARK UNBOUND:                 0.000
REMARK SMILES Cc1cc(O)c2c(c1)C(=O)c1cc(O)cc(O)c1C2=O
REMARK SMILES IDX 1 1 2 2 8 3 7 4 6 5 4 6 3 7 19 8 20 9 18 10 11 11 9 12 10 13
REMARK SMILES IDX 12 14 13 15 15 16 16 17 5 18 17 20 14 22
REMARK H PARENT 5 19 17 21 14 23
REMARK Flexibility Score: inf
ROOT
ATOM      1  C   UNL     1      74.798   5.990  20.289  1.00  0.00     0.044 C 
ATOM      2  C   UNL     1      75.369   6.726  19.112  1.00  0.00    -0.047 A 
ATOM      3  C   UNL     1      74.639   6.827  17.924  1.00  0.00     0.016 A 
ATOM      4  C   UNL     1      75.175   7.490  16.807  1.00  0.00     0.038 A 
ATOM      5  C   UNL     1      76.465   8.063  16.883  1.00  0.00     0.076 A 
ATOM      6  C   UNL     1      77.232   7.885  18.062  1.00  0.00     0.127 A 
ATOM      7  C   UNL     1      76.669   7.238  19.167  1.00  0.00     0.050 A 
ATOM      8  C   UNL     1      76.938   8.882  15.738  1.00  0.00     0.201 C 
ATOM      9  O   UNL     1      77.738   9.835  15.937  1.00  0.00    -0.288 OA
ATOM     10  C   UNL     1      76.326   8.698  14.396  1.00  0.00     0.076 A 
ATOM     11  C   UNL     1      75.037   8.122  14.323  1.00  0.00     0.041 A 
ATOM     12  C   UNL     1      74.399   7.585  15.549  1.00  0.00     0.194 C 
ATOM     13  O   UNL     1      73.201   7.187  15.514  1.00  0.00    -0.289 OA
ATOM     14  C   UNL     1      74.368   8.058  13.089  1.00  0.00     0.059 A 
ATOM     15  C   UNL     1      74.975   8.545  11.928  1.00  0.00     0.120 A 
ATOM     16  C   UNL     1      76.262   9.077  11.989  1.00  0.00     0.093 A 
ATOM     17  C   UNL     1      76.957   9.135  13.202  1.00  0.00     0.131 A 
ENDROOT
BRANCH   6  18
ATOM     18  O   UNL     1      78.563   8.298  18.167  1.00  0.00    -0.507 OA
ATOM     19  H   UNL     1      78.839   9.211  18.502  1.00  0.00     0.293 HD
ENDBRANCH   6  18
BRANCH  17  20
ATOM     20  O   UNL     1      78.275   9.595  13.168  1.00  0.00    -0.507 OA
ATOM     21  H   UNL     1      78.940   9.441  13.914  1.00  0.00     0.293 HD
ENDBRANCH  17  20
BRANCH  15  22
ATOM     22  O   UNL     1      74.310   8.495  10.705  1.00  0.00    -0.508 OA
ATOM     23  H   UNL     1      74.306   7.655  10.137  1.00  0.00     0.293 HD
ENDBRANCH  15  22
TORSDOF 3
ENDMDL
