MODEL 1
REMARK VINA RESULT:    -4.393      0.000      0.000
REMARK INTER + INTRA:          -6.022
REMARK INTER:                  -5.420
REMARK INTRA:                  -0.603
REMARK UNBOUND:                -0.603
REMARK SMILES CC(C)=CCC[C@H](C)c1ccc(C)cc1
REMARK SMILES IDX 6 1 7 2 8 3 9 4 13 5 12 6 11 7 14 8 10 9 15 10 5 11 4 12
REMARK SMILES IDX 2 13 1 14 3 15
REMARK H PARENT
REMARK Flexibility Score: inf
ROOT
ATOM      1  C   UNL     1      13.932  10.668 -42.212  1.00  0.00     0.012 C 
ENDROOT
BRANCH   1   2
ATOM      2  C   UNL     1      12.904  11.370 -43.123  1.00  0.00     0.016 C 
ATOM      3  C   UNL     1      12.992  12.894 -42.972  1.00  0.00     0.013 C 
BRANCH   2   4
ATOM      4  C   UNL     1      11.487  10.889 -42.860  1.00  0.00    -0.045 A 
ATOM      5  C   UNL     1       7.481   9.501 -42.035  1.00  0.00     0.044 C 
ATOM      6  C   UNL     1       8.868   9.975 -42.351  1.00  0.00    -0.051 A 
ATOM      7  C   UNL     1       9.960   9.106 -42.216  1.00  0.00     0.004 A 
ATOM      8  C   UNL     1       9.092  11.310 -42.716  1.00  0.00     0.004 A 
ATOM      9  C   UNL     1      11.257   9.557 -42.473  1.00  0.00     0.004 A 
ATOM     10  C   UNL     1      10.389  11.763 -42.975  1.00  0.00     0.004 A 
ENDBRANCH   2   4
ENDBRANCH   1   2
BRANCH   1  11
ATOM     11  C   UNL     1      13.387  10.434 -40.796  1.00  0.00     0.028 C 
BRANCH  11  12
ATOM     12  C   UNL     1      13.691  11.613 -39.905  1.00  0.00    -0.028 C 
ATOM     13  C   UNL     1      12.752  12.372 -39.297  1.00  0.00    -0.080 C 
ATOM     14  C   UNL     1      11.274  12.136 -39.503  1.00  0.00     0.039 C 
ATOM     15  C   UNL     1      13.206  13.494 -38.400  1.00  0.00     0.039 C 
ENDBRANCH  11  12
ENDBRANCH   1  11
TORSDOF 4
ENDMDL
MODEL 2
REMARK VINA RESULT:    -2.711      1.330      4.819
REMARK INTER + INTRA:          -3.948
REMARK INTER:                  -2.946
REMARK INTRA:                  -1.002
REMARK UNBOUND:                -0.603
REMARK SMILES CC(C)=CCC[C@H](C)c1ccc(C)cc1
REMARK SMILES IDX 6 1 7 2 8 3 9 4 13 5 12 6 11 7 14 8 10 9 15 10 5 11 4 12
REMARK SMILES IDX 2 13 1 14 3 15
REMARK H PARENT
REMARK Flexibility Score: inf
ROOT
ATOM      1  C   UNL     1      12.895   9.538 -42.023  1.00  0.00     0.012 C 
ENDROOT
BRANCH   1   2
ATOM      2  C   UNL     1      13.035  11.058 -42.247  1.00  0.00     0.016 C 
ATOM      3  C   UNL     1      14.254  11.371 -43.124  1.00  0.00     0.013 C 
BRANCH   2   4
ATOM      4  C   UNL     1      13.109  11.823 -40.936  1.00  0.00    -0.045 A 
ATOM      5  C   UNL     1      13.241  13.978 -37.195  1.00  0.00     0.044 C 
ATOM      6  C   UNL     1      13.217  13.249 -38.505  1.00  0.00    -0.051 A 
ATOM      7  C   UNL     1      12.293  13.608 -39.497  1.00  0.00     0.004 A 
ATOM      8  C   UNL     1      14.069  12.157 -38.723  1.00  0.00     0.004 A 
ATOM      9  C   UNL     1      12.243  12.905 -40.704  1.00  0.00     0.004 A 
ATOM     10  C   UNL     1      14.021  11.454 -39.930  1.00  0.00     0.004 A 
ENDBRANCH   2   4
ENDBRANCH   1   2
BRANCH   1  11
ATOM     11  C   UNL     1      11.552   8.998 -42.536  1.00  0.00     0.028 C 
BRANCH  11  12
ATOM     12  C   UNL     1      10.715  10.111 -43.117  1.00  0.00    -0.028 C 
ATOM     13  C   UNL     1       9.803  10.825 -42.420  1.00  0.00    -0.080 C 
ATOM     14  C   UNL     1       9.492  10.529 -40.971  1.00  0.00     0.039 C 
ATOM     15  C   UNL     1       9.071  11.937 -43.125  1.00  0.00     0.039 C 
ENDBRANCH  11  12
ENDBRANCH   1  11
TORSDOF 4
ENDMDL
MODEL 3
REMARK VINA RESULT:    -2.537      1.055      4.816
REMARK INTER + INTRA:          -3.733
REMARK INTER:                  -2.846
REMARK INTRA:                  -0.888
REMARK UNBOUND:                -0.603
REMARK SMILES CC(C)=CCC[C@H](C)c1ccc(C)cc1
REMARK SMILES IDX 6 1 7 2 8 3 9 4 13 5 12 6 11 7 14 8 10 9 15 10 5 11 4 12
REMARK SMILES IDX 2 13 1 14 3 15
REMARK H PARENT
REMARK Flexibility Score: inf
ROOT
ATOM      1  C   UNL     1      12.552   9.564 -42.194  1.00  0.00     0.012 C 
ENDROOT
BRANCH   1   2
ATOM      2  C   UNL     1      12.924  11.051 -42.370  1.00  0.00     0.016 C 
ATOM      3  C   UNL     1      14.251  11.197 -43.124  1.00  0.00     0.013 C 
BRANCH   2   4
ATOM      4  C   UNL     1      12.981  11.785 -41.040  1.00  0.00    -0.045 A 
ATOM      5  C   UNL     1      13.225  13.892 -37.279  1.00  0.00     0.044 C 
ATOM      6  C   UNL     1      13.119  13.142 -38.572  1.00  0.00    -0.051 A 
ATOM      7  C   UNL     1      13.998  12.085 -38.850  1.00  0.00     0.004 A 
ATOM      8  C   UNL     1      12.188  13.535 -39.544  1.00  0.00     0.004 A 
ATOM      9  C   UNL     1      13.927  11.409 -40.071  1.00  0.00     0.004 A 
ATOM     10  C   UNL     1      12.114  12.859 -40.765  1.00  0.00     0.004 A 
ENDBRANCH   2   4
ENDBRANCH   1   2
BRANCH   1  11
ATOM     11  C   UNL     1      11.404   9.140 -43.121  1.00  0.00     0.028 C 
BRANCH  11  12
ATOM     12  C   UNL     1      10.091   9.137 -42.378  1.00  0.00    -0.028 C 
ATOM     13  C   UNL     1       9.220  10.171 -42.361  1.00  0.00    -0.080 C 
ATOM     14  C   UNL     1       9.515  11.478 -43.059  1.00  0.00     0.039 C 
ATOM     15  C   UNL     1       7.926  10.007 -41.608  1.00  0.00     0.039 C 
ENDBRANCH  11  12
ENDBRANCH   1  11
TORSDOF 4
ENDMDL
MODEL 4
REMARK VINA RESULT:    -2.408     16.817     18.590
REMARK INTER + INTRA:          -3.573
REMARK INTER:                  -3.482
REMARK INTRA:                  -0.091
REMARK UNBOUND:                -0.603
REMARK SMILES CC(C)=CCC[C@H](C)c1ccc(C)cc1
REMARK SMILES IDX 6 1 7 2 8 3 9 4 13 5 12 6 11 7 14 8 10 9 15 10 5 11 4 12
REMARK SMILES IDX 2 13 1 14 3 15
REMARK H PARENT
REMARK Flexibility Score: inf
ROOT
ATOM      1  C   UNL     1       7.877   1.144 -26.868  1.00  0.00     0.012 C 
ENDROOT
BRANCH   1   2
ATOM      2  C   UNL     1       7.971   1.128 -25.328  1.00  0.00     0.016 C 
ATOM      3  C   UNL     1       6.595   0.875 -24.699  1.00  0.00     0.013 C 
BRANCH   2   4
ATOM      4  C   UNL     1       8.581   2.407 -24.780  1.00  0.00    -0.045 A 
ATOM      5  C   UNL     1      10.383   5.999 -23.198  1.00  0.00     0.044 C 
ATOM      6  C   UNL     1       9.730   4.765 -23.742  1.00  0.00    -0.051 A 
ATOM      7  C   UNL     1       9.466   3.675 -22.900  1.00  0.00     0.004 A 
ATOM      8  C   UNL     1       9.441   4.662 -25.110  1.00  0.00     0.004 A 
ATOM      9  C   UNL     1       8.892   2.508 -23.414  1.00  0.00     0.004 A 
ATOM     10  C   UNL     1       8.866   3.496 -25.625  1.00  0.00     0.004 A 
ENDBRANCH   2   4
ENDBRANCH   1   2
BRANCH   1  11
ATOM     11  C   UNL     1       9.259   1.221 -27.532  1.00  0.00     0.028 C 
BRANCH  11  12
ATOM     12  C   UNL     1       9.166   0.880 -28.999  1.00  0.00    -0.028 C 
ATOM     13  C   UNL     1       9.897   1.475 -29.969  1.00  0.00    -0.080 C 
ATOM     14  C   UNL     1      10.858   2.602 -29.670  1.00  0.00     0.039 C 
ATOM     15  C   UNL     1       9.727   1.001 -31.389  1.00  0.00     0.039 C 
ENDBRANCH  11  12
ENDBRANCH   1  11
TORSDOF 4
ENDMDL
MODEL 5
REMARK VINA RESULT:    -2.380      1.441      3.635
REMARK INTER + INTRA:          -3.539
REMARK INTER:                  -2.915
REMARK INTRA:                  -0.624
REMARK UNBOUND:                -0.603
REMARK SMILES CC(C)=CCC[C@H](C)c1ccc(C)cc1
REMARK SMILES IDX 6 1 7 2 8 3 9 4 13 5 12 6 11 7 14 8 10 9 15 10 5 11 4 12
REMARK SMILES IDX 2 13 1 14 3 15
REMARK H PARENT
REMARK Flexibility Score: inf
ROOT
ATOM      1  C   UNL     1      13.917  11.834 -38.970  1.00  0.00     0.012 C 
ENDROOT
BRANCH   1   2
ATOM      2  C   UNL     1      13.129  13.078 -39.431  1.00  0.00     0.016 C 
ATOM      3  C   UNL     1      12.596  13.863 -38.226  1.00  0.00     0.013 C 
BRANCH   2   4
ATOM      4  C   UNL     1      11.995  12.717 -40.377  1.00  0.00    -0.045 A 
ATOM      5  C   UNL     1       8.831  11.664 -43.121  1.00  0.00     0.044 C 
ATOM      6  C   UNL     1       9.912  12.052 -42.157  1.00  0.00    -0.051 A 
ATOM      7  C   UNL     1      10.912  12.956 -42.543  1.00  0.00     0.004 A 
ATOM      8  C   UNL     1       9.972  11.462 -40.887  1.00  0.00     0.004 A 
ATOM      9  C   UNL     1      11.942  13.290 -41.659  1.00  0.00     0.004 A 
ATOM     10  C   UNL     1      11.001  11.795 -40.001  1.00  0.00     0.004 A 
ENDBRANCH   2   4
ENDBRANCH   1   2
BRANCH   1  11
ATOM     11  C   UNL     1      14.562  11.089 -40.148  1.00  0.00     0.028 C 
BRANCH  11  12
ATOM     12  C   UNL     1      13.549  10.220 -40.851  1.00  0.00    -0.028 C 
ATOM     13  C   UNL     1      13.368  10.188 -42.190  1.00  0.00    -0.080 C 
ATOM     14  C   UNL     1      14.148  11.083 -43.125  1.00  0.00     0.039 C 
ATOM     15  C   UNL     1      12.344   9.238 -42.754  1.00  0.00     0.039 C 
ENDBRANCH  11  12
ENDBRANCH   1  11
TORSDOF 4
ENDMDL
MODEL 6
REMARK VINA RESULT:    -2.212      0.968      1.564
REMARK INTER + INTRA:          -3.332
REMARK INTER:                  -2.711
REMARK INTRA:                  -0.621
REMARK UNBOUND:                -0.603
REMARK SMILES CC(C)=CCC[C@H](C)c1ccc(C)cc1
REMARK SMILES IDX 6 1 7 2 8 3 9 4 13 5 12 6 11 7 14 8 10 9 15 10 5 11 4 12
REMARK SMILES IDX 2 13 1 14 3 15
REMARK H PARENT
REMARK Flexibility Score: inf
ROOT
ATOM      1  C   UNL     1      13.090  11.748 -41.100  1.00  0.00     0.012 C 
ENDROOT
BRANCH   1   2
ATOM      2  C   UNL     1      12.365  11.798 -42.461  1.00  0.00     0.016 C 
ATOM      3  C   UNL     1      12.208  13.245 -42.944  1.00  0.00     0.013 C 
BRANCH   2   4
ATOM      4  C   UNL     1      11.015  11.101 -42.414  1.00  0.00    -0.045 A 
ATOM      5  C   UNL     1       7.189   9.111 -42.198  1.00  0.00     0.044 C 
ATOM      6  C   UNL     1       8.520   9.792 -42.302  1.00  0.00    -0.051 A 
ATOM      7  C   UNL     1       9.686   9.130 -41.893  1.00  0.00     0.004 A 
ATOM      8  C   UNL     1       8.602  11.121 -42.743  1.00  0.00     0.004 A 
ATOM      9  C   UNL     1      10.924   9.777 -41.954  1.00  0.00     0.004 A 
ATOM     10  C   UNL     1       9.839  11.769 -42.804  1.00  0.00     0.004 A 
ENDBRANCH   2   4
ENDBRANCH   1   2
BRANCH   1  11
ATOM     11  C   UNL     1      12.538  12.786 -40.112  1.00  0.00     0.028 C 
BRANCH  11  12
ATOM     12  C   UNL     1      13.069  12.536 -38.722  1.00  0.00    -0.028 C 
ATOM     13  C   UNL     1      13.170  13.482 -37.761  1.00  0.00    -0.080 C 
ATOM     14  C   UNL     1      12.799  14.924 -38.015  1.00  0.00     0.039 C 
ATOM     15  C   UNL     1      13.681  13.074 -36.404  1.00  0.00     0.039 C 
ENDBRANCH  11  12
ENDBRANCH   1  11
TORSDOF 4
ENDMDL
