MODEL 1
REMARK VINA RESULT:    36.311      0.000      0.000
REMARK INTER + INTRA:          43.073
REMARK INTER:                  43.741
REMARK INTRA:                  -0.668
REMARK UNBOUND:                -0.668
REMARK SMILES O=c1ccn([C@H]2O[C@H](CO)[C@@H](O)[C@@H]2O)c(=O)[nH]1
REMARK SMILES IDX 6 1 13 2 11 3 8 4 7 5 5 6 3 7 4 8 2 9 17 10 1 11 15 12 16 14
REMARK SMILES IDX 14 15 12 17 9 19 10 20
REMARK H PARENT 17 13 14 16 12 18 10 21
REMARK Flexibility Score: inf
ROOT
ATOM      1  C   UNL     1      41.285  45.543  18.954  1.00  0.00     0.255 C 
ATOM      2  C   UNL     1      41.911  45.208  20.301  1.00  0.00     0.196 C 
ATOM      3  C   UNL     1      43.382  45.332  20.000  1.00  0.00     0.179 C 
ATOM      4  C   UNL     1      43.403  46.393  18.901  1.00  0.00     0.178 C 
ATOM      5  O   UNL     1      42.153  46.399  18.240  1.00  0.00    -0.347 OA
ENDROOT
BRANCH   1   6
ATOM      6  N   UNL     1      39.954  46.164  19.120  1.00  0.00    -0.271 N 
ATOM      7  C   UNL     1      38.626  48.158  19.238  1.00  0.00     0.090 A 
ATOM      8  C   UNL     1      39.860  47.529  19.104  1.00  0.00     0.099 A 
ATOM      9  C   UNL     1      37.488  47.371  19.377  1.00  0.00     0.253 A 
ATOM     10  N   UNL     1      37.598  46.018  19.374  1.00  0.00    -0.274 N 
ATOM     11  O   UNL     1      36.357  47.914  19.501  1.00  0.00    -0.269 OA
ATOM     12  C   UNL     1      38.811  45.410  19.241  1.00  0.00     0.330 A 
ATOM     13  H   UNL     1      36.737  45.432  19.471  1.00  0.00     0.175 HD
ATOM     14  O   UNL     1      38.865  44.149  19.224  1.00  0.00    -0.248 OA
ENDBRANCH   1   6
BRANCH   2  15
ATOM     15  O   UNL     1      41.574  43.905  20.696  1.00  0.00    -0.386 OA
ATOM     16  H   UNL     1      40.664  43.957  21.089  1.00  0.00     0.211 HD
ENDBRANCH   2  15
BRANCH   3  17
ATOM     17  O   UNL     1      44.101  45.765  21.125  1.00  0.00    -0.387 OA
ATOM     18  H   UNL     1      43.866  46.720  21.259  1.00  0.00     0.211 HD
ENDBRANCH   3  17
BRANCH   4  19
ATOM     19  C   UNL     1      44.530  46.147  17.891  1.00  0.00     0.191 C 
BRANCH  19  20
ATOM     20  O   UNL     1      45.775  46.154  18.536  1.00  0.00    -0.394 OA
ATOM     21  H   UNL     1      46.460  46.306  17.833  1.00  0.00     0.210 HD
ENDBRANCH  19  20
ENDBRANCH   4  19
TORSDOF 5
ENDMDL
MODEL 2
REMARK VINA RESULT:    36.624      1.727      5.733
REMARK INTER + INTRA:          43.449
REMARK INTER:                  43.992
REMARK INTRA:                  -0.542
REMARK UNBOUND:                -0.668
REMARK SMILES O=c1ccn([C@H]2O[C@H](CO)[C@@H](O)[C@@H]2O)c(=O)[nH]1
REMARK SMILES IDX 6 1 13 2 11 3 8 4 7 5 5 6 3 7 4 8 2 9 17 10 1 11 15 12 16 14
REMARK SMILES IDX 14 15 12 17 9 19 10 20
REMARK H PARENT 17 13 14 16 12 18 10 21
REMARK Flexibility Score: inf
ROOT
ATOM      1  C   UNL     1      39.980  45.681  18.775  1.00  0.00     0.255 C 
ATOM      2  C   UNL     1      39.262  47.022  18.852  1.00  0.00     0.196 C 
ATOM      3  C   UNL     1      37.885  46.613  19.306  1.00  0.00     0.179 C 
ATOM      4  C   UNL     1      38.172  45.360  20.131  1.00  0.00     0.178 C 
ATOM      5  O   UNL     1      39.388  44.787  19.695  1.00  0.00    -0.347 OA
ENDROOT
BRANCH   1   6
ATOM      6  N   UNL     1      41.425  45.830  19.042  1.00  0.00    -0.271 N 
ATOM      7  C   UNL     1      43.233  45.771  20.619  1.00  0.00     0.090 A 
ATOM      8  C   UNL     1      41.877  45.660  20.322  1.00  0.00     0.099 A 
ATOM      9  C   UNL     1      44.121  46.049  19.585  1.00  0.00     0.253 A 
ATOM     10  N   UNL     1      43.656  46.199  18.318  1.00  0.00    -0.274 N 
ATOM     11  O   UNL     1      45.353  46.157  19.824  1.00  0.00    -0.269 OA
ATOM     12  C   UNL     1      42.328  46.086  18.037  1.00  0.00     0.330 A 
ATOM     13  H   UNL     1      44.330  46.399  17.544  1.00  0.00     0.175 HD
ATOM     14  O   UNL     1      41.942  46.214  16.842  1.00  0.00    -0.248 OA
ENDBRANCH   1   6
BRANCH   2  15
ATOM     15  O   UNL     1      39.227  47.641  17.593  1.00  0.00    -0.386 OA
ATOM     16  H   UNL     1      40.076  47.400  17.139  1.00  0.00     0.211 HD
ENDBRANCH   2  15
BRANCH   3  17
ATOM     17  O   UNL     1      37.289  47.607  20.098  1.00  0.00    -0.387 OA
ATOM     18  H   UNL     1      37.668  48.473  19.795  1.00  0.00     0.211 HD
ENDBRANCH   3  17
BRANCH   4  19
ATOM     19  C   UNL     1      37.038  44.333  20.022  1.00  0.00     0.191 C 
BRANCH  19  20
ATOM     20  O   UNL     1      36.859  43.940  18.688  1.00  0.00    -0.394 OA
ATOM     21  H   UNL     1      37.396  43.115  18.559  1.00  0.00     0.210 HD
ENDBRANCH  19  20
ENDBRANCH   4  19
TORSDOF 5
ENDMDL
MODEL 3
REMARK VINA RESULT:    38.353      1.650      5.637
REMARK INTER + INTRA:          45.533
REMARK INTER:                  45.521
REMARK INTRA:                   0.012
REMARK UNBOUND:                -0.668
REMARK SMILES O=c1ccn([C@H]2O[C@H](CO)[C@@H](O)[C@@H]2O)c(=O)[nH]1
REMARK SMILES IDX 6 1 13 2 11 3 8 4 7 5 5 6 3 7 4 8 2 9 17 10 1 11 15 12 16 14
REMARK SMILES IDX 14 15 12 17 9 19 10 20
REMARK H PARENT 17 13 14 16 12 18 10 21
REMARK Flexibility Score: inf
ROOT
ATOM      1  C   UNL     1      40.058  46.441  19.899  1.00  0.00     0.255 C 
ATOM      2  C   UNL     1      39.211  45.270  19.417  1.00  0.00     0.196 C 
ATOM      3  C   UNL     1      37.845  45.896  19.310  1.00  0.00     0.179 C 
ATOM      4  C   UNL     1      38.178  47.350  18.978  1.00  0.00     0.178 C 
ATOM      5  O   UNL     1      39.477  47.647  19.449  1.00  0.00    -0.347 OA
ENDROOT
BRANCH   1   6
ATOM      6  N   UNL     1      41.454  46.322  19.429  1.00  0.00    -0.271 N 
ATOM      7  C   UNL     1      43.771  45.995  19.959  1.00  0.00     0.090 A 
ATOM      8  C   UNL     1      42.443  46.132  20.355  1.00  0.00     0.099 A 
ATOM      9  C   UNL     1      44.070  46.045  18.601  1.00  0.00     0.253 A 
ATOM     10  N   UNL     1      43.073  46.218  17.696  1.00  0.00    -0.274 N 
ATOM     11  O   UNL     1      45.263  45.926  18.214  1.00  0.00    -0.269 OA
ATOM     12  C   UNL     1      41.776  46.349  18.093  1.00  0.00     0.330 A 
ATOM     13  H   UNL     1      43.304  46.247  16.677  1.00  0.00     0.175 HD
ATOM     14  O   UNL     1      40.879  46.490  17.216  1.00  0.00    -0.248 OA
ENDBRANCH   1   6
BRANCH   2  15
ATOM     15  O   UNL     1      39.227  44.226  20.354  1.00  0.00    -0.386 OA
ATOM     16  H   UNL     1      40.170  43.926  20.424  1.00  0.00     0.211 HD
ENDBRANCH   2  15
BRANCH   3  17
ATOM     17  O   UNL     1      37.091  45.310  18.282  1.00  0.00    -0.387 OA
ATOM     18  H   UNL     1      37.018  44.344  18.502  1.00  0.00     0.211 HD
ENDBRANCH   3  17
BRANCH   4  19
ATOM     19  C   UNL     1      37.161  48.322  19.588  1.00  0.00     0.191 C 
BRANCH  19  20
ATOM     20  O   UNL     1      35.896  48.134  19.013  1.00  0.00    -0.394 OA
ATOM     21  H   UNL     1      35.263  48.705  19.522  1.00  0.00     0.210 HD
ENDBRANCH  19  20
ENDBRANCH   4  19
TORSDOF 5
ENDMDL
MODEL 4
REMARK VINA RESULT:    38.406     13.498     14.983
REMARK INTER + INTRA:          45.596
REMARK INTER:                  46.050
REMARK INTRA:                  -0.453
REMARK UNBOUND:                -0.668
REMARK SMILES O=c1ccn([C@H]2O[C@H](CO)[C@@H](O)[C@@H]2O)c(=O)[nH]1
REMARK SMILES IDX 6 1 13 2 11 3 8 4 7 5 5 6 3 7 4 8 2 9 17 10 1 11 15 12 16 14
REMARK SMILES IDX 14 15 12 17 9 19 10 20
REMARK H PARENT 17 13 14 16 12 18 10 21
REMARK Flexibility Score: inf
ROOT
ATOM      1  C   UNL     1      41.699  51.258   6.806  1.00  0.00     0.255 C 
ATOM      2  C   UNL     1      41.436  49.826   7.251  1.00  0.00     0.196 C 
ATOM      3  C   UNL     1      40.377  50.016   8.305  1.00  0.00     0.179 C 
ATOM      4  C   UNL     1      39.654  51.271   7.820  1.00  0.00     0.178 C 
ATOM      5  O   UNL     1      40.532  52.028   7.011  1.00  0.00    -0.347 OA
ENDROOT
BRANCH   1   6
ATOM      6  N   UNL     1      42.122  51.312   5.392  1.00  0.00    -0.271 N 
ATOM      7  C   UNL     1      41.563  51.034   3.075  1.00  0.00     0.090 A 
ATOM      8  C   UNL     1      41.216  50.979   4.422  1.00  0.00     0.099 A 
ATOM      9  C   UNL     1      42.848  51.444   2.734  1.00  0.00     0.253 A 
ATOM     10  N   UNL     1      43.728  51.787   3.708  1.00  0.00    -0.274 N 
ATOM     11  O   UNL     1      43.190  51.502   1.523  1.00  0.00    -0.269 OA
ATOM     12  C   UNL     1      43.379  51.732   5.025  1.00  0.00     0.330 A 
ATOM     13  H   UNL     1      44.690  52.102   3.445  1.00  0.00     0.175 HD
ATOM     14  O   UNL     1      44.223  52.078   5.897  1.00  0.00    -0.248 OA
ENDBRANCH   1   6
BRANCH   2  15
ATOM     15  O   UNL     1      42.598  49.249   7.785  1.00  0.00    -0.386 OA
ATOM     16  H   UNL     1      42.976  49.913   8.418  1.00  0.00     0.211 HD
ENDBRANCH   2  15
BRANCH   3  17
ATOM     17  O   UNL     1      39.500  48.921   8.355  1.00  0.00    -0.387 OA
ATOM     18  H   UNL     1      38.600  49.291   8.549  1.00  0.00     0.211 HD
ENDBRANCH   3  17
BRANCH   4  19
ATOM     19  C   UNL     1      39.146  52.125   8.988  1.00  0.00     0.191 C 
BRANCH  19  20
ATOM     20  O   UNL     1      40.077  52.125  10.036  1.00  0.00    -0.394 OA
ATOM     21  H   UNL     1      40.772  52.794   9.801  1.00  0.00     0.210 HD
ENDBRANCH  19  20
ENDBRANCH   4  19
TORSDOF 5
ENDMDL
MODEL 5
REMARK VINA RESULT:    38.510      1.549      2.467
REMARK INTER + INTRA:          45.721
REMARK INTER:                  45.665
REMARK INTRA:                   0.056
REMARK UNBOUND:                -0.668
REMARK SMILES O=c1ccn([C@H]2O[C@H](CO)[C@@H](O)[C@@H]2O)c(=O)[nH]1
REMARK SMILES IDX 6 1 13 2 11 3 8 4 7 5 5 6 3 7 4 8 2 9 17 10 1 11 15 12 16 14
REMARK SMILES IDX 14 15 12 17 9 19 10 20
REMARK H PARENT 17 13 14 16 12 18 10 21
REMARK Flexibility Score: inf
ROOT
ATOM      1  C   UNL     1      41.847  46.643  19.540  1.00  0.00     0.255 C 
ATOM      2  C   UNL     1      42.613  46.373  18.251  1.00  0.00     0.196 C 
ATOM      3  C   UNL     1      44.033  46.281  18.746  1.00  0.00     0.179 C 
ATOM      4  C   UNL     1      43.850  45.747  20.166  1.00  0.00     0.178 C 
ATOM      5  O   UNL     1      42.558  46.086  20.626  1.00  0.00    -0.347 OA
ENDROOT
BRANCH   1   6
ATOM      6  N   UNL     1      40.475  46.097  19.473  1.00  0.00    -0.271 N 
ATOM      7  C   UNL     1      38.111  46.502  19.436  1.00  0.00     0.090 A 
ATOM      8  C   UNL     1      39.420  46.967  19.515  1.00  0.00     0.099 A 
ATOM      9  C   UNL     1      37.896  45.134  19.302  1.00  0.00     0.253 A 
ATOM     10  N   UNL     1      38.956  44.287  19.246  1.00  0.00    -0.274 N 
ATOM     11  O   UNL     1      36.722  44.684  19.230  1.00  0.00    -0.269 OA
ATOM     12  C   UNL     1      40.235  44.752  19.322  1.00  0.00     0.330 A 
ATOM     13  H   UNL     1      38.788  43.260  19.138  1.00  0.00     0.175 HD
ATOM     14  O   UNL     1      41.190  43.931  19.247  1.00  0.00    -0.248 OA
ENDBRANCH   1   6
BRANCH   2  15
ATOM     15  O   UNL     1      42.450  47.431  17.344  1.00  0.00    -0.386 OA
ATOM     16  H   UNL     1      42.000  48.161  17.843  1.00  0.00     0.211 HD
ENDBRANCH   2  15
BRANCH   3  17
ATOM     17  O   UNL     1      44.790  45.390  17.970  1.00  0.00    -0.387 OA
ATOM     18  H   UNL     1      44.537  44.477  18.264  1.00  0.00     0.211 HD
ENDBRANCH   3  17
BRANCH   4  19
ATOM     19  C   UNL     1      44.912  46.298  21.125  1.00  0.00     0.191 C 
BRANCH  19  20
ATOM     20  O   UNL     1      46.138  45.648  20.924  1.00  0.00    -0.394 OA
ATOM     21  H   UNL     1      46.253  45.552  19.943  1.00  0.00     0.210 HD
ENDBRANCH  19  20
ENDBRANCH   4  19
TORSDOF 5
ENDMDL
