MODEL 1
REMARK VINA RESULT:    -3.411      0.000      0.000
REMARK INTER + INTRA:          -4.026
REMARK INTER:                  -4.009
REMARK INTRA:                  -0.017
REMARK UNBOUND:                -0.017
REMARK SMILES CCCCC(=O)[O-]
REMARK SMILES IDX 4 1 5 2 6 3 7 4 3 5 2 6 1 7
REMARK H PARENT
REMARK Flexibility Score: inf
ROOT
ATOM      1  C   UNL     1       0.036  48.178  23.046  1.00  0.00     0.053 C 
ENDROOT
BRANCH   1   2
ATOM      2  C   UNL     1      -0.365  46.809  23.504  1.00  0.00     0.041 C 
ATOM      3  O   UNL     1      -0.888  45.999  22.694  1.00  0.00    -0.550 OA
ATOM      4  O   UNL     1      -0.194  46.441  24.832  1.00  0.00    -0.550 OA
ENDBRANCH   1   2
BRANCH   1   5
ATOM      5  C   UNL     1       0.945  48.122  21.811  1.00  0.00     0.006 C 
BRANCH   5   6
ATOM      6  C   UNL     1       2.107  49.122  21.899  1.00  0.00    -0.003 C 
ATOM      7  C   UNL     1       1.728  50.462  21.276  1.00  0.00     0.004 C 
ENDBRANCH   5   6
ENDBRANCH   1   5
TORSDOF 3
ENDMDL
MODEL 2
REMARK VINA RESULT:    -3.208      1.107      1.861
REMARK INTER + INTRA:          -3.788
REMARK INTER:                  -3.681
REMARK INTRA:                  -0.107
REMARK UNBOUND:                -0.017
REMARK SMILES CCCCC(=O)[O-]
REMARK SMILES IDX 4 1 5 2 6 3 7 4 3 5 2 6 1 7
REMARK H PARENT
REMARK Flexibility Score: inf
ROOT
ATOM      1  C   UNL     1       1.048  48.033  21.637  1.00  0.00     0.053 C 
ENDROOT
BRANCH   1   2
ATOM      2  C   UNL     1       0.154  47.750  22.805  1.00  0.00     0.041 C 
ATOM      3  O   UNL     1       0.103  48.554  23.772  1.00  0.00    -0.550 OA
ATOM      4  O   UNL     1      -0.596  46.581  22.841  1.00  0.00    -0.550 OA
ENDBRANCH   1   2
BRANCH   1   5
ATOM      5  C   UNL     1       2.079  49.123  21.959  1.00  0.00     0.006 C 
BRANCH   5   6
ATOM      6  C   UNL     1       1.781  50.440  21.228  1.00  0.00    -0.003 C 
ATOM      7  C   UNL     1       1.277  51.505  22.198  1.00  0.00     0.004 C 
ENDBRANCH   5   6
ENDBRANCH   1   5
TORSDOF 3
ENDMDL
MODEL 3
REMARK VINA RESULT:    -3.161     18.869     19.757
REMARK INTER + INTRA:          -3.733
REMARK INTER:                  -3.661
REMARK INTRA:                  -0.072
REMARK UNBOUND:                -0.017
REMARK SMILES CCCCC(=O)[O-]
REMARK SMILES IDX 4 1 5 2 6 3 7 4 3 5 2 6 1 7
REMARK H PARENT
REMARK Flexibility Score: inf
ROOT
ATOM      1  C   UNL     1      -8.134  49.332  40.001  1.00  0.00     0.053 C 
ENDROOT
BRANCH   1   2
ATOM      2  C   UNL     1      -8.415  47.969  39.446  1.00  0.00     0.041 C 
ATOM      3  O   UNL     1      -8.002  46.944  40.048  1.00  0.00    -0.550 OA
ATOM      4  O   UNL     1      -9.102  47.833  38.246  1.00  0.00    -0.550 OA
ENDBRANCH   1   2
BRANCH   1   5
ATOM      5  C   UNL     1      -9.110  49.703  41.125  1.00  0.00     0.006 C 
BRANCH   5   6
ATOM      6  C   UNL     1      -9.762  51.074  40.900  1.00  0.00    -0.003 C 
ATOM      7  C   UNL     1      -9.641  51.508  39.443  1.00  0.00     0.004 C 
ENDBRANCH   5   6
ENDBRANCH   1   5
TORSDOF 3
ENDMDL
MODEL 4
REMARK VINA RESULT:    -3.040      3.341      4.386
REMARK INTER + INTRA:          -3.591
REMARK INTER:                  -3.487
REMARK INTRA:                  -0.104
REMARK UNBOUND:                -0.017
REMARK SMILES CCCCC(=O)[O-]
REMARK SMILES IDX 4 1 5 2 6 3 7 4 3 5 2 6 1 7
REMARK H PARENT
REMARK Flexibility Score: inf
ROOT
ATOM      1  C   UNL     1       1.744  50.549  21.233  1.00  0.00     0.053 C 
ENDROOT
BRANCH   1   2
ATOM      2  C   UNL     1       1.104  51.555  22.141  1.00  0.00     0.041 C 
ATOM      3  O   UNL     1       1.798  52.464  22.666  1.00  0.00    -0.550 OA
ATOM      4  O   UNL     1      -0.251  51.466  22.434  1.00  0.00    -0.550 OA
ENDBRANCH   1   2
BRANCH   1   5
ATOM      5  C   UNL     1       2.112  49.260  21.979  1.00  0.00     0.006 C 
BRANCH   5   6
ATOM      6  C   UNL     1       1.214  48.080  21.579  1.00  0.00    -0.003 C 
ATOM      7  C   UNL     1       0.216  47.750  22.684  1.00  0.00     0.004 C 
ENDBRANCH   5   6
ENDBRANCH   1   5
TORSDOF 3
ENDMDL
MODEL 5
REMARK VINA RESULT:    -3.019      2.355      4.176
REMARK INTER + INTRA:          -3.566
REMARK INTER:                  -3.544
REMARK INTRA:                  -0.021
REMARK UNBOUND:                -0.017
REMARK SMILES CCCCC(=O)[O-]
REMARK SMILES IDX 4 1 5 2 6 3 7 4 3 5 2 6 1 7
REMARK H PARENT
REMARK Flexibility Score: inf
ROOT
ATOM      1  C   UNL     1      -0.094  48.332  23.278  1.00  0.00     0.053 C 
ENDROOT
BRANCH   1   2
ATOM      2  C   UNL     1       0.703  48.829  22.111  1.00  0.00     0.041 C 
ATOM      3  O   UNL     1       0.757  50.062  21.861  1.00  0.00    -0.550 OA
ATOM      4  O   UNL     1       1.357  47.929  21.280  1.00  0.00    -0.550 OA
ENDBRANCH   1   2
BRANCH   1   5
ATOM      5  C   UNL     1      -0.453  46.847  23.131  1.00  0.00     0.006 C 
BRANCH   5   6
ATOM      6  C   UNL     1      -0.798  46.197  24.479  1.00  0.00    -0.003 C 
ATOM      7  C   UNL     1      -2.248  45.723  24.505  1.00  0.00     0.004 C 
ENDBRANCH   5   6
ENDBRANCH   1   5
TORSDOF 3
ENDMDL
MODEL 6
REMARK VINA RESULT:    -2.980      4.048      4.974
REMARK INTER + INTRA:          -3.520
REMARK INTER:                  -3.496
REMARK INTRA:                  -0.024
REMARK UNBOUND:                -0.017
REMARK SMILES CCCCC(=O)[O-]
REMARK SMILES IDX 4 1 5 2 6 3 7 4 3 5 2 6 1 7
REMARK H PARENT
REMARK Flexibility Score: inf
ROOT
ATOM      1  C   UNL     1       1.847  51.412  22.164  1.00  0.00     0.053 C 
ENDROOT
BRANCH   1   2
ATOM      2  C   UNL     1       0.958  52.526  21.702  1.00  0.00     0.041 C 
ATOM      3  O   UNL     1       1.390  53.385  20.890  1.00  0.00    -0.550 OA
ATOM      4  O   UNL     1      -0.336  52.634  22.195  1.00  0.00    -0.550 OA
ENDBRANCH   1   2
BRANCH   1   5
ATOM      5  C   UNL     1       1.821  50.222  21.196  1.00  0.00     0.006 C 
BRANCH   5   6
ATOM      6  C   UNL     1       2.039  48.883  21.914  1.00  0.00    -0.003 C 
ATOM      7  C   UNL     1       0.710  48.210  22.240  1.00  0.00     0.004 C 
ENDBRANCH   5   6
ENDBRANCH   1   5
TORSDOF 3
ENDMDL
MODEL 7
REMARK VINA RESULT:    -2.968      2.028      2.851
REMARK INTER + INTRA:          -3.506
REMARK INTER:                  -3.465
REMARK INTRA:                  -0.041
REMARK UNBOUND:                -0.017
REMARK SMILES CCCCC(=O)[O-]
REMARK SMILES IDX 4 1 5 2 6 3 7 4 3 5 2 6 1 7
REMARK H PARENT
REMARK Flexibility Score: inf
ROOT
ATOM      1  C   UNL     1       2.002  49.717  22.276  1.00  0.00     0.053 C 
ENDROOT
BRANCH   1   2
ATOM      2  C   UNL     1       1.013  48.599  22.145  1.00  0.00     0.041 C 
ATOM      3  O   UNL     1       1.166  47.719  21.257  1.00  0.00    -0.550 OA
ATOM      4  O   UNL     1      -0.096  48.548  22.980  1.00  0.00    -0.550 OA
ENDBRANCH   1   2
BRANCH   1   5
ATOM      5  C   UNL     1       1.778  50.803  21.216  1.00  0.00     0.006 C 
BRANCH   5   6
ATOM      6  C   UNL     1       1.113  52.057  21.801  1.00  0.00    -0.003 C 
ATOM      7  C   UNL     1       1.292  53.257  20.876  1.00  0.00     0.004 C 
ENDBRANCH   5   6
ENDBRANCH   1   5
TORSDOF 3
ENDMDL
MODEL 8
REMARK VINA RESULT:    -2.893      2.272      3.235
REMARK INTER + INTRA:          -3.417
REMARK INTER:                  -3.312
REMARK INTRA:                  -0.105
REMARK UNBOUND:                -0.017
REMARK SMILES CCCCC(=O)[O-]
REMARK SMILES IDX 4 1 5 2 6 3 7 4 3 5 2 6 1 7
REMARK H PARENT
REMARK Flexibility Score: inf
ROOT
ATOM      1  C   UNL     1       2.110  49.852  21.654  1.00  0.00     0.053 C 
ENDROOT
BRANCH   1   2
ATOM      2  C   UNL     1       1.068  48.819  21.958  1.00  0.00     0.041 C 
ATOM      3  O   UNL     1       0.156  49.066  22.791  1.00  0.00    -0.550 OA
ATOM      4  O   UNL     1       1.124  47.573  21.348  1.00  0.00    -0.550 OA
ENDBRANCH   1   2
BRANCH   1   5
ATOM      5  C   UNL     1       1.555  51.277  21.785  1.00  0.00     0.006 C 
BRANCH   5   6
ATOM      6  C   UNL     1       2.397  52.144  22.732  1.00  0.00    -0.003 C 
ATOM      7  C   UNL     1       2.449  51.538  24.131  1.00  0.00     0.004 C 
ENDBRANCH   5   6
ENDBRANCH   1   5
TORSDOF 3
ENDMDL
MODEL 9
REMARK VINA RESULT:    -2.886     17.720     18.125
REMARK INTER + INTRA:          -3.410
REMARK INTER:                  -3.382
REMARK INTRA:                  -0.028
REMARK UNBOUND:                -0.017
REMARK SMILES CCCCC(=O)[O-]
REMARK SMILES IDX 4 1 5 2 6 3 7 4 3 5 2 6 1 7
REMARK H PARENT
REMARK Flexibility Score: inf
ROOT
ATOM      1  C   UNL     1      -6.713  44.776  39.138  1.00  0.00     0.053 C 
ENDROOT
BRANCH   1   2
ATOM      2  C   UNL     1      -5.360  44.134  39.159  1.00  0.00     0.041 C 
ATOM      3  O   UNL     1      -4.389  44.721  39.703  1.00  0.00    -0.550 OA
ATOM      4  O   UNL     1      -5.165  42.902  38.548  1.00  0.00    -0.550 OA
ENDBRANCH   1   2
BRANCH   1   5
ATOM      5  C   UNL     1      -6.625  46.283  38.863  1.00  0.00     0.006 C 
BRANCH   5   6
ATOM      6  C   UNL     1      -7.747  47.068  39.557  1.00  0.00    -0.003 C 
ATOM      7  C   UNL     1      -8.654  47.748  38.537  1.00  0.00     0.004 C 
ENDBRANCH   5   6
ENDBRANCH   1   5
TORSDOF 3
ENDMDL
