MODEL 1
REMARK VINA RESULT:    -4.807      0.000      0.000
REMARK INTER + INTRA:          -8.196
REMARK INTER:                  -7.336
REMARK INTRA:                  -0.859
REMARK UNBOUND:                -0.859
REMARK SMILES O=C([O-])CCCCCCCCC(=O)[O-]
REMARK SMILES IDX 7 1 6 2 5 3 4 4 2 5 1 6 3 7 8 8 9 9 10 10 11 11 12 12 13 13
REMARK SMILES IDX 14 14
REMARK H PARENT
REMARK Flexibility Score: inf
ROOT
ATOM      1  C   UNL     1      23.524  -6.181 -36.808  1.00  0.00     0.000 C 
ENDROOT
BRANCH   1   2
ATOM      2  C   UNL     1      22.297  -7.004 -37.226  1.00  0.00     0.000 C 
BRANCH   2   3
ATOM      3  C   UNL     1      22.587  -7.935 -38.421  1.00  0.00     0.006 C 
BRANCH   3   4
ATOM      4  C   UNL     1      23.859  -8.781 -38.249  1.00  0.00     0.053 C 
BRANCH   4   5
ATOM      5  C   UNL     1      24.695  -8.818 -39.490  1.00  0.00     0.041 C 
ATOM      6  O   UNL     1      24.651  -9.818 -40.254  1.00  0.00    -0.550 OA
ATOM      7  O   UNL     1      25.510  -7.740 -39.814  1.00  0.00    -0.550 OA
ENDBRANCH   4   5
ENDBRANCH   3   4
ENDBRANCH   2   3
ENDBRANCH   1   2
BRANCH   1   8
ATOM      8  C   UNL     1      23.104  -4.820 -36.234  1.00  0.00     0.000 C 
BRANCH   8   9
ATOM      9  C   UNL     1      21.624  -4.487 -36.497  1.00  0.00     0.000 C 
BRANCH   9  10
ATOM     10  C   UNL     1      21.381  -3.331 -37.485  1.00  0.00     0.006 C 
BRANCH  10  11
ATOM     11  C   UNL     1      20.883  -3.808 -38.856  1.00  0.00     0.053 C 
BRANCH  11  12
ATOM     12  C   UNL     1      22.036  -4.209 -39.718  1.00  0.00     0.041 C 
ATOM     13  O   UNL     1      21.908  -5.142 -40.554  1.00  0.00    -0.550 OA
ATOM     14  O   UNL     1      23.240  -3.520 -39.636  1.00  0.00    -0.550 OA
ENDBRANCH  11  12
ENDBRANCH  10  11
ENDBRANCH   9  10
ENDBRANCH   8   9
ENDBRANCH   1   8
TORSDOF 9
ENDMDL
MODEL 2
REMARK VINA RESULT:    -4.791      1.843      2.547
REMARK INTER + INTRA:          -8.171
REMARK INTER:                  -7.072
REMARK INTRA:                  -1.099
REMARK UNBOUND:                -0.859
REMARK SMILES O=C([O-])CCCCCCCCC(=O)[O-]
REMARK SMILES IDX 7 1 6 2 5 3 4 4 2 5 1 6 3 7 8 8 9 9 10 10 11 11 12 12 13 13
REMARK SMILES IDX 14 14
REMARK H PARENT
REMARK Flexibility Score: inf
ROOT
ATOM      1  C   UNL     1      24.420  -5.009 -37.230  1.00  0.00     0.000 C 
ENDROOT
BRANCH   1   2
ATOM      2  C   UNL     1      23.966  -6.347 -36.626  1.00  0.00     0.000 C 
BRANCH   2   3
ATOM      3  C   UNL     1      22.541  -6.741 -37.065  1.00  0.00     0.006 C 
BRANCH   3   4
ATOM      4  C   UNL     1      22.452  -8.147 -37.680  1.00  0.00     0.053 C 
BRANCH   4   5
ATOM      5  C   UNL     1      22.763  -8.153 -39.144  1.00  0.00     0.041 C 
ATOM      6  O   UNL     1      21.922  -7.713 -39.972  1.00  0.00    -0.550 OA
ATOM      7  O   UNL     1      23.989  -8.626 -39.594  1.00  0.00    -0.550 OA
ENDBRANCH   4   5
ENDBRANCH   3   4
ENDBRANCH   2   3
ENDBRANCH   1   2
BRANCH   1   8
ATOM      8  C   UNL     1      25.065  -5.219 -38.608  1.00  0.00     0.000 C 
BRANCH   8   9
ATOM      9  C   UNL     1      24.162  -4.767 -39.771  1.00  0.00     0.000 C 
BRANCH   9  10
ATOM     10  C   UNL     1      23.105  -3.709 -39.402  1.00  0.00     0.006 C 
BRANCH  10  11
ATOM     11  C   UNL     1      21.671  -4.163 -39.708  1.00  0.00     0.053 C 
BRANCH  11  12
ATOM     12  C   UNL     1      20.718  -3.584 -38.712  1.00  0.00     0.041 C 
ATOM     13  O   UNL     1      19.575  -3.201 -39.078  1.00  0.00    -0.550 OA
ATOM     14  O   UNL     1      21.071  -3.511 -37.371  1.00  0.00    -0.550 OA
ENDBRANCH  11  12
ENDBRANCH  10  11
ENDBRANCH   9  10
ENDBRANCH   8   9
ENDBRANCH   1   8
TORSDOF 9
ENDMDL
MODEL 3
REMARK VINA RESULT:    -4.732      0.575      4.556
REMARK INTER + INTRA:          -8.081
REMARK INTER:                  -7.252
REMARK INTRA:                  -0.829
REMARK UNBOUND:                -0.859
REMARK SMILES O=C([O-])CCCCCCCCC(=O)[O-]
REMARK SMILES IDX 7 1 6 2 5 3 4 4 2 5 1 6 3 7 8 8 9 9 10 10 11 11 12 12 13 13
REMARK SMILES IDX 14 14
REMARK H PARENT
REMARK Flexibility Score: inf
ROOT
ATOM      1  C   UNL     1      23.046  -4.633 -36.134  1.00  0.00     0.000 C 
ENDROOT
BRANCH   1   2
ATOM      2  C   UNL     1      21.582  -4.382 -36.525  1.00  0.00     0.000 C 
BRANCH   2   3
ATOM      3  C   UNL     1      21.429  -3.221 -37.529  1.00  0.00     0.006 C 
BRANCH   3   4
ATOM      4  C   UNL     1      20.989  -3.674 -38.931  1.00  0.00     0.053 C 
BRANCH   4   5
ATOM      5  C   UNL     1      22.132  -4.177 -39.756  1.00  0.00     0.041 C 
ATOM      6  O   UNL     1      23.266  -3.638 -39.662  1.00  0.00    -0.550 OA
ATOM      7  O   UNL     1      21.950  -5.253 -40.615  1.00  0.00    -0.550 OA
ENDBRANCH   4   5
ENDBRANCH   3   4
ENDBRANCH   2   3
ENDBRANCH   1   2
BRANCH   1   8
ATOM      8  C   UNL     1      23.495  -6.039 -36.558  1.00  0.00     0.000 C 
BRANCH   8   9
ATOM      9  C   UNL     1      22.380  -6.843 -37.251  1.00  0.00     0.000 C 
BRANCH   9  10
ATOM     10  C   UNL     1      22.780  -8.261 -37.699  1.00  0.00     0.006 C 
BRANCH  10  11
ATOM     11  C   UNL     1      23.165  -8.335 -39.183  1.00  0.00     0.053 C 
BRANCH  11  12
ATOM     12  C   UNL     1      24.652  -8.313 -39.337  1.00  0.00     0.041 C 
ATOM     13  O   UNL     1      25.295  -9.392 -39.438  1.00  0.00    -0.550 OA
ATOM     14  O   UNL     1      25.325  -7.101 -39.419  1.00  0.00    -0.550 OA
ENDBRANCH  11  12
ENDBRANCH  10  11
ENDBRANCH   9  10
ENDBRANCH   8   9
ENDBRANCH   1   8
TORSDOF 9
ENDMDL
MODEL 4
REMARK VINA RESULT:    -4.731      1.855      2.327
REMARK INTER + INTRA:          -8.080
REMARK INTER:                  -7.006
REMARK INTRA:                  -1.073
REMARK UNBOUND:                -0.859
REMARK SMILES O=C([O-])CCCCCCCCC(=O)[O-]
REMARK SMILES IDX 7 1 6 2 5 3 4 4 2 5 1 6 3 7 8 8 9 9 10 10 11 11 12 12 13 13
REMARK SMILES IDX 14 14
REMARK H PARENT
REMARK Flexibility Score: inf
ROOT
ATOM      1  C   UNL     1      25.145  -5.220 -37.758  1.00  0.00     0.000 C 
ENDROOT
BRANCH   1   2
ATOM      2  C   UNL     1      25.421  -6.575 -37.091  1.00  0.00     0.000 C 
BRANCH   2   3
ATOM      3  C   UNL     1      25.067  -7.767 -38.005  1.00  0.00     0.006 C 
BRANCH   3   4
ATOM      4  C   UNL     1      24.101  -7.404 -39.145  1.00  0.00     0.053 C 
BRANCH   4   5
ATOM      5  C   UNL     1      22.707  -7.882 -38.888  1.00  0.00     0.041 C 
ATOM      6  O   UNL     1      22.409  -8.403 -37.781  1.00  0.00    -0.550 OA
ATOM      7  O   UNL     1      21.729  -7.734 -39.864  1.00  0.00    -0.550 OA
ENDBRANCH   4   5
ENDBRANCH   3   4
ENDBRANCH   2   3
ENDBRANCH   1   2
BRANCH   1   8
ATOM      8  C   UNL     1      24.240  -4.347 -36.876  1.00  0.00     0.000 C 
BRANCH   8   9
ATOM      9  C   UNL     1      22.989  -5.092 -36.375  1.00  0.00     0.000 C 
BRANCH   9  10
ATOM     10  C   UNL     1      21.654  -4.365 -36.621  1.00  0.00     0.006 C 
BRANCH  10  11
ATOM     11  C   UNL     1      20.896  -4.901 -37.842  1.00  0.00     0.053 C 
BRANCH  11  12
ATOM     12  C   UNL     1      21.179  -4.056 -39.043  1.00  0.00     0.041 C 
ATOM     13  O   UNL     1      22.164  -4.317 -39.784  1.00  0.00    -0.550 OA
ATOM     14  O   UNL     1      20.327  -3.010 -39.374  1.00  0.00    -0.550 OA
ENDBRANCH  11  12
ENDBRANCH  10  11
ENDBRANCH   9  10
ENDBRANCH   8   9
ENDBRANCH   1   8
TORSDOF 9
ENDMDL
MODEL 5
REMARK VINA RESULT:    -4.705      1.931      5.402
REMARK INTER + INTRA:          -8.040
REMARK INTER:                  -7.316
REMARK INTRA:                  -0.723
REMARK UNBOUND:                -0.859
REMARK SMILES O=C([O-])CCCCCCCCC(=O)[O-]
REMARK SMILES IDX 7 1 6 2 5 3 4 4 2 5 1 6 3 7 8 8 9 9 10 10 11 11 12 12 13 13
REMARK SMILES IDX 14 14
REMARK H PARENT
REMARK Flexibility Score: inf
ROOT
ATOM      1  C   UNL     1      21.969  -4.149 -35.912  1.00  0.00     0.000 C 
ENDROOT
BRANCH   1   2
ATOM      2  C   UNL     1      21.415  -2.868 -36.554  1.00  0.00     0.000 C 
BRANCH   2   3
ATOM      3  C   UNL     1      21.526  -2.881 -38.092  1.00  0.00     0.006 C 
BRANCH   3   4
ATOM      4  C   UNL     1      20.401  -3.667 -38.785  1.00  0.00     0.053 C 
BRANCH   4   5
ATOM      5  C   UNL     1      19.396  -2.772 -39.441  1.00  0.00     0.041 C 
ATOM      6  O   UNL     1      18.716  -1.969 -38.749  1.00  0.00    -0.550 OA
ATOM      7  O   UNL     1      19.224  -2.810 -40.819  1.00  0.00    -0.550 OA
ENDBRANCH   4   5
ENDBRANCH   3   4
ENDBRANCH   2   3
ENDBRANCH   1   2
BRANCH   1   8
ATOM      8  C   UNL     1      23.376  -4.465 -36.443  1.00  0.00     0.000 C 
BRANCH   8   9
ATOM      9  C   UNL     1      23.516  -5.911 -36.951  1.00  0.00     0.000 C 
BRANCH   9  10
ATOM     10  C   UNL     1      22.187  -6.652 -37.188  1.00  0.00     0.006 C 
BRANCH  10  11
ATOM     11  C   UNL     1      22.382  -8.090 -37.685  1.00  0.00     0.053 C 
BRANCH  11  12
ATOM     12  C   UNL     1      22.609  -8.105 -39.163  1.00  0.00     0.041 C 
ATOM     13  O   UNL     1      21.829  -7.481 -39.930  1.00  0.00    -0.550 OA
ATOM     14  O   UNL     1      23.711  -8.766 -39.690  1.00  0.00    -0.550 OA
ENDBRANCH  11  12
ENDBRANCH  10  11
ENDBRANCH   9  10
ENDBRANCH   8   9
ENDBRANCH   1   8
TORSDOF 9
ENDMDL
MODEL 6
REMARK VINA RESULT:    -4.688      1.537      4.549
REMARK INTER + INTRA:          -8.014
REMARK INTER:                  -7.106
REMARK INTRA:                  -0.908
REMARK UNBOUND:                -0.859
REMARK SMILES O=C([O-])CCCCCCCCC(=O)[O-]
REMARK SMILES IDX 7 1 6 2 5 3 4 4 2 5 1 6 3 7 8 8 9 9 10 10 11 11 12 12 13 13
REMARK SMILES IDX 14 14
REMARK H PARENT
REMARK Flexibility Score: inf
ROOT
ATOM      1  C   UNL     1      23.618  -5.274 -36.221  1.00  0.00     0.000 C 
ENDROOT
BRANCH   1   2
ATOM      2  C   UNL     1      22.321  -4.462 -36.357  1.00  0.00     0.000 C 
BRANCH   2   3
ATOM      3  C   UNL     1      21.234  -5.213 -37.153  1.00  0.00     0.006 C 
BRANCH   3   4
ATOM      4  C   UNL     1      20.818  -4.500 -38.450  1.00  0.00     0.053 C 
BRANCH   4   5
ATOM      5  C   UNL     1      21.827  -4.663 -39.543  1.00  0.00     0.041 C 
ATOM      6  O   UNL     1      22.606  -3.718 -39.833  1.00  0.00    -0.550 OA
ATOM      7  O   UNL     1      21.922  -5.867 -40.230  1.00  0.00    -0.550 OA
ENDBRANCH   4   5
ENDBRANCH   3   4
ENDBRANCH   2   3
ENDBRANCH   1   2
BRANCH   1   8
ATOM      8  C   UNL     1      24.652  -4.838 -37.270  1.00  0.00     0.000 C 
BRANCH   8   9
ATOM      9  C   UNL     1      25.081  -5.984 -38.205  1.00  0.00     0.000 C 
BRANCH   9  10
ATOM     10  C   UNL     1      25.306  -7.341 -37.512  1.00  0.00     0.006 C 
BRANCH  10  11
ATOM     11  C   UNL     1      25.050  -8.537 -38.438  1.00  0.00     0.053 C 
BRANCH  11  12
ATOM     12  C   UNL     1      23.598  -8.629 -38.781  1.00  0.00     0.041 C 
ATOM     13  O   UNL     1      23.241  -8.918 -39.954  1.00  0.00    -0.550 OA
ATOM     14  O   UNL     1      22.637  -8.445 -37.795  1.00  0.00    -0.550 OA
ENDBRANCH  11  12
ENDBRANCH  10  11
ENDBRANCH   9  10
ENDBRANCH   8   9
ENDBRANCH   1   8
TORSDOF 9
ENDMDL
MODEL 7
REMARK VINA RESULT:    -4.657      1.709      4.714
REMARK INTER + INTRA:          -7.967
REMARK INTER:                  -7.061
REMARK INTRA:                  -0.906
REMARK UNBOUND:                -0.859
REMARK SMILES O=C([O-])CCCCCCCCC(=O)[O-]
REMARK SMILES IDX 7 1 6 2 5 3 4 4 2 5 1 6 3 7 8 8 9 9 10 10 11 11 12 12 13 13
REMARK SMILES IDX 14 14
REMARK H PARENT
REMARK Flexibility Score: inf
ROOT
ATOM      1  C   UNL     1      22.331  -7.505 -37.214  1.00  0.00     0.000 C 
ENDROOT
BRANCH   1   2
ATOM      2  C   UNL     1      22.474  -5.976 -37.225  1.00  0.00     0.000 C 
BRANCH   2   3
ATOM      3  C   UNL     1      21.176  -5.264 -37.659  1.00  0.00     0.006 C 
BRANCH   3   4
ATOM      4  C   UNL     1      21.408  -4.103 -38.639  1.00  0.00     0.053 C 
BRANCH   4   5
ATOM      5  C   UNL     1      22.378  -4.453 -39.724  1.00  0.00     0.041 C 
ATOM      6  O   UNL     1      22.084  -5.332 -40.576  1.00  0.00    -0.550 OA
ATOM      7  O   UNL     1      23.598  -3.795 -39.807  1.00  0.00    -0.550 OA
ENDBRANCH   4   5
ENDBRANCH   3   4
ENDBRANCH   2   3
ENDBRANCH   1   2
BRANCH   1   8
ATOM      8  C   UNL     1      22.909  -8.120 -38.497  1.00  0.00     0.000 C 
BRANCH   8   9
ATOM      9  C   UNL     1      24.273  -8.799 -38.278  1.00  0.00     0.000 C 
BRANCH   9  10
ATOM     10  C   UNL     1      25.392  -8.337 -39.230  1.00  0.00     0.006 C 
BRANCH  10  11
ATOM     11  C   UNL     1      25.463  -6.811 -39.377  1.00  0.00     0.053 C 
BRANCH  11  12
ATOM     12  C   UNL     1      26.230  -6.213 -38.241  1.00  0.00     0.041 C 
ATOM     13  O   UNL     1      25.888  -5.099 -37.763  1.00  0.00    -0.550 OA
ATOM     14  O   UNL     1      27.292  -6.908 -37.676  1.00  0.00    -0.550 OA
ENDBRANCH  11  12
ENDBRANCH  10  11
ENDBRANCH   9  10
ENDBRANCH   8   9
ENDBRANCH   1   8
TORSDOF 9
ENDMDL
MODEL 8
REMARK VINA RESULT:    -4.655      1.731      2.566
REMARK INTER + INTRA:          -7.964
REMARK INTER:                  -7.092
REMARK INTRA:                  -0.872
REMARK UNBOUND:                -0.859
REMARK SMILES O=C([O-])CCCCCCCCC(=O)[O-]
REMARK SMILES IDX 7 1 6 2 5 3 4 4 2 5 1 6 3 7 8 8 9 9 10 10 11 11 12 12 13 13
REMARK SMILES IDX 14 14
REMARK H PARENT
REMARK Flexibility Score: inf
ROOT
ATOM      1  C   UNL     1      22.870  -7.944 -38.589  1.00  0.00     0.000 C 
ENDROOT
BRANCH   1   2
ATOM      2  C   UNL     1      24.082  -8.869 -38.404  1.00  0.00     0.000 C 
BRANCH   2   3
ATOM      3  C   UNL     1      25.348  -8.332 -39.104  1.00  0.00     0.006 C 
BRANCH   3   4
ATOM      4  C   UNL     1      25.409  -6.798 -39.174  1.00  0.00     0.053 C 
BRANCH   4   5
ATOM      5  C   UNL     1      26.061  -6.194 -37.970  1.00  0.00     0.041 C 
ATOM      6  O   UNL     1      26.821  -6.889 -37.246  1.00  0.00    -0.550 OA
ATOM      7  O   UNL     1      25.846  -4.858 -37.658  1.00  0.00    -0.550 OA
ENDBRANCH   4   5
ENDBRANCH   3   4
ENDBRANCH   2   3
ENDBRANCH   1   2
BRANCH   1   8
ATOM      8  C   UNL     1      22.383  -7.399 -37.238  1.00  0.00     0.000 C 
BRANCH   8   9
ATOM      9  C   UNL     1      22.327  -5.861 -37.194  1.00  0.00     0.000 C 
BRANCH   9  10
ATOM     10  C   UNL     1      21.047  -5.238 -37.784  1.00  0.00     0.006 C 
BRANCH  10  11
ATOM     11  C   UNL     1      21.330  -4.035 -38.693  1.00  0.00     0.053 C 
BRANCH  11  12
ATOM     12  C   UNL     1      22.300  -4.410 -39.767  1.00  0.00     0.041 C 
ATOM     13  O   UNL     1      21.978  -5.255 -40.644  1.00  0.00    -0.550 OA
ATOM     14  O   UNL     1      23.542  -3.792 -39.830  1.00  0.00    -0.550 OA
ENDBRANCH  11  12
ENDBRANCH  10  11
ENDBRANCH   9  10
ENDBRANCH   8   9
ENDBRANCH   1   8
TORSDOF 9
ENDMDL
MODEL 9
REMARK VINA RESULT:    -4.629      2.014      3.492
REMARK INTER + INTRA:          -7.924
REMARK INTER:                  -6.773
REMARK INTRA:                  -1.150
REMARK UNBOUND:                -0.859
REMARK SMILES O=C([O-])CCCCCCCCC(=O)[O-]
REMARK SMILES IDX 7 1 6 2 5 3 4 4 2 5 1 6 3 7 8 8 9 9 10 10 11 11 12 12 13 13
REMARK SMILES IDX 14 14
REMARK H PARENT
REMARK Flexibility Score: inf
ROOT
ATOM      1  C   UNL     1      23.610  -8.543 -39.255  1.00  0.00     0.000 C 
ENDROOT
BRANCH   1   2
ATOM      2  C   UNL     1      24.797  -8.193 -38.346  1.00  0.00     0.000 C 
BRANCH   2   3
ATOM      3  C   UNL     1      25.753  -7.168 -38.990  1.00  0.00     0.006 C 
BRANCH   3   4
ATOM      4  C   UNL     1      25.811  -5.826 -38.243  1.00  0.00     0.053 C 
BRANCH   4   5
ATOM      5  C   UNL     1      24.889  -4.803 -38.829  1.00  0.00     0.041 C 
ATOM      6  O   UNL     1      24.727  -3.694 -38.257  1.00  0.00    -0.550 OA
ATOM      7  O   UNL     1      24.222  -5.067 -40.019  1.00  0.00    -0.550 OA
ENDBRANCH   4   5
ENDBRANCH   3   4
ENDBRANCH   2   3
ENDBRANCH   1   2
BRANCH   1   8
ATOM      8  C   UNL     1      22.325  -7.855 -38.770  1.00  0.00     0.000 C 
BRANCH   8   9
ATOM      9  C   UNL     1      22.392  -7.428 -37.292  1.00  0.00     0.000 C 
BRANCH   9  10
ATOM     10  C   UNL     1      22.019  -5.959 -37.019  1.00  0.00     0.006 C 
BRANCH  10  11
ATOM     11  C   UNL     1      21.233  -5.317 -38.170  1.00  0.00     0.053 C 
BRANCH  11  12
ATOM     12  C   UNL     1      21.211  -3.829 -38.019  1.00  0.00     0.041 C 
ATOM     13  O   UNL     1      21.126  -3.090 -39.035  1.00  0.00    -0.550 OA
ATOM     14  O   UNL     1      21.234  -3.258 -36.753  1.00  0.00    -0.550 OA
ENDBRANCH  11  12
ENDBRANCH  10  11
ENDBRANCH   9  10
ENDBRANCH   8   9
ENDBRANCH   1   8
TORSDOF 9
ENDMDL
