MODEL 1
REMARK VINA RESULT:    -5.028      0.000      0.000
REMARK INTER + INTRA:          -7.384
REMARK INTER:                  -7.086
REMARK INTRA:                  -0.298
REMARK UNBOUND:                -0.298
REMARK SMILES CCCCCCCCC(=O)[O-]
REMARK SMILES IDX 6 1 7 2 8 3 9 4 10 5 11 6 5 7 4 8 3 9 2 10 1 11
REMARK H PARENT
REMARK Flexibility Score: inf
ROOT
ATOM      1  C   UNL     1      25.928  -1.237  61.635  1.00  0.00     0.000 C 
ENDROOT
BRANCH   1   2
ATOM      2  C   UNL     1      25.267  -2.543  62.090  1.00  0.00     0.006 C 
BRANCH   2   3
ATOM      3  C   UNL     1      25.547  -3.676  61.098  1.00  0.00     0.053 C 
BRANCH   3   4
ATOM      4  C   UNL     1      24.610  -3.598  59.935  1.00  0.00     0.041 C 
ATOM      5  O   UNL     1      23.405  -3.941  60.067  1.00  0.00    -0.550 OA
ATOM      6  O   UNL     1      25.078  -3.193  58.691  1.00  0.00    -0.550 OA
ENDBRANCH   3   4
ENDBRANCH   2   3
ENDBRANCH   1   2
BRANCH   1   7
ATOM      7  C   UNL     1      25.090  -0.022  62.051  1.00  0.00     0.000 C 
BRANCH   7   8
ATOM      8  C   UNL     1      25.964   1.046  62.722  1.00  0.00    -0.000 C 
BRANCH   8   9
ATOM      9  C   UNL     1      25.509   2.456  62.327  1.00  0.00    -0.000 C 
BRANCH   9  10
ATOM     10  C   UNL     1      23.981   2.572  62.371  1.00  0.00    -0.003 C 
ATOM     11  C   UNL     1      23.477   3.589  61.350  1.00  0.00     0.004 C 
ENDBRANCH   9  10
ENDBRANCH   8   9
ENDBRANCH   7   8
ENDBRANCH   1   7
TORSDOF 7
ENDMDL
MODEL 2
REMARK VINA RESULT:    -4.923      2.070      3.125
REMARK INTER + INTRA:          -7.236
REMARK INTER:                  -6.759
REMARK INTRA:                  -0.477
REMARK UNBOUND:                -0.298
REMARK SMILES CCCCCCCCC(=O)[O-]
REMARK SMILES IDX 6 1 7 2 8 3 9 4 10 5 11 6 5 7 4 8 3 9 2 10 1 11
REMARK H PARENT
REMARK Flexibility Score: inf
ROOT
ATOM      1  C   UNL     1      25.917   1.608  62.855  1.00  0.00     0.000 C 
ENDROOT
BRANCH   1   2
ATOM      2  C   UNL     1      24.991   0.516  62.305  1.00  0.00     0.006 C 
BRANCH   2   3
ATOM      3  C   UNL     1      25.792  -0.708  61.854  1.00  0.00     0.053 C 
BRANCH   3   4
ATOM      4  C   UNL     1      24.963  -1.948  61.970  1.00  0.00     0.041 C 
ATOM      5  O   UNL     1      25.490  -3.032  62.335  1.00  0.00    -0.550 OA
ATOM      6  O   UNL     1      23.617  -1.919  61.627  1.00  0.00    -0.550 OA
ENDBRANCH   3   4
ENDBRANCH   2   3
ENDBRANCH   1   2
BRANCH   1   7
ATOM      7  C   UNL     1      25.537   2.985  62.297  1.00  0.00     0.000 C 
BRANCH   7   8
ATOM      8  C   UNL     1      24.808   3.824  63.353  1.00  0.00    -0.000 C 
BRANCH   8   9
ATOM      9  C   UNL     1      25.237   3.420  64.769  1.00  0.00    -0.000 C 
BRANCH   9  10
ATOM     10  C   UNL     1      24.019   3.062  65.630  1.00  0.00    -0.003 C 
ATOM     11  C   UNL     1      22.761   2.934  64.776  1.00  0.00     0.004 C 
ENDBRANCH   9  10
ENDBRANCH   8   9
ENDBRANCH   7   8
ENDBRANCH   1   7
TORSDOF 7
ENDMDL
MODEL 3
REMARK VINA RESULT:    -4.916      4.037      6.351
REMARK INTER + INTRA:          -7.227
REMARK INTER:                  -6.955
REMARK INTRA:                  -0.271
REMARK UNBOUND:                -0.298
REMARK SMILES CCCCCCCCC(=O)[O-]
REMARK SMILES IDX 6 1 7 2 8 3 9 4 10 5 11 6 5 7 4 8 3 9 2 10 1 11
REMARK H PARENT
REMARK Flexibility Score: inf
ROOT
ATOM      1  C   UNL     1      25.918   1.233  62.602  1.00  0.00     0.000 C 
ENDROOT
BRANCH   1   2
ATOM      2  C   UNL     1      25.181   2.512  62.189  1.00  0.00     0.006 C 
BRANCH   2   3
ATOM      3  C   UNL     1      25.567   3.686  63.094  1.00  0.00     0.053 C 
BRANCH   3   4
ATOM      4  C   UNL     1      24.743   3.678  64.342  1.00  0.00     0.041 C 
ATOM      5  O   UNL     1      25.258   3.340  65.440  1.00  0.00    -0.550 OA
ATOM      6  O   UNL     1      23.392   3.998  64.285  1.00  0.00    -0.550 OA
ENDBRANCH   3   4
ENDBRANCH   2   3
ENDBRANCH   1   2
BRANCH   1   7
ATOM      7  C   UNL     1      25.079  -0.012  62.284  1.00  0.00     0.000 C 
BRANCH   7   8
ATOM      8  C   UNL     1      25.921  -1.073  61.565  1.00  0.00    -0.000 C 
BRANCH   8   9
ATOM      9  C   UNL     1      25.417  -2.486  61.886  1.00  0.00    -0.000 C 
BRANCH   9  10
ATOM     10  C   UNL     1      23.885  -2.520  61.952  1.00  0.00    -0.003 C 
ATOM     11  C   UNL     1      23.324  -3.666  61.115  1.00  0.00     0.004 C 
ENDBRANCH   9  10
ENDBRANCH   8   9
ENDBRANCH   7   8
ENDBRANCH   1   7
TORSDOF 7
ENDMDL
MODEL 4
REMARK VINA RESULT:    -4.911      0.982      1.533
REMARK INTER + INTRA:          -7.219
REMARK INTER:                  -6.874
REMARK INTRA:                  -0.345
REMARK UNBOUND:                -0.298
REMARK SMILES CCCCCCCCC(=O)[O-]
REMARK SMILES IDX 6 1 7 2 8 3 9 4 10 5 11 6 5 7 4 8 3 9 2 10 1 11
REMARK H PARENT
REMARK Flexibility Score: inf
ROOT
ATOM      1  C   UNL     1      25.211  -2.441  62.010  1.00  0.00     0.000 C 
ENDROOT
BRANCH   1   2
ATOM      2  C   UNL     1      23.760  -2.471  61.514  1.00  0.00     0.006 C 
BRANCH   2   3
ATOM      3  C   UNL     1      23.552  -3.591  60.491  1.00  0.00     0.053 C 
BRANCH   3   4
ATOM      4  C   UNL     1      23.829  -3.095  59.107  1.00  0.00     0.041 C 
ATOM      5  O   UNL     1      22.887  -2.675  58.384  1.00  0.00    -0.550 OA
ATOM      6  O   UNL     1      25.120  -3.142  58.597  1.00  0.00    -0.550 OA
ENDBRANCH   3   4
ENDBRANCH   2   3
ENDBRANCH   1   2
BRANCH   1   7
ATOM      7  C   UNL     1      25.902  -1.131  61.614  1.00  0.00     0.000 C 
BRANCH   7   8
ATOM      8  C   UNL     1      25.059   0.082  62.027  1.00  0.00    -0.000 C 
BRANCH   8   9
ATOM      9  C   UNL     1      25.922   1.139  62.728  1.00  0.00    -0.000 C 
BRANCH   9  10
ATOM     10  C   UNL     1      25.474   2.555  62.346  1.00  0.00    -0.003 C 
ATOM     11  C   UNL     1      23.955   2.637  62.226  1.00  0.00     0.004 C 
ENDBRANCH   9  10
ENDBRANCH   8   9
ENDBRANCH   7   8
ENDBRANCH   1   7
TORSDOF 7
ENDMDL
MODEL 5
REMARK VINA RESULT:    -4.909      3.045      5.427
REMARK INTER + INTRA:          -7.216
REMARK INTER:                  -6.722
REMARK INTRA:                  -0.493
REMARK UNBOUND:                -0.298
REMARK SMILES CCCCCCCCC(=O)[O-]
REMARK SMILES IDX 6 1 7 2 8 3 9 4 10 5 11 6 5 7 4 8 3 9 2 10 1 11
REMARK H PARENT
REMARK Flexibility Score: inf
ROOT
ATOM      1  C   UNL     1      25.911  -1.614  61.442  1.00  0.00     0.000 C 
ENDROOT
BRANCH   1   2
ATOM      2  C   UNL     1      24.992  -0.518  61.996  1.00  0.00     0.006 C 
BRANCH   2   3
ATOM      3  C   UNL     1      25.799   0.713  62.419  1.00  0.00     0.053 C 
BRANCH   3   4
ATOM      4  C   UNL     1      24.944   1.940  62.376  1.00  0.00     0.041 C 
ATOM      5  O   UNL     1      23.703   1.855  62.572  1.00  0.00    -0.550 OA
ATOM      6  O   UNL     1      25.510   3.171  62.070  1.00  0.00    -0.550 OA
ENDBRANCH   3   4
ENDBRANCH   2   3
ENDBRANCH   1   2
BRANCH   1   7
ATOM      7  C   UNL     1      25.514  -2.992  61.986  1.00  0.00     0.000 C 
BRANCH   7   8
ATOM      8  C   UNL     1      24.645  -3.752  60.976  1.00  0.00    -0.000 C 
BRANCH   8   9
ATOM      9  C   UNL     1      25.063  -3.427  59.536  1.00  0.00    -0.000 C 
BRANCH   9  10
ATOM     10  C   UNL     1      23.848  -3.036  58.687  1.00  0.00    -0.003 C 
ATOM     11  C   UNL     1      22.610  -2.835  59.557  1.00  0.00     0.004 C 
ENDBRANCH   9  10
ENDBRANCH   8   9
ENDBRANCH   7   8
ENDBRANCH   1   7
TORSDOF 7
ENDMDL
MODEL 6
REMARK VINA RESULT:    -4.884      3.214      5.768
REMARK INTER + INTRA:          -7.181
REMARK INTER:                  -6.820
REMARK INTRA:                  -0.361
REMARK UNBOUND:                -0.298
REMARK SMILES CCCCCCCCC(=O)[O-]
REMARK SMILES IDX 6 1 7 2 8 3 9 4 10 5 11 6 5 7 4 8 3 9 2 10 1 11
REMARK H PARENT
REMARK Flexibility Score: inf
ROOT
ATOM      1  C   UNL     1      25.071   0.079  62.028  1.00  0.00     0.000 C 
ENDROOT
BRANCH   1   2
ATOM      2  C   UNL     1      25.899   1.161  62.729  1.00  0.00     0.006 C 
BRANCH   2   3
ATOM      3  C   UNL     1      25.461   2.561  62.288  1.00  0.00     0.053 C 
BRANCH   3   4
ATOM      4  C   UNL     1      24.012   2.777  62.591  1.00  0.00     0.041 C 
ATOM      5  O   UNL     1      23.212   3.090  61.671  1.00  0.00    -0.550 OA
ATOM      6  O   UNL     1      23.555   2.681  63.900  1.00  0.00    -0.550 OA
ENDBRANCH   3   4
ENDBRANCH   2   3
ENDBRANCH   1   2
BRANCH   1   7
ATOM      7  C   UNL     1      25.949  -1.111  61.622  1.00  0.00     0.000 C 
BRANCH   7   8
ATOM      8  C   UNL     1      25.320  -2.437  62.068  1.00  0.00    -0.000 C 
BRANCH   8   9
ATOM      9  C   UNL     1      25.529  -3.528  61.011  1.00  0.00    -0.000 C 
BRANCH   9  10
ATOM     10  C   UNL     1      25.588  -2.924  59.603  1.00  0.00    -0.003 C 
ATOM     11  C   UNL     1      24.257  -3.094  58.875  1.00  0.00     0.004 C 
ENDBRANCH   9  10
ENDBRANCH   8   9
ENDBRANCH   7   8
ENDBRANCH   1   7
TORSDOF 7
ENDMDL
MODEL 7
REMARK VINA RESULT:    -4.849      1.008      1.666
REMARK INTER + INTRA:          -7.132
REMARK INTER:                  -6.806
REMARK INTRA:                  -0.326
REMARK UNBOUND:                -0.298
REMARK SMILES CCCCCCCCC(=O)[O-]
REMARK SMILES IDX 6 1 7 2 8 3 9 4 10 5 11 6 5 7 4 8 3 9 2 10 1 11
REMARK H PARENT
REMARK Flexibility Score: inf
ROOT
ATOM      1  C   UNL     1      25.163   0.084  62.103  1.00  0.00     0.000 C 
ENDROOT
BRANCH   1   2
ATOM      2  C   UNL     1      25.993  -1.101  61.593  1.00  0.00     0.006 C 
BRANCH   2   3
ATOM      3  C   UNL     1      25.387  -2.432  62.047  1.00  0.00     0.053 C 
BRANCH   3   4
ATOM      4  C   UNL     1      25.153  -3.329  60.873  1.00  0.00     0.041 C 
ATOM      5  O   UNL     1      24.380  -4.318  60.976  1.00  0.00    -0.550 OA
ATOM      6  O   UNL     1      25.827  -3.102  59.680  1.00  0.00    -0.550 OA
ENDBRANCH   3   4
ENDBRANCH   2   3
ENDBRANCH   1   2
BRANCH   1   7
ATOM      7  C   UNL     1      26.055   1.126  62.788  1.00  0.00     0.000 C 
BRANCH   7   8
ATOM      8  C   UNL     1      25.560   2.549  62.501  1.00  0.00    -0.000 C 
BRANCH   8   9
ATOM      9  C   UNL     1      24.072   2.549  62.128  1.00  0.00    -0.000 C 
BRANCH   9  10
ATOM     10  C   UNL     1      23.319   3.656  62.875  1.00  0.00    -0.003 C 
ATOM     11  C   UNL     1      23.941   3.917  64.244  1.00  0.00     0.004 C 
ENDBRANCH   9  10
ENDBRANCH   8   9
ENDBRANCH   7   8
ENDBRANCH   1   7
TORSDOF 7
ENDMDL
MODEL 8
REMARK VINA RESULT:    -4.846      1.047      1.272
REMARK INTER + INTRA:          -7.127
REMARK INTER:                  -6.782
REMARK INTRA:                  -0.345
REMARK UNBOUND:                -0.298
REMARK SMILES CCCCCCCCC(=O)[O-]
REMARK SMILES IDX 6 1 7 2 8 3 9 4 10 5 11 6 5 7 4 8 3 9 2 10 1 11
REMARK H PARENT
REMARK Flexibility Score: inf
ROOT
ATOM      1  C   UNL     1      25.884  -1.113  61.629  1.00  0.00     0.000 C 
ENDROOT
BRANCH   1   2
ATOM      2  C   UNL     1      25.230  -2.439  62.036  1.00  0.00     0.006 C 
BRANCH   2   3
ATOM      3  C   UNL     1      23.710  -2.379  61.859  1.00  0.00     0.053 C 
BRANCH   3   4
ATOM      4  C   UNL     1      23.262  -3.374  60.836  1.00  0.00     0.041 C 
ATOM      5  O   UNL     1      22.042  -3.472  60.538  1.00  0.00    -0.550 OA
ATOM      6  O   UNL     1      24.185  -4.229  60.246  1.00  0.00    -0.550 OA
ENDBRANCH   3   4
ENDBRANCH   2   3
ENDBRANCH   1   2
BRANCH   1   7
ATOM      7  C   UNL     1      25.028   0.081  62.069  1.00  0.00     0.000 C 
BRANCH   7   8
ATOM      8  C   UNL     1      25.886   1.149  62.759  1.00  0.00    -0.000 C 
BRANCH   8   9
ATOM      9  C   UNL     1      25.466   2.558  62.324  1.00  0.00    -0.000 C 
BRANCH   9  10
ATOM     10  C   UNL     1      23.984   2.592  61.930  1.00  0.00    -0.003 C 
ATOM     11  C   UNL     1      23.168   3.405  62.931  1.00  0.00     0.004 C 
ENDBRANCH   9  10
ENDBRANCH   8   9
ENDBRANCH   7   8
ENDBRANCH   1   7
TORSDOF 7
ENDMDL
MODEL 9
REMARK VINA RESULT:    -4.678      1.766      2.804
REMARK INTER + INTRA:          -6.890
REMARK INTER:                  -6.499
REMARK INTRA:                  -0.391
REMARK UNBOUND:                -0.298
REMARK SMILES CCCCCCCCC(=O)[O-]
REMARK SMILES IDX 6 1 7 2 8 3 9 4 10 5 11 6 5 7 4 8 3 9 2 10 1 11
REMARK H PARENT
REMARK Flexibility Score: inf
ROOT
ATOM      1  C   UNL     1      25.061  -2.783  60.007  1.00  0.00     0.000 C 
ENDROOT
BRANCH   1   2
ATOM      2  C   UNL     1      23.868  -3.747  59.982  1.00  0.00     0.006 C 
BRANCH   2   3
ATOM      3  C   UNL     1      22.914  -3.470  61.147  1.00  0.00     0.053 C 
BRANCH   3   4
ATOM      4  C   UNL     1      21.958  -2.375  60.793  1.00  0.00     0.041 C 
ATOM      5  O   UNL     1      21.683  -1.478  61.633  1.00  0.00    -0.550 OA
ATOM      6  O   UNL     1      21.332  -2.373  59.553  1.00  0.00    -0.550 OA
ENDBRANCH   3   4
ENDBRANCH   2   3
ENDBRANCH   1   2
BRANCH   1   7
ATOM      7  C   UNL     1      25.499  -2.486  61.446  1.00  0.00     0.000 C 
BRANCH   7   8
ATOM      8  C   UNL     1      26.132  -1.094  61.552  1.00  0.00    -0.000 C 
BRANCH   8   9
ATOM      9  C   UNL     1      25.135  -0.077  62.123  1.00  0.00    -0.000 C 
BRANCH   9  10
ATOM     10  C   UNL     1      25.861   1.164  62.656  1.00  0.00    -0.003 C 
ATOM     11  C   UNL     1      25.158   2.444  62.214  1.00  0.00     0.004 C 
ENDBRANCH   9  10
ENDBRANCH   8   9
ENDBRANCH   7   8
ENDBRANCH   1   7
TORSDOF 7
ENDMDL
