MODEL 1
REMARK VINA RESULT:    -4.129      0.000      0.000
REMARK INTER + INTRA:          -9.083
REMARK INTER:                  -7.508
REMARK INTRA:                  -1.575
REMARK UNBOUND:                -1.575
REMARK SMILES CCCCCCCCCCCCCC[C@@H](C)C(=O)[O-]
REMARK SMILES IDX 9 1 10 2 11 3 12 4 13 5 14 6 15 7 16 8 17 9 18 10 19 11 8 12
REMARK SMILES IDX 7 13 6 14 5 15 4 16 3 17 2 18 1 19
REMARK H PARENT
REMARK Flexibility Score: inf
ROOT
ATOM      1  C   UNL     1     128.329 121.189 120.130  1.00  0.00     0.000 C 
ENDROOT
BRANCH   1   2
ATOM      2  C   UNL     1     129.325 122.152 120.802  1.00  0.00     0.000 C 
BRANCH   2   3
ATOM      3  C   UNL     1     130.620 122.319 119.992  1.00  0.00     0.000 C 
BRANCH   3   4
ATOM      4  C   UNL     1     131.858 122.518 120.886  1.00  0.00     0.000 C 
BRANCH   4   5
ATOM      5  C   UNL     1     132.814 121.314 120.849  1.00  0.00     0.001 C 
BRANCH   5   6
ATOM      6  C   UNL     1     132.273 120.158 119.984  1.00  0.00     0.009 C 
BRANCH   6   7
ATOM      7  C   UNL     1     132.129 118.815 120.734  1.00  0.00     0.032 C 
ATOM      8  C   UNL     1     130.664 118.430 120.991  1.00  0.00     0.014 C 
BRANCH   7   9
ATOM      9  C   UNL     1     132.889 117.709 120.048  1.00  0.00     0.044 C 
ATOM     10  O   UNL     1     133.550 117.932 118.998  1.00  0.00    -0.550 OA
ATOM     11  O   UNL     1     132.905 116.438 120.607  1.00  0.00    -0.550 OA
ENDBRANCH   7   9
ENDBRANCH   6   7
ENDBRANCH   5   6
ENDBRANCH   4   5
ENDBRANCH   3   4
ENDBRANCH   2   3
ENDBRANCH   1   2
BRANCH   1  12
ATOM     12  C   UNL     1     128.784 120.756 118.727  1.00  0.00     0.000 C 
BRANCH  12  13
ATOM     13  C   UNL     1     127.611 120.631 117.738  1.00  0.00    -0.000 C 
BRANCH  13  14
ATOM     14  C   UNL     1     126.242 120.695 118.435  1.00  0.00    -0.000 C 
BRANCH  14  15
ATOM     15  C   UNL     1     125.212 119.741 117.811  1.00  0.00    -0.000 C 
BRANCH  15  16
ATOM     16  C   UNL     1     123.990 120.514 117.295  1.00  0.00    -0.000 C 
BRANCH  16  17
ATOM     17  C   UNL     1     124.250 122.026 117.159  1.00  0.00    -0.000 C 
BRANCH  17  18
ATOM     18  C   UNL     1     123.168 122.928 117.779  1.00  0.00    -0.003 C 
ATOM     19  C   UNL     1     122.769 122.500 119.191  1.00  0.00     0.004 C 
ENDBRANCH  17  18
ENDBRANCH  16  17
ENDBRANCH  15  16
ENDBRANCH  14  15
ENDBRANCH  13  14
ENDBRANCH  12  13
ENDBRANCH   1  12
TORSDOF 14
ENDMDL
MODEL 2
REMARK VINA RESULT:    -4.120      4.046      7.844
REMARK INTER + INTRA:          -9.066
REMARK INTER:                  -7.334
REMARK INTRA:                  -1.732
REMARK UNBOUND:                -1.575
REMARK SMILES CCCCCCCCCCCCCC[C@@H](C)C(=O)[O-]
REMARK SMILES IDX 9 1 10 2 11 3 12 4 13 5 14 6 15 7 16 8 17 9 18 10 19 11 8 12
REMARK SMILES IDX 7 13 6 14 5 15 4 16 3 17 2 18 1 19
REMARK H PARENT
REMARK Flexibility Score: inf
ROOT
ATOM      1  C   UNL     1     129.207 122.152 120.761  1.00  0.00     0.000 C 
ENDROOT
BRANCH   1   2
ATOM      2  C   UNL     1     128.148 121.144 120.280  1.00  0.00     0.000 C 
BRANCH   2   3
ATOM      3  C   UNL     1     128.656 120.261 119.129  1.00  0.00     0.000 C 
BRANCH   3   4
ATOM      4  C   UNL     1     127.819 120.416 117.847  1.00  0.00     0.000 C 
BRANCH   4   5
ATOM      5  C   UNL     1     126.305 120.380 118.120  1.00  0.00     0.001 C 
BRANCH   5   6
ATOM      6  C   UNL     1     125.547 121.498 117.375  1.00  0.00     0.009 C 
BRANCH   6   7
ATOM      7  C   UNL     1     124.085 121.146 117.017  1.00  0.00     0.032 C 
ATOM      8  C   UNL     1     123.824 119.632 116.999  1.00  0.00     0.014 C 
BRANCH   7   9
ATOM      9  C   UNL     1     123.104 121.875 117.899  1.00  0.00     0.044 C 
ATOM     10  O   UNL     1     123.099 123.134 117.958  1.00  0.00    -0.550 OA
ATOM     11  O   UNL     1     122.158 121.155 118.617  1.00  0.00    -0.550 OA
ENDBRANCH   7   9
ENDBRANCH   6   7
ENDBRANCH   5   6
ENDBRANCH   4   5
ENDBRANCH   3   4
ENDBRANCH   2   3
ENDBRANCH   1   2
BRANCH   1  12
ATOM     12  C   UNL     1     130.492 122.105 119.918  1.00  0.00     0.000 C 
BRANCH  12  13
ATOM     13  C   UNL     1     131.762 122.290 120.767  1.00  0.00    -0.000 C 
BRANCH  13  14
ATOM     14  C   UNL     1     132.748 121.119 120.619  1.00  0.00    -0.000 C 
BRANCH  14  15
ATOM     15  C   UNL     1     132.067 119.749 120.749  1.00  0.00    -0.000 C 
BRANCH  15  16
ATOM     16  C   UNL     1     132.438 118.838 119.569  1.00  0.00    -0.000 C 
BRANCH  16  17
ATOM     17  C   UNL     1     132.878 119.624 118.320  1.00  0.00    -0.000 C 
BRANCH  17  18
ATOM     18  C   UNL     1     131.763 119.881 117.290  1.00  0.00    -0.003 C 
ATOM     19  C   UNL     1     131.240 118.599 116.642  1.00  0.00     0.004 C 
ENDBRANCH  17  18
ENDBRANCH  16  17
ENDBRANCH  15  16
ENDBRANCH  14  15
ENDBRANCH  13  14
ENDBRANCH  12  13
ENDBRANCH   1  12
TORSDOF 14
ENDMDL
MODEL 3
REMARK VINA RESULT:    -4.084      1.805      3.723
REMARK INTER + INTRA:          -9.001
REMARK INTER:                  -7.184
REMARK INTRA:                  -1.817
REMARK UNBOUND:                -1.575
REMARK SMILES CCCCCCCCCCCCCC[C@@H](C)C(=O)[O-]
REMARK SMILES IDX 9 1 10 2 11 3 12 4 13 5 14 6 15 7 16 8 17 9 18 10 19 11 8 12
REMARK SMILES IDX 7 13 6 14 5 15 4 16 3 17 2 18 1 19
REMARK H PARENT
REMARK Flexibility Score: inf
ROOT
ATOM      1  C   UNL     1     125.747 119.701 118.166  1.00  0.00     0.000 C 
ENDROOT
BRANCH   1   2
ATOM      2  C   UNL     1     125.999 119.485 119.669  1.00  0.00     0.000 C 
BRANCH   2   3
ATOM      3  C   UNL     1     126.255 120.803 120.418  1.00  0.00     0.000 C 
BRANCH   3   4
ATOM      4  C   UNL     1     127.530 120.758 121.279  1.00  0.00     0.000 C 
BRANCH   4   5
ATOM      5  C   UNL     1     128.540 121.854 120.900  1.00  0.00     0.001 C 
BRANCH   5   6
ATOM      6  C   UNL     1     129.459 121.429 119.736  1.00  0.00     0.009 C 
BRANCH   6   7
ATOM      7  C   UNL     1     130.938 121.842 119.909  1.00  0.00     0.032 C 
ATOM      8  C   UNL     1     131.106 123.117 120.749  1.00  0.00     0.014 C 
BRANCH   7   9
ATOM      9  C   UNL     1     131.776 120.707 120.437  1.00  0.00     0.044 C 
ATOM     10  O   UNL     1     133.003 120.865 120.676  1.00  0.00    -0.550 OA
ATOM     11  O   UNL     1     131.179 119.483 120.712  1.00  0.00    -0.550 OA
ENDBRANCH   7   9
ENDBRANCH   6   7
ENDBRANCH   5   6
ENDBRANCH   4   5
ENDBRANCH   3   4
ENDBRANCH   2   3
ENDBRANCH   1   2
BRANCH   1  12
ATOM     12  C   UNL     1     126.153 121.107 117.696  1.00  0.00     0.000 C 
BRANCH  12  13
ATOM     13  C   UNL     1     125.017 121.833 116.953  1.00  0.00    -0.000 C 
BRANCH  13  14
ATOM     14  C   UNL     1     123.646 121.616 117.612  1.00  0.00    -0.000 C 
BRANCH  14  15
ATOM     15  C   UNL     1     123.219 122.795 118.499  1.00  0.00    -0.000 C 
BRANCH  15  16
ATOM     16  C   UNL     1     122.954 122.332 119.939  1.00  0.00    -0.000 C 
BRANCH  16  17
ATOM     17  C   UNL     1     122.521 120.856 120.024  1.00  0.00    -0.000 C 
BRANCH  17  18
ATOM     18  C   UNL     1     121.291 120.592 120.911  1.00  0.00    -0.003 C 
ATOM     19  C   UNL     1     120.630 121.874 121.415  1.00  0.00     0.004 C 
ENDBRANCH  17  18
ENDBRANCH  16  17
ENDBRANCH  15  16
ENDBRANCH  14  15
ENDBRANCH  13  14
ENDBRANCH  12  13
ENDBRANCH   1  12
TORSDOF 14
ENDMDL
MODEL 4
REMARK VINA RESULT:    -4.024      1.812      4.220
REMARK INTER + INTRA:          -8.892
REMARK INTER:                  -6.743
REMARK INTRA:                  -2.149
REMARK UNBOUND:                -1.575
REMARK SMILES CCCCCCCCCCCCCC[C@@H](C)C(=O)[O-]
REMARK SMILES IDX 9 1 10 2 11 3 12 4 13 5 14 6 15 7 16 8 17 9 18 10 19 11 8 12
REMARK SMILES IDX 7 13 6 14 5 15 4 16 3 17 2 18 1 19
REMARK H PARENT
REMARK Flexibility Score: inf
ROOT
ATOM      1  C   UNL     1     124.666 120.336 117.617  1.00  0.00     0.000 C 
ENDROOT
BRANCH   1   2
ATOM      2  C   UNL     1     126.133 119.909 117.801  1.00  0.00     0.000 C 
BRANCH   2   3
ATOM      3  C   UNL     1     127.106 121.096 117.726  1.00  0.00     0.000 C 
BRANCH   3   4
ATOM      4  C   UNL     1     128.545 120.710 118.113  1.00  0.00     0.000 C 
BRANCH   4   5
ATOM      5  C   UNL     1     128.600 119.772 119.331  1.00  0.00     0.001 C 
BRANCH   5   6
ATOM      6  C   UNL     1     129.570 120.276 120.418  1.00  0.00     0.009 C 
BRANCH   6   7
ATOM      7  C   UNL     1     130.555 121.366 119.937  1.00  0.00     0.032 C 
ATOM      8  C   UNL     1     130.380 122.698 120.683  1.00  0.00     0.014 C 
BRANCH   7   9
ATOM      9  C   UNL     1     131.982 120.884 119.975  1.00  0.00     0.044 C 
ATOM     10  O   UNL     1     132.697 121.057 120.998  1.00  0.00    -0.550 OA
ATOM     11  O   UNL     1     132.502 120.193 118.888  1.00  0.00    -0.550 OA
ENDBRANCH   7   9
ENDBRANCH   6   7
ENDBRANCH   5   6
ENDBRANCH   4   5
ENDBRANCH   3   4
ENDBRANCH   2   3
ENDBRANCH   1   2
BRANCH   1  12
ATOM     12  C   UNL     1     124.533 121.733 116.987  1.00  0.00     0.000 C 
BRANCH  12  13
ATOM     13  C   UNL     1     123.304 122.500 117.504  1.00  0.00    -0.000 C 
BRANCH  13  14
ATOM     14  C   UNL     1     122.437 121.656 118.453  1.00  0.00    -0.000 C 
BRANCH  14  15
ATOM     15  C   UNL     1     122.360 122.245 119.870  1.00  0.00    -0.000 C 
BRANCH  15  16
ATOM     16  C   UNL     1     123.120 121.364 120.872  1.00  0.00    -0.000 C 
BRANCH  16  17
ATOM     17  C   UNL     1     124.375 122.051 121.444  1.00  0.00    -0.000 C 
BRANCH  17  18
ATOM     18  C   UNL     1     125.692 121.289 121.211  1.00  0.00    -0.003 C 
ATOM     19  C   UNL     1     125.572 119.790 121.480  1.00  0.00     0.004 C 
ENDBRANCH  17  18
ENDBRANCH  16  17
ENDBRANCH  15  16
ENDBRANCH  14  15
ENDBRANCH  13  14
ENDBRANCH  12  13
ENDBRANCH   1  12
TORSDOF 14
ENDMDL
MODEL 5
REMARK VINA RESULT:    -4.019      2.417      4.709
REMARK INTER + INTRA:          -8.883
REMARK INTER:                  -6.805
REMARK INTRA:                  -2.077
REMARK UNBOUND:                -1.575
REMARK SMILES CCCCCCCCCCCCCC[C@@H](C)C(=O)[O-]
REMARK SMILES IDX 9 1 10 2 11 3 12 4 13 5 14 6 15 7 16 8 17 9 18 10 19 11 8 12
REMARK SMILES IDX 7 13 6 14 5 15 4 16 3 17 2 18 1 19
REMARK H PARENT
REMARK Flexibility Score: inf
ROOT
ATOM      1  C   UNL     1     125.583 121.077 117.755  1.00  0.00     0.000 C 
ENDROOT
BRANCH   1   2
ATOM      2  C   UNL     1     125.856 119.658 118.286  1.00  0.00     0.000 C 
BRANCH   2   3
ATOM      3  C   UNL     1     125.784 119.580 119.819  1.00  0.00     0.000 C 
BRANCH   3   4
ATOM      4  C   UNL     1     126.106 120.922 120.498  1.00  0.00     0.000 C 
BRANCH   4   5
ATOM      5  C   UNL     1     127.421 120.882 121.296  1.00  0.00     0.001 C 
BRANCH   5   6
ATOM      6  C   UNL     1     128.491 121.829 120.714  1.00  0.00     0.009 C 
BRANCH   6   7
ATOM      7  C   UNL     1     129.594 121.118 119.899  1.00  0.00     0.032 C 
ATOM      8  C   UNL     1     129.251 121.004 118.406  1.00  0.00     0.014 C 
BRANCH   7   9
ATOM      9  C   UNL     1     130.944 121.750 120.119  1.00  0.00     0.044 C 
ATOM     10  O   UNL     1     132.004 121.125 119.844  1.00  0.00    -0.550 OA
ATOM     11  O   UNL     1     131.024 123.057 120.582  1.00  0.00    -0.550 OA
ENDBRANCH   7   9
ENDBRANCH   6   7
ENDBRANCH   5   6
ENDBRANCH   4   5
ENDBRANCH   3   4
ENDBRANCH   2   3
ENDBRANCH   1   2
BRANCH   1  12
ATOM     12  C   UNL     1     124.121 121.274 117.323  1.00  0.00     0.000 C 
BRANCH  12  13
ATOM     13  C   UNL     1     123.555 122.638 117.757  1.00  0.00    -0.000 C 
BRANCH  13  14
ATOM     14  C   UNL     1     122.822 122.571 119.107  1.00  0.00    -0.000 C 
BRANCH  14  15
ATOM     15  C   UNL     1     122.188 121.197 119.372  1.00  0.00    -0.000 C 
BRANCH  15  16
ATOM     16  C   UNL     1     122.437 120.748 120.820  1.00  0.00    -0.000 C 
BRANCH  16  17
ATOM     17  C   UNL     1     121.331 121.208 121.789  1.00  0.00    -0.000 C 
BRANCH  17  18
ATOM     18  C   UNL     1     121.772 122.261 122.821  1.00  0.00    -0.003 C 
ATOM     19  C   UNL     1     123.290 122.414 122.909  1.00  0.00     0.004 C 
ENDBRANCH  17  18
ENDBRANCH  16  17
ENDBRANCH  15  16
ENDBRANCH  14  15
ENDBRANCH  13  14
ENDBRANCH  12  13
ENDBRANCH   1  12
TORSDOF 14
ENDMDL
MODEL 6
REMARK VINA RESULT:    -4.008      4.481      8.281
REMARK INTER + INTRA:          -8.863
REMARK INTER:                  -6.893
REMARK INTRA:                  -1.971
REMARK UNBOUND:                -1.575
REMARK SMILES CCCCCCCCCCCCCC[C@@H](C)C(=O)[O-]
REMARK SMILES IDX 9 1 10 2 11 3 12 4 13 5 14 6 15 7 16 8 17 9 18 10 19 11 8 12
REMARK SMILES IDX 7 13 6 14 5 15 4 16 3 17 2 18 1 19
REMARK H PARENT
REMARK Flexibility Score: inf
ROOT
ATOM      1  C   UNL     1     126.252 121.028 117.734  1.00  0.00     0.000 C 
ENDROOT
BRANCH   1   2
ATOM      2  C   UNL     1     124.986 121.603 117.073  1.00  0.00     0.000 C 
BRANCH   2   3
ATOM      3  C   UNL     1     123.735 120.760 117.366  1.00  0.00     0.000 C 
BRANCH   3   4
ATOM      4  C   UNL     1     122.628 121.565 118.072  1.00  0.00     0.000 C 
BRANCH   4   5
ATOM      5  C   UNL     1     123.171 122.803 118.804  1.00  0.00     0.001 C 
BRANCH   5   6
ATOM      6  C   UNL     1     123.616 122.486 120.246  1.00  0.00     0.009 C 
BRANCH   6   7
ATOM      7  C   UNL     1     122.741 121.434 120.965  1.00  0.00     0.032 C 
ATOM      8  C   UNL     1     123.555 120.245 121.497  1.00  0.00     0.014 C 
BRANCH   7   9
ATOM      9  C   UNL     1     121.889 122.058 122.040  1.00  0.00     0.044 C 
ATOM     10  O   UNL     1     122.413 122.702 122.989  1.00  0.00    -0.550 OA
ATOM     11  O   UNL     1     120.505 121.969 121.958  1.00  0.00    -0.550 OA
ENDBRANCH   7   9
ENDBRANCH   6   7
ENDBRANCH   5   6
ENDBRANCH   4   5
ENDBRANCH   3   4
ENDBRANCH   2   3
ENDBRANCH   1   2
BRANCH   1  12
ATOM     12  C   UNL     1     125.950 119.822 118.637  1.00  0.00     0.000 C 
BRANCH  12  13
ATOM     13  C   UNL     1     126.867 119.764 119.872  1.00  0.00    -0.000 C 
BRANCH  13  14
ATOM     14  C   UNL     1     127.068 121.142 120.524  1.00  0.00    -0.000 C 
BRANCH  14  15
ATOM     15  C   UNL     1     128.546 121.549 120.609  1.00  0.00    -0.000 C 
BRANCH  15  16
ATOM     16  C   UNL     1     129.388 120.775 119.584  1.00  0.00    -0.000 C 
BRANCH  16  17
ATOM     17  C   UNL     1     130.740 121.450 119.286  1.00  0.00    -0.000 C 
BRANCH  17  18
ATOM     18  C   UNL     1     131.564 121.827 120.530  1.00  0.00    -0.003 C 
ATOM     19  C   UNL     1     131.794 123.332 120.662  1.00  0.00     0.004 C 
ENDBRANCH  17  18
ENDBRANCH  16  17
ENDBRANCH  15  16
ENDBRANCH  14  15
ENDBRANCH  13  14
ENDBRANCH  12  13
ENDBRANCH   1  12
TORSDOF 14
ENDMDL
MODEL 7
REMARK VINA RESULT:    -3.984      3.915      7.649
REMARK INTER + INTRA:          -8.820
REMARK INTER:                  -6.960
REMARK INTRA:                  -1.860
REMARK UNBOUND:                -1.575
REMARK SMILES CCCCCCCCCCCCCC[C@@H](C)C(=O)[O-]
REMARK SMILES IDX 9 1 10 2 11 3 12 4 13 5 14 6 15 7 16 8 17 9 18 10 19 11 8 12
REMARK SMILES IDX 7 13 6 14 5 15 4 16 3 17 2 18 1 19
REMARK H PARENT
REMARK Flexibility Score: inf
ROOT
ATOM      1  C   UNL     1     125.897 119.703 118.012  1.00  0.00     0.000 C 
ENDROOT
BRANCH   1   2
ATOM      2  C   UNL     1     124.536 120.093 117.409  1.00  0.00     0.000 C 
BRANCH   2   3
ATOM      3  C   UNL     1     124.352 121.615 117.305  1.00  0.00     0.000 C 
BRANCH   3   4
ATOM      4  C   UNL     1     122.935 122.070 117.698  1.00  0.00     0.000 C 
BRANCH   4   5
ATOM      5  C   UNL     1     122.662 121.924 119.205  1.00  0.00     0.001 C 
BRANCH   5   6
ATOM      6  C   UNL     1     123.812 122.480 120.068  1.00  0.00     0.009 C 
BRANCH   6   7
ATOM      7  C   UNL     1     124.388 121.472 121.089  1.00  0.00     0.032 C 
ATOM      8  C   UNL     1     125.921 121.511 121.164  1.00  0.00     0.014 C 
BRANCH   7   9
ATOM      9  C   UNL     1     123.754 121.630 122.446  1.00  0.00     0.044 C 
ATOM     10  O   UNL     1     123.831 120.713 123.308  1.00  0.00    -0.550 OA
ATOM     11  O   UNL     1     123.119 122.822 122.774  1.00  0.00    -0.550 OA
ENDBRANCH   7   9
ENDBRANCH   6   7
ENDBRANCH   5   6
ENDBRANCH   4   5
ENDBRANCH   3   4
ENDBRANCH   2   3
ENDBRANCH   1   2
BRANCH   1  12
ATOM     12  C   UNL     1     126.980 120.765 117.758  1.00  0.00     0.000 C 
BRANCH  12  13
ATOM     13  C   UNL     1     128.386 120.283 118.158  1.00  0.00    -0.000 C 
BRANCH  13  14
ATOM     14  C   UNL     1     128.363 119.331 119.365  1.00  0.00    -0.000 C 
BRANCH  14  15
ATOM     15  C   UNL     1     129.142 119.878 120.570  1.00  0.00    -0.000 C 
BRANCH  15  16
ATOM     16  C   UNL     1     130.013 121.076 120.161  1.00  0.00    -0.000 C 
BRANCH  16  17
ATOM     17  C   UNL     1     129.497 122.413 120.726  1.00  0.00    -0.000 C 
BRANCH  17  18
ATOM     18  C   UNL     1     130.586 123.337 121.300  1.00  0.00    -0.003 C 
ATOM     19  C   UNL     1     131.930 123.192 120.588  1.00  0.00     0.004 C 
ENDBRANCH  17  18
ENDBRANCH  16  17
ENDBRANCH  15  16
ENDBRANCH  14  15
ENDBRANCH  13  14
ENDBRANCH  12  13
ENDBRANCH   1  12
TORSDOF 14
ENDMDL
MODEL 8
REMARK VINA RESULT:    -3.957      1.616      2.106
REMARK INTER + INTRA:          -8.771
REMARK INTER:                  -7.202
REMARK INTRA:                  -1.569
REMARK UNBOUND:                -1.575
REMARK SMILES CCCCCCCCCCCCCC[C@@H](C)C(=O)[O-]
REMARK SMILES IDX 9 1 10 2 11 3 12 4 13 5 14 6 15 7 16 8 17 9 18 10 19 11 8 12
REMARK SMILES IDX 7 13 6 14 5 15 4 16 3 17 2 18 1 19
REMARK H PARENT
REMARK Flexibility Score: inf
ROOT
ATOM      1  C   UNL     1     129.243 122.124 120.781  1.00  0.00     0.000 C 
ENDROOT
BRANCH   1   2
ATOM      2  C   UNL     1     130.555 122.181 119.978  1.00  0.00     0.000 C 
BRANCH   2   3
ATOM      3  C   UNL     1     131.750 122.627 120.835  1.00  0.00     0.000 C 
BRANCH   3   4
ATOM      4  C   UNL     1     132.891 121.594 120.846  1.00  0.00     0.000 C 
BRANCH   4   5
ATOM      5  C   UNL     1     132.400 120.165 120.557  1.00  0.00     0.001 C 
BRANCH   5   6
ATOM      6  C   UNL     1     132.971 119.602 119.240  1.00  0.00     0.009 C 
BRANCH   6   7
ATOM      7  C   UNL     1     132.067 118.556 118.549  1.00  0.00     0.032 C 
ATOM      8  C   UNL     1     131.005 117.971 119.493  1.00  0.00     0.014 C 
BRANCH   7   9
ATOM      9  C   UNL     1     131.457 119.095 117.282  1.00  0.00     0.044 C 
ATOM     10  O   UNL     1     131.854 120.183 116.784  1.00  0.00    -0.550 OA
ATOM     11  O   UNL     1     130.478 118.361 116.624  1.00  0.00    -0.550 OA
ENDBRANCH   7   9
ENDBRANCH   6   7
ENDBRANCH   5   6
ENDBRANCH   4   5
ENDBRANCH   3   4
ENDBRANCH   2   3
ENDBRANCH   1   2
BRANCH   1  12
ATOM     12  C   UNL     1     128.207 121.179 120.150  1.00  0.00     0.000 C 
BRANCH  12  13
ATOM     13  C   UNL     1     128.604 120.727 118.734  1.00  0.00    -0.000 C 
BRANCH  13  14
ATOM     14  C   UNL     1     127.400 120.253 117.905  1.00  0.00    -0.000 C 
BRANCH  14  15
ATOM     15  C   UNL     1     126.061 120.776 118.447  1.00  0.00    -0.000 C 
BRANCH  15  16
ATOM     16  C   UNL     1     124.887 119.953 117.897  1.00  0.00    -0.000 C 
BRANCH  16  17
ATOM     17  C   UNL     1     124.005 120.747 116.916  1.00  0.00    -0.000 C 
BRANCH  17  18
ATOM     18  C   UNL     1     124.141 122.277 117.016  1.00  0.00    -0.003 C 
ATOM     19  C   UNL     1     123.067 122.918 117.894  1.00  0.00     0.004 C 
ENDBRANCH  17  18
ENDBRANCH  16  17
ENDBRANCH  15  16
ENDBRANCH  14  15
ENDBRANCH  13  14
ENDBRANCH  12  13
ENDBRANCH   1  12
TORSDOF 14
ENDMDL
MODEL 9
REMARK VINA RESULT:    -3.946      3.425      7.918
REMARK INTER + INTRA:          -8.751
REMARK INTER:                  -7.386
REMARK INTRA:                  -1.365
REMARK UNBOUND:                -1.575
REMARK SMILES CCCCCCCCCCCCCC[C@@H](C)C(=O)[O-]
REMARK SMILES IDX 9 1 10 2 11 3 12 4 13 5 14 6 15 7 16 8 17 9 18 10 19 11 8 12
REMARK SMILES IDX 7 13 6 14 5 15 4 16 3 17 2 18 1 19
REMARK H PARENT
REMARK Flexibility Score: inf
ROOT
ATOM      1  C   UNL     1     126.638 119.765 118.561  1.00  0.00     0.000 C 
ENDROOT
BRANCH   1   2
ATOM      2  C   UNL     1     125.631 119.152 117.571  1.00  0.00     0.000 C 
BRANCH   2   3
ATOM      3  C   UNL     1     124.249 119.818 117.649  1.00  0.00     0.000 C 
BRANCH   3   4
ATOM      4  C   UNL     1     124.226 121.216 117.006  1.00  0.00     0.000 C 
BRANCH   4   5
ATOM      5  C   UNL     1     123.743 122.307 117.977  1.00  0.00     0.001 C 
BRANCH   5   6
ATOM      6  C   UNL     1     122.570 121.832 118.859  1.00  0.00     0.009 C 
BRANCH   6   7
ATOM      7  C   UNL     1     122.739 122.142 120.364  1.00  0.00     0.032 C 
ATOM      8  C   UNL     1     121.455 121.895 121.170  1.00  0.00     0.014 C 
BRANCH   7   9
ATOM      9  C   UNL     1     123.922 121.418 120.952  1.00  0.00     0.044 C 
ATOM     10  O   UNL     1     124.950 122.048 121.317  1.00  0.00    -0.550 OA
ATOM     11  O   UNL     1     123.860 120.043 121.144  1.00  0.00    -0.550 OA
ENDBRANCH   7   9
ENDBRANCH   6   7
ENDBRANCH   5   6
ENDBRANCH   4   5
ENDBRANCH   3   4
ENDBRANCH   2   3
ENDBRANCH   1   2
BRANCH   1  12
ATOM     12  C   UNL     1     127.688 120.646 117.865  1.00  0.00     0.000 C 
BRANCH  12  13
ATOM     13  C   UNL     1     128.891 120.960 118.771  1.00  0.00    -0.000 C 
BRANCH  13  14
ATOM     14  C   UNL     1     130.237 120.768 118.054  1.00  0.00    -0.000 C 
BRANCH  14  15
ATOM     15  C   UNL     1     131.273 120.035 118.919  1.00  0.00    -0.000 C 
BRANCH  15  16
ATOM     16  C   UNL     1     131.237 120.544 120.368  1.00  0.00    -0.000 C 
BRANCH  16  17
ATOM     17  C   UNL     1     132.392 121.508 120.694  1.00  0.00    -0.000 C 
BRANCH  17  18
ATOM     18  C   UNL     1     132.011 122.999 120.695  1.00  0.00    -0.003 C 
ATOM     19  C   UNL     1     130.541 123.241 121.036  1.00  0.00     0.004 C 
ENDBRANCH  17  18
ENDBRANCH  16  17
ENDBRANCH  15  16
ENDBRANCH  14  15
ENDBRANCH  13  14
ENDBRANCH  12  13
ENDBRANCH   1  12
TORSDOF 14
ENDMDL
