MODEL 1
REMARK VINA RESULT:    -5.398      0.000      0.000
REMARK INTER + INTRA:          -6.003
REMARK INTER:                  -5.714
REMARK INTRA:                  -0.289
REMARK UNBOUND:                -0.289
REMARK SMILES CC1=CC[C@H]2[C@@H]3[C@@H](C(C)C)CC[C@@]2(C)[C@H]13
REMARK SMILES IDX 1 1 2 2 3 3 4 4 5 5 6 6 15 7 13 8 12 9 11 10 7 11 14 12 8 13
REMARK SMILES IDX 9 14 10 15
REMARK H PARENT
REMARK Flexibility Score: inf
ROOT
ATOM      1  C   UNL     1      12.249  17.947  34.142  1.00  0.00     0.039 C 
ATOM      2  C   UNL     1      13.021  17.585  35.377  1.00  0.00    -0.073 C 
ATOM      3  C   UNL     1      13.853  18.464  35.995  1.00  0.00    -0.027 C 
ATOM      4  C   UNL     1      14.595  18.015  37.258  1.00  0.00     0.031 C 
ATOM      5  C   UNL     1      14.189  16.554  37.638  1.00  0.00     0.003 C 
ATOM      6  C   UNL     1      12.647  16.461  37.548  1.00  0.00     0.004 C 
ATOM      7  C   UNL     1      12.848  16.212  36.030  1.00  0.00     0.024 C 
ATOM      8  C   UNL     1      14.226  15.615  36.408  1.00  0.00    -0.022 C 
ATOM      9  C   UNL     1      14.070  14.140  36.890  1.00  0.00     0.008 C 
ATOM     10  C   UNL     1      12.725  13.891  37.624  1.00  0.00     0.005 C 
ATOM     11  C   UNL     1      12.161  15.181  38.296  1.00  0.00    -0.005 C 
ATOM     12  C   UNL     1      15.398  15.750  35.408  1.00  0.00     0.012 C 
ENDROOT
BRANCH  11  13
ATOM     13  C   UNL     1      10.615  15.114  38.495  1.00  0.00    -0.014 C 
ATOM     14  C   UNL     1       9.930  16.491  38.511  1.00  0.00     0.007 C 
ATOM     15  C   UNL     1      10.247  14.334  39.767  1.00  0.00     0.007 C 
ENDBRANCH  11  13
TORSDOF 1
ENDMDL
MODEL 2
REMARK VINA RESULT:    -5.310      1.165      2.832
REMARK INTER + INTRA:          -5.909
REMARK INTER:                  -5.595
REMARK INTRA:                  -0.314
REMARK UNBOUND:                -0.289
REMARK SMILES CC1=CC[C@H]2[C@@H]3[C@@H](C(C)C)CC[C@@]2(C)[C@H]13
REMARK SMILES IDX 1 1 2 2 3 3 4 4 5 5 6 6 15 7 13 8 12 9 11 10 7 11 14 12 8 13
REMARK SMILES IDX 9 14 10 15
REMARK H PARENT
REMARK Flexibility Score: inf
ROOT
ATOM      1  C   UNL     1      15.908  14.269  36.362  1.00  0.00     0.039 C 
ATOM      2  C   UNL     1      14.969  15.438  36.302  1.00  0.00    -0.073 C 
ATOM      3  C   UNL     1      14.864  16.225  35.199  1.00  0.00    -0.027 C 
ATOM      4  C   UNL     1      13.872  17.393  35.218  1.00  0.00     0.031 C 
ATOM      5  C   UNL     1      13.092  17.424  36.573  1.00  0.00     0.003 C 
ATOM      6  C   UNL     1      12.626  15.980  36.874  1.00  0.00     0.004 C 
ATOM      7  C   UNL     1      14.038  15.752  37.474  1.00  0.00     0.024 C 
ATOM      8  C   UNL     1      14.047  17.269  37.781  1.00  0.00    -0.022 C 
ATOM      9  C   UNL     1      13.258  17.567  39.094  1.00  0.00     0.008 C 
ATOM     10  C   UNL     1      12.072  16.589  39.310  1.00  0.00     0.005 C 
ATOM     11  C   UNL     1      11.517  16.012  37.972  1.00  0.00    -0.005 C 
ATOM     12  C   UNL     1      15.395  18.027  37.763  1.00  0.00     0.012 C 
ENDROOT
BRANCH  11  13
ATOM     13  C   UNL     1      10.788  14.648  38.175  1.00  0.00    -0.014 C 
ATOM     14  C   UNL     1      10.717  14.194  39.643  1.00  0.00     0.007 C 
ATOM     15  C   UNL     1      11.422  13.541  37.317  1.00  0.00     0.007 C 
ENDBRANCH  11  13
TORSDOF 1
ENDMDL
MODEL 3
REMARK VINA RESULT:    -4.953     10.936     14.052
REMARK INTER + INTRA:          -5.532
REMARK INTER:                  -5.107
REMARK INTRA:                  -0.425
REMARK UNBOUND:                -0.289
REMARK SMILES CC1=CC[C@H]2[C@@H]3[C@@H](C(C)C)CC[C@@]2(C)[C@H]13
REMARK SMILES IDX 1 1 2 2 3 3 4 4 5 5 6 6 15 7 13 8 12 9 11 10 7 11 14 12 8 13
REMARK SMILES IDX 9 14 10 15
REMARK H PARENT
REMARK Flexibility Score: inf
ROOT
ATOM      1  C   UNL     1      10.371  20.824  22.105  1.00  0.00     0.039 C 
ATOM      2  C   UNL     1       9.237  20.078  22.746  1.00  0.00    -0.073 C 
ATOM      3  C   UNL     1       8.658  18.997  22.159  1.00  0.00    -0.027 C 
ATOM      4  C   UNL     1       7.512  18.288  22.887  1.00  0.00     0.031 C 
ATOM      5  C   UNL     1       7.246  18.962  24.273  1.00  0.00     0.003 C 
ATOM      6  C   UNL     1       8.616  19.170  24.960  1.00  0.00     0.004 C 
ATOM      7  C   UNL     1       8.725  20.477  24.131  1.00  0.00     0.024 C 
ATOM      8  C   UNL     1       7.178  20.504  24.150  1.00  0.00    -0.022 C 
ATOM      9  C   UNL     1       6.656  21.098  25.495  1.00  0.00     0.008 C 
ATOM     10  C   UNL     1       7.587  20.768  26.693  1.00  0.00     0.005 C 
ATOM     11  C   UNL     1       8.396  19.452  26.479  1.00  0.00    -0.005 C 
ATOM     12  C   UNL     1       6.427  21.119  22.946  1.00  0.00     0.012 C 
ENDROOT
BRANCH  11  13
ATOM     13  C   UNL     1       9.707  19.422  27.324  1.00  0.00    -0.014 C 
ATOM     14  C   UNL     1      10.215  20.815  27.733  1.00  0.00     0.007 C 
ATOM     15  C   UNL     1      10.823  18.651  26.600  1.00  0.00     0.007 C 
ENDBRANCH  11  13
TORSDOF 1
ENDMDL
MODEL 4
REMARK VINA RESULT:    -4.875     10.492     13.093
REMARK INTER + INTRA:          -5.449
REMARK INTER:                  -5.137
REMARK INTRA:                  -0.312
REMARK UNBOUND:                -0.289
REMARK SMILES CC1=CC[C@H]2[C@@H]3[C@@H](C(C)C)CC[C@@]2(C)[C@H]13
REMARK SMILES IDX 1 1 2 2 3 3 4 4 5 5 6 6 15 7 13 8 12 9 11 10 7 11 14 12 8 13
REMARK SMILES IDX 9 14 10 15
REMARK H PARENT
REMARK Flexibility Score: inf
ROOT
ATOM      1  C   UNL     1      11.952  18.879  23.319  1.00  0.00     0.039 C 
ATOM      2  C   UNL     1      11.370  19.684  24.444  1.00  0.00    -0.073 C 
ATOM      3  C   UNL     1      11.963  20.816  24.905  1.00  0.00    -0.027 C 
ATOM      4  C   UNL     1      11.295  21.585  26.051  1.00  0.00     0.031 C 
ATOM      5  C   UNL     1       9.953  20.896  26.460  1.00  0.00     0.003 C 
ATOM      6  C   UNL     1       9.178  20.578  25.158  1.00  0.00     0.004 C 
ATOM      7  C   UNL     1      10.036  19.288  25.078  1.00  0.00     0.024 C 
ATOM      8  C   UNL     1      10.125  19.366  26.621  1.00  0.00    -0.022 C 
ATOM      9  C   UNL     1       8.838  18.775  27.275  1.00  0.00     0.008 C 
ATOM     10  C   UNL     1       7.569  19.012  26.413  1.00  0.00     0.005 C 
ATOM     11  C   UNL     1       7.687  20.274  25.505  1.00  0.00    -0.005 C 
ATOM     12  C   UNL     1      11.396  18.833  27.323  1.00  0.00     0.012 C 
ENDROOT
BRANCH  11  13
ATOM     13  C   UNL     1       6.752  20.193  24.258  1.00  0.00    -0.014 C 
ATOM     14  C   UNL     1       6.949  18.921  23.415  1.00  0.00     0.007 C 
ATOM     15  C   UNL     1       6.898  21.437  23.367  1.00  0.00     0.007 C 
ENDBRANCH  11  13
TORSDOF 1
ENDMDL
MODEL 5
REMARK VINA RESULT:    -4.767     10.311     12.998
REMARK INTER + INTRA:          -5.334
REMARK INTER:                  -5.064
REMARK INTRA:                  -0.271
REMARK UNBOUND:                -0.289
REMARK SMILES CC1=CC[C@H]2[C@@H]3[C@@H](C(C)C)CC[C@@]2(C)[C@H]13
REMARK SMILES IDX 1 1 2 2 3 3 4 4 5 5 6 6 15 7 13 8 12 9 11 10 7 11 14 12 8 13
REMARK SMILES IDX 9 14 10 15
REMARK H PARENT
REMARK Flexibility Score: inf
ROOT
ATOM      1  C   UNL     1      10.304  22.772  27.434  1.00  0.00     0.039 C 
ATOM      2  C   UNL     1      10.646  21.353  27.086  1.00  0.00    -0.073 C 
ATOM      3  C   UNL     1      10.777  20.388  28.033  1.00  0.00    -0.027 C 
ATOM      4  C   UNL     1      11.118  18.960  27.590  1.00  0.00     0.031 C 
ATOM      5  C   UNL     1      11.207  18.881  26.031  1.00  0.00     0.003 C 
ATOM      6  C   UNL     1       9.975  19.619  25.457  1.00  0.00     0.004 C 
ATOM      7  C   UNL     1      10.798  20.923  25.626  1.00  0.00     0.024 C 
ATOM      8  C   UNL     1      12.056  20.038  25.451  1.00  0.00    -0.022 C 
ATOM      9  C   UNL     1      12.325  19.762  23.939  1.00  0.00     0.008 C 
ATOM     10  C   UNL     1      11.018  19.681  23.106  1.00  0.00     0.005 C 
ATOM     11  C   UNL     1       9.792  19.229  23.957  1.00  0.00    -0.005 C 
ATOM     12  C   UNL     1      13.359  20.440  26.181  1.00  0.00     0.012 C 
ENDROOT
BRANCH  11  13
ATOM     13  C   UNL     1       8.439  19.705  23.340  1.00  0.00    -0.014 C 
ATOM     14  C   UNL     1       7.272  19.725  24.342  1.00  0.00     0.007 C 
ATOM     15  C   UNL     1       8.057  18.865  22.111  1.00  0.00     0.007 C 
ENDBRANCH  11  13
TORSDOF 1
ENDMDL
MODEL 6
REMARK VINA RESULT:    -4.676      9.787     12.749
REMARK INTER + INTRA:          -5.239
REMARK INTER:                  -4.821
REMARK INTRA:                  -0.418
REMARK UNBOUND:                -0.289
REMARK SMILES CC1=CC[C@H]2[C@@H]3[C@@H](C(C)C)CC[C@@]2(C)[C@H]13
REMARK SMILES IDX 1 1 2 2 3 3 4 4 5 5 6 6 15 7 13 8 12 9 11 10 7 11 14 12 8 13
REMARK SMILES IDX 9 14 10 15
REMARK H PARENT
REMARK Flexibility Score: inf
ROOT
ATOM      1  C   UNL     1      12.574  22.847  23.930  1.00  0.00     0.039 C 
ATOM      2  C   UNL     1      12.150  21.408  23.948  1.00  0.00    -0.073 C 
ATOM      3  C   UNL     1      12.610  20.506  23.042  1.00  0.00    -0.027 C 
ATOM      4  C   UNL     1      12.134  19.053  23.138  1.00  0.00     0.031 C 
ATOM      5  C   UNL     1      11.186  18.871  24.368  1.00  0.00     0.003 C 
ATOM      6  C   UNL     1      11.852  19.571  25.576  1.00  0.00     0.004 C 
ATOM      7  C   UNL     1      11.219  20.883  25.042  1.00  0.00     0.024 C 
ATOM      8  C   UNL     1      10.115  19.987  24.430  1.00  0.00    -0.022 C 
ATOM      9  C   UNL     1       9.052  19.612  25.509  1.00  0.00     0.008 C 
ATOM     10  C   UNL     1       9.666  19.478  26.928  1.00  0.00     0.005 C 
ATOM     11  C   UNL     1      11.174  19.084  26.895  1.00  0.00    -0.005 C 
ATOM     12  C   UNL     1       9.434  20.434  23.115  1.00  0.00     0.012 C 
ENDROOT
BRANCH  11  13
ATOM     13  C   UNL     1      11.926  19.520  28.191  1.00  0.00    -0.014 C 
ATOM     14  C   UNL     1      11.373  20.806  28.828  1.00  0.00     0.007 C 
ATOM     15  C   UNL     1      13.436  19.669  27.939  1.00  0.00     0.007 C 
ENDBRANCH  11  13
TORSDOF 1
ENDMDL
MODEL 7
REMARK VINA RESULT:    -4.616     12.602     15.172
REMARK INTER + INTRA:          -5.175
REMARK INTER:                  -4.749
REMARK INTRA:                  -0.426
REMARK UNBOUND:                -0.289
REMARK SMILES CC1=CC[C@H]2[C@@H]3[C@@H](C(C)C)CC[C@@]2(C)[C@H]13
REMARK SMILES IDX 1 1 2 2 3 3 4 4 5 5 6 6 15 7 13 8 12 9 11 10 7 11 14 12 8 13
REMARK SMILES IDX 9 14 10 15
REMARK H PARENT
REMARK Flexibility Score: inf
ROOT
ATOM      1  C   UNL     1       9.152  23.156  24.087  1.00  0.00     0.039 C 
ATOM      2  C   UNL     1       8.742  21.774  24.506  1.00  0.00    -0.073 C 
ATOM      3  C   UNL     1       8.946  21.310  25.767  1.00  0.00    -0.027 C 
ATOM      4  C   UNL     1       8.487  19.890  26.114  1.00  0.00     0.031 C 
ATOM      5  C   UNL     1       7.788  19.227  24.883  1.00  0.00     0.003 C 
ATOM      6  C   UNL     1       6.797  20.262  24.299  1.00  0.00     0.004 C 
ATOM      7  C   UNL     1       8.012  20.848  23.532  1.00  0.00     0.024 C 
ATOM      8  C   UNL     1       8.612  19.422  23.588  1.00  0.00    -0.022 C 
ATOM      9  C   UNL     1       8.007  18.529  22.461  1.00  0.00     0.008 C 
ATOM     10  C   UNL     1       6.535  18.897  22.135  1.00  0.00     0.005 C 
ATOM     11  C   UNL     1       5.794  19.538  23.348  1.00  0.00    -0.005 C 
ATOM     12  C   UNL     1      10.149  19.262  23.656  1.00  0.00     0.012 C 
ENDROOT
BRANCH  11  13
ATOM     13  C   UNL     1       4.592  20.427  22.901  1.00  0.00    -0.014 C 
ATOM     14  C   UNL     1       4.729  20.987  21.475  1.00  0.00     0.007 C 
ATOM     15  C   UNL     1       4.347  21.577  23.892  1.00  0.00     0.007 C 
ENDBRANCH  11  13
TORSDOF 1
ENDMDL
MODEL 8
REMARK VINA RESULT:    -4.527      1.877      4.201
REMARK INTER + INTRA:          -5.081
REMARK INTER:                  -4.804
REMARK INTRA:                  -0.276
REMARK UNBOUND:                -0.289
REMARK SMILES CC1=CC[C@H]2[C@@H]3[C@@H](C(C)C)CC[C@@]2(C)[C@H]13
REMARK SMILES IDX 1 1 2 2 3 3 4 4 5 5 6 6 15 7 13 8 12 9 11 10 7 11 14 12 8 13
REMARK SMILES IDX 9 14 10 15
REMARK H PARENT
REMARK Flexibility Score: inf
ROOT
ATOM      1  C   UNL     1      14.559  20.976  35.189  1.00  0.00     0.039 C 
ATOM      2  C   UNL     1      13.679  19.774  35.012  1.00  0.00    -0.073 C 
ATOM      3  C   UNL     1      12.899  19.604  33.912  1.00  0.00    -0.027 C 
ATOM      4  C   UNL     1      12.038  18.341  33.805  1.00  0.00     0.031 C 
ATOM      5  C   UNL     1      12.275  17.414  35.042  1.00  0.00     0.003 C 
ATOM      6  C   UNL     1      13.803  17.317  35.264  1.00  0.00     0.004 C 
ATOM      7  C   UNL     1      13.676  18.649  36.049  1.00  0.00     0.024 C 
ATOM      8  C   UNL     1      12.225  18.211  36.368  1.00  0.00    -0.022 C 
ATOM      9  C   UNL     1      12.206  17.209  37.563  1.00  0.00     0.008 C 
ATOM     10  C   UNL     1      13.471  16.311  37.608  1.00  0.00     0.005 C 
ATOM     11  C   UNL     1      14.114  16.109  36.202  1.00  0.00    -0.005 C 
ATOM     12  C   UNL     1      11.138  19.298  36.539  1.00  0.00     0.012 C 
ENDROOT
BRANCH  11  13
ATOM     13  C   UNL     1      15.631  15.753  36.292  1.00  0.00    -0.014 C 
ATOM     14  C   UNL     1      15.915  14.241  36.291  1.00  0.00     0.007 C 
ATOM     15  C   UNL     1      16.288  16.407  37.519  1.00  0.00     0.007 C 
ENDBRANCH  11  13
TORSDOF 1
ENDMDL
MODEL 9
REMARK VINA RESULT:    -4.491     14.526     17.489
REMARK INTER + INTRA:          -5.043
REMARK INTER:                  -4.765
REMARK INTRA:                  -0.278
REMARK UNBOUND:                -0.289
REMARK SMILES CC1=CC[C@H]2[C@@H]3[C@@H](C(C)C)CC[C@@]2(C)[C@H]13
REMARK SMILES IDX 1 1 2 2 3 3 4 4 5 5 6 6 15 7 13 8 12 9 11 10 7 11 14 12 8 13
REMARK SMILES IDX 9 14 10 15
REMARK H PARENT
REMARK Flexibility Score: inf
ROOT
ATOM      1  C   UNL     1       3.608  22.534  25.334  1.00  0.00     0.039 C 
ATOM      2  C   UNL     1       4.048  22.396  23.906  1.00  0.00    -0.073 C 
ATOM      3  C   UNL     1       4.391  23.470  23.148  1.00  0.00    -0.027 C 
ATOM      4  C   UNL     1       4.840  23.238  21.701  1.00  0.00     0.031 C 
ATOM      5  C   UNL     1       4.859  21.709  21.374  1.00  0.00     0.003 C 
ATOM      6  C   UNL     1       5.565  20.992  22.549  1.00  0.00     0.004 C 
ATOM      7  C   UNL     1       4.188  21.015  23.263  1.00  0.00     0.024 C 
ATOM      8  C   UNL     1       3.562  21.011  21.848  1.00  0.00    -0.022 C 
ATOM      9  C   UNL     1       3.524  19.562  21.269  1.00  0.00     0.008 C 
ATOM     10  C   UNL     1       4.720  18.698  21.751  1.00  0.00     0.005 C 
ATOM     11  C   UNL     1       5.975  19.553  22.106  1.00  0.00    -0.005 C 
ATOM     12  C   UNL     1       2.210  21.729  21.627  1.00  0.00     0.012 C 
ENDROOT
BRANCH  11  13
ATOM     13  C   UNL     1       6.918  18.825  23.113  1.00  0.00    -0.014 C 
ATOM     14  C   UNL     1       7.296  19.677  24.337  1.00  0.00     0.007 C 
ATOM     15  C   UNL     1       8.192  18.314  22.420  1.00  0.00     0.007 C 
ENDBRANCH  11  13
TORSDOF 1
ENDMDL
