MODEL 1
REMARK VINA RESULT:    -2.787      0.000      0.000
REMARK INTER + INTRA:          -2.787
REMARK INTER:                  -2.787
REMARK INTRA:                   0.000
REMARK UNBOUND:                 0.000
REMARK SMILES CC(=O)[O-]
REMARK SMILES IDX 1 1 2 2 3 3 4 4
REMARK H PARENT
REMARK Flexibility Score: inf
ROOT
ATOM      1  C   UNL     1      18.046 -30.300  13.314  1.00  0.00     0.063 C 
ATOM      2  C   UNL     1      18.984 -29.756  12.291  1.00  0.00     0.038 C 
ATOM      3  O   UNL     1      20.125 -29.348  12.634  1.00  0.00    -0.550 OA
ATOM      4  O   UNL     1      18.625 -29.749  10.950  1.00  0.00    -0.550 OA
ENDROOT
TORSDOF 0
ENDMDL
MODEL 2
REMARK VINA RESULT:    -2.435      3.678      4.183
REMARK INTER + INTRA:          -2.435
REMARK INTER:                  -2.435
REMARK INTRA:                   0.000
REMARK UNBOUND:                 0.000
REMARK SMILES CC(=O)[O-]
REMARK SMILES IDX 1 1 2 2 3 3 4 4
REMARK H PARENT
REMARK Flexibility Score: inf
ROOT
ATOM      1  C   UNL     1      17.697 -28.321   8.164  1.00  0.00     0.063 C 
ATOM      2  C   UNL     1      19.011 -28.060   8.820  1.00  0.00     0.038 C 
ATOM      3  O   UNL     1      19.378 -28.761   9.799  1.00  0.00    -0.550 OA
ATOM      4  O   UNL     1      19.857 -27.080   8.318  1.00  0.00    -0.550 OA
ENDROOT
TORSDOF 0
ENDMDL
MODEL 3
REMARK VINA RESULT:    -2.403      2.806      3.025
REMARK INTER + INTRA:          -2.403
REMARK INTER:                  -2.403
REMARK INTRA:                   0.000
REMARK UNBOUND:                 0.000
REMARK SMILES CC(=O)[O-]
REMARK SMILES IDX 1 1 2 2 3 3 4 4
REMARK H PARENT
REMARK Flexibility Score: inf
ROOT
ATOM      1  C   UNL     1      18.287 -30.139  12.978  1.00  0.00     0.063 C 
ATOM      2  C   UNL     1      17.130 -30.842  13.601  1.00  0.00     0.038 C 
ATOM      3  O   UNL     1      17.311 -31.605  14.586  1.00  0.00    -0.550 OA
ATOM      4  O   UNL     1      15.843 -30.616  13.133  1.00  0.00    -0.550 OA
ENDROOT
TORSDOF 0
ENDMDL
MODEL 4
REMARK VINA RESULT:    -2.356      8.821      9.185
REMARK INTER + INTRA:          -2.356
REMARK INTER:                  -2.356
REMARK INTRA:                   0.000
REMARK UNBOUND:                 0.000
REMARK SMILES CC(=O)[O-]
REMARK SMILES IDX 1 1 2 2 3 3 4 4
REMARK H PARENT
REMARK Flexibility Score: inf
ROOT
ATOM      1  C   UNL     1      10.353 -26.876  13.116  1.00  0.00     0.063 C 
ATOM      2  C   UNL     1      10.284 -27.173  11.657  1.00  0.00     0.038 C 
ATOM      3  O   UNL     1      10.684 -28.284  11.219  1.00  0.00    -0.550 OA
ATOM      4  O   UNL     1       9.727 -26.249  10.784  1.00  0.00    -0.550 OA
ENDROOT
TORSDOF 0
ENDMDL
MODEL 5
REMARK VINA RESULT:    -2.354     20.120     20.375
REMARK INTER + INTRA:          -2.354
REMARK INTER:                  -2.354
REMARK INTRA:                   0.000
REMARK UNBOUND:                 0.000
REMARK SMILES CC(=O)[O-]
REMARK SMILES IDX 1 1 2 2 3 3 4 4
REMARK H PARENT
REMARK Flexibility Score: inf
ROOT
ATOM      1  C   UNL     1       1.062 -30.398  23.503  1.00  0.00     0.063 C 
ATOM      2  C   UNL     1       2.107 -29.337  23.572  1.00  0.00     0.038 C 
ATOM      3  O   UNL     1       2.062 -28.354  22.787  1.00  0.00    -0.550 OA
ATOM      4  O   UNL     1       3.101 -29.401  24.539  1.00  0.00    -0.550 OA
ENDROOT
TORSDOF 0
ENDMDL
MODEL 6
REMARK VINA RESULT:    -2.296      8.834      9.106
REMARK INTER + INTRA:          -2.296
REMARK INTER:                  -2.296
REMARK INTRA:                   0.000
REMARK UNBOUND:                 0.000
REMARK SMILES CC(=O)[O-]
REMARK SMILES IDX 1 1 2 2 3 3 4 4
REMARK H PARENT
REMARK Flexibility Score: inf
ROOT
ATOM      1  C   UNL     1      10.033 -26.802  13.051  1.00  0.00     0.063 C 
ATOM      2  C   UNL     1      10.372 -27.045  11.619  1.00  0.00     0.038 C 
ATOM      3  O   UNL     1      10.435 -26.079  10.814  1.00  0.00    -0.550 OA
ATOM      4  O   UNL     1      10.673 -28.327  11.183  1.00  0.00    -0.550 OA
ENDROOT
TORSDOF 0
ENDMDL
MODEL 7
REMARK VINA RESULT:    -2.293     20.875     21.273
REMARK INTER + INTRA:          -2.293
REMARK INTER:                  -2.293
REMARK INTRA:                   0.000
REMARK UNBOUND:                 0.000
REMARK SMILES CC(=O)[O-]
REMARK SMILES IDX 1 1 2 2 3 3 4 4
REMARK H PARENT
REMARK Flexibility Score: inf
ROOT
ATOM      1  C   UNL     1       2.162 -28.991  23.467  1.00  0.00     0.063 C 
ATOM      2  C   UNL     1       1.149 -30.004  23.883  1.00  0.00     0.038 C 
ATOM      3  O   UNL     1       0.669 -29.976  25.047  1.00  0.00    -0.550 OA
ATOM      4  O   UNL     1       0.691 -30.945  22.972  1.00  0.00    -0.550 OA
ENDROOT
TORSDOF 0
ENDMDL
MODEL 8
REMARK VINA RESULT:    -2.282     10.366     10.816
REMARK INTER + INTRA:          -2.282
REMARK INTER:                  -2.282
REMARK INTRA:                   0.000
REMARK UNBOUND:                 0.000
REMARK SMILES CC(=O)[O-]
REMARK SMILES IDX 1 1 2 2 3 3 4 4
REMARK H PARENT
REMARK Flexibility Score: inf
ROOT
ATOM      1  C   UNL     1       8.855 -26.542   8.115  1.00  0.00     0.063 C 
ATOM      2  C   UNL     1       9.286 -26.328   9.526  1.00  0.00     0.038 C 
ATOM      3  O   UNL     1      10.160 -27.076  10.039  1.00  0.00    -0.550 OA
ATOM      4  O   UNL     1       8.767 -25.271  10.261  1.00  0.00    -0.550 OA
ENDROOT
TORSDOF 0
ENDMDL
MODEL 9
REMARK VINA RESULT:    -2.226      8.931      9.298
REMARK INTER + INTRA:          -2.226
REMARK INTER:                  -2.226
REMARK INTRA:                   0.000
REMARK UNBOUND:                 0.000
REMARK SMILES CC(=O)[O-]
REMARK SMILES IDX 1 1 2 2 3 3 4 4
REMARK H PARENT
REMARK Flexibility Score: inf
ROOT
ATOM      1  C   UNL     1       9.999 -25.623  11.606  1.00  0.00     0.063 C 
ATOM      2  C   UNL     1      10.409 -26.835  12.372  1.00  0.00     0.038 C 
ATOM      3  O   UNL     1      10.446 -27.958  11.803  1.00  0.00    -0.550 OA
ATOM      4  O   UNL     1      10.803 -26.720  13.697  1.00  0.00    -0.550 OA
ENDROOT
TORSDOF 0
ENDMDL
