MODEL 1
REMARK VINA RESULT:    -3.672      0.000      0.000
REMARK INTER + INTRA:          -6.964
REMARK INTER:                  -5.819
REMARK INTRA:                  -1.146
REMARK UNBOUND:                -1.146
REMARK SMILES CCCCCCCCCCCC(=O)[O-]
REMARK SMILES IDX 7 1 8 2 9 3 10 4 11 5 12 6 13 7 14 8 6 9 5 10 4 11 3 12 2 13
REMARK SMILES IDX 1 14
REMARK H PARENT
REMARK Flexibility Score: inf
ROOT
ATOM      1  C   UNL     1      25.455  11.929  20.602  1.00  0.00     0.000 C 
ENDROOT
BRANCH   1   2
ATOM      2  C   UNL     1      24.245  12.643  19.981  1.00  0.00     0.000 C 
BRANCH   2   3
ATOM      3  C   UNL     1      22.972  11.795  20.130  1.00  0.00     0.000 C 
BRANCH   3   4
ATOM      4  C   UNL     1      23.193  10.543  20.993  1.00  0.00     0.006 C 
BRANCH   4   5
ATOM      5  C   UNL     1      22.346  10.550  22.273  1.00  0.00     0.053 C 
BRANCH   5   6
ATOM      6  C   UNL     1      23.069  11.264  23.372  1.00  0.00     0.041 C 
ATOM      7  O   UNL     1      22.889  12.497  23.552  1.00  0.00    -0.550 OA
ATOM      8  O   UNL     1      23.979  10.577  24.166  1.00  0.00    -0.550 OA
ENDBRANCH   5   6
ENDBRANCH   4   5
ENDBRANCH   3   4
ENDBRANCH   2   3
ENDBRANCH   1   2
BRANCH   1   9
ATOM      9  C   UNL     1      26.055  12.704  21.787  1.00  0.00     0.000 C 
BRANCH   9  10
ATOM     10  C   UNL     1      26.969  11.830  22.663  1.00  0.00    -0.000 C 
BRANCH  10  11
ATOM     11  C   UNL     1      26.990  10.361  22.212  1.00  0.00    -0.000 C 
BRANCH  11  12
ATOM     12  C   UNL     1      28.179   9.581  22.790  1.00  0.00    -0.000 C 
BRANCH  12  13
ATOM     13  C   UNL     1      29.375   9.611  21.831  1.00  0.00    -0.003 C 
ATOM     14  C   UNL     1      28.967   9.166  20.429  1.00  0.00     0.004 C 
ENDBRANCH  12  13
ENDBRANCH  11  12
ENDBRANCH  10  11
ENDBRANCH   9  10
ENDBRANCH   1   9
TORSDOF 10
ENDMDL
MODEL 2
REMARK VINA RESULT:    -3.599      2.303      5.064
REMARK INTER + INTRA:          -6.849
REMARK INTER:                  -5.248
REMARK INTRA:                  -1.601
REMARK UNBOUND:                -1.146
REMARK SMILES CCCCCCCCCCCC(=O)[O-]
REMARK SMILES IDX 7 1 8 2 9 3 10 4 11 5 12 6 13 7 14 8 6 9 5 10 4 11 3 12 2 13
REMARK SMILES IDX 1 14
REMARK H PARENT
REMARK Flexibility Score: inf
ROOT
ATOM      1  C   UNL     1      23.383  11.104  23.751  1.00  0.00     0.000 C 
ENDROOT
BRANCH   1   2
ATOM      2  C   UNL     1      23.996  12.508  23.634  1.00  0.00     0.000 C 
BRANCH   2   3
ATOM      3  C   UNL     1      25.508  12.426  23.378  1.00  0.00     0.000 C 
BRANCH   3   4
ATOM      4  C   UNL     1      26.010  10.978  23.257  1.00  0.00     0.006 C 
BRANCH   4   5
ATOM      5  C   UNL     1      26.816  10.737  21.972  1.00  0.00     0.053 C 
BRANCH   5   6
ATOM      6  C   UNL     1      27.980   9.839  22.248  1.00  0.00     0.041 C 
ATOM      7  O   UNL     1      28.699   9.424  21.300  1.00  0.00    -0.550 OA
ATOM      8  O   UNL     1      28.242   9.419  23.546  1.00  0.00    -0.550 OA
ENDBRANCH   5   6
ENDBRANCH   4   5
ENDBRANCH   3   4
ENDBRANCH   2   3
ENDBRANCH   1   2
BRANCH   1   9
ATOM      9  C   UNL     1      22.256  10.863  22.733  1.00  0.00     0.000 C 
BRANCH   9  10
ATOM     10  C   UNL     1      22.719  10.036  21.523  1.00  0.00    -0.000 C 
BRANCH  10  11
ATOM     11  C   UNL     1      23.368  10.900  20.430  1.00  0.00    -0.000 C 
BRANCH  11  12
ATOM     12  C   UNL     1      22.603  12.208  20.179  1.00  0.00    -0.000 C 
BRANCH  12  13
ATOM     13  C   UNL     1      23.570  13.387  20.020  1.00  0.00    -0.003 C 
ATOM     14  C   UNL     1      24.979  12.905  19.690  1.00  0.00     0.004 C 
ENDBRANCH  12  13
ENDBRANCH  11  12
ENDBRANCH  10  11
ENDBRANCH   9  10
ENDBRANCH   1   9
TORSDOF 10
ENDMDL
MODEL 3
REMARK VINA RESULT:    -3.568      2.511      5.181
REMARK INTER + INTRA:          -6.799
REMARK INTER:                  -5.341
REMARK INTRA:                  -1.458
REMARK UNBOUND:                -1.146
REMARK SMILES CCCCCCCCCCCC(=O)[O-]
REMARK SMILES IDX 7 1 8 2 9 3 10 4 11 5 12 6 13 7 14 8 6 9 5 10 4 11 3 12 2 13
REMARK SMILES IDX 1 14
REMARK H PARENT
REMARK Flexibility Score: inf
ROOT
ATOM      1  C   UNL     1      24.690  12.552  20.027  1.00  0.00     0.000 C 
ENDROOT
BRANCH   1   2
ATOM      2  C   UNL     1      25.645  11.605  20.770  1.00  0.00     0.000 C 
BRANCH   2   3
ATOM      3  C   UNL     1      26.278  12.305  21.981  1.00  0.00     0.000 C 
BRANCH   3   4
ATOM      4  C   UNL     1      26.838  11.313  23.013  1.00  0.00     0.006 C 
BRANCH   4   5
ATOM      5  C   UNL     1      27.359  10.021  22.368  1.00  0.00     0.053 C 
BRANCH   5   6
ATOM      6  C   UNL     1      28.836   9.898  22.567  1.00  0.00     0.041 C 
ATOM      7  O   UNL     1      29.615   9.946  21.578  1.00  0.00    -0.550 OA
ATOM      8  O   UNL     1      29.351   9.683  23.839  1.00  0.00    -0.550 OA
ENDBRANCH   5   6
ENDBRANCH   4   5
ENDBRANCH   3   4
ENDBRANCH   2   3
ENDBRANCH   1   2
BRANCH   1   9
ATOM      9  C   UNL     1      23.243  12.031  19.998  1.00  0.00     0.000 C 
BRANCH   9  10
ATOM     10  C   UNL     1      23.070  10.724  20.790  1.00  0.00    -0.000 C 
BRANCH  10  11
ATOM     11  C   UNL     1      22.296  10.927  22.102  1.00  0.00    -0.000 C 
BRANCH  11  12
ATOM     12  C   UNL     1      23.150  10.633  23.344  1.00  0.00    -0.000 C 
BRANCH  12  13
ATOM     13  C   UNL     1      23.164  11.833  24.298  1.00  0.00    -0.003 C 
ATOM     14  C   UNL     1      22.966  13.143  23.539  1.00  0.00     0.004 C 
ENDBRANCH  12  13
ENDBRANCH  11  12
ENDBRANCH  10  11
ENDBRANCH   9  10
ENDBRANCH   1   9
TORSDOF 10
ENDMDL
MODEL 4
REMARK VINA RESULT:    -3.511      1.665      3.165
REMARK INTER + INTRA:          -6.709
REMARK INTER:                  -6.115
REMARK INTRA:                  -0.594
REMARK UNBOUND:                -1.146
REMARK SMILES CCCCCCCCCCCC(=O)[O-]
REMARK SMILES IDX 7 1 8 2 9 3 10 4 11 5 12 6 13 7 14 8 6 9 5 10 4 11 3 12 2 13
REMARK SMILES IDX 1 14
REMARK H PARENT
REMARK Flexibility Score: inf
ROOT
ATOM      1  C   UNL     1      27.775  11.121  22.538  1.00  0.00     0.000 C 
ENDROOT
BRANCH   1   2
ATOM      2  C   UNL     1      26.360  10.620  22.862  1.00  0.00     0.000 C 
BRANCH   2   3
ATOM      3  C   UNL     1      25.298  11.504  22.191  1.00  0.00     0.000 C 
BRANCH   3   4
ATOM      4  C   UNL     1      24.737  10.880  20.903  1.00  0.00     0.006 C 
BRANCH   4   5
ATOM      5  C   UNL     1      23.303  11.337  20.601  1.00  0.00     0.053 C 
BRANCH   5   6
ATOM      6  C   UNL     1      22.441  11.186  21.814  1.00  0.00     0.041 C 
ATOM      7  O   UNL     1      22.156  10.039  22.250  1.00  0.00    -0.550 OA
ATOM      8  O   UNL     1      21.912  12.310  22.436  1.00  0.00    -0.550 OA
ENDBRANCH   5   6
ENDBRANCH   4   5
ENDBRANCH   3   4
ENDBRANCH   2   3
ENDBRANCH   1   2
BRANCH   1   9
ATOM      9  C   UNL     1      28.849  10.042  22.755  1.00  0.00     0.000 C 
BRANCH   9  10
ATOM     10  C   UNL     1      29.593   9.679  21.458  1.00  0.00    -0.000 C 
BRANCH  10  11
ATOM     11  C   UNL     1      28.640   9.257  20.329  1.00  0.00    -0.000 C 
BRANCH  11  12
ATOM     12  C   UNL     1      29.368   9.016  18.999  1.00  0.00    -0.000 C 
BRANCH  12  13
ATOM     13  C   UNL     1      30.876   9.246  19.149  1.00  0.00    -0.003 C 
ATOM     14  C   UNL     1      31.621   8.877  17.870  1.00  0.00     0.004 C 
ENDBRANCH  12  13
ENDBRANCH  11  12
ENDBRANCH  10  11
ENDBRANCH   9  10
ENDBRANCH   1   9
TORSDOF 10
ENDMDL
MODEL 5
REMARK VINA RESULT:    -3.455      2.766      5.478
REMARK INTER + INTRA:          -6.621
REMARK INTER:                  -5.541
REMARK INTRA:                  -1.080
REMARK UNBOUND:                -1.146
REMARK SMILES CCCCCCCCCCCC(=O)[O-]
REMARK SMILES IDX 7 1 8 2 9 3 10 4 11 5 12 6 13 7 14 8 6 9 5 10 4 11 3 12 2 13
REMARK SMILES IDX 1 14
REMARK H PARENT
REMARK Flexibility Score: inf
ROOT
ATOM      1  C   UNL     1      25.997  13.080  21.982  1.00  0.00     0.000 C 
ENDROOT
BRANCH   1   2
ATOM      2  C   UNL     1      26.513  12.452  23.286  1.00  0.00     0.000 C 
BRANCH   2   3
ATOM      3  C   UNL     1      26.134  10.965  23.367  1.00  0.00     0.000 C 
BRANCH   3   4
ATOM      4  C   UNL     1      27.360  10.049  23.504  1.00  0.00     0.006 C 
BRANCH   4   5
ATOM      5  C   UNL     1      27.913   9.594  22.146  1.00  0.00     0.053 C 
BRANCH   5   6
ATOM      6  C   UNL     1      29.357   9.222  22.270  1.00  0.00     0.041 C 
ATOM      7  O   UNL     1      30.012   8.876  21.251  1.00  0.00    -0.550 OA
ATOM      8  O   UNL     1      29.968   9.210  23.517  1.00  0.00    -0.550 OA
ENDBRANCH   5   6
ENDBRANCH   4   5
ENDBRANCH   3   4
ENDBRANCH   2   3
ENDBRANCH   1   2
BRANCH   1   9
ATOM      9  C   UNL     1      25.452  12.033  20.997  1.00  0.00     0.000 C 
BRANCH   9  10
ATOM     10  C   UNL     1      24.273  12.563  20.163  1.00  0.00    -0.000 C 
BRANCH  10  11
ATOM     11  C   UNL     1      22.982  11.759  20.389  1.00  0.00    -0.000 C 
BRANCH  11  12
ATOM     12  C   UNL     1      23.233  10.427  21.111  1.00  0.00    -0.000 C 
BRANCH  12  13
ATOM     13  C   UNL     1      22.152  10.163  22.166  1.00  0.00    -0.003 C 
ATOM     14  C   UNL     1      22.506  10.821  23.496  1.00  0.00     0.004 C 
ENDBRANCH  12  13
ENDBRANCH  11  12
ENDBRANCH  10  11
ENDBRANCH   9  10
ENDBRANCH   1   9
TORSDOF 10
ENDMDL
MODEL 6
REMARK VINA RESULT:    -3.424      1.216      2.295
REMARK INTER + INTRA:          -6.571
REMARK INTER:                  -5.337
REMARK INTRA:                  -1.234
REMARK UNBOUND:                -1.146
REMARK SMILES CCCCCCCCCCCC(=O)[O-]
REMARK SMILES IDX 7 1 8 2 9 3 10 4 11 5 12 6 13 7 14 8 6 9 5 10 4 11 3 12 2 13
REMARK SMILES IDX 1 14
REMARK H PARENT
REMARK Flexibility Score: inf
ROOT
ATOM      1  C   UNL     1      22.934  11.734  20.305  1.00  0.00     0.000 C 
ENDROOT
BRANCH   1   2
ATOM      2  C   UNL     1      22.999  10.417  21.093  1.00  0.00     0.000 C 
BRANCH   2   3
ATOM      3  C   UNL     1      22.153  10.501  22.372  1.00  0.00     0.000 C 
BRANCH   3   4
ATOM      4  C   UNL     1      23.010  10.629  23.641  1.00  0.00     0.006 C 
BRANCH   4   5
ATOM      5  C   UNL     1      23.246  12.090  24.051  1.00  0.00     0.053 C 
BRANCH   5   6
ATOM      6  C   UNL     1      24.345  12.176  25.062  1.00  0.00     0.041 C 
ATOM      7  O   UNL     1      24.793  13.299  25.416  1.00  0.00    -0.550 OA
ATOM      8  O   UNL     1      24.907  11.016  25.579  1.00  0.00    -0.550 OA
ENDBRANCH   5   6
ENDBRANCH   4   5
ENDBRANCH   3   4
ENDBRANCH   2   3
ENDBRANCH   1   2
BRANCH   1   9
ATOM      9  C   UNL     1      24.233  12.551  20.408  1.00  0.00     0.000 C 
BRANCH   9  10
ATOM     10  C   UNL     1      25.482  11.662  20.532  1.00  0.00    -0.000 C 
BRANCH  10  11
ATOM     11  C   UNL     1      26.268  11.924  21.826  1.00  0.00    -0.000 C 
BRANCH  11  12
ATOM     12  C   UNL     1      26.638  10.631  22.566  1.00  0.00    -0.000 C 
BRANCH  12  13
ATOM     13  C   UNL     1      28.156  10.416  22.570  1.00  0.00    -0.003 C 
ATOM     14  C   UNL     1      28.582   9.477  21.446  1.00  0.00     0.004 C 
ENDBRANCH  12  13
ENDBRANCH  11  12
ENDBRANCH  10  11
ENDBRANCH   9  10
ENDBRANCH   1   9
TORSDOF 10
ENDMDL
MODEL 7
REMARK VINA RESULT:    -3.422      2.110      3.200
REMARK INTER + INTRA:          -6.569
REMARK INTER:                  -5.371
REMARK INTRA:                  -1.198
REMARK UNBOUND:                -1.146
REMARK SMILES CCCCCCCCCCCC(=O)[O-]
REMARK SMILES IDX 7 1 8 2 9 3 10 4 11 5 12 6 13 7 14 8 6 9 5 10 4 11 3 12 2 13
REMARK SMILES IDX 1 14
REMARK H PARENT
REMARK Flexibility Score: inf
ROOT
ATOM      1  C   UNL     1      22.844  10.929  23.908  1.00  0.00     0.000 C 
ENDROOT
BRANCH   1   2
ATOM      2  C   UNL     1      22.050  10.969  22.593  1.00  0.00     0.000 C 
BRANCH   2   3
ATOM      3  C   UNL     1      22.670  10.028  21.549  1.00  0.00     0.000 C 
BRANCH   3   4
ATOM      4  C   UNL     1      23.327  10.786  20.385  1.00  0.00     0.006 C 
BRANCH   4   5
ATOM      5  C   UNL     1      22.872  12.250  20.302  1.00  0.00     0.053 C 
BRANCH   5   6
ATOM      6  C   UNL     1      23.923  13.085  19.640  1.00  0.00     0.041 C 
ATOM      7  O   UNL     1      23.601  14.132  19.017  1.00  0.00    -0.550 OA
ATOM      8  O   UNL     1      25.251  12.681  19.667  1.00  0.00    -0.550 OA
ENDBRANCH   5   6
ENDBRANCH   4   5
ENDBRANCH   3   4
ENDBRANCH   2   3
ENDBRANCH   1   2
BRANCH   1   9
ATOM      9  C   UNL     1      23.594  12.243  24.186  1.00  0.00     0.000 C 
BRANCH   9  10
ATOM     10  C   UNL     1      24.933  12.330  23.433  1.00  0.00    -0.000 C 
BRANCH  10  11
ATOM     11  C   UNL     1      25.747  11.030  23.524  1.00  0.00    -0.000 C 
BRANCH  11  12
ATOM     12  C   UNL     1      26.541  10.739  22.242  1.00  0.00    -0.000 C 
BRANCH  12  13
ATOM     13  C   UNL     1      27.984  10.337  22.570  1.00  0.00    -0.003 C 
ATOM     14  C   UNL     1      28.561   9.427  21.490  1.00  0.00     0.004 C 
ENDBRANCH  12  13
ENDBRANCH  11  12
ENDBRANCH  10  11
ENDBRANCH   9  10
ENDBRANCH   1   9
TORSDOF 10
ENDMDL
MODEL 8
REMARK VINA RESULT:    -2.933      3.471      6.493
REMARK INTER + INTRA:          -5.794
REMARK INTER:                  -5.218
REMARK INTRA:                  -0.576
REMARK UNBOUND:                -1.146
REMARK SMILES CCCCCCCCCCCC(=O)[O-]
REMARK SMILES IDX 7 1 8 2 9 3 10 4 11 5 12 6 13 7 14 8 6 9 5 10 4 11 3 12 2 13
REMARK SMILES IDX 1 14
REMARK H PARENT
REMARK Flexibility Score: inf
ROOT
ATOM      1  C   UNL     1      27.378  11.187  22.816  1.00  0.00     0.000 C 
ENDROOT
BRANCH   1   2
ATOM      2  C   UNL     1      27.815   9.835  23.400  1.00  0.00     0.000 C 
BRANCH   2   3
ATOM      3  C   UNL     1      28.261   8.875  22.287  1.00  0.00     0.000 C 
BRANCH   3   4
ATOM      4  C   UNL     1      28.879   9.608  21.086  1.00  0.00     0.006 C 
BRANCH   4   5
ATOM      5  C   UNL     1      30.132   8.905  20.544  1.00  0.00     0.053 C 
BRANCH   5   6
ATOM      6  C   UNL     1      30.280   9.161  19.078  1.00  0.00     0.041 C 
ATOM      7  O   UNL     1      29.260   9.256  18.345  1.00  0.00    -0.550 OA
ATOM      8  O   UNL     1      31.545   9.246  18.512  1.00  0.00    -0.550 OA
ENDBRANCH   5   6
ENDBRANCH   4   5
ENDBRANCH   3   4
ENDBRANCH   2   3
ENDBRANCH   1   2
BRANCH   1   9
ATOM      9  C   UNL     1      25.865  11.256  22.552  1.00  0.00     0.000 C 
BRANCH   9  10
ATOM     10  C   UNL     1      25.485  12.387  21.582  1.00  0.00    -0.000 C 
BRANCH  10  11
ATOM     11  C   UNL     1      24.781  11.870  20.317  1.00  0.00    -0.000 C 
BRANCH  11  12
ATOM     12  C   UNL     1      23.436  11.196  20.622  1.00  0.00    -0.000 C 
BRANCH  12  13
ATOM     13  C   UNL     1      22.270  12.161  20.380  1.00  0.00    -0.003 C 
ATOM     14  C   UNL     1      22.553  13.081  19.196  1.00  0.00     0.004 C 
ENDBRANCH  12  13
ENDBRANCH  11  12
ENDBRANCH  10  11
ENDBRANCH   9  10
ENDBRANCH   1   9
TORSDOF 10
ENDMDL
