MODEL 1
REMARK VINA RESULT:    -1.994      0.000      0.000
REMARK INTER + INTRA:          -6.708
REMARK INTER:                  -3.743
REMARK INTRA:                  -2.964
REMARK UNBOUND:                -2.964
REMARK SMILES CCCCCCCCC=CCCCCCCCC(=O)[O-]
REMARK SMILES IDX 10 1 9 2 11 3 12 4 13 5 14 6 15 7 16 8 17 9 18 10 19 11
REMARK SMILES IDX 20 12 8 13 7 14 6 15 5 16 4 17 3 18 2 19 1 20
REMARK H PARENT
REMARK Flexibility Score: inf
ROOT
ATOM      1  C   UNL     1       2.576   8.612  14.618  1.00  0.00    -0.031 C 
ATOM      2  C   UNL     1       1.755   9.535  15.138  1.00  0.00    -0.031 C 
ENDROOT
BRANCH   1   3
ATOM      3  C   UNL     1       2.096   7.224  14.278  1.00  0.00     0.027 C 
BRANCH   3   4
ATOM      4  C   UNL     1       0.562   7.132  14.254  1.00  0.00     0.004 C 
BRANCH   4   5
ATOM      5  C   UNL     1       0.044   5.939  15.076  1.00  0.00     0.000 C 
BRANCH   5   6
ATOM      6  C   UNL     1      -1.269   6.244  15.819  1.00  0.00     0.000 C 
BRANCH   6   7
ATOM      7  C   UNL     1      -1.336   7.632  16.485  1.00  0.00     0.000 C 
BRANCH   7   8
ATOM      8  C   UNL     1      -1.735   7.573  17.967  1.00  0.00     0.006 C 
BRANCH   8   9
ATOM      9  C   UNL     1      -2.196   8.945  18.468  1.00  0.00     0.053 C 
BRANCH   9  10
ATOM     10  C   UNL     1      -3.661   9.125  18.227  1.00  0.00     0.041 C 
ATOM     11  O   UNL     1      -4.069  10.030  17.453  1.00  0.00    -0.550 OA
ATOM     12  O   UNL     1      -4.576   8.268  18.827  1.00  0.00    -0.550 OA
ENDBRANCH   9  10
ENDBRANCH   8   9
ENDBRANCH   7   8
ENDBRANCH   6   7
ENDBRANCH   5   6
ENDBRANCH   4   5
ENDBRANCH   3   4
ENDBRANCH   1   3
BRANCH   2  13
ATOM     13  C   UNL     1       2.271  10.898  15.516  1.00  0.00     0.027 C 
BRANCH  13  14
ATOM     14  C   UNL     1       2.171  11.169  17.029  1.00  0.00     0.004 C 
BRANCH  14  15
ATOM     15  C   UNL     1       1.358  10.108  17.792  1.00  0.00     0.000 C 
BRANCH  15  16
ATOM     16  C   UNL     1       2.238   9.155  18.617  1.00  0.00     0.000 C 
BRANCH  16  17
ATOM     17  C   UNL     1       1.762   7.696  18.537  1.00  0.00    -0.000 C 
BRANCH  17  18
ATOM     18  C   UNL     1       2.789   6.778  17.853  1.00  0.00    -0.000 C 
BRANCH  18  19
ATOM     19  C   UNL     1       2.443   5.289  18.002  1.00  0.00    -0.003 C 
ATOM     20  C   UNL     1       1.042   5.065  18.570  1.00  0.00     0.004 C 
ENDBRANCH  18  19
ENDBRANCH  17  18
ENDBRANCH  16  17
ENDBRANCH  15  16
ENDBRANCH  14  15
ENDBRANCH  13  14
ENDBRANCH   2  13
TORSDOF 15
ENDMDL
MODEL 2
REMARK VINA RESULT:    -1.991      2.286      4.318
REMARK INTER + INTRA:          -6.701
REMARK INTER:                  -3.848
REMARK INTRA:                  -2.854
REMARK UNBOUND:                -2.964
REMARK SMILES CCCCCCCCC=CCCCCCCCC(=O)[O-]
REMARK SMILES IDX 10 1 9 2 11 3 12 4 13 5 14 6 15 7 16 8 17 9 18 10 19 11
REMARK SMILES IDX 20 12 8 13 7 14 6 15 5 16 4 17 3 18 2 19 1 20
REMARK H PARENT
REMARK Flexibility Score: inf
ROOT
ATOM      1  C   UNL     1       0.596   6.319  14.513  1.00  0.00    -0.031 C 
ATOM      2  C   UNL     1       0.126   5.445  15.414  1.00  0.00    -0.031 C 
ENDROOT
BRANCH   1   3
ATOM      3  C   UNL     1       2.068   6.426  14.203  1.00  0.00     0.027 C 
BRANCH   3   4
ATOM      4  C   UNL     1       2.673   7.743  14.714  1.00  0.00     0.004 C 
BRANCH   4   5
ATOM      5  C   UNL     1       1.597   8.820  14.943  1.00  0.00     0.000 C 
BRANCH   5   6
ATOM      6  C   UNL     1       2.188  10.196  15.297  1.00  0.00     0.000 C 
BRANCH   6   7
ATOM      7  C   UNL     1       2.416  10.442  16.801  1.00  0.00     0.000 C 
BRANCH   7   8
ATOM      8  C   UNL     1       1.854  11.788  17.285  1.00  0.00     0.006 C 
BRANCH   8   9
ATOM      9  C   UNL     1       0.936  11.597  18.495  1.00  0.00     0.053 C 
BRANCH   9  10
ATOM     10  C   UNL     1       0.312  12.898  18.889  1.00  0.00     0.041 C 
ATOM     11  O   UNL     1       0.178  13.819  18.041  1.00  0.00    -0.550 OA
ATOM     12  O   UNL     1      -0.158  13.082  20.184  1.00  0.00    -0.550 OA
ENDBRANCH   9  10
ENDBRANCH   8   9
ENDBRANCH   7   8
ENDBRANCH   6   7
ENDBRANCH   5   6
ENDBRANCH   4   5
ENDBRANCH   3   4
ENDBRANCH   1   3
BRANCH   2  13
ATOM     13  C   UNL     1      -1.342   5.392  15.741  1.00  0.00     0.027 C 
BRANCH  13  14
ATOM     14  C   UNL     1      -1.671   6.060  17.090  1.00  0.00     0.004 C 
BRANCH  14  15
ATOM     15  C   UNL     1      -1.734   7.596  17.017  1.00  0.00     0.000 C 
BRANCH  15  16
ATOM     16  C   UNL     1      -0.564   8.282  17.740  1.00  0.00     0.000 C 
BRANCH  16  17
ATOM     17  C   UNL     1       0.176   7.334  18.696  1.00  0.00    -0.000 C 
BRANCH  17  18
ATOM     18  C   UNL     1       1.674   7.213  18.363  1.00  0.00    -0.000 C 
BRANCH  18  19
ATOM     19  C   UNL     1       2.153   5.754  18.323  1.00  0.00    -0.003 C 
ATOM     20  C   UNL     1       3.511   5.600  17.637  1.00  0.00     0.004 C 
ENDBRANCH  18  19
ENDBRANCH  17  18
ENDBRANCH  16  17
ENDBRANCH  15  16
ENDBRANCH  14  15
ENDBRANCH  13  14
ENDBRANCH   2  13
TORSDOF 15
ENDMDL
MODEL 3
REMARK VINA RESULT:    -1.967      2.746      5.168
REMARK INTER + INTRA:          -6.656
REMARK INTER:                  -3.382
REMARK INTRA:                  -3.274
REMARK UNBOUND:                -2.964
REMARK SMILES CCCCCCCCC=CCCCCCCCC(=O)[O-]
REMARK SMILES IDX 10 1 9 2 11 3 12 4 13 5 14 6 15 7 16 8 17 9 18 10 19 11
REMARK SMILES IDX 20 12 8 13 7 14 6 15 5 16 4 17 3 18 2 19 1 20
REMARK H PARENT
REMARK Flexibility Score: inf
ROOT
ATOM      1  C   UNL     1      -0.811   4.222  18.291  1.00  0.00    -0.031 C 
ATOM      2  C   UNL     1       0.328   4.925  18.231  1.00  0.00    -0.031 C 
ENDROOT
BRANCH   1   3
ATOM      3  C   UNL     1      -1.563   3.822  17.047  1.00  0.00     0.027 C 
BRANCH   3   4
ATOM      4  C   UNL     1      -0.881   4.333  15.769  1.00  0.00     0.004 C 
BRANCH   4   5
ATOM      5  C   UNL     1      -1.573   5.590  15.211  1.00  0.00     0.000 C 
BRANCH   5   6
ATOM      6  C   UNL     1      -0.578   6.654  14.713  1.00  0.00     0.000 C 
BRANCH   6   7
ATOM      7  C   UNL     1       0.897   6.209  14.690  1.00  0.00     0.000 C 
BRANCH   7   8
ATOM      8  C   UNL     1       1.873   7.332  15.074  1.00  0.00     0.006 C 
BRANCH   8   9
ATOM      9  C   UNL     1       1.186   8.699  15.028  1.00  0.00     0.053 C 
BRANCH   9  10
ATOM     10  C   UNL     1       2.178   9.792  15.267  1.00  0.00     0.041 C 
ATOM     11  O   UNL     1       1.889  10.983  14.980  1.00  0.00    -0.550 OA
ATOM     12  O   UNL     1       3.408   9.502  15.846  1.00  0.00    -0.550 OA
ENDBRANCH   9  10
ENDBRANCH   8   9
ENDBRANCH   7   8
ENDBRANCH   6   7
ENDBRANCH   5   6
ENDBRANCH   4   5
ENDBRANCH   3   4
ENDBRANCH   1   3
BRANCH   2  13
ATOM     13  C   UNL     1       1.034   5.355  19.489  1.00  0.00     0.027 C 
BRANCH  13  14
ATOM     14  C   UNL     1       0.920   6.871  19.741  1.00  0.00     0.004 C 
BRANCH  14  15
ATOM     15  C   UNL     1       0.601   7.684  18.474  1.00  0.00     0.000 C 
BRANCH  15  16
ATOM     16  C   UNL     1      -0.629   8.591  18.634  1.00  0.00     0.000 C 
BRANCH  16  17
ATOM     17  C   UNL     1      -1.811   8.141  17.761  1.00  0.00    -0.000 C 
BRANCH  17  18
ATOM     18  C   UNL     1      -2.806   7.254  18.529  1.00  0.00    -0.000 C 
BRANCH  18  19
ATOM     19  C   UNL     1      -2.764   7.496  20.045  1.00  0.00    -0.003 C 
ATOM     20  C   UNL     1      -2.640   6.200  20.846  1.00  0.00     0.004 C 
ENDBRANCH  18  19
ENDBRANCH  17  18
ENDBRANCH  16  17
ENDBRANCH  15  16
ENDBRANCH  14  15
ENDBRANCH  13  14
ENDBRANCH   2  13
TORSDOF 15
ENDMDL
MODEL 4
REMARK VINA RESULT:    -1.930      1.380      2.558
REMARK INTER + INTRA:          -6.586
REMARK INTER:                  -3.971
REMARK INTRA:                  -2.615
REMARK UNBOUND:                -2.964
REMARK SMILES CCCCCCCCC=CCCCCCCCC(=O)[O-]
REMARK SMILES IDX 10 1 9 2 11 3 12 4 13 5 14 6 15 7 16 8 17 9 18 10 19 11
REMARK SMILES IDX 20 12 8 13 7 14 6 15 5 16 4 17 3 18 2 19 1 20
REMARK H PARENT
REMARK Flexibility Score: inf
ROOT
ATOM      1  C   UNL     1       0.167   7.757  15.156  1.00  0.00    -0.031 C 
ATOM      2  C   UNL     1       1.372   8.219  14.791  1.00  0.00    -0.031 C 
ENDROOT
BRANCH   1   3
ATOM      3  C   UNL     1      -0.260   6.340  14.868  1.00  0.00     0.027 C 
BRANCH   3   4
ATOM      4  C   UNL     1      -1.392   5.876  15.797  1.00  0.00     0.004 C 
BRANCH   4   5
ATOM      5  C   UNL     1      -1.112   6.234  17.268  1.00  0.00     0.000 C 
BRANCH   5   6
ATOM      6  C   UNL     1      -2.302   6.926  17.956  1.00  0.00     0.000 C 
BRANCH   6   7
ATOM      7  C   UNL     1      -2.450   8.430  17.650  1.00  0.00     0.000 C 
BRANCH   7   8
ATOM      8  C   UNL     1      -3.010   9.235  18.832  1.00  0.00     0.006 C 
BRANCH   8   9
ATOM      9  C   UNL     1      -3.796  10.455  18.344  1.00  0.00     0.053 C 
BRANCH   9  10
ATOM     10  C   UNL     1      -5.033  10.026  17.622  1.00  0.00     0.041 C 
ATOM     11  O   UNL     1      -5.291  10.486  16.479  1.00  0.00    -0.550 OA
ATOM     12  O   UNL     1      -5.883   9.087  18.194  1.00  0.00    -0.550 OA
ENDBRANCH   9  10
ENDBRANCH   8   9
ENDBRANCH   7   8
ENDBRANCH   6   7
ENDBRANCH   5   6
ENDBRANCH   4   5
ENDBRANCH   3   4
ENDBRANCH   1   3
BRANCH   2  13
ATOM     13  C   UNL     1       1.756   9.652  15.046  1.00  0.00     0.027 C 
BRANCH  13  14
ATOM     14  C   UNL     1       3.240   9.806  15.426  1.00  0.00     0.004 C 
BRANCH  14  15
ATOM     15  C   UNL     1       3.485  10.833  16.546  1.00  0.00     0.000 C 
BRANCH  15  16
ATOM     16  C   UNL     1       2.188  11.452  17.090  1.00  0.00     0.000 C 
BRANCH  16  17
ATOM     17  C   UNL     1       1.872  10.995  18.523  1.00  0.00    -0.000 C 
BRANCH  17  18
ATOM     18  C   UNL     1       0.639  10.077  18.589  1.00  0.00    -0.000 C 
BRANCH  18  19
ATOM     19  C   UNL     1       0.948   8.719  19.236  1.00  0.00    -0.003 C 
ATOM     20  C   UNL     1       2.017   7.934  18.477  1.00  0.00     0.004 C 
ENDBRANCH  18  19
ENDBRANCH  17  18
ENDBRANCH  16  17
ENDBRANCH  15  16
ENDBRANCH  14  15
ENDBRANCH  13  14
ENDBRANCH   2  13
TORSDOF 15
ENDMDL
MODEL 5
REMARK VINA RESULT:    -1.915      2.929      5.191
REMARK INTER + INTRA:          -6.559
REMARK INTER:                  -3.323
REMARK INTRA:                  -3.236
REMARK UNBOUND:                -2.964
REMARK SMILES CCCCCCCCC=CCCCCCCCC(=O)[O-]
REMARK SMILES IDX 10 1 9 2 11 3 12 4 13 5 14 6 15 7 16 8 17 9 18 10 19 11
REMARK SMILES IDX 20 12 8 13 7 14 6 15 5 16 4 17 3 18 2 19 1 20
REMARK H PARENT
REMARK Flexibility Score: inf
ROOT
ATOM      1  C   UNL     1       2.237   7.287  17.645  1.00  0.00    -0.031 C 
ATOM      2  C   UNL     1       1.309   6.595  18.321  1.00  0.00    -0.031 C 
ENDROOT
BRANCH   1   3
ATOM      3  C   UNL     1       3.591   6.704  17.334  1.00  0.00     0.027 C 
BRANCH   3   4
ATOM      4  C   UNL     1       4.310   7.474  16.215  1.00  0.00     0.004 C 
BRANCH   4   5
ATOM      5  C   UNL     1       3.384   7.742  15.015  1.00  0.00     0.000 C 
BRANCH   5   6
ATOM      6  C   UNL     1       3.328   9.228  14.619  1.00  0.00     0.000 C 
BRANCH   6   7
ATOM      7  C   UNL     1       2.026   9.958  15.003  1.00  0.00     0.000 C 
BRANCH   7   8
ATOM      8  C   UNL     1       2.252  11.127  15.974  1.00  0.00     0.006 C 
BRANCH   8   9
ATOM      9  C   UNL     1       3.679  11.113  16.530  1.00  0.00     0.053 C 
BRANCH   9  10
ATOM     10  C   UNL     1       3.658  11.082  18.025  1.00  0.00     0.041 C 
ATOM     11  O   UNL     1       3.090  12.003  18.669  1.00  0.00    -0.550 OA
ATOM     12  O   UNL     1       4.230  10.016  18.708  1.00  0.00    -0.550 OA
ENDBRANCH   9  10
ENDBRANCH   8   9
ENDBRANCH   7   8
ENDBRANCH   6   7
ENDBRANCH   5   6
ENDBRANCH   4   5
ENDBRANCH   3   4
ENDBRANCH   1   3
BRANCH   2  13
ATOM     13  C   UNL     1      -0.019   7.218  18.662  1.00  0.00     0.027 C 
BRANCH  13  14
ATOM     14  C   UNL     1      -0.460   8.270  17.627  1.00  0.00     0.004 C 
BRANCH  14  15
ATOM     15  C   UNL     1      -1.284   7.685  16.466  1.00  0.00     0.000 C 
BRANCH  15  16
ATOM     16  C   UNL     1      -0.550   7.745  15.117  1.00  0.00     0.000 C 
BRANCH  16  17
ATOM     17  C   UNL     1      -0.031   6.371  14.665  1.00  0.00    -0.000 C 
BRANCH  17  18
ATOM     18  C   UNL     1      -0.664   5.213  15.457  1.00  0.00    -0.000 C 
BRANCH  18  19
ATOM     19  C   UNL     1       0.358   4.135  15.844  1.00  0.00    -0.003 C 
ATOM     20  C   UNL     1       1.707   4.326  15.150  1.00  0.00     0.004 C 
ENDBRANCH  18  19
ENDBRANCH  17  18
ENDBRANCH  16  17
ENDBRANCH  15  16
ENDBRANCH  14  15
ENDBRANCH  13  14
ENDBRANCH   2  13
TORSDOF 15
ENDMDL
MODEL 6
REMARK VINA RESULT:    -1.873      2.770      5.517
REMARK INTER + INTRA:          -6.479
REMARK INTER:                  -3.573
REMARK INTRA:                  -2.907
REMARK UNBOUND:                -2.964
REMARK SMILES CCCCCCCCC=CCCCCCCCC(=O)[O-]
REMARK SMILES IDX 10 1 9 2 11 3 12 4 13 5 14 6 15 7 16 8 17 9 18 10 19 11
REMARK SMILES IDX 20 12 8 13 7 14 6 15 5 16 4 17 3 18 2 19 1 20
REMARK H PARENT
REMARK Flexibility Score: inf
ROOT
ATOM      1  C   UNL     1       0.494   6.103  18.261  1.00  0.00    -0.031 C 
ATOM      2  C   UNL     1      -0.065   7.317  18.154  1.00  0.00    -0.031 C 
ENDROOT
BRANCH   1   3
ATOM      3  C   UNL     1       1.596   5.822  19.249  1.00  0.00     0.027 C 
BRANCH   3   4
ATOM      4  C   UNL     1       2.749   5.025  18.619  1.00  0.00     0.004 C 
BRANCH   4   5
ATOM      5  C   UNL     1       2.810   5.210  17.093  1.00  0.00     0.000 C 
BRANCH   5   6
ATOM      6  C   UNL     1       2.811   3.877  16.324  1.00  0.00     0.000 C 
BRANCH   6   7
ATOM      7  C   UNL     1       1.601   3.658  15.394  1.00  0.00     0.000 C 
BRANCH   7   8
ATOM      8  C   UNL     1       0.729   2.463  15.807  1.00  0.00     0.006 C 
BRANCH   8   9
ATOM      9  C   UNL     1      -0.276   2.863  16.890  1.00  0.00     0.053 C 
BRANCH   9  10
ATOM     10  C   UNL     1      -1.673   2.588  16.435  1.00  0.00     0.041 C 
ATOM     11  O   UNL     1      -1.936   2.509  15.207  1.00  0.00    -0.550 OA
ATOM     12  O   UNL     1      -2.681   2.378  17.369  1.00  0.00    -0.550 OA
ENDBRANCH   9  10
ENDBRANCH   8   9
ENDBRANCH   7   8
ENDBRANCH   6   7
ENDBRANCH   5   6
ENDBRANCH   4   5
ENDBRANCH   3   4
ENDBRANCH   1   3
BRANCH   2  13
ATOM     13  C   UNL     1      -1.130   7.585  17.125  1.00  0.00     0.027 C 
BRANCH  13  14
ATOM     14  C   UNL     1      -1.527   6.320  16.341  1.00  0.00     0.004 C 
BRANCH  14  15
ATOM     15  C   UNL     1      -0.905   6.246  14.935  1.00  0.00     0.000 C 
BRANCH  15  16
ATOM     16  C   UNL     1      -0.054   7.478  14.588  1.00  0.00     0.000 C 
BRANCH  16  17
ATOM     17  C   UNL     1       1.401   7.113  14.251  1.00  0.00    -0.000 C 
BRANCH  17  18
ATOM     18  C   UNL     1       2.398   8.196  14.701  1.00  0.00    -0.000 C 
BRANCH  18  19
ATOM     19  C   UNL     1       1.723   9.330  15.486  1.00  0.00    -0.003 C 
ATOM     20  C   UNL     1       2.104  10.716  14.964  1.00  0.00     0.004 C 
ENDBRANCH  18  19
ENDBRANCH  17  18
ENDBRANCH  16  17
ENDBRANCH  15  16
ENDBRANCH  14  15
ENDBRANCH  13  14
ENDBRANCH   2  13
TORSDOF 15
ENDMDL
MODEL 7
REMARK VINA RESULT:    -1.871      2.659      5.507
REMARK INTER + INTRA:          -6.476
REMARK INTER:                  -3.619
REMARK INTRA:                  -2.858
REMARK UNBOUND:                -2.964
REMARK SMILES CCCCCCCCC=CCCCCCCCC(=O)[O-]
REMARK SMILES IDX 10 1 9 2 11 3 12 4 13 5 14 6 15 7 16 8 17 9 18 10 19 11
REMARK SMILES IDX 20 12 8 13 7 14 6 15 5 16 4 17 3 18 2 19 1 20
REMARK H PARENT
REMARK Flexibility Score: inf
ROOT
ATOM      1  C   UNL     1      -0.291   5.937  15.225  1.00  0.00    -0.031 C 
ATOM      2  C   UNL     1      -1.377   5.198  15.496  1.00  0.00    -0.031 C 
ENDROOT
BRANCH   1   3
ATOM      3  C   UNL     1      -0.397   7.297  14.585  1.00  0.00     0.027 C 
BRANCH   3   4
ATOM      4  C   UNL     1       0.672   8.269  15.110  1.00  0.00     0.004 C 
BRANCH   4   5
ATOM      5  C   UNL     1       1.759   7.543  15.923  1.00  0.00     0.000 C 
BRANCH   5   6
ATOM      6  C   UNL     1       3.141   7.580  15.247  1.00  0.00     0.000 C 
BRANCH   6   7
ATOM      7  C   UNL     1       3.326   8.692  14.196  1.00  0.00     0.000 C 
BRANCH   7   8
ATOM      8  C   UNL     1       4.023   9.942  14.754  1.00  0.00     0.006 C 
BRANCH   8   9
ATOM      9  C   UNL     1       3.010  11.049  15.056  1.00  0.00     0.053 C 
BRANCH   9  10
ATOM     10  C   UNL     1       2.730  11.115  16.524  1.00  0.00     0.041 C 
ATOM     11  O   UNL     1       1.778  11.817  16.956  1.00  0.00    -0.550 OA
ATOM     12  O   UNL     1       3.494  10.369  17.413  1.00  0.00    -0.550 OA
ENDBRANCH   9  10
ENDBRANCH   8   9
ENDBRANCH   7   8
ENDBRANCH   6   7
ENDBRANCH   5   6
ENDBRANCH   4   5
ENDBRANCH   3   4
ENDBRANCH   1   3
BRANCH   2  13
ATOM     13  C   UNL     1      -1.242   3.821  16.090  1.00  0.00     0.027 C 
BRANCH  13  14
ATOM     14  C   UNL     1       0.104   3.618  16.810  1.00  0.00     0.004 C 
BRANCH  14  15
ATOM     15  C   UNL     1       0.039   3.886  18.325  1.00  0.00     0.000 C 
BRANCH  15  16
ATOM     16  C   UNL     1       0.579   5.270  18.716  1.00  0.00     0.000 C 
BRANCH  16  17
ATOM     17  C   UNL     1      -0.494   6.159  19.365  1.00  0.00    -0.000 C 
BRANCH  17  18
ATOM     18  C   UNL     1      -0.640   7.518  18.657  1.00  0.00    -0.000 C 
BRANCH  18  19
ATOM     19  C   UNL     1      -2.034   7.716  18.043  1.00  0.00    -0.003 C 
ATOM     20  C   UNL     1      -3.029   6.642  18.482  1.00  0.00     0.004 C 
ENDBRANCH  18  19
ENDBRANCH  17  18
ENDBRANCH  16  17
ENDBRANCH  15  16
ENDBRANCH  14  15
ENDBRANCH  13  14
ENDBRANCH   2  13
TORSDOF 15
ENDMDL
MODEL 8
REMARK VINA RESULT:    -1.870      1.710      3.219
REMARK INTER + INTRA:          -6.474
REMARK INTER:                  -3.293
REMARK INTRA:                  -3.181
REMARK UNBOUND:                -2.964
REMARK SMILES CCCCCCCCC=CCCCCCCCC(=O)[O-]
REMARK SMILES IDX 10 1 9 2 11 3 12 4 13 5 14 6 15 7 16 8 17 9 18 10 19 11
REMARK SMILES IDX 20 12 8 13 7 14 6 15 5 16 4 17 3 18 2 19 1 20
REMARK H PARENT
REMARK Flexibility Score: inf
ROOT
ATOM      1  C   UNL     1      -1.285   5.747  15.387  1.00  0.00    -0.031 C 
ATOM      2  C   UNL     1      -0.136   6.311  14.988  1.00  0.00    -0.031 C 
ENDROOT
BRANCH   1   3
ATOM      3  C   UNL     1      -1.353   4.304  15.816  1.00  0.00     0.027 C 
BRANCH   3   4
ATOM      4  C   UNL     1      -1.854   4.153  17.261  1.00  0.00     0.004 C 
BRANCH   4   5
ATOM      5  C   UNL     1      -0.811   4.633  18.285  1.00  0.00     0.000 C 
BRANCH   5   6
ATOM      6  C   UNL     1      -1.218   5.938  18.993  1.00  0.00     0.000 C 
BRANCH   6   7
ATOM      7  C   UNL     1      -0.235   7.112  18.816  1.00  0.00     0.000 C 
BRANCH   7   8
ATOM      8  C   UNL     1      -0.863   8.326  18.114  1.00  0.00     0.006 C 
BRANCH   8   9
ATOM      9  C   UNL     1      -2.372   8.142  17.941  1.00  0.00     0.053 C 
BRANCH   9  10
ATOM     10  C   UNL     1      -3.120   9.115  18.796  1.00  0.00     0.041 C 
ATOM     11  O   UNL     1      -3.318   8.866  20.014  1.00  0.00    -0.550 OA
ATOM     12  O   UNL     1      -3.564  10.318  18.259  1.00  0.00    -0.550 OA
ENDBRANCH   9  10
ENDBRANCH   8   9
ENDBRANCH   7   8
ENDBRANCH   6   7
ENDBRANCH   5   6
ENDBRANCH   4   5
ENDBRANCH   3   4
ENDBRANCH   1   3
BRANCH   2  13
ATOM     13  C   UNL     1      -0.104   7.741  14.517  1.00  0.00     0.027 C 
BRANCH  13  14
ATOM     14  C   UNL     1       1.134   8.502  15.028  1.00  0.00     0.004 C 
BRANCH  14  15
ATOM     15  C   UNL     1       2.327   7.588  15.358  1.00  0.00     0.000 C 
BRANCH  15  16
ATOM     16  C   UNL     1       2.872   7.799  16.780  1.00  0.00     0.000 C 
BRANCH  16  17
ATOM     17  C   UNL     1       3.408   6.501  17.404  1.00  0.00    -0.000 C 
BRANCH  17  18
ATOM     18  C   UNL     1       2.501   5.291  17.118  1.00  0.00    -0.000 C 
BRANCH  18  19
ATOM     19  C   UNL     1       3.221   4.186  16.333  1.00  0.00    -0.003 C 
ATOM     20  C   UNL     1       2.428   3.718  15.113  1.00  0.00     0.004 C 
ENDBRANCH  18  19
ENDBRANCH  17  18
ENDBRANCH  16  17
ENDBRANCH  15  16
ENDBRANCH  14  15
ENDBRANCH  13  14
ENDBRANCH   2  13
TORSDOF 15
ENDMDL
MODEL 9
REMARK VINA RESULT:    -1.859      2.623      4.514
REMARK INTER + INTRA:          -6.454
REMARK INTER:                  -3.162
REMARK INTRA:                  -3.293
REMARK UNBOUND:                -2.964
REMARK SMILES CCCCCCCCC=CCCCCCCCC(=O)[O-]
REMARK SMILES IDX 10 1 9 2 11 3 12 4 13 5 14 6 15 7 16 8 17 9 18 10 19 11
REMARK SMILES IDX 20 12 8 13 7 14 6 15 5 16 4 17 3 18 2 19 1 20
REMARK H PARENT
REMARK Flexibility Score: inf
ROOT
ATOM      1  C   UNL     1      -0.483   8.434  17.899  1.00  0.00    -0.031 C 
ATOM      2  C   UNL     1       0.644   7.822  18.289  1.00  0.00    -0.031 C 
ENDROOT
BRANCH   1   3
ATOM      3  C   UNL     1      -1.521   7.728  17.065  1.00  0.00     0.027 C 
BRANCH   3   4
ATOM      4  C   UNL     1      -1.126   6.275  16.757  1.00  0.00     0.004 C 
BRANCH   4   5
ATOM      5  C   UNL     1      -0.823   6.066  15.263  1.00  0.00     0.000 C 
BRANCH   5   6
ATOM      6  C   UNL     1      -0.106   7.266  14.620  1.00  0.00     0.000 C 
BRANCH   6   7
ATOM      7  C   UNL     1       1.373   7.026  14.256  1.00  0.00     0.000 C 
BRANCH   7   8
ATOM      8  C   UNL     1       2.329   8.032  14.913  1.00  0.00     0.006 C 
BRANCH   8   9
ATOM      9  C   UNL     1       1.669   9.406  15.055  1.00  0.00     0.053 C 
BRANCH   9  10
ATOM     10  C   UNL     1       2.502  10.300  15.918  1.00  0.00     0.041 C 
ATOM     11  O   UNL     1       3.743  10.111  16.015  1.00  0.00    -0.550 OA
ATOM     12  O   UNL     1       1.915  11.369  16.585  1.00  0.00    -0.550 OA
ENDBRANCH   9  10
ENDBRANCH   8   9
ENDBRANCH   7   8
ENDBRANCH   6   7
ENDBRANCH   5   6
ENDBRANCH   4   5
ENDBRANCH   3   4
ENDBRANCH   1   3
BRANCH   2  13
ATOM     13  C   UNL     1       1.689   8.565  19.080  1.00  0.00     0.027 C 
BRANCH  13  14
ATOM     14  C   UNL     1       3.112   8.035  18.821  1.00  0.00     0.004 C 
BRANCH  14  15
ATOM     15  C   UNL     1       3.179   6.506  18.658  1.00  0.00     0.000 C 
BRANCH  15  16
ATOM     16  C   UNL     1       4.167   6.059  17.568  1.00  0.00     0.000 C 
BRANCH  16  17
ATOM     17  C   UNL     1       3.569   5.002  16.627  1.00  0.00    -0.000 C 
BRANCH  17  18
ATOM     18  C   UNL     1       2.125   4.627  17.004  1.00  0.00    -0.000 C 
BRANCH  18  19
ATOM     19  C   UNL     1       1.733   3.224  16.520  1.00  0.00    -0.003 C 
ATOM     20  C   UNL     1       1.641   3.131  14.997  1.00  0.00     0.004 C 
ENDBRANCH  18  19
ENDBRANCH  17  18
ENDBRANCH  16  17
ENDBRANCH  15  16
ENDBRANCH  14  15
ENDBRANCH  13  14
ENDBRANCH   2  13
TORSDOF 15
ENDMDL
