MODEL 1
REMARK VINA RESULT:    -5.916      0.000      0.000
REMARK INTER + INTRA:          -7.214
REMARK INTER:                  -6.954
REMARK INTRA:                  -0.260
REMARK UNBOUND:                -0.260
REMARK SMILES CCCC[C@@H]1OC(=O)C2=C1CCC=C2
REMARK SMILES IDX 3 1 2 2 1 3 4 4 5 5 10 6 6 7 9 8 11 9 7 10 14 11 12 12 8 13
REMARK SMILES IDX 13 14
REMARK H PARENT
REMARK Flexibility Score: inf
ROOT
ATOM      1  C   UNL     1      -0.956  -1.542  13.830  1.00  0.00     0.004 C 
ENDROOT
BRANCH   1   2
ATOM      2  C   UNL     1       0.059  -1.352  12.695  1.00  0.00    -0.003 C 
ATOM      3  C   UNL     1      -0.117  -2.416  11.615  1.00  0.00     0.004 C 
ENDBRANCH   1   2
BRANCH   1   4
ATOM      4  C   UNL     1      -2.151  -0.579  13.736  1.00  0.00     0.050 C 
BRANCH   4   5
ATOM      5  C   UNL     1      -3.510  -1.294  13.809  1.00  0.00     0.204 C 
ATOM      6  C   UNL     1      -4.632  -0.399  13.329  1.00  0.00    -0.015 C 
ATOM      7  O   UNL     1      -3.558  -2.385  12.885  1.00  0.00    -0.454 OA
ATOM      8  C   UNL     1      -5.247  -0.936  12.289  1.00  0.00     0.062 C 
ATOM      9  C   UNL     1      -5.226   0.773  14.065  1.00  0.00     0.040 C 
ATOM     10  C   UNL     1      -4.589  -2.179  11.985  1.00  0.00     0.338 C 
ATOM     11  C   UNL     1      -6.469  -0.367  11.705  1.00  0.00     0.011 C 
ATOM     12  C   UNL     1      -6.077   1.646  13.112  1.00  0.00     0.032 C 
ATOM     13  O   UNL     1      -4.898  -2.977  11.062  1.00  0.00    -0.246 OA
ATOM     14  C   UNL     1      -6.902   0.823  12.143  1.00  0.00    -0.026 C 
ENDBRANCH   4   5
ENDBRANCH   1   4
TORSDOF 3
ENDMDL
MODEL 2
REMARK VINA RESULT:    -5.895      1.321      2.014
REMARK INTER + INTRA:          -7.189
REMARK INTER:                  -6.700
REMARK INTRA:                  -0.489
REMARK UNBOUND:                -0.260
REMARK SMILES CCCC[C@@H]1OC(=O)C2=C1CCC=C2
REMARK SMILES IDX 3 1 2 2 1 3 4 4 5 5 10 6 6 7 9 8 11 9 7 10 14 11 12 12 8 13
REMARK SMILES IDX 13 14
REMARK H PARENT
REMARK Flexibility Score: inf
ROOT
ATOM      1  C   UNL     1      -1.587  -1.861  11.463  1.00  0.00     0.004 C 
ENDROOT
BRANCH   1   2
ATOM      2  C   UNL     1      -1.501  -2.533  12.840  1.00  0.00    -0.003 C 
ATOM      3  C   UNL     1      -0.823  -1.620  13.857  1.00  0.00     0.004 C 
ENDBRANCH   1   2
BRANCH   1   4
ATOM      4  C   UNL     1      -3.021  -1.802  10.911  1.00  0.00     0.050 C 
BRANCH   4   5
ATOM      5  C   UNL     1      -4.094  -1.813  12.013  1.00  0.00     0.204 C 
ATOM      6  C   UNL     1      -4.651  -0.428  12.256  1.00  0.00    -0.015 C 
ATOM      7  O   UNL     1      -5.246  -2.550  11.592  1.00  0.00    -0.454 OA
ATOM      8  C   UNL     1      -5.954  -0.401  12.028  1.00  0.00     0.062 C 
ATOM      9  C   UNL     1      -3.961   0.711  12.959  1.00  0.00     0.040 C 
ATOM     10  C   UNL     1      -6.351  -1.717  11.603  1.00  0.00     0.338 C 
ATOM     11  C   UNL     1      -6.790   0.769  12.324  1.00  0.00     0.011 C 
ATOM     12  C   UNL     1      -4.688   2.048  12.685  1.00  0.00     0.032 C 
ATOM     13  O   UNL     1      -7.518  -2.080  11.301  1.00  0.00    -0.246 OA
ATOM     14  C   UNL     1      -6.197   1.909  12.703  1.00  0.00    -0.026 C 
ENDBRANCH   4   5
ENDBRANCH   1   4
TORSDOF 3
ENDMDL
MODEL 3
REMARK VINA RESULT:    -5.892      2.287      4.494
REMARK INTER + INTRA:          -7.185
REMARK INTER:                  -6.737
REMARK INTRA:                  -0.448
REMARK UNBOUND:                -0.260
REMARK SMILES CCCC[C@@H]1OC(=O)C2=C1CCC=C2
REMARK SMILES IDX 3 1 2 2 1 3 4 4 5 5 10 6 6 7 9 8 11 9 7 10 14 11 12 12 8 13
REMARK SMILES IDX 13 14
REMARK H PARENT
REMARK Flexibility Score: inf
ROOT
ATOM      1  C   UNL     1      -4.449   1.070  12.165  1.00  0.00     0.004 C 
ENDROOT
BRANCH   1   2
ATOM      2  C   UNL     1      -5.545   0.875  13.221  1.00  0.00    -0.003 C 
ATOM      3  C   UNL     1      -6.917   1.245  12.666  1.00  0.00     0.004 C 
ENDBRANCH   1   2
BRANCH   1   4
ATOM      4  C   UNL     1      -3.599  -0.192  11.939  1.00  0.00     0.050 C 
BRANCH   4   5
ATOM      5  C   UNL     1      -4.424  -1.489  11.971  1.00  0.00     0.204 C 
ATOM      6  C   UNL     1      -4.719  -1.992  10.575  1.00  0.00    -0.015 C 
ATOM      7  O   UNL     1      -3.663  -2.560  12.539  1.00  0.00    -0.454 OA
ATOM      8  C   UNL     1      -4.214  -3.200  10.395  1.00  0.00     0.062 C 
ATOM      9  C   UNL     1      -5.704  -1.408   9.597  1.00  0.00     0.040 C 
ATOM     10  C   UNL     1      -3.540  -3.577  11.609  1.00  0.00     0.338 C 
ATOM     11  C   UNL     1      -4.470  -4.000   9.191  1.00  0.00     0.011 C 
ATOM     12  C   UNL     1      -5.457  -1.957   8.172  1.00  0.00     0.032 C 
ATOM     13  O   UNL     1      -2.941  -4.664  11.819  1.00  0.00    -0.246 OA
ATOM     14  C   UNL     1      -5.120  -3.435   8.164  1.00  0.00    -0.026 C 
ENDBRANCH   4   5
ENDBRANCH   1   4
TORSDOF 3
ENDMDL
MODEL 4
REMARK VINA RESULT:    -5.889      1.333      4.645
REMARK INTER + INTRA:          -7.182
REMARK INTER:                  -6.732
REMARK INTRA:                  -0.449
REMARK UNBOUND:                -0.260
REMARK SMILES CCCC[C@@H]1OC(=O)C2=C1CCC=C2
REMARK SMILES IDX 3 1 2 2 1 3 4 4 5 5 10 6 6 7 9 8 11 9 7 10 14 11 12 12 8 13
REMARK SMILES IDX 13 14
REMARK H PARENT
REMARK Flexibility Score: inf
ROOT
ATOM      1  C   UNL     1      -6.697  -0.011  11.587  1.00  0.00     0.004 C 
ENDROOT
BRANCH   1   2
ATOM      2  C   UNL     1      -6.776   1.017  12.724  1.00  0.00    -0.003 C 
ATOM      3  C   UNL     1      -5.826   2.186  12.475  1.00  0.00     0.004 C 
ENDBRANCH   1   2
BRANCH   1   4
ATOM      4  C   UNL     1      -5.985  -1.310  12.000  1.00  0.00     0.050 C 
BRANCH   4   5
ATOM      5  C   UNL     1      -4.658  -1.535  11.256  1.00  0.00     0.204 C 
ATOM      6  C   UNL     1      -3.470  -1.335  12.171  1.00  0.00    -0.015 C 
ATOM      7  O   UNL     1      -4.525  -2.902  10.857  1.00  0.00    -0.454 OA
ATOM      8  C   UNL     1      -2.749  -2.441  12.250  1.00  0.00     0.062 C 
ATOM      9  C   UNL     1      -2.941  -0.024  12.688  1.00  0.00     0.040 C 
ATOM     10  C   UNL     1      -3.393  -3.442  11.441  1.00  0.00     0.338 C 
ATOM     11  C   UNL     1      -1.457  -2.502  12.946  1.00  0.00     0.011 C 
ATOM     12  C   UNL     1      -1.968  -0.250  13.869  1.00  0.00     0.032 C 
ATOM     13  O   UNL     1      -2.996  -4.623  11.265  1.00  0.00    -0.246 OA
ATOM     14  C   UNL     1      -1.053  -1.440  13.655  1.00  0.00    -0.026 C 
ENDBRANCH   4   5
ENDBRANCH   1   4
TORSDOF 3
ENDMDL
MODEL 5
REMARK VINA RESULT:    -5.877      1.968      4.991
REMARK INTER + INTRA:          -7.167
REMARK INTER:                  -6.774
REMARK INTRA:                  -0.393
REMARK UNBOUND:                -0.260
REMARK SMILES CCCC[C@@H]1OC(=O)C2=C1CCC=C2
REMARK SMILES IDX 3 1 2 2 1 3 4 4 5 5 10 6 6 7 9 8 11 9 7 10 14 11 12 12 8 13
REMARK SMILES IDX 13 14
REMARK H PARENT
REMARK Flexibility Score: inf
ROOT
ATOM      1  C   UNL     1      -5.868  -2.072   9.744  1.00  0.00     0.004 C 
ENDROOT
BRANCH   1   2
ATOM      2  C   UNL     1      -5.138  -2.799   8.607  1.00  0.00    -0.003 C 
ATOM      3  C   UNL     1      -4.875  -4.258   8.966  1.00  0.00     0.004 C 
ENDBRANCH   1   2
BRANCH   1   4
ATOM      4  C   UNL     1      -4.920  -1.270  10.652  1.00  0.00     0.050 C 
BRANCH   4   5
ATOM      5  C   UNL     1      -4.456  -2.059  11.887  1.00  0.00     0.204 C 
ATOM      6  C   UNL     1      -2.958  -1.966  12.072  1.00  0.00    -0.015 C 
ATOM      7  O   UNL     1      -4.961  -1.465  13.087  1.00  0.00    -0.454 OA
ATOM      8  C   UNL     1      -2.663  -1.417  13.238  1.00  0.00     0.062 C 
ATOM      9  C   UNL     1      -1.904  -2.660  11.251  1.00  0.00     0.040 C 
ATOM     10  C   UNL     1      -3.901  -1.087  13.892  1.00  0.00     0.338 C 
ATOM     11  C   UNL     1      -1.291  -1.334  13.755  1.00  0.00     0.011 C 
ATOM     12  C   UNL     1      -0.511  -2.035  11.501  1.00  0.00     0.032 C 
ATOM     13  O   UNL     1      -4.024  -0.553  15.026  1.00  0.00    -0.246 OA
ATOM     14  C   UNL     1      -0.276  -1.692  12.958  1.00  0.00    -0.026 C 
ENDBRANCH   4   5
ENDBRANCH   1   4
TORSDOF 3
ENDMDL
MODEL 6
REMARK VINA RESULT:    -5.874      2.014      3.747
REMARK INTER + INTRA:          -7.165
REMARK INTER:                  -6.729
REMARK INTRA:                  -0.436
REMARK UNBOUND:                -0.260
REMARK SMILES CCCC[C@@H]1OC(=O)C2=C1CCC=C2
REMARK SMILES IDX 3 1 2 2 1 3 4 4 5 5 10 6 6 7 9 8 11 9 7 10 14 11 12 12 8 13
REMARK SMILES IDX 13 14
REMARK H PARENT
REMARK Flexibility Score: inf
ROOT
ATOM      1  C   UNL     1      -3.638  -3.823   9.698  1.00  0.00     0.004 C 
ENDROOT
BRANCH   1   2
ATOM      2  C   UNL     1      -4.871  -4.122   8.835  1.00  0.00    -0.003 C 
ATOM      3  C   UNL     1      -5.170  -2.967   7.883  1.00  0.00     0.004 C 
ENDBRANCH   1   2
BRANCH   1   4
ATOM      4  C   UNL     1      -3.997  -3.338  11.112  1.00  0.00     0.050 C 
BRANCH   4   5
ATOM      5  C   UNL     1      -3.502  -1.912  11.405  1.00  0.00     0.204 C 
ATOM      6  C   UNL     1      -4.657  -0.957  11.613  1.00  0.00    -0.015 C 
ATOM      7  O   UNL     1      -2.818  -1.861  12.661  1.00  0.00    -0.454 OA
ATOM      8  C   UNL     1      -4.608  -0.419  12.820  1.00  0.00     0.062 C 
ATOM      9  C   UNL     1      -5.573  -0.406  10.552  1.00  0.00     0.040 C 
ATOM     10  C   UNL     1      -3.469  -0.974  13.501  1.00  0.00     0.338 C 
ATOM     11  C   UNL     1      -5.513   0.655  13.250  1.00  0.00     0.011 C 
ATOM     12  C   UNL     1      -6.834   0.226  11.188  1.00  0.00     0.032 C 
ATOM     13  O   UNL     1      -3.094  -0.697  14.670  1.00  0.00    -0.246 OA
ATOM     14  C   UNL     1      -6.525   1.009  12.448  1.00  0.00    -0.026 C 
ENDBRANCH   4   5
ENDBRANCH   1   4
TORSDOF 3
ENDMDL
MODEL 7
REMARK VINA RESULT:    -5.830      2.698      4.361
REMARK INTER + INTRA:          -7.112
REMARK INTER:                  -6.522
REMARK INTRA:                  -0.590
REMARK UNBOUND:                -0.260
REMARK SMILES CCCC[C@@H]1OC(=O)C2=C1CCC=C2
REMARK SMILES IDX 3 1 2 2 1 3 4 4 5 5 10 6 6 7 9 8 11 9 7 10 14 11 12 12 8 13
REMARK SMILES IDX 13 14
REMARK H PARENT
REMARK Flexibility Score: inf
ROOT
ATOM      1  C   UNL     1      -4.964  -4.034   9.049  1.00  0.00     0.004 C 
ENDROOT
BRANCH   1   2
ATOM      2  C   UNL     1      -4.886  -3.105   7.829  1.00  0.00    -0.003 C 
ATOM      3  C   UNL     1      -6.039  -2.106   7.823  1.00  0.00     0.004 C 
ENDBRANCH   1   2
BRANCH   1   4
ATOM      4  C   UNL     1      -3.785  -3.853  10.019  1.00  0.00     0.050 C 
BRANCH   4   5
ATOM      5  C   UNL     1      -4.152  -3.041  11.272  1.00  0.00     0.204 C 
ATOM      6  C   UNL     1      -3.776  -1.584  11.117  1.00  0.00    -0.015 C 
ATOM      7  O   UNL     1      -5.572  -2.985  11.441  1.00  0.00    -0.454 OA
ATOM      8  C   UNL     1      -4.844  -0.811  11.216  1.00  0.00     0.062 C 
ATOM      9  C   UNL     1      -2.388  -1.002  11.165  1.00  0.00     0.040 C 
ATOM     10  C   UNL     1      -5.985  -1.665  11.413  1.00  0.00     0.338 C 
ATOM     11  C   UNL     1      -4.765   0.655  11.255  1.00  0.00     0.011 C 
ATOM     12  C   UNL     1      -2.375   0.439  10.604  1.00  0.00     0.032 C 
ATOM     13  O   UNL     1      -7.178  -1.289  11.556  1.00  0.00    -0.246 OA
ATOM     14  C   UNL     1      -3.584   1.246  11.035  1.00  0.00    -0.026 C 
ENDBRANCH   4   5
ENDBRANCH   1   4
TORSDOF 3
ENDMDL
MODEL 8
REMARK VINA RESULT:    -5.797      1.881      4.772
REMARK INTER + INTRA:          -7.073
REMARK INTER:                  -6.499
REMARK INTRA:                  -0.574
REMARK UNBOUND:                -0.260
REMARK SMILES CCCC[C@@H]1OC(=O)C2=C1CCC=C2
REMARK SMILES IDX 3 1 2 2 1 3 4 4 5 5 10 6 6 7 9 8 11 9 7 10 14 11 12 12 8 13
REMARK SMILES IDX 13 14
REMARK H PARENT
REMARK Flexibility Score: inf
ROOT
ATOM      1  C   UNL     1      -6.767   0.880  12.641  1.00  0.00     0.004 C 
ENDROOT
BRANCH   1   2
ATOM      2  C   UNL     1      -6.009   2.131  12.175  1.00  0.00    -0.003 C 
ATOM      3  C   UNL     1      -4.907   2.506  13.162  1.00  0.00     0.004 C 
ENDBRANCH   1   2
BRANCH   1   4
ATOM      4  C   UNL     1      -6.709  -0.272  11.624  1.00  0.00     0.050 C 
BRANCH   4   5
ATOM      5  C   UNL     1      -5.652  -1.333  11.972  1.00  0.00     0.204 C 
ATOM      6  C   UNL     1      -4.379  -1.125  11.182  1.00  0.00    -0.015 C 
ATOM      7  O   UNL     1      -5.213  -1.185  13.326  1.00  0.00    -0.454 OA
ATOM      8  C   UNL     1      -3.354  -0.917  11.992  1.00  0.00     0.062 C 
ATOM      9  C   UNL     1      -4.168  -1.416   9.720  1.00  0.00     0.040 C 
ATOM     10  C   UNL     1      -3.851  -0.943  13.342  1.00  0.00     0.338 C 
ATOM     11  C   UNL     1      -1.968  -0.833  11.516  1.00  0.00     0.011 C 
ATOM     12  C   UNL     1      -2.878  -0.737   9.204  1.00  0.00     0.032 C 
ATOM     13  O   UNL     1      -3.168  -0.789  14.388  1.00  0.00    -0.246 OA
ATOM     14  C   UNL     1      -1.736  -0.817  10.197  1.00  0.00    -0.026 C 
ENDBRANCH   4   5
ENDBRANCH   1   4
TORSDOF 3
ENDMDL
MODEL 9
REMARK VINA RESULT:    -5.784      2.048      4.637
REMARK INTER + INTRA:          -7.059
REMARK INTER:                  -6.377
REMARK INTRA:                  -0.682
REMARK UNBOUND:                -0.260
REMARK SMILES CCCC[C@@H]1OC(=O)C2=C1CCC=C2
REMARK SMILES IDX 3 1 2 2 1 3 4 4 5 5 10 6 6 7 9 8 11 9 7 10 14 11 12 12 8 13
REMARK SMILES IDX 13 14
REMARK H PARENT
REMARK Flexibility Score: inf
ROOT
ATOM      1  C   UNL     1      -4.224   0.764  10.795  1.00  0.00     0.004 C 
ENDROOT
BRANCH   1   2
ATOM      2  C   UNL     1      -3.032   1.189   9.927  1.00  0.00    -0.003 C 
ATOM      3  C   UNL     1      -1.877   1.696  10.787  1.00  0.00     0.004 C 
ENDBRANCH   1   2
BRANCH   1   4
ATOM      4  C   UNL     1      -4.654  -0.693  10.555  1.00  0.00     0.050 C 
BRANCH   4   5
ATOM      5  C   UNL     1      -4.293  -1.629  11.720  1.00  0.00     0.204 C 
ATOM      6  C   UNL     1      -2.802  -1.649  11.973  1.00  0.00    -0.015 C 
ATOM      7  O   UNL     1      -4.817  -1.128  12.954  1.00  0.00    -0.454 OA
ATOM      8  C   UNL     1      -2.529  -1.240  13.200  1.00  0.00     0.062 C 
ATOM      9  C   UNL     1      -1.754  -2.323  11.127  1.00  0.00     0.040 C 
ATOM     10  C   UNL     1      -3.775  -0.899  13.835  1.00  0.00     0.338 C 
ATOM     11  C   UNL     1      -1.180  -1.295  13.777  1.00  0.00     0.011 C 
ATOM     12  C   UNL     1      -0.340  -1.815  11.495  1.00  0.00     0.032 C 
ATOM     13  O   UNL     1      -3.918  -0.476  15.011  1.00  0.00    -0.246 OA
ATOM     14  C   UNL     1      -0.152  -1.635  12.988  1.00  0.00    -0.026 C 
ENDBRANCH   4   5
ENDBRANCH   1   4
TORSDOF 3
ENDMDL
