MODEL 1
REMARK VINA RESULT:    -3.576      0.000      0.000
REMARK INTER + INTRA:          -5.372
REMARK INTER:                  -5.040
REMARK INTRA:                  -0.332
REMARK UNBOUND:                -0.332
REMARK SMILES CCCCCCCCC(=O)[O-]
REMARK SMILES IDX 6 1 7 2 8 3 9 4 10 5 11 6 5 7 4 8 3 9 2 10 1 11
REMARK H PARENT
REMARK Flexibility Score: inf
ROOT
ATOM      1  C   UNL     1      57.817  28.664  50.699  1.00  0.00     0.000 C 
ENDROOT
BRANCH   1   2
ATOM      2  C   UNL     1      58.786  28.376  49.543  1.00  0.00     0.006 C 
BRANCH   2   3
ATOM      3  C   UNL     1      60.183  27.980  50.041  1.00  0.00     0.053 C 
BRANCH   3   4
ATOM      4  C   UNL     1      60.393  26.498  49.980  1.00  0.00     0.041 C 
ATOM      5  O   UNL     1      59.448  25.736  49.646  1.00  0.00    -0.550 OA
ATOM      6  O   UNL     1      61.644  25.961  50.260  1.00  0.00    -0.550 OA
ENDBRANCH   3   4
ENDBRANCH   2   3
ENDBRANCH   1   2
BRANCH   1   7
ATOM      7  C   UNL     1      56.680  27.632  50.731  1.00  0.00     0.000 C 
BRANCH   7   8
ATOM      8  C   UNL     1      55.289  28.277  50.610  1.00  0.00    -0.000 C 
BRANCH   8   9
ATOM      9  C   UNL     1      54.184  27.249  50.324  1.00  0.00    -0.000 C 
BRANCH   9  10
ATOM     10  C   UNL     1      54.785  25.881  49.979  1.00  0.00    -0.003 C 
ATOM     11  C   UNL     1      53.714  24.923  49.463  1.00  0.00     0.004 C 
ENDBRANCH   9  10
ENDBRANCH   8   9
ENDBRANCH   7   8
ENDBRANCH   1   7
TORSDOF 7
ENDMDL
MODEL 2
REMARK VINA RESULT:    -3.421      3.329      5.509
REMARK INTER + INTRA:          -5.153
REMARK INTER:                  -4.488
REMARK INTRA:                  -0.666
REMARK UNBOUND:                -0.332
REMARK SMILES CCCCCCCCC(=O)[O-]
REMARK SMILES IDX 6 1 7 2 8 3 9 4 10 5 11 6 5 7 4 8 3 9 2 10 1 11
REMARK H PARENT
REMARK Flexibility Score: inf
ROOT
ATOM      1  C   UNL     1      57.103  25.350  51.067  1.00  0.00     0.000 C 
ENDROOT
BRANCH   1   2
ATOM      2  C   UNL     1      55.860  25.801  50.287  1.00  0.00     0.006 C 
BRANCH   2   3
ATOM      3  C   UNL     1      55.433  27.230  50.649  1.00  0.00     0.053 C 
BRANCH   3   4
ATOM      4  C   UNL     1      54.033  27.521  50.202  1.00  0.00     0.041 C 
ATOM      5  O   UNL     1      53.306  26.597  49.752  1.00  0.00    -0.550 OA
ATOM      6  O   UNL     1      53.521  28.808  50.313  1.00  0.00    -0.550 OA
ENDBRANCH   3   4
ENDBRANCH   2   3
ENDBRANCH   1   2
BRANCH   1   7
ATOM      7  C   UNL     1      58.336  25.299  50.152  1.00  0.00     0.000 C 
BRANCH   7   8
ATOM      8  C   UNL     1      59.448  26.262  50.600  1.00  0.00    -0.000 C 
BRANCH   8   9
ATOM      9  C   UNL     1      59.797  27.303  49.525  1.00  0.00    -0.000 C 
BRANCH   9  10
ATOM     10  C   UNL     1      58.810  28.476  49.558  1.00  0.00    -0.003 C 
ATOM     11  C   UNL     1      58.667  29.037  50.971  1.00  0.00     0.004 C 
ENDBRANCH   9  10
ENDBRANCH   8   9
ENDBRANCH   7   8
ENDBRANCH   1   7
TORSDOF 7
ENDMDL
MODEL 3
REMARK VINA RESULT:    -3.386     12.236     13.582
REMARK INTER + INTRA:          -5.104
REMARK INTER:                  -4.482
REMARK INTRA:                  -0.621
REMARK UNBOUND:                -0.332
REMARK SMILES CCCCCCCCC(=O)[O-]
REMARK SMILES IDX 6 1 7 2 8 3 9 4 10 5 11 6 5 7 4 8 3 9 2 10 1 11
REMARK H PARENT
REMARK Flexibility Score: inf
ROOT
ATOM      1  C   UNL     1      61.022  32.660  59.871  1.00  0.00     0.000 C 
ENDROOT
BRANCH   1   2
ATOM      2  C   UNL     1      61.424  31.658  60.965  1.00  0.00     0.006 C 
BRANCH   2   3
ATOM      3  C   UNL     1      62.903  31.259  60.870  1.00  0.00     0.053 C 
BRANCH   3   4
ATOM      4  C   UNL     1      63.146  29.895  61.442  1.00  0.00     0.041 C 
ATOM      5  O   UNL     1      62.213  29.271  62.013  1.00  0.00    -0.550 OA
ATOM      6  O   UNL     1      64.395  29.301  61.315  1.00  0.00    -0.550 OA
ENDBRANCH   3   4
ENDBRANCH   2   3
ENDBRANCH   1   2
BRANCH   1   7
ATOM      7  C   UNL     1      60.019  33.689  60.413  1.00  0.00     0.000 C 
BRANCH   7   8
ATOM      8  C   UNL     1      60.605  35.109  60.483  1.00  0.00    -0.000 C 
BRANCH   8   9
ATOM      9  C   UNL     1      62.086  35.158  60.079  1.00  0.00    -0.000 C 
BRANCH   9  10
ATOM     10  C   UNL     1      62.961  35.597  61.259  1.00  0.00    -0.003 C 
ATOM     11  C   UNL     1      64.196  34.710  61.391  1.00  0.00     0.004 C 
ENDBRANCH   9  10
ENDBRANCH   8   9
ENDBRANCH   7   8
ENDBRANCH   1   7
TORSDOF 7
ENDMDL
MODEL 4
REMARK VINA RESULT:    -3.384      1.129      1.788
REMARK INTER + INTRA:          -5.101
REMARK INTER:                  -4.598
REMARK INTRA:                  -0.504
REMARK UNBOUND:                -0.332
REMARK SMILES CCCCCCCCC(=O)[O-]
REMARK SMILES IDX 6 1 7 2 8 3 9 4 10 5 11 6 5 7 4 8 3 9 2 10 1 11
REMARK H PARENT
REMARK Flexibility Score: inf
ROOT
ATOM      1  C   UNL     1      58.340  28.594  51.402  1.00  0.00     0.000 C 
ENDROOT
BRANCH   1   2
ATOM      2  C   UNL     1      58.431  28.516  49.871  1.00  0.00     0.006 C 
BRANCH   2   3
ATOM      3  C   UNL     1      59.575  27.608  49.402  1.00  0.00     0.053 C 
BRANCH   3   4
ATOM      4  C   UNL     1      59.449  26.224  49.961  1.00  0.00     0.041 C 
ATOM      5  O   UNL     1      60.426  25.683  50.544  1.00  0.00    -0.550 OA
ATOM      6  O   UNL     1      58.242  25.543  49.867  1.00  0.00    -0.550 OA
ENDBRANCH   3   4
ENDBRANCH   2   3
ENDBRANCH   1   2
BRANCH   1   7
ATOM      7  C   UNL     1      56.896  28.377  51.878  1.00  0.00     0.000 C 
BRANCH   7   8
ATOM      8  C   UNL     1      55.906  28.215  50.713  1.00  0.00    -0.000 C 
BRANCH   8   9
ATOM      9  C   UNL     1      55.170  26.867  50.745  1.00  0.00    -0.000 C 
BRANCH   9  10
ATOM     10  C   UNL     1      53.798  26.977  50.069  1.00  0.00    -0.003 C 
ATOM     11  C   UNL     1      53.211  28.376  50.236  1.00  0.00     0.004 C 
ENDBRANCH   9  10
ENDBRANCH   8   9
ENDBRANCH   7   8
ENDBRANCH   1   7
TORSDOF 7
ENDMDL
MODEL 5
REMARK VINA RESULT:    -3.376      1.500      3.097
REMARK INTER + INTRA:          -5.090
REMARK INTER:                  -4.518
REMARK INTRA:                  -0.573
REMARK UNBOUND:                -0.332
REMARK SMILES CCCCCCCCC(=O)[O-]
REMARK SMILES IDX 6 1 7 2 8 3 9 4 10 5 11 6 5 7 4 8 3 9 2 10 1 11
REMARK H PARENT
REMARK Flexibility Score: inf
ROOT
ATOM      1  C   UNL     1      55.593  25.535  50.840  1.00  0.00     0.000 C 
ENDROOT
BRANCH   1   2
ATOM      2  C   UNL     1      57.026  25.842  50.379  1.00  0.00     0.006 C 
BRANCH   2   3
ATOM      3  C   UNL     1      57.414  27.307  50.625  1.00  0.00     0.053 C 
BRANCH   3   4
ATOM      4  C   UNL     1      58.614  27.704  49.821  1.00  0.00     0.041 C 
ATOM      5  O   UNL     1      58.748  28.893  49.426  1.00  0.00    -0.550 OA
ATOM      6  O   UNL     1      59.601  26.769  49.536  1.00  0.00    -0.550 OA
ENDBRANCH   3   4
ENDBRANCH   2   3
ENDBRANCH   1   2
BRANCH   1   7
ATOM      7  C   UNL     1      54.672  25.279  49.638  1.00  0.00     0.000 C 
BRANCH   7   8
ATOM      8  C   UNL     1      53.211  25.667  49.916  1.00  0.00    -0.000 C 
BRANCH   8   9
ATOM      9  C   UNL     1      53.089  26.872  50.861  1.00  0.00    -0.000 C 
BRANCH   9  10
ATOM     10  C   UNL     1      53.235  28.189  50.090  1.00  0.00    -0.003 C 
ATOM     11  C   UNL     1      54.194  29.140  50.801  1.00  0.00     0.004 C 
ENDBRANCH   9  10
ENDBRANCH   8   9
ENDBRANCH   7   8
ENDBRANCH   1   7
TORSDOF 7
ENDMDL
MODEL 6
REMARK VINA RESULT:    -3.365      3.154      5.386
REMARK INTER + INTRA:          -5.074
REMARK INTER:                  -4.660
REMARK INTRA:                  -0.414
REMARK UNBOUND:                -0.332
REMARK SMILES CCCCCCCCC(=O)[O-]
REMARK SMILES IDX 6 1 7 2 8 3 9 4 10 5 11 6 5 7 4 8 3 9 2 10 1 11
REMARK H PARENT
REMARK Flexibility Score: inf
ROOT
ATOM      1  C   UNL     1      55.819  27.956  51.282  1.00  0.00     0.000 C 
ENDROOT
BRANCH   1   2
ATOM      2  C   UNL     1      54.825  27.263  50.338  1.00  0.00     0.006 C 
BRANCH   2   3
ATOM      3  C   UNL     1      55.181  25.789  50.101  1.00  0.00     0.053 C 
BRANCH   3   4
ATOM      4  C   UNL     1      53.955  24.944  49.930  1.00  0.00     0.041 C 
ATOM      5  O   UNL     1      53.669  24.063  50.783  1.00  0.00    -0.550 OA
ATOM      6  O   UNL     1      53.113  25.152  48.845  1.00  0.00    -0.550 OA
ENDBRANCH   3   4
ENDBRANCH   2   3
ENDBRANCH   1   2
BRANCH   1   7
ATOM      7  C   UNL     1      57.260  27.517  50.980  1.00  0.00     0.000 C 
BRANCH   7   8
ATOM      8  C   UNL     1      58.046  28.568  50.180  1.00  0.00    -0.000 C 
BRANCH   8   9
ATOM      9  C   UNL     1      59.233  27.963  49.416  1.00  0.00    -0.000 C 
BRANCH   9  10
ATOM     10  C   UNL     1      59.415  26.482  49.772  1.00  0.00    -0.003 C 
ATOM     11  C   UNL     1      60.866  26.176  50.133  1.00  0.00     0.004 C 
ENDBRANCH   9  10
ENDBRANCH   8   9
ENDBRANCH   7   8
ENDBRANCH   1   7
TORSDOF 7
ENDMDL
MODEL 7
REMARK VINA RESULT:    -3.292      1.718      2.559
REMARK INTER + INTRA:          -4.972
REMARK INTER:                  -4.516
REMARK INTRA:                  -0.456
REMARK UNBOUND:                -0.332
REMARK SMILES CCCCCCCCC(=O)[O-]
REMARK SMILES IDX 6 1 7 2 8 3 9 4 10 5 11 6 5 7 4 8 3 9 2 10 1 11
REMARK H PARENT
REMARK Flexibility Score: inf
ROOT
ATOM      1  C   UNL     1      59.701  27.584  49.655  1.00  0.00     0.000 C 
ENDROOT
BRANCH   1   2
ATOM      2  C   UNL     1      59.317  26.098  49.722  1.00  0.00     0.006 C 
BRANCH   2   3
ATOM      3  C   UNL     1      60.435  25.235  50.321  1.00  0.00     0.053 C 
BRANCH   3   4
ATOM      4  C   UNL     1      59.937  23.879  50.718  1.00  0.00     0.041 C 
ATOM      5  O   UNL     1      60.477  22.843  50.249  1.00  0.00    -0.550 OA
ATOM      6  O   UNL     1      58.897  23.761  51.631  1.00  0.00    -0.550 OA
ENDBRANCH   3   4
ENDBRANCH   2   3
ENDBRANCH   1   2
BRANCH   1   7
ATOM      7  C   UNL     1      58.471  28.479  49.872  1.00  0.00     0.000 C 
BRANCH   7   8
ATOM      8  C   UNL     1      57.464  27.874  50.863  1.00  0.00    -0.000 C 
BRANCH   8   9
ATOM      9  C   UNL     1      56.015  28.280  50.556  1.00  0.00    -0.000 C 
BRANCH   9  10
ATOM     10  C   UNL     1      55.062  27.094  50.746  1.00  0.00    -0.003 C 
ATOM     11  C   UNL     1      55.673  25.804  50.205  1.00  0.00     0.004 C 
ENDBRANCH   9  10
ENDBRANCH   8   9
ENDBRANCH   7   8
ENDBRANCH   1   7
TORSDOF 7
ENDMDL
MODEL 8
REMARK VINA RESULT:    -3.255      3.475      5.485
REMARK INTER + INTRA:          -4.920
REMARK INTER:                  -4.588
REMARK INTRA:                  -0.332
REMARK UNBOUND:                -0.332
REMARK SMILES CCCCCCCCC(=O)[O-]
REMARK SMILES IDX 6 1 7 2 8 3 9 4 10 5 11 6 5 7 4 8 3 9 2 10 1 11
REMARK H PARENT
REMARK Flexibility Score: inf
ROOT
ATOM      1  C   UNL     1      57.322  27.888  51.018  1.00  0.00     0.000 C 
ENDROOT
BRANCH   1   2
ATOM      2  C   UNL     1      55.850  28.224  50.738  1.00  0.00     0.006 C 
BRANCH   2   3
ATOM      3  C   UNL     1      54.973  26.967  50.658  1.00  0.00     0.053 C 
BRANCH   3   4
ATOM      4  C   UNL     1      53.638  27.262  50.044  1.00  0.00     0.041 C 
ATOM      5  O   UNL     1      53.215  28.446  49.983  1.00  0.00    -0.550 OA
ATOM      6  O   UNL     1      52.876  26.230  49.510  1.00  0.00    -0.550 OA
ENDBRANCH   3   4
ENDBRANCH   2   3
ENDBRANCH   1   2
BRANCH   1   7
ATOM      7  C   UNL     1      58.245  28.572  49.998  1.00  0.00     0.000 C 
BRANCH   7   8
ATOM      8  C   UNL     1      59.414  27.676  49.560  1.00  0.00    -0.000 C 
BRANCH   8   9
ATOM      9  C   UNL     1      59.116  26.181  49.750  1.00  0.00    -0.000 C 
BRANCH   9  10
ATOM     10  C   UNL     1      60.351  25.439  50.273  1.00  0.00    -0.003 C 
ATOM     11  C   UNL     1      60.006  24.006  50.671  1.00  0.00     0.004 C 
ENDBRANCH   9  10
ENDBRANCH   8   9
ENDBRANCH   7   8
ENDBRANCH   1   7
TORSDOF 7
ENDMDL
