MODEL 1
REMARK VINA RESULT:    -4.080      0.000      0.000
REMARK INTER + INTRA:          -4.199
REMARK INTER:                  -4.199
REMARK INTRA:                   0.000
REMARK UNBOUND:                 0.000
REMARK SMILES Oc1ccc2[nH]ccc2c1
REMARK SMILES IDX 3 1 4 2 5 3 9 4 8 5 7 6 6 7 10 8 2 9 1 11
REMARK H PARENT 6 10 1 12
REMARK Flexibility Score: inf
ROOT
ATOM      1  C   UNL     1       4.807  -7.750  30.708  1.00  0.00     0.048 A 
ATOM      2  C   UNL     1       5.509  -8.316  29.629  1.00  0.00     0.030 A 
ATOM      3  C   UNL     1       4.775  -8.998  28.661  1.00  0.00     0.046 A 
ATOM      4  C   UNL     1       3.414  -9.121  28.744  1.00  0.00     0.003 A 
ATOM      5  C   UNL     1       2.998  -9.840  27.645  1.00  0.00     0.028 A 
ATOM      6  C   UNL     1       4.160 -10.125  26.935  1.00  0.00     0.083 A 
ATOM      7  N   UNL     1       5.243  -9.609  27.559  1.00  0.00    -0.361 N 
ATOM      8  C   UNL     1       2.688  -8.572  29.798  1.00  0.00     0.056 A 
ATOM      9  C   UNL     1       3.401  -7.875  30.797  1.00  0.00     0.116 A 
ATOM     10  H   UNL     1       6.237  -9.672  27.246  1.00  0.00     0.166 HD
ENDROOT
BRANCH   9  11
ATOM     11  O   UNL     1       2.730  -7.305  31.875  1.00  0.00    -0.508 OA
ATOM     12  H   UNL     1       2.229  -7.874  32.547  1.00  0.00     0.293 HD
ENDBRANCH   9  11
TORSDOF 1
ENDMDL
MODEL 2
REMARK VINA RESULT:    -4.068      1.481      2.179
REMARK INTER + INTRA:          -4.187
REMARK INTER:                  -4.187
REMARK INTRA:                   0.000
REMARK UNBOUND:                 0.000
REMARK SMILES Oc1ccc2[nH]ccc2c1
REMARK SMILES IDX 3 1 4 2 5 3 9 4 8 5 7 6 6 7 10 8 2 9 1 11
REMARK H PARENT 6 10 1 12
REMARK Flexibility Score: inf
ROOT
ATOM      1  C   UNL     1       3.527  -7.666  31.139  1.00  0.00     0.048 A 
ATOM      2  C   UNL     1       2.552  -8.330  30.374  1.00  0.00     0.030 A 
ATOM      3  C   UNL     1       2.967  -8.985  29.217  1.00  0.00     0.046 A 
ATOM      4  C   UNL     1       4.280  -8.993  28.826  1.00  0.00     0.003 A 
ATOM      5  C   UNL     1       4.357  -9.719  27.658  1.00  0.00     0.028 A 
ATOM      6  C   UNL     1       3.052 -10.124  27.395  1.00  0.00     0.083 A 
ATOM      7  N   UNL     1       2.207  -9.674  28.350  1.00  0.00    -0.361 N 
ATOM      8  C   UNL     1       5.271  -8.345  29.560  1.00  0.00     0.056 A 
ATOM      9  C   UNL     1       4.884  -7.671  30.738  1.00  0.00     0.116 A 
ATOM     10  H   UNL     1       1.176  -9.832  28.400  1.00  0.00     0.166 HD
ENDROOT
BRANCH   9  11
ATOM     11  O   UNL     1       5.830  -7.006  31.513  1.00  0.00    -0.508 OA
ATOM     12  H   UNL     1       6.007  -7.271  32.474  1.00  0.00     0.293 HD
ENDBRANCH   9  11
TORSDOF 1
ENDMDL
MODEL 3
REMARK VINA RESULT:    -3.843      2.600      4.107
REMARK INTER + INTRA:          -3.955
REMARK INTER:                  -3.955
REMARK INTRA:                   0.000
REMARK UNBOUND:                 0.000
REMARK SMILES Oc1ccc2[nH]ccc2c1
REMARK SMILES IDX 3 1 4 2 5 3 9 4 8 5 7 6 6 7 10 8 2 9 1 11
REMARK H PARENT 6 10 1 12
REMARK Flexibility Score: inf
ROOT
ATOM      1  C   UNL     1       2.630  -9.633  28.432  1.00  0.00     0.048 A 
ATOM      2  C   UNL     1       2.086  -8.998  29.563  1.00  0.00     0.030 A 
ATOM      3  C   UNL     1       2.939  -8.227  30.350  1.00  0.00     0.046 A 
ATOM      4  C   UNL     1       4.266  -8.082  30.044  1.00  0.00     0.003 A 
ATOM      5  C   UNL     1       4.824  -7.268  31.005  1.00  0.00     0.028 A 
ATOM      6  C   UNL     1       3.778  -6.954  31.867  1.00  0.00     0.083 A 
ATOM      7  N   UNL     1       2.628  -7.542  31.463  1.00  0.00    -0.361 N 
ATOM      8  C   UNL     1       4.837  -8.697  28.931  1.00  0.00     0.056 A 
ATOM      9  C   UNL     1       4.000  -9.486  28.113  1.00  0.00     0.116 A 
ATOM     10  H   UNL     1       1.694  -7.474  31.923  1.00  0.00     0.166 HD
ENDROOT
BRANCH   9  11
ATOM     11  O   UNL     1       4.514 -10.125  26.988  1.00  0.00    -0.508 OA
ATOM     12  H   UNL     1       4.669 -11.126  26.972  1.00  0.00     0.293 HD
ENDBRANCH   9  11
TORSDOF 1
ENDMDL
MODEL 4
REMARK VINA RESULT:    -3.802      2.209      2.804
REMARK INTER + INTRA:          -3.913
REMARK INTER:                  -3.913
REMARK INTRA:                   0.000
REMARK UNBOUND:                 0.000
REMARK SMILES Oc1ccc2[nH]ccc2c1
REMARK SMILES IDX 3 1 4 2 5 3 9 4 8 5 7 6 6 7 10 8 2 9 1 11
REMARK H PARENT 6 10 1 12
REMARK Flexibility Score: inf
ROOT
ATOM      1  C   UNL     1       5.259  -7.511  30.751  1.00  0.00     0.048 A 
ATOM      2  C   UNL     1       3.906  -7.836  30.958  1.00  0.00     0.030 A 
ATOM      3  C   UNL     1       3.284  -8.661  30.023  1.00  0.00     0.046 A 
ATOM      4  C   UNL     1       3.955  -9.147  28.933  1.00  0.00     0.003 A 
ATOM      5  C   UNL     1       3.070  -9.920  28.215  1.00  0.00     0.028 A 
ATOM      6  C   UNL     1       1.875  -9.860  28.926  1.00  0.00     0.083 A 
ATOM      7  N   UNL     1       2.011  -9.090  30.030  1.00  0.00    -0.361 N 
ATOM      8  C   UNL     1       5.295  -8.845  28.698  1.00  0.00     0.056 A 
ATOM      9  C   UNL     1       5.955  -8.011  29.626  1.00  0.00     0.116 A 
ATOM     10  H   UNL     1       1.276  -8.876  30.740  1.00  0.00     0.166 HD
ENDROOT
BRANCH   9  11
ATOM     11  O   UNL     1       7.294  -7.674  29.444  1.00  0.00    -0.508 OA
ATOM     12  H   UNL     1       7.623  -7.263  28.579  1.00  0.00     0.293 HD
ENDBRANCH   9  11
TORSDOF 1
ENDMDL
MODEL 5
REMARK VINA RESULT:    -3.747      1.447      1.954
REMARK INTER + INTRA:          -3.857
REMARK INTER:                  -3.857
REMARK INTRA:                   0.000
REMARK UNBOUND:                 0.000
REMARK SMILES Oc1ccc2[nH]ccc2c1
REMARK SMILES IDX 3 1 4 2 5 3 9 4 8 5 7 6 6 7 10 8 2 9 1 11
REMARK H PARENT 6 10 1 12
REMARK Flexibility Score: inf
ROOT
ATOM      1  C   UNL     1       5.925  -8.444  29.370  1.00  0.00     0.048 A 
ATOM      2  C   UNL     1       5.299  -9.217  28.375  1.00  0.00     0.030 A 
ATOM      3  C   UNL     1       3.921  -9.406  28.469  1.00  0.00     0.046 A 
ATOM      4  C   UNL     1       3.188  -8.862  29.489  1.00  0.00     0.003 A 
ATOM      5  C   UNL     1       1.875  -9.229  29.294  1.00  0.00     0.028 A 
ATOM      6  C   UNL     1       1.881  -9.999  28.134  1.00  0.00     0.083 A 
ATOM      7  N   UNL     1       3.133 -10.104  27.634  1.00  0.00    -0.361 N 
ATOM      8  C   UNL     1       3.776  -8.091  30.490  1.00  0.00     0.056 A 
ATOM      9  C   UNL     1       5.171  -7.881  30.425  1.00  0.00     0.116 A 
ATOM     10  H   UNL     1       3.424 -10.620  26.774  1.00  0.00     0.166 HD
ENDROOT
BRANCH   9  11
ATOM     11  O   UNL     1       5.814  -7.119  31.397  1.00  0.00    -0.508 OA
ATOM     12  H   UNL     1       5.306  -6.462  31.976  1.00  0.00     0.293 HD
ENDBRANCH   9  11
TORSDOF 1
ENDMDL
MODEL 6
REMARK VINA RESULT:    -3.344      2.209      3.413
REMARK INTER + INTRA:          -3.442
REMARK INTER:                  -3.442
REMARK INTRA:                   0.000
REMARK UNBOUND:                 0.000
REMARK SMILES Oc1ccc2[nH]ccc2c1
REMARK SMILES IDX 3 1 4 2 5 3 9 4 8 5 7 6 6 7 10 8 2 9 1 11
REMARK H PARENT 6 10 1 12
REMARK Flexibility Score: inf
ROOT
ATOM      1  C   UNL     1       2.223  -8.762  29.882  1.00  0.00     0.048 A 
ATOM      2  C   UNL     1       3.068  -8.038  30.742  1.00  0.00     0.030 A 
ATOM      3  C   UNL     1       4.425  -7.988  30.431  1.00  0.00     0.046 A 
ATOM      4  C   UNL     1       4.934  -8.619  29.327  1.00  0.00     0.003 A 
ATOM      5  C   UNL     1       6.290  -8.378  29.305  1.00  0.00     0.028 A 
ATOM      6  C   UNL     1       6.539  -7.594  30.427  1.00  0.00     0.083 A 
ATOM      7  N   UNL     1       5.397  -7.358  31.112  1.00  0.00    -0.361 N 
ATOM      8  C   UNL     1       4.126  -9.344  28.455  1.00  0.00     0.056 A 
ATOM      9  C   UNL     1       2.745  -9.415  28.741  1.00  0.00     0.116 A 
ATOM     10  H   UNL     1       5.295  -6.800  31.989  1.00  0.00     0.166 HD
ENDROOT
BRANCH   9  11
ATOM     11  O   UNL     1       1.888 -10.125  27.905  1.00  0.00    -0.508 OA
ATOM     12  H   UNL     1       1.965 -10.069  26.897  1.00  0.00     0.293 HD
ENDBRANCH   9  11
TORSDOF 1
ENDMDL
MODEL 7
REMARK VINA RESULT:    -2.078      2.868      3.875
REMARK INTER + INTRA:          -2.138
REMARK INTER:                  -2.138
REMARK INTRA:                   0.000
REMARK UNBOUND:                 0.000
REMARK SMILES Oc1ccc2[nH]ccc2c1
REMARK SMILES IDX 3 1 4 2 5 3 9 4 8 5 7 6 6 7 10 8 2 9 1 11
REMARK H PARENT 6 10 1 12
REMARK Flexibility Score: inf
ROOT
ATOM      1  C   UNL     1       5.037  -9.645  26.618  1.00  0.00     0.048 A 
ATOM      2  C   UNL     1       5.191  -9.293  27.972  1.00  0.00     0.030 A 
ATOM      3  C   UNL     1       4.038  -9.082  28.725  1.00  0.00     0.046 A 
ATOM      4  C   UNL     1       2.788  -9.210  28.179  1.00  0.00     0.003 A 
ATOM      5  C   UNL     1       1.875  -8.940  29.174  1.00  0.00     0.028 A 
ATOM      6  C   UNL     1       2.639  -8.654  30.302  1.00  0.00     0.083 A 
ATOM      7  N   UNL     1       3.960  -8.743  30.023  1.00  0.00    -0.361 N 
ATOM      8  C   UNL     1       2.600  -9.556  26.843  1.00  0.00     0.056 A 
ATOM      9  C   UNL     1       3.748  -9.776  26.051  1.00  0.00     0.116 A 
ATOM     10  H   UNL     1       4.753  -8.581  30.682  1.00  0.00     0.166 HD
ENDROOT
BRANCH   9  11
ATOM     11  O   UNL     1       3.622 -10.125  24.709  1.00  0.00    -0.508 OA
ATOM     12  H   UNL     1       3.052 -10.909  24.418  1.00  0.00     0.293 HD
ENDBRANCH   9  11
TORSDOF 1
ENDMDL
