MODEL 1
REMARK VINA RESULT:    -6.213      0.000      0.000
REMARK INTER + INTRA:          -7.486
REMARK INTER:                  -7.303
REMARK INTRA:                  -0.183
REMARK UNBOUND:                -0.183
REMARK SMILES O=c1c(O)c(-c2ccc(O)cc2)oc2cc(O)cc(O)c12
REMARK SMILES IDX 5 1 3 2 2 3 1 4 21 5 19 6 18 7 16 8 15 9 14 10 13 11 6 12
REMARK SMILES IDX 7 13 8 14 9 15 12 16 11 17 10 18 4 20 20 22 17 24
REMARK H PARENT 10 19 4 21 20 23 17 25
REMARK Flexibility Score: inf
ROOT
ATOM      1  C   UNL     1       9.918  30.412  -1.639  1.00  0.00     0.180 A 
ATOM      2  C   UNL     1       9.237  31.346  -2.441  1.00  0.00     0.208 A 
ATOM      3  C   UNL     1       9.735  31.634  -3.722  1.00  0.00     0.238 A 
ATOM      4  O   UNL     1       9.091  32.429  -4.455  1.00  0.00    -0.285 OA
ATOM      5  C   UNL     1      10.915  30.999  -4.178  1.00  0.00     0.111 A 
ATOM      6  C   UNL     1      11.531  31.247  -5.443  1.00  0.00     0.134 A 
ATOM      7  C   UNL     1      12.622  30.465  -5.843  1.00  0.00     0.093 A 
ATOM      8  C   UNL     1      13.160  29.490  -4.999  1.00  0.00     0.123 A 
ATOM      9  C   UNL     1      12.602  29.283  -3.739  1.00  0.00     0.094 A 
ATOM     10  C   UNL     1      11.490  30.022  -3.325  1.00  0.00     0.146 A 
ATOM     11  O   UNL     1      10.984  29.784  -2.122  1.00  0.00    -0.452 OA
ENDROOT
BRANCH   1  12
ATOM     12  C   UNL     1       9.469  30.074  -0.270  1.00  0.00     0.021 A 
ATOM     13  C   UNL     1       9.515  31.020   0.772  1.00  0.00     0.016 A 
ATOM     14  C   UNL     1       9.108  30.670   2.063  1.00  0.00     0.047 A 
ATOM     15  C   UNL     1       8.665  29.373   2.335  1.00  0.00     0.115 A 
ATOM     16  C   UNL     1       9.041  28.767   0.016  1.00  0.00     0.016 A 
ATOM     17  C   UNL     1       8.635  28.420   1.308  1.00  0.00     0.047 A 
BRANCH  15  18
ATOM     18  O   UNL     1       8.261  29.040   3.626  1.00  0.00    -0.508 OA
ATOM     19  H   UNL     1       8.693  28.277   4.134  1.00  0.00     0.293 HD
ENDBRANCH  15  18
ENDBRANCH   1  12
BRANCH   2  20
ATOM     20  O   UNL     1       8.062  31.944  -1.979  1.00  0.00    -0.502 OA
ATOM     21  H   UNL     1       8.034  32.514  -1.143  1.00  0.00     0.293 HD
ENDBRANCH   2  20
BRANCH   6  22
ATOM     22  O   UNL     1      11.130  32.257  -6.322  1.00  0.00    -0.507 OA
ATOM     23  H   UNL     1      11.409  32.320  -7.289  1.00  0.00     0.293 HD
ENDBRANCH   6  22
BRANCH   8  24
ATOM     24  O   UNL     1      14.255  28.729  -5.400  1.00  0.00    -0.508 OA
ATOM     25  H   UNL     1      14.176  28.026  -6.125  1.00  0.00     0.293 HD
ENDBRANCH   8  24
TORSDOF 5
ENDMDL
MODEL 2
REMARK VINA RESULT:    -6.157      1.538      3.420
REMARK INTER + INTRA:          -7.420
REMARK INTER:                  -7.525
REMARK INTRA:                   0.105
REMARK UNBOUND:                -0.183
REMARK SMILES O=c1c(O)c(-c2ccc(O)cc2)oc2cc(O)cc(O)c12
REMARK SMILES IDX 5 1 3 2 2 3 1 4 21 5 19 6 18 7 16 8 15 9 14 10 13 11 6 12
REMARK SMILES IDX 7 13 8 14 9 15 12 16 11 17 10 18 4 20 20 22 17 24
REMARK H PARENT 10 19 4 21 20 23 17 25
REMARK Flexibility Score: inf
ROOT
ATOM      1  C   UNL     1      10.642  29.465  -2.321  1.00  0.00     0.180 A 
ATOM      2  C   UNL     1      11.889  29.062  -2.832  1.00  0.00     0.208 A 
ATOM      3  C   UNL     1      12.384  29.684  -3.989  1.00  0.00     0.238 A 
ATOM      4  O   UNL     1      13.525  29.357  -4.410  1.00  0.00    -0.285 OA
ATOM      5  C   UNL     1      11.620  30.688  -4.631  1.00  0.00     0.111 A 
ATOM      6  C   UNL     1      12.007  31.357  -5.832  1.00  0.00     0.134 A 
ATOM      7  C   UNL     1      11.236  32.426  -6.305  1.00  0.00     0.093 A 
ATOM      8  C   UNL     1      10.058  32.807  -5.658  1.00  0.00     0.123 A 
ATOM      9  C   UNL     1       9.641  32.122  -4.519  1.00  0.00     0.094 A 
ATOM     10  C   UNL     1      10.409  31.075  -4.001  1.00  0.00     0.146 A 
ATOM     11  O   UNL     1       9.981  30.456  -2.907  1.00  0.00    -0.452 OA
ENDROOT
BRANCH   1  12
ATOM     12  C   UNL     1      10.043  28.840  -1.120  1.00  0.00     0.021 A 
ATOM     13  C   UNL     1      10.077  27.446  -0.925  1.00  0.00     0.016 A 
ATOM     14  C   UNL     1       9.483  26.877   0.206  1.00  0.00     0.047 A 
ATOM     15  C   UNL     1       8.837  27.686   1.145  1.00  0.00     0.115 A 
ATOM     16  C   UNL     1       9.375  29.644  -0.181  1.00  0.00     0.016 A 
ATOM     17  C   UNL     1       8.783  29.072   0.948  1.00  0.00     0.047 A 
BRANCH  15  18
ATOM     18  O   UNL     1       8.251  27.104   2.267  1.00  0.00    -0.508 OA
ATOM     19  H   UNL     1       8.047  26.112   2.303  1.00  0.00     0.293 HD
ENDBRANCH  15  18
ENDBRANCH   1  12
BRANCH   2  20
ATOM     20  O   UNL     1      12.637  28.084  -2.170  1.00  0.00    -0.502 OA
ATOM     21  H   UNL     1      12.884  27.203  -2.603  1.00  0.00     0.293 HD
ENDBRANCH   2  20
BRANCH   6  22
ATOM     22  O   UNL     1      13.114  30.995  -6.605  1.00  0.00    -0.507 OA
ATOM     23  H   UNL     1      13.418  30.047  -6.764  1.00  0.00     0.293 HD
ENDBRANCH   6  22
BRANCH   8  24
ATOM     24  O   UNL     1       9.289  33.861  -6.145  1.00  0.00    -0.508 OA
ATOM     25  H   UNL     1       8.319  33.735  -6.406  1.00  0.00     0.293 HD
ENDBRANCH   8  24
TORSDOF 5
ENDMDL
MODEL 3
REMARK VINA RESULT:    -6.063      1.761      2.669
REMARK INTER + INTRA:          -7.310
REMARK INTER:                  -7.044
REMARK INTRA:                  -0.266
REMARK UNBOUND:                -0.183
REMARK SMILES O=c1c(O)c(-c2ccc(O)cc2)oc2cc(O)cc(O)c12
REMARK SMILES IDX 5 1 3 2 2 3 1 4 21 5 19 6 18 7 16 8 15 9 14 10 13 11 6 12
REMARK SMILES IDX 7 13 8 14 9 15 12 16 11 17 10 18 4 20 20 22 17 24
REMARK H PARENT 10 19 4 21 20 23 17 25
REMARK Flexibility Score: inf
ROOT
ATOM      1  C   UNL     1      10.279  30.022  -2.166  1.00  0.00     0.180 A 
ATOM      2  C   UNL     1      11.615  30.446  -2.278  1.00  0.00     0.208 A 
ATOM      3  C   UNL     1      12.171  30.617  -3.556  1.00  0.00     0.238 A 
ATOM      4  O   UNL     1      13.349  31.049  -3.650  1.00  0.00    -0.285 OA
ATOM      5  C   UNL     1      11.390  30.344  -4.705  1.00  0.00     0.111 A 
ATOM      6  C   UNL     1      11.864  30.444  -6.049  1.00  0.00     0.134 A 
ATOM      7  C   UNL     1      10.966  30.279  -7.111  1.00  0.00     0.093 A 
ATOM      8  C   UNL     1       9.627  29.952  -6.879  1.00  0.00     0.123 A 
ATOM      9  C   UNL     1       9.170  29.794  -5.574  1.00  0.00     0.094 A 
ATOM     10  C   UNL     1      10.033  29.989  -4.491  1.00  0.00     0.146 A 
ATOM     11  O   UNL     1       9.553  29.840  -3.263  1.00  0.00    -0.452 OA
ENDROOT
BRANCH   1  12
ATOM     12  C   UNL     1       9.631  29.797  -0.854  1.00  0.00     0.021 A 
ATOM     13  C   UNL     1       9.105  30.865  -0.103  1.00  0.00     0.016 A 
ATOM     14  C   UNL     1       8.519  30.631   1.144  1.00  0.00     0.047 A 
ATOM     15  C   UNL     1       8.463  29.334   1.664  1.00  0.00     0.115 A 
ATOM     16  C   UNL     1       9.589  28.500  -0.316  1.00  0.00     0.016 A 
ATOM     17  C   UNL     1       9.002  28.268   0.931  1.00  0.00     0.047 A 
BRANCH  15  18
ATOM     18  O   UNL     1       7.875  29.116   2.908  1.00  0.00    -0.508 OA
ATOM     19  H   UNL     1       8.309  28.518   3.600  1.00  0.00     0.293 HD
ENDBRANCH  15  18
ENDBRANCH   1  12
BRANCH   2  20
ATOM     20  O   UNL     1      12.361  30.731  -1.131  1.00  0.00    -0.502 OA
ATOM     21  H   UNL     1      12.457  31.669  -0.763  1.00  0.00     0.293 HD
ENDBRANCH   2  20
BRANCH   6  22
ATOM     22  O   UNL     1      13.200  30.675  -6.391  1.00  0.00    -0.507 OA
ATOM     23  H   UNL     1      13.547  31.527  -6.805  1.00  0.00     0.293 HD
ENDBRANCH   6  22
BRANCH   8  24
ATOM     24  O   UNL     1       8.746  29.774  -7.943  1.00  0.00    -0.508 OA
ATOM     25  H   UNL     1       7.751  29.936  -7.841  1.00  0.00     0.293 HD
ENDBRANCH   8  24
TORSDOF 5
ENDMDL
MODEL 4
REMARK VINA RESULT:    -5.828      1.867      2.730
REMARK INTER + INTRA:          -7.033
REMARK INTER:                  -6.780
REMARK INTRA:                  -0.253
REMARK UNBOUND:                -0.183
REMARK SMILES O=c1c(O)c(-c2ccc(O)cc2)oc2cc(O)cc(O)c12
REMARK SMILES IDX 5 1 3 2 2 3 1 4 21 5 19 6 18 7 16 8 15 9 14 10 13 11 6 12
REMARK SMILES IDX 7 13 8 14 9 15 12 16 11 17 10 18 4 20 20 22 17 24
REMARK H PARENT 10 19 4 21 20 23 17 25
REMARK Flexibility Score: inf
ROOT
ATOM      1  C   UNL     1      10.693  29.571  -3.749  1.00  0.00     0.180 A 
ATOM      2  C   UNL     1       9.822  29.714  -4.844  1.00  0.00     0.208 A 
ATOM      3  C   UNL     1      10.366  29.859  -6.130  1.00  0.00     0.238 A 
ATOM      4  O   UNL     1       9.582  29.933  -7.112  1.00  0.00    -0.285 OA
ATOM      5  C   UNL     1      11.770  29.876  -6.304  1.00  0.00     0.111 A 
ATOM      6  C   UNL     1      12.429  30.058  -7.558  1.00  0.00     0.134 A 
ATOM      7  C   UNL     1      13.822  29.926  -7.631  1.00  0.00     0.093 A 
ATOM      8  C   UNL     1      14.584  29.683  -6.485  1.00  0.00     0.123 A 
ATOM      9  C   UNL     1      13.955  29.564  -5.249  1.00  0.00     0.094 A 
ATOM     10  C   UNL     1      12.564  29.655  -5.149  1.00  0.00     0.146 A 
ATOM     11  O   UNL     1      12.004  29.523  -3.952  1.00  0.00    -0.452 OA
ENDROOT
BRANCH   1  12
ATOM     12  C   UNL     1      10.197  29.437  -2.360  1.00  0.00     0.021 A 
ATOM     13  C   UNL     1      10.114  28.182  -1.728  1.00  0.00     0.016 A 
ATOM     14  C   UNL     1       9.619  28.078  -0.425  1.00  0.00     0.047 A 
ATOM     15  C   UNL     1       9.189  29.219   0.259  1.00  0.00     0.115 A 
ATOM     16  C   UNL     1       9.744  30.576  -1.674  1.00  0.00     0.016 A 
ATOM     17  C   UNL     1       9.250  30.469  -0.370  1.00  0.00     0.047 A 
BRANCH  15  18
ATOM     18  O   UNL     1       8.700  29.099   1.558  1.00  0.00    -0.508 OA
ATOM     19  H   UNL     1       8.983  29.739   2.290  1.00  0.00     0.293 HD
ENDBRANCH  15  18
ENDBRANCH   1  12
BRANCH   2  20
ATOM     20  O   UNL     1       8.439  29.672  -4.652  1.00  0.00    -0.502 OA
ATOM     21  H   UNL     1       7.801  29.342  -5.365  1.00  0.00     0.293 HD
ENDBRANCH   2  20
BRANCH   6  22
ATOM     22  O   UNL     1      11.771  30.394  -8.744  1.00  0.00    -0.507 OA
ATOM     23  H   UNL     1      11.966  31.215  -9.297  1.00  0.00     0.293 HD
ENDBRANCH   6  22
BRANCH   8  24
ATOM     24  O   UNL     1      15.970  29.570  -6.566  1.00  0.00    -0.508 OA
ATOM     25  H   UNL     1      16.436  28.676  -6.465  1.00  0.00     0.293 HD
ENDBRANCH   8  24
TORSDOF 5
ENDMDL
MODEL 5
REMARK VINA RESULT:    -5.753      3.551      6.871
REMARK INTER + INTRA:          -6.946
REMARK INTER:                  -6.720
REMARK INTRA:                  -0.226
REMARK UNBOUND:                -0.183
REMARK SMILES O=c1c(O)c(-c2ccc(O)cc2)oc2cc(O)cc(O)c12
REMARK SMILES IDX 5 1 3 2 2 3 1 4 21 5 19 6 18 7 16 8 15 9 14 10 13 11 6 12
REMARK SMILES IDX 7 13 8 14 9 15 12 16 11 17 10 18 4 20 20 22 17 24
REMARK H PARENT 10 19 4 21 20 23 17 25
REMARK Flexibility Score: inf
ROOT
ATOM      1  C   UNL     1       9.127  30.443   4.322  1.00  0.00     0.180 A 
ATOM      2  C   UNL     1       8.903  29.055   4.348  1.00  0.00     0.208 A 
ATOM      3  C   UNL     1       8.840  28.353   3.134  1.00  0.00     0.238 A 
ATOM      4  O   UNL     1       8.694  27.103   3.166  1.00  0.00    -0.285 OA
ATOM      5  C   UNL     1       8.984  29.049   1.910  1.00  0.00     0.111 A 
ATOM      6  C   UNL     1       8.898  28.444   0.619  1.00  0.00     0.134 A 
ATOM      7  C   UNL     1       9.187  29.205  -0.520  1.00  0.00     0.093 A 
ATOM      8  C   UNL     1       9.496  30.564  -0.420  1.00  0.00     0.123 A 
ATOM      9  C   UNL     1       9.524  31.176   0.830  1.00  0.00     0.094 A 
ATOM     10  C   UNL     1       9.276  30.435   1.989  1.00  0.00     0.146 A 
ATOM     11  O   UNL     1       9.325  31.056   3.161  1.00  0.00    -0.452 OA
ENDROOT
BRANCH   1  12
ATOM     12  C   UNL     1       9.182  31.256   5.559  1.00  0.00     0.021 A 
ATOM     13  C   UNL     1      10.300  31.216   6.413  1.00  0.00     0.016 A 
ATOM     14  C   UNL     1      10.319  31.974   7.588  1.00  0.00     0.047 A 
ATOM     15  C   UNL     1       9.221  32.768   7.932  1.00  0.00     0.115 A 
ATOM     16  C   UNL     1       8.074  32.040   5.922  1.00  0.00     0.016 A 
ATOM     17  C   UNL     1       8.096  32.797   7.097  1.00  0.00     0.047 A 
BRANCH  15  18
ATOM     18  O   UNL     1       9.255  33.519   9.105  1.00  0.00    -0.508 OA
ATOM     19  H   UNL     1      10.075  34.051   9.369  1.00  0.00     0.293 HD
ENDBRANCH  15  18
ENDBRANCH   1  12
BRANCH   2  20
ATOM     20  O   UNL     1       8.786  28.385   5.569  1.00  0.00    -0.502 OA
ATOM     21  H   UNL     1       9.274  27.520   5.764  1.00  0.00     0.293 HD
ENDBRANCH   2  20
BRANCH   6  22
ATOM     22  O   UNL     1       8.508  27.119   0.403  1.00  0.00    -0.507 OA
ATOM     23  H   UNL     1       9.117  26.320   0.492  1.00  0.00     0.293 HD
ENDBRANCH   6  22
BRANCH   8  24
ATOM     24  O   UNL     1       9.766  31.316  -1.560  1.00  0.00    -0.508 OA
ATOM     25  H   UNL     1      10.670  31.748  -1.710  1.00  0.00     0.293 HD
ENDBRANCH   8  24
TORSDOF 5
ENDMDL
MODEL 6
REMARK VINA RESULT:    -5.737      1.892      6.967
REMARK INTER + INTRA:          -6.927
REMARK INTER:                  -6.918
REMARK INTRA:                  -0.009
REMARK UNBOUND:                -0.183
REMARK SMILES O=c1c(O)c(-c2ccc(O)cc2)oc2cc(O)cc(O)c12
REMARK SMILES IDX 5 1 3 2 2 3 1 4 21 5 19 6 18 7 16 8 15 9 14 10 13 11 6 12
REMARK SMILES IDX 7 13 8 14 9 15 12 16 11 17 10 18 4 20 20 22 17 24
REMARK H PARENT 10 19 4 21 20 23 17 25
REMARK Flexibility Score: inf
ROOT
ATOM      1  C   UNL     1      11.616  30.279  -5.238  1.00  0.00     0.180 A 
ATOM      2  C   UNL     1      10.882  31.478  -5.242  1.00  0.00     0.208 A 
ATOM      3  C   UNL     1      10.054  31.773  -4.147  1.00  0.00     0.238 A 
ATOM      4  O   UNL     1       9.441  32.872  -4.131  1.00  0.00    -0.285 OA
ATOM      5  C   UNL     1       9.956  30.858  -3.071  1.00  0.00     0.111 A 
ATOM      6  C   UNL     1       9.117  31.036  -1.930  1.00  0.00     0.134 A 
ATOM      7  C   UNL     1       9.200  30.131  -0.864  1.00  0.00     0.093 A 
ATOM      8  C   UNL     1      10.043  29.018  -0.927  1.00  0.00     0.123 A 
ATOM      9  C   UNL     1      10.821  28.804  -2.062  1.00  0.00     0.094 A 
ATOM     10  C   UNL     1      10.788  29.710  -3.127  1.00  0.00     0.146 A 
ATOM     11  O   UNL     1      11.555  29.473  -4.184  1.00  0.00    -0.452 OA
ENDROOT
BRANCH   1  12
ATOM     12  C   UNL     1      12.491  29.887  -6.366  1.00  0.00     0.021 A 
ATOM     13  C   UNL     1      12.020  29.881  -7.693  1.00  0.00     0.016 A 
ATOM     14  C   UNL     1      12.858  29.484  -8.739  1.00  0.00     0.047 A 
ATOM     15  C   UNL     1      14.168  29.075  -8.476  1.00  0.00     0.115 A 
ATOM     16  C   UNL     1      13.803  29.454  -6.108  1.00  0.00     0.016 A 
ATOM     17  C   UNL     1      14.638  29.058  -7.156  1.00  0.00     0.047 A 
BRANCH  15  18
ATOM     18  O   UNL     1      14.992  28.683  -9.529  1.00  0.00    -0.508 OA
ATOM     19  H   UNL     1      14.829  29.006 -10.475  1.00  0.00     0.293 HD
ENDBRANCH  15  18
ENDBRANCH   1  12
BRANCH   2  20
ATOM     20  O   UNL     1      11.010  32.377  -6.304  1.00  0.00    -0.502 OA
ATOM     21  H   UNL     1      10.226  32.907  -6.666  1.00  0.00     0.293 HD
ENDBRANCH   2  20
BRANCH   6  22
ATOM     22  O   UNL     1       8.174  32.061  -1.806  1.00  0.00    -0.507 OA
ATOM     23  H   UNL     1       7.186  31.956  -1.980  1.00  0.00     0.293 HD
ENDBRANCH   6  22
BRANCH   8  24
ATOM     24  O   UNL     1      10.106  28.115   0.130  1.00  0.00    -0.508 OA
ATOM     25  H   UNL     1      10.576  28.345   0.998  1.00  0.00     0.293 HD
ENDBRANCH   8  24
TORSDOF 5
ENDMDL
MODEL 7
REMARK VINA RESULT:    -5.735      1.699      7.208
REMARK INTER + INTRA:          -6.925
REMARK INTER:                  -6.629
REMARK INTRA:                  -0.295
REMARK UNBOUND:                -0.183
REMARK SMILES O=c1c(O)c(-c2ccc(O)cc2)oc2cc(O)cc(O)c12
REMARK SMILES IDX 5 1 3 2 2 3 1 4 21 5 19 6 18 7 16 8 15 9 14 10 13 11 6 12
REMARK SMILES IDX 7 13 8 14 9 15 12 16 11 17 10 18 4 20 20 22 17 24
REMARK H PARENT 10 19 4 21 20 23 17 25
REMARK Flexibility Score: inf
ROOT
ATOM      1  C   UNL     1      10.105  29.759  -1.138  1.00  0.00     0.180 A 
ATOM      2  C   UNL     1       9.852  28.408  -0.839  1.00  0.00     0.208 A 
ATOM      3  C   UNL     1       9.272  28.082   0.398  1.00  0.00     0.238 A 
ATOM      4  O   UNL     1       8.998  26.877   0.637  1.00  0.00    -0.285 OA
ATOM      5  C   UNL     1       8.969  29.107   1.325  1.00  0.00     0.111 A 
ATOM      6  C   UNL     1       8.416  28.887   2.624  1.00  0.00     0.134 A 
ATOM      7  C   UNL     1       8.034  29.984   3.406  1.00  0.00     0.093 A 
ATOM      8  C   UNL     1       8.244  31.293   2.964  1.00  0.00     0.123 A 
ATOM      9  C   UNL     1       8.837  31.517   1.724  1.00  0.00     0.094 A 
ATOM     10  C   UNL     1       9.196  30.443   0.905  1.00  0.00     0.146 A 
ATOM     11  O   UNL     1       9.748  30.702  -0.275  1.00  0.00    -0.452 OA
ENDROOT
BRANCH   1  12
ATOM     12  C   UNL     1      10.736  30.180  -2.409  1.00  0.00     0.021 A 
ATOM     13  C   UNL     1      12.136  30.203  -2.561  1.00  0.00     0.016 A 
ATOM     14  C   UNL     1      12.709  30.628  -3.764  1.00  0.00     0.047 A 
ATOM     15  C   UNL     1      11.898  31.046  -4.822  1.00  0.00     0.115 A 
ATOM     16  C   UNL     1       9.928  30.621  -3.471  1.00  0.00     0.016 A 
ATOM     17  C   UNL     1      10.504  31.044  -4.672  1.00  0.00     0.047 A 
BRANCH  15  18
ATOM     18  O   UNL     1      12.484  31.465  -6.015  1.00  0.00    -0.508 OA
ATOM     19  H   UNL     1      11.923  31.708  -6.822  1.00  0.00     0.293 HD
ENDBRANCH  15  18
ENDBRANCH   1  12
BRANCH   2  20
ATOM     20  O   UNL     1      10.140  27.415  -1.778  1.00  0.00    -0.502 OA
ATOM     21  H   UNL     1      10.328  26.455  -1.515  1.00  0.00     0.293 HD
ENDBRANCH   2  20
BRANCH   6  22
ATOM     22  O   UNL     1       8.250  27.623   3.197  1.00  0.00    -0.507 OA
ATOM     23  H   UNL     1       8.899  26.857   3.098  1.00  0.00     0.293 HD
ENDBRANCH   6  22
BRANCH   8  24
ATOM     24  O   UNL     1       7.875  32.377   3.756  1.00  0.00    -0.508 OA
ATOM     25  H   UNL     1       7.331  33.146   3.384  1.00  0.00     0.293 HD
ENDBRANCH   8  24
TORSDOF 5
ENDMDL
MODEL 8
REMARK VINA RESULT:    -5.649      2.616      7.518
REMARK INTER + INTRA:          -6.823
REMARK INTER:                  -6.780
REMARK INTRA:                  -0.043
REMARK UNBOUND:                -0.183
REMARK SMILES O=c1c(O)c(-c2ccc(O)cc2)oc2cc(O)cc(O)c12
REMARK SMILES IDX 5 1 3 2 2 3 1 4 21 5 19 6 18 7 16 8 15 9 14 10 13 11 6 12
REMARK SMILES IDX 7 13 8 14 9 15 12 16 11 17 10 18 4 20 20 22 17 24
REMARK H PARENT 10 19 4 21 20 23 17 25
REMARK Flexibility Score: inf
ROOT
ATOM      1  C   UNL     1      10.766  32.012  -5.689  1.00  0.00     0.180 A 
ATOM      2  C   UNL     1      11.855  31.124  -5.650  1.00  0.00     0.208 A 
ATOM      3  C   UNL     1      12.046  30.331  -4.507  1.00  0.00     0.238 A 
ATOM      4  O   UNL     1      12.990  29.499  -4.499  1.00  0.00    -0.285 OA
ATOM      5  C   UNL     1      11.156  30.449  -3.412  1.00  0.00     0.111 A 
ATOM      6  C   UNL     1      11.278  29.724  -2.187  1.00  0.00     0.134 A 
ATOM      7  C   UNL     1      10.267  29.822  -1.224  1.00  0.00     0.093 A 
ATOM      8  C   UNL     1       9.171  30.668  -1.412  1.00  0.00     0.123 A 
ATOM      9  C   UNL     1       9.074  31.424  -2.577  1.00  0.00     0.094 A 
ATOM     10  C   UNL     1      10.048  31.321  -3.574  1.00  0.00     0.146 A 
ATOM     11  O   UNL     1       9.911  32.051  -4.674  1.00  0.00    -0.452 OA
ENDROOT
BRANCH   1  12
ATOM     12  C   UNL     1      10.512  32.898  -6.849  1.00  0.00     0.021 A 
ATOM     13  C   UNL     1      10.341  32.377  -8.145  1.00  0.00     0.016 A 
ATOM     14  C   UNL     1      10.127  33.235  -9.229  1.00  0.00     0.047 A 
ATOM     15  C   UNL     1      10.095  34.619  -9.036  1.00  0.00     0.115 A 
ATOM     16  C   UNL     1      10.500  34.291  -6.667  1.00  0.00     0.016 A 
ATOM     17  C   UNL     1      10.285  35.146  -7.752  1.00  0.00     0.047 A 
BRANCH  15  18
ATOM     18  O   UNL     1       9.880  35.461 -10.125  1.00  0.00    -0.508 OA
ATOM     19  H   UNL     1       9.108  35.313 -10.763  1.00  0.00     0.293 HD
ENDBRANCH  15  18
ENDBRANCH   1  12
BRANCH   2  20
ATOM     20  O   UNL     1      12.708  31.008  -6.751  1.00  0.00    -0.502 OA
ATOM     21  H   UNL     1      13.707  31.152  -6.682  1.00  0.00     0.293 HD
ENDBRANCH   2  20
BRANCH   6  22
ATOM     22  O   UNL     1      12.376  28.923  -1.861  1.00  0.00    -0.507 OA
ATOM     23  H   UNL     1      12.349  28.146  -1.218  1.00  0.00     0.293 HD
ENDBRANCH   6  22
BRANCH   8  24
ATOM     24  O   UNL     1       8.178  30.771  -0.441  1.00  0.00    -0.508 OA
ATOM     25  H   UNL     1       8.025  30.038   0.241  1.00  0.00     0.293 HD
ENDBRANCH   8  24
TORSDOF 5
ENDMDL
MODEL 9
REMARK VINA RESULT:    -5.618      2.928      5.116
REMARK INTER + INTRA:          -6.786
REMARK INTER:                  -6.499
REMARK INTRA:                  -0.287
REMARK UNBOUND:                -0.183
REMARK SMILES O=c1c(O)c(-c2ccc(O)cc2)oc2cc(O)cc(O)c12
REMARK SMILES IDX 5 1 3 2 2 3 1 4 21 5 19 6 18 7 16 8 15 9 14 10 13 11 6 12
REMARK SMILES IDX 7 13 8 14 9 15 12 16 11 17 10 18 4 20 20 22 17 24
REMARK H PARENT 10 19 4 21 20 23 17 25
REMARK Flexibility Score: inf
ROOT
ATOM      1  C   UNL     1      10.586  31.309  -5.238  1.00  0.00     0.180 A 
ATOM      2  C   UNL     1      10.984  30.697  -6.440  1.00  0.00     0.208 A 
ATOM      3  C   UNL     1      10.962  31.448  -7.626  1.00  0.00     0.238 A 
ATOM      4  O   UNL     1      11.371  30.912  -8.688  1.00  0.00    -0.285 OA
ATOM      5  C   UNL     1      10.528  32.795  -7.599  1.00  0.00     0.111 A 
ATOM      6  C   UNL     1      10.428  33.638  -8.747  1.00  0.00     0.134 A 
ATOM      7  C   UNL     1      10.112  34.992  -8.584  1.00  0.00     0.093 A 
ATOM      8  C   UNL     1       9.828  35.520  -7.321  1.00  0.00     0.123 A 
ATOM      9  C   UNL     1       9.865  34.692  -6.202  1.00  0.00     0.094 A 
ATOM     10  C   UNL     1      10.213  33.344  -6.328  1.00  0.00     0.146 A 
ATOM     11  O   UNL     1      10.248  32.593  -5.234  1.00  0.00    -0.452 OA
ENDROOT
BRANCH   1  12
ATOM     12  C   UNL     1      10.559  30.576  -3.952  1.00  0.00     0.021 A 
ATOM     13  C   UNL     1      11.671  30.567  -3.089  1.00  0.00     0.016 A 
ATOM     14  C   UNL     1      11.630  29.847  -1.891  1.00  0.00     0.047 A 
ATOM     15  C   UNL     1      10.488  29.119  -1.545  1.00  0.00     0.115 A 
ATOM     16  C   UNL     1       9.423  29.825  -3.607  1.00  0.00     0.016 A 
ATOM     17  C   UNL     1       9.384  29.107  -2.408  1.00  0.00     0.047 A 
BRANCH  15  18
ATOM     18  O   UNL     1      10.462  28.408  -0.347  1.00  0.00    -0.508 OA
ATOM     19  H   UNL     1      11.266  27.881  -0.027  1.00  0.00     0.293 HD
ENDBRANCH  15  18
ENDBRANCH   1  12
BRANCH   2  20
ATOM     20  O   UNL     1      11.430  29.373  -6.440  1.00  0.00    -0.502 OA
ATOM     21  H   UNL     1      11.731  28.900  -5.597  1.00  0.00     0.293 HD
ENDBRANCH   2  20
BRANCH   6  22
ATOM     22  O   UNL     1      10.600  33.191 -10.060  1.00  0.00    -0.507 OA
ATOM     23  H   UNL     1      10.517  33.772 -10.881  1.00  0.00     0.293 HD
ENDBRANCH   6  22
BRANCH   8  24
ATOM     24  O   UNL     1       9.499  36.864  -7.171  1.00  0.00    -0.508 OA
ATOM     25  H   UNL     1       8.997  37.201  -6.359  1.00  0.00     0.293 HD
ENDBRANCH   8  24
TORSDOF 5
ENDMDL
