MODEL 1
REMARK VINA RESULT:    -5.080      0.000      0.000
REMARK INTER + INTRA:          -5.377
REMARK INTER:                  -5.377
REMARK INTRA:                   0.000
REMARK UNBOUND:                 0.000
REMARK SMILES Cc1cc(O)c(C)c(C)c1O
REMARK SMILES IDX 1 1 2 2 3 3 4 4 6 5 8 6 10 7 9 8 7 9 11 10 5 12
REMARK H PARENT 11 11 5 13
REMARK Flexibility Score: inf
ROOT
ATOM      1  C   UNL     1       9.967  12.337   7.426  1.00  0.00     0.048 C 
ATOM      2  C   UNL     1       8.578  11.854   7.109  1.00  0.00    -0.005 A 
ATOM      3  C   UNL     1       7.876  11.111   8.067  1.00  0.00     0.053 A 
ATOM      4  C   UNL     1       6.579  10.658   7.817  1.00  0.00     0.119 A 
ATOM      5  C   UNL     1       5.951  10.949   6.590  1.00  0.00    -0.003 A 
ATOM      6  C   UNL     1       6.669  11.655   5.590  1.00  0.00    -0.002 A 
ATOM      7  C   UNL     1       7.970  12.132   5.865  1.00  0.00     0.121 A 
ATOM      8  C   UNL     1       6.031  11.953   4.251  1.00  0.00     0.049 C 
ATOM      9  C   UNL     1       4.544  10.458   6.335  1.00  0.00     0.049 C 
ENDROOT
BRANCH   7  10
ATOM     10  O   UNL     1       8.641  12.880   4.892  1.00  0.00    -0.507 OA
ATOM     11  H   UNL     1       8.188  13.274   4.078  1.00  0.00     0.293 HD
ENDBRANCH   7  10
BRANCH   4  12
ATOM     12  O   UNL     1       5.910   9.918   8.793  1.00  0.00    -0.508 OA
ATOM     13  H   UNL     1       5.751  10.283   9.725  1.00  0.00     0.293 HD
ENDBRANCH   4  12
TORSDOF 2
ENDMDL
MODEL 2
REMARK VINA RESULT:    -5.052      2.128      3.833
REMARK INTER + INTRA:          -5.347
REMARK INTER:                  -5.347
REMARK INTRA:                   0.000
REMARK UNBOUND:                 0.000
REMARK SMILES Cc1cc(O)c(C)c(C)c1O
REMARK SMILES IDX 1 1 2 2 3 3 4 4 6 5 8 6 10 7 9 8 7 9 11 10 5 12
REMARK H PARENT 11 11 5 13
REMARK Flexibility Score: inf
ROOT
ATOM      1  C   UNL     1       3.332  11.154   8.492  1.00  0.00     0.048 C 
ATOM      2  C   UNL     1       4.803  11.370   8.260  1.00  0.00    -0.005 A 
ATOM      3  C   UNL     1       5.538  12.124   9.184  1.00  0.00     0.053 A 
ATOM      4  C   UNL     1       6.908  12.333   9.011  1.00  0.00     0.119 A 
ATOM      5  C   UNL     1       7.575  11.783   7.900  1.00  0.00    -0.003 A 
ATOM      6  C   UNL     1       6.834  11.062   6.928  1.00  0.00    -0.002 A 
ATOM      7  C   UNL     1       5.454  10.832   7.128  1.00  0.00     0.121 A 
ATOM      8  C   UNL     1       7.518  10.487   5.708  1.00  0.00     0.049 C 
ATOM      9  C   UNL     1       9.059  12.013   7.729  1.00  0.00     0.049 C 
ENDROOT
BRANCH   7  10
ATOM     10  O   UNL     1       4.748  10.067   6.192  1.00  0.00    -0.507 OA
ATOM     11  H   UNL     1       4.247  10.465   5.409  1.00  0.00     0.293 HD
ENDBRANCH   7  10
BRANCH   4  12
ATOM     12  O   UNL     1       7.610  13.092   9.950  1.00  0.00    -0.508 OA
ATOM     13  H   UNL     1       7.152  13.498  10.758  1.00  0.00     0.293 HD
ENDBRANCH   4  12
TORSDOF 2
ENDMDL
MODEL 3
REMARK VINA RESULT:    -4.964      2.087      3.389
REMARK INTER + INTRA:          -5.254
REMARK INTER:                  -5.254
REMARK INTRA:                   0.000
REMARK UNBOUND:                 0.000
REMARK SMILES Cc1cc(O)c(C)c(C)c1O
REMARK SMILES IDX 1 1 2 2 3 3 4 4 6 5 8 6 10 7 9 8 7 9 11 10 5 12
REMARK H PARENT 11 11 5 13
REMARK Flexibility Score: inf
ROOT
ATOM      1  C   UNL     1       6.138  11.611   4.260  1.00  0.00     0.048 C 
ATOM      2  C   UNL     1       5.644  11.461   5.674  1.00  0.00    -0.005 A 
ATOM      3  C   UNL     1       4.509  10.679   5.923  1.00  0.00     0.053 A 
ATOM      4  C   UNL     1       4.030  10.503   7.223  1.00  0.00     0.119 A 
ATOM      5  C   UNL     1       4.689  11.109   8.310  1.00  0.00    -0.003 A 
ATOM      6  C   UNL     1       5.809  11.946   8.068  1.00  0.00    -0.002 A 
ATOM      7  C   UNL     1       6.302  12.094   6.752  1.00  0.00     0.121 A 
ATOM      8  C   UNL     1       6.517  12.635   9.213  1.00  0.00     0.049 C 
ATOM      9  C   UNL     1       4.163  10.904   9.712  1.00  0.00     0.049 C 
ENDROOT
BRANCH   7  10
ATOM     10  O   UNL     1       7.444  12.873   6.536  1.00  0.00    -0.507 OA
ATOM     11  H   UNL     1       8.336  12.490   6.254  1.00  0.00     0.293 HD
ENDBRANCH   7  10
BRANCH   4  12
ATOM     12  O   UNL     1       2.894   9.720   7.435  1.00  0.00    -0.508 OA
ATOM     13  H   UNL     1       2.784   9.153   8.268  1.00  0.00     0.293 HD
ENDBRANCH   4  12
TORSDOF 2
ENDMDL
MODEL 4
REMARK VINA RESULT:    -4.843      1.994      2.557
REMARK INTER + INTRA:          -5.126
REMARK INTER:                  -5.126
REMARK INTRA:                   0.000
REMARK UNBOUND:                 0.000
REMARK SMILES Cc1cc(O)c(C)c(C)c1O
REMARK SMILES IDX 1 1 2 2 3 3 4 4 6 5 8 6 10 7 9 8 7 9 11 10 5 12
REMARK H PARENT 11 11 5 13
REMARK Flexibility Score: inf
ROOT
ATOM      1  C   UNL     1       9.335  11.025   5.861  1.00  0.00     0.048 C 
ATOM      2  C   UNL     1       8.143  11.258   6.750  1.00  0.00    -0.005 A 
ATOM      3  C   UNL     1       8.296  12.024   7.913  1.00  0.00     0.053 A 
ATOM      4  C   UNL     1       7.210  12.276   8.755  1.00  0.00     0.119 A 
ATOM      5  C   UNL     1       5.937  11.762   8.443  1.00  0.00    -0.003 A 
ATOM      6  C   UNL     1       5.778  10.940   7.297  1.00  0.00    -0.002 A 
ATOM      7  C   UNL     1       6.877  10.716   6.437  1.00  0.00     0.121 A 
ATOM      8  C   UNL     1       4.429  10.349   6.955  1.00  0.00     0.049 C 
ATOM      9  C   UNL     1       4.770  12.048   9.360  1.00  0.00     0.049 C 
ENDROOT
BRANCH   7  10
ATOM     10  O   UNL     1       6.691   9.955   5.278  1.00  0.00    -0.507 OA
ATOM     11  H   UNL     1       5.830   9.946   4.747  1.00  0.00     0.293 HD
ENDBRANCH   7  10
BRANCH   4  12
ATOM     12  O   UNL     1       7.399  13.041   9.907  1.00  0.00    -0.508 OA
ATOM     13  H   UNL     1       7.497  12.614  10.822  1.00  0.00     0.293 HD
ENDBRANCH   4  12
TORSDOF 2
ENDMDL
MODEL 5
REMARK VINA RESULT:    -4.741      1.648      4.388
REMARK INTER + INTRA:          -5.018
REMARK INTER:                  -5.018
REMARK INTRA:                   0.000
REMARK UNBOUND:                 0.000
REMARK SMILES Cc1cc(O)c(C)c(C)c1O
REMARK SMILES IDX 1 1 2 2 3 3 4 4 6 5 8 6 10 7 9 8 7 9 11 10 5 12
REMARK H PARENT 11 11 5 13
REMARK Flexibility Score: inf
ROOT
ATOM      1  C   UNL     1       3.394   9.906   7.796  1.00  0.00     0.048 C 
ATOM      2  C   UNL     1       4.595  10.705   7.365  1.00  0.00    -0.005 A 
ATOM      3  C   UNL     1       4.884  10.822   5.999  1.00  0.00     0.053 A 
ATOM      4  C   UNL     1       5.980  11.569   5.559  1.00  0.00     0.119 A 
ATOM      5  C   UNL     1       6.813  12.221   6.488  1.00  0.00    -0.003 A 
ATOM      6  C   UNL     1       6.563  12.068   7.877  1.00  0.00    -0.002 A 
ATOM      7  C   UNL     1       5.435  11.334   8.309  1.00  0.00     0.121 A 
ATOM      8  C   UNL     1       7.460  12.731   8.898  1.00  0.00     0.049 C 
ATOM      9  C   UNL     1       7.991  13.030   5.997  1.00  0.00     0.049 C 
ENDROOT
BRANCH   7  10
ATOM     10  O   UNL     1       5.166  11.243   9.679  1.00  0.00    -0.507 OA
ATOM     11  H   UNL     1       5.777  11.615  10.395  1.00  0.00     0.293 HD
ENDBRANCH   7  10
BRANCH   4  12
ATOM     12  O   UNL     1       6.241  11.662   4.191  1.00  0.00    -0.508 OA
ATOM     13  H   UNL     1       7.007  11.158   3.758  1.00  0.00     0.293 HD
ENDBRANCH   4  12
TORSDOF 2
ENDMDL
MODEL 6
REMARK VINA RESULT:    -4.636      1.718      2.869
REMARK INTER + INTRA:          -4.907
REMARK INTER:                  -4.907
REMARK INTRA:                   0.000
REMARK UNBOUND:                 0.000
REMARK SMILES Cc1cc(O)c(C)c(C)c1O
REMARK SMILES IDX 1 1 2 2 3 3 4 4 6 5 8 6 10 7 9 8 7 9 11 10 5 12
REMARK H PARENT 11 11 5 13
REMARK Flexibility Score: inf
ROOT
ATOM      1  C   UNL     1       8.623  12.441   3.528  1.00  0.00     0.048 C 
ATOM      2  C   UNL     1       7.747  12.062   4.692  1.00  0.00    -0.005 A 
ATOM      3  C   UNL     1       6.497  11.479   4.445  1.00  0.00     0.053 A 
ATOM      4  C   UNL     1       5.662  11.099   5.499  1.00  0.00     0.119 A 
ATOM      5  C   UNL     1       6.069  11.296   6.832  1.00  0.00    -0.003 A 
ATOM      6  C   UNL     1       7.309  11.933   7.097  1.00  0.00    -0.002 A 
ATOM      7  C   UNL     1       8.158  12.287   6.024  1.00  0.00     0.121 A 
ATOM      8  C   UNL     1       7.757  12.185   8.519  1.00  0.00     0.049 C 
ATOM      9  C   UNL     1       5.158  10.874   7.962  1.00  0.00     0.049 C 
ENDROOT
BRANCH   7  10
ATOM     10  O   UNL     1       9.404  12.858   6.302  1.00  0.00    -0.507 OA
ATOM     11  H   UNL     1      10.194  12.811   5.672  1.00  0.00     0.293 HD
ENDBRANCH   7  10
BRANCH   4  12
ATOM     12  O   UNL     1       4.422  10.524   5.218  1.00  0.00    -0.508 OA
ATOM     13  H   UNL     1       3.758  10.301   5.951  1.00  0.00     0.293 HD
ENDBRANCH   4  12
TORSDOF 2
ENDMDL
MODEL 7
REMARK VINA RESULT:    -4.623      1.999      3.138
REMARK INTER + INTRA:          -4.893
REMARK INTER:                  -4.893
REMARK INTRA:                   0.000
REMARK UNBOUND:                 0.000
REMARK SMILES Cc1cc(O)c(C)c(C)c1O
REMARK SMILES IDX 1 1 2 2 3 3 4 4 6 5 8 6 10 7 9 8 7 9 11 10 5 12
REMARK H PARENT 11 11 5 13
REMARK Flexibility Score: inf
ROOT
ATOM      1  C   UNL     1       8.755  12.622   7.301  1.00  0.00     0.048 C 
ATOM      2  C   UNL     1       7.374  12.025   7.250  1.00  0.00    -0.005 A 
ATOM      3  C   UNL     1       6.884  11.540   6.031  1.00  0.00     0.053 A 
ATOM      4  C   UNL     1       5.613  10.964   5.946  1.00  0.00     0.119 A 
ATOM      5  C   UNL     1       4.805  10.859   7.094  1.00  0.00    -0.003 A 
ATOM      6  C   UNL     1       5.267  11.394   8.325  1.00  0.00    -0.002 A 
ATOM      7  C   UNL     1       6.565  11.948   8.404  1.00  0.00     0.121 A 
ATOM      8  C   UNL     1       4.407  11.324   9.566  1.00  0.00     0.049 C 
ATOM      9  C   UNL     1       3.435  10.228   6.989  1.00  0.00     0.049 C 
ENDROOT
BRANCH   7  10
ATOM     10  O   UNL     1       7.031  12.415   9.638  1.00  0.00    -0.507 OA
ATOM     11  H   UNL     1       7.951  12.207  10.003  1.00  0.00     0.293 HD
ENDBRANCH   7  10
BRANCH   4  12
ATOM     12  O   UNL     1       5.154  10.493   4.715  1.00  0.00    -0.508 OA
ATOM     13  H   UNL     1       4.170  10.321   4.542  1.00  0.00     0.293 HD
ENDBRANCH   4  12
TORSDOF 2
ENDMDL
MODEL 8
REMARK VINA RESULT:    -4.252      1.242      4.436
REMARK INTER + INTRA:          -4.501
REMARK INTER:                  -4.501
REMARK INTRA:                   0.000
REMARK UNBOUND:                 0.000
REMARK SMILES Cc1cc(O)c(C)c(C)c1O
REMARK SMILES IDX 1 1 2 2 3 3 4 4 6 5 8 6 10 7 9 8 7 9 11 10 5 12
REMARK H PARENT 11 11 5 13
REMARK Flexibility Score: inf
ROOT
ATOM      1  C   UNL     1       4.626  10.803   5.561  1.00  0.00     0.048 C 
ATOM      2  C   UNL     1       6.047  11.298   5.562  1.00  0.00    -0.005 A 
ATOM      3  C   UNL     1       6.657  11.629   4.345  1.00  0.00     0.053 A 
ATOM      4  C   UNL     1       7.970  12.107   4.307  1.00  0.00     0.119 A 
ATOM      5  C   UNL     1       8.701  12.267   5.499  1.00  0.00    -0.003 A 
ATOM      6  C   UNL     1       8.115  11.886   6.734  1.00  0.00    -0.002 A 
ATOM      7  C   UNL     1       6.777  11.431   6.764  1.00  0.00     0.121 A 
ATOM      8  C   UNL     1       8.889  12.018   8.026  1.00  0.00     0.049 C 
ATOM      9  C   UNL     1      10.118  12.791   5.442  1.00  0.00     0.049 C 
ENDROOT
BRANCH   7  10
ATOM     10  O   UNL     1       6.192  11.118   7.995  1.00  0.00    -0.507 OA
ATOM     11  H   UNL     1       6.406  10.280   8.519  1.00  0.00     0.293 HD
ENDBRANCH   7  10
BRANCH   4  12
ATOM     12  O   UNL     1       8.548  12.424   3.076  1.00  0.00    -0.508 OA
ATOM     13  H   UNL     1       9.512  12.192   2.864  1.00  0.00     0.293 HD
ENDBRANCH   4  12
TORSDOF 2
ENDMDL
