MODEL 1
REMARK VINA RESULT:    -0.366      0.000      0.000
REMARK INTER + INTRA:          -0.927
REMARK INTER:                  -0.559
REMARK INTRA:                  -0.367
REMARK UNBOUND:                -0.367
REMARK SMILES O=C([O-])CCCCCCCCC(=O)[O-]
REMARK SMILES IDX 7 1 6 2 5 3 4 4 2 5 1 6 3 7 8 8 9 9 10 10 11 11 12 12 13 13
REMARK SMILES IDX 14 14
REMARK H PARENT
REMARK Flexibility Score: inf
ROOT
ATOM      1  C   UNL     1      57.912  -3.575  -4.797  1.00  0.00     0.000 C 
ENDROOT
BRANCH   1   2
ATOM      2  C   UNL     1      58.211  -3.652  -6.299  1.00  0.00     0.000 C 
BRANCH   2   3
ATOM      3  C   UNL     1      59.078  -2.470  -6.750  1.00  0.00     0.006 C 
BRANCH   3   4
ATOM      4  C   UNL     1      58.902  -1.270  -5.815  1.00  0.00     0.053 C 
BRANCH   4   5
ATOM      5  C   UNL     1      58.145  -0.178  -6.502  1.00  0.00     0.041 C 
ATOM      6  O   UNL     1      57.068  -0.433  -7.101  1.00  0.00    -0.550 OA
ATOM      7  O   UNL     1      58.656   1.114  -6.524  1.00  0.00    -0.550 OA
ENDBRANCH   4   5
ENDBRANCH   3   4
ENDBRANCH   2   3
ENDBRANCH   1   2
BRANCH   1   8
ATOM      8  C   UNL     1      58.923  -4.401  -3.991  1.00  0.00     0.000 C 
BRANCH   8   9
ATOM      9  C   UNL     1      58.289  -5.705  -3.486  1.00  0.00     0.000 C 
BRANCH   9  10
ATOM     10  C   UNL     1      59.125  -6.399  -2.394  1.00  0.00     0.006 C 
BRANCH  10  11
ATOM     11  C   UNL     1      58.322  -6.766  -1.134  1.00  0.00     0.053 C 
BRANCH  11  12
ATOM     12  C   UNL     1      58.808  -6.045   0.088  1.00  0.00     0.041 C 
ATOM     13  O   UNL     1      59.101  -4.823   0.026  1.00  0.00    -0.550 OA
ATOM     14  O   UNL     1      58.902  -6.713   1.302  1.00  0.00    -0.550 OA
ENDBRANCH  11  12
ENDBRANCH  10  11
ENDBRANCH   9  10
ENDBRANCH   8   9
ENDBRANCH   1   8
TORSDOF 9
ENDMDL
MODEL 2
REMARK VINA RESULT:     1.343      1.096      7.667
REMARK INTER + INTRA:           1.683
REMARK INTER:                   1.984
REMARK INTRA:                  -0.301
REMARK UNBOUND:                -0.367
REMARK SMILES O=C([O-])CCCCCCCCC(=O)[O-]
REMARK SMILES IDX 7 1 6 2 5 3 4 4 2 5 1 6 3 7 8 8 9 9 10 10 11 11 12 12 13 13
REMARK SMILES IDX 14 14
REMARK H PARENT
REMARK Flexibility Score: inf
ROOT
ATOM      1  C   UNL     1      58.312  -3.040  -3.515  1.00  0.00     0.000 C 
ENDROOT
BRANCH   1   2
ATOM      2  C   UNL     1      58.983  -4.347  -3.077  1.00  0.00     0.000 C 
BRANCH   2   3
ATOM      3  C   UNL     1      59.124  -4.410  -1.552  1.00  0.00     0.006 C 
BRANCH   3   4
ATOM      4  C   UNL     1      58.881  -5.831  -1.036  1.00  0.00     0.053 C 
BRANCH   4   5
ATOM      5  C   UNL     1      58.410  -5.799   0.384  1.00  0.00     0.041 C 
ATOM      6  O   UNL     1      57.933  -4.740   0.869  1.00  0.00    -0.550 OA
ATOM      7  O   UNL     1      58.544  -6.925   1.186  1.00  0.00    -0.550 OA
ENDBRANCH   4   5
ENDBRANCH   3   4
ENDBRANCH   2   3
ENDBRANCH   1   2
BRANCH   1   8
ATOM      8  C   UNL     1      57.867  -3.112  -4.982  1.00  0.00     0.000 C 
BRANCH   8   9
ATOM      9  C   UNL     1      59.012  -2.714  -5.924  1.00  0.00     0.000 C 
BRANCH   9  10
ATOM     10  C   UNL     1      58.540  -1.871  -7.124  1.00  0.00     0.006 C 
BRANCH  10  11
ATOM     11  C   UNL     1      58.915  -0.382  -7.024  1.00  0.00     0.053 C 
BRANCH  11  12
ATOM     12  C   UNL     1      57.713   0.506  -6.899  1.00  0.00     0.041 C 
ATOM     13  O   UNL     1      56.567   0.004  -6.765  1.00  0.00    -0.550 OA
ATOM     14  O   UNL     1      57.862   1.887  -6.892  1.00  0.00    -0.550 OA
ENDBRANCH  11  12
ENDBRANCH  10  11
ENDBRANCH   9  10
ENDBRANCH   8   9
ENDBRANCH   1   8
TORSDOF 9
ENDMDL
