MODEL 1
REMARK VINA RESULT:    -6.909      0.000      0.000
REMARK INTER + INTRA:          -7.494
REMARK INTER:                  -7.515
REMARK INTRA:                   0.021
REMARK UNBOUND:                 0.021
REMARK SMILES C[C@H]1[C@H]2C3=CC[C@H]4[C@@]5(C)CC[C@@H](O)C(C)(C)[C@@H]5CC[C@@]4(C)[C@]3(C)CC[C@@]2(C(=O)[O-])CC[C@@H]1C
REMARK SMILES IDX 26 1 30 2 25 3 3 4 31 5 24 6 4 7 2 8 32 9 22 10 5 11 1 12
REMARK SMILES IDX 33 13 23 14 20 15 6 16 7 17 19 18 21 19 8 20 18 21 17 22
REMARK SMILES IDX 10 23 9 24 14 25 11 26 12 27 15 28 16 29 27 30 28 31 29 32
REMARK SMILES IDX 13 33
REMARK H PARENT 13 34
REMARK Flexibility Score: inf
ROOT
ATOM      1  C   UNL     1      17.285  25.264  42.180  1.00  0.00     0.017 C 
ATOM      2  C   UNL     1      17.825  24.450  40.964  1.00  0.00     0.014 C 
ATOM      3  C   UNL     1      18.056  24.825  43.477  1.00  0.00     0.014 C 
ATOM      4  C   UNL     1      15.736  25.004  42.292  1.00  0.00     0.030 C 
ATOM      5  C   UNL     1      17.110  24.784  39.645  1.00  0.00     0.004 C 
ATOM      6  C   UNL     1      17.128  24.432  44.639  1.00  0.00     0.013 C 
ATOM      7  C   UNL     1      15.466  23.619  42.928  1.00  0.00    -0.063 C 
ATOM      8  C   UNL     1      15.018  25.374  40.946  1.00  0.00    -0.003 C 
ATOM      9  C   UNL     1      15.585  24.574  39.742  1.00  0.00    -0.011 C 
ATOM     10  C   UNL     1      16.174  23.255  44.243  1.00  0.00    -0.006 C 
ATOM     11  C   UNL     1      14.551  22.744  42.464  1.00  0.00    -0.027 C 
ATOM     12  C   UNL     1      13.473  25.391  41.048  1.00  0.00     0.008 C 
ATOM     13  C   UNL     1      14.935  24.995  38.413  1.00  0.00     0.008 C 
ATOM     14  C   UNL     1      17.093  22.006  43.976  1.00  0.00     0.017 C 
ATOM     15  C   UNL     1      15.058  22.944  45.367  1.00  0.00    -0.020 C 
ATOM     16  C   UNL     1      14.119  21.568  43.292  1.00  0.00     0.032 C 
ATOM     17  C   UNL     1      13.877  21.997  44.771  1.00  0.00     0.006 C 
ATOM     18  C   UNL     1      15.780  22.383  46.650  1.00  0.00     0.008 C 
ATOM     19  C   UNL     1      14.372  24.280  45.807  1.00  0.00     0.012 C 
ATOM     20  C   UNL     1      13.255  20.858  45.728  1.00  0.00    -0.025 C 
ATOM     21  C   UNL     1      14.927  21.501  47.542  1.00  0.00     0.005 C 
ATOM     22  C   UNL     1      14.354  20.331  46.716  1.00  0.00     0.003 C 
ATOM     23  C   UNL     1      12.717  19.638  44.910  1.00  0.00     0.010 C 
ATOM     24  C   UNL     1      12.022  21.484  46.460  1.00  0.00     0.012 C 
ATOM     25  C   UNL     1      14.017  19.035  47.572  1.00  0.00    -0.006 C 
ATOM     26  C   UNL     1      12.261  18.457  45.775  1.00  0.00     0.033 C 
ATOM     27  C   UNL     1      13.403  17.929  46.650  1.00  0.00     0.120 C 
ATOM     28  C   UNL     1      15.333  18.461  48.180  1.00  0.00     0.014 C 
ATOM     29  C   UNL     1      13.065  19.304  48.773  1.00  0.00     0.014 C 
ENDROOT
BRANCH   1  30
ATOM     30  C   UNL     1      17.562  26.754  41.984  1.00  0.00     0.048 C 
ATOM     31  O   UNL     1      16.744  27.619  42.396  1.00  0.00    -0.550 OA
ATOM     32  O   UNL     1      18.660  27.174  41.242  1.00  0.00    -0.550 OA
ENDBRANCH   1  30
BRANCH  27  33
ATOM     33  O   UNL     1      14.388  17.382  45.802  1.00  0.00    -0.393 OA
ATOM     34  H   UNL     1      15.094  16.985  46.377  1.00  0.00     0.210 HD
ENDBRANCH  27  33
TORSDOF 2
ENDMDL
MODEL 2
REMARK VINA RESULT:    -6.905      2.959      8.366
REMARK INTER + INTRA:          -7.490
REMARK INTER:                  -7.509
REMARK INTRA:                   0.019
REMARK UNBOUND:                 0.021
REMARK SMILES C[C@H]1[C@H]2C3=CC[C@H]4[C@@]5(C)CC[C@@H](O)C(C)(C)[C@@H]5CC[C@@]4(C)[C@]3(C)CC[C@@]2(C(=O)[O-])CC[C@@H]1C
REMARK SMILES IDX 26 1 30 2 25 3 3 4 31 5 24 6 4 7 2 8 32 9 22 10 5 11 1 12
REMARK SMILES IDX 33 13 23 14 20 15 6 16 7 17 19 18 21 19 8 20 18 21 17 22
REMARK SMILES IDX 10 23 9 24 14 25 11 26 12 27 15 28 16 29 27 30 28 31 29 32
REMARK SMILES IDX 13 33
REMARK H PARENT 13 34
REMARK Flexibility Score: inf
ROOT
ATOM      1  C   UNL     1      16.154  24.630  45.118  1.00  0.00     0.017 C 
ATOM      2  C   UNL     1      14.792  25.381  45.235  1.00  0.00     0.014 C 
ATOM      3  C   UNL     1      17.292  25.669  44.810  1.00  0.00     0.014 C 
ATOM      4  C   UNL     1      16.015  23.545  43.984  1.00  0.00     0.030 C 
ATOM      5  C   UNL     1      13.603  24.446  45.505  1.00  0.00     0.004 C 
ATOM      6  C   UNL     1      18.150  25.293  43.590  1.00  0.00     0.013 C 
ATOM      7  C   UNL     1      16.108  24.208  42.588  1.00  0.00    -0.063 C 
ATOM      8  C   UNL     1      14.813  22.582  44.288  1.00  0.00    -0.003 C 
ATOM      9  C   UNL     1      13.470  23.350  44.428  1.00  0.00    -0.011 C 
ATOM     10  C   UNL     1      17.282  25.155  42.294  1.00  0.00    -0.006 C 
ATOM     11  C   UNL     1      15.284  23.918  41.562  1.00  0.00    -0.027 C 
ATOM     12  C   UNL     1      14.761  21.340  43.366  1.00  0.00     0.008 C 
ATOM     13  C   UNL     1      12.308  22.415  44.804  1.00  0.00     0.008 C 
ATOM     14  C   UNL     1      16.696  26.584  41.993  1.00  0.00     0.017 C 
ATOM     15  C   UNL     1      18.116  24.577  41.037  1.00  0.00    -0.020 C 
ATOM     16  C   UNL     1      15.612  24.353  40.163  1.00  0.00     0.032 C 
ATOM     17  C   UNL     1      17.117  24.097  39.846  1.00  0.00     0.006 C 
ATOM     18  C   UNL     1      19.194  25.645  40.615  1.00  0.00     0.008 C 
ATOM     19  C   UNL     1      18.916  23.308  41.480  1.00  0.00     0.012 C 
ATOM     20  C   UNL     1      17.560  24.374  38.320  1.00  0.00    -0.025 C 
ATOM     21  C   UNL     1      19.640  25.580  39.166  1.00  0.00     0.005 C 
ATOM     22  C   UNL     1      18.411  25.690  38.241  1.00  0.00     0.003 C 
ATOM     23  C   UNL     1      16.324  24.543  37.376  1.00  0.00     0.010 C 
ATOM     24  C   UNL     1      18.335  23.111  37.821  1.00  0.00     0.012 C 
ATOM     25  C   UNL     1      18.733  26.275  36.800  1.00  0.00    -0.006 C 
ATOM     26  C   UNL     1      16.683  24.966  35.946  1.00  0.00     0.033 C 
ATOM     27  C   UNL     1      17.432  26.303  35.930  1.00  0.00     0.120 C 
ATOM     28  C   UNL     1      19.235  27.744  36.939  1.00  0.00     0.014 C 
ATOM     29  C   UNL     1      19.853  25.504  36.043  1.00  0.00     0.014 C 
ENDROOT
BRANCH   1  30
ATOM     30  C   UNL     1      16.508  23.967  46.448  1.00  0.00     0.048 C 
ATOM     31  O   UNL     1      17.120  22.866  46.475  1.00  0.00    -0.550 OA
ATOM     32  O   UNL     1      16.055  24.508  47.647  1.00  0.00    -0.550 OA
ENDBRANCH   1  30
BRANCH  27  33
ATOM     33  O   UNL     1      16.550  27.306  36.382  1.00  0.00    -0.393 OA
ATOM     34  H   UNL     1      16.958  27.726  37.184  1.00  0.00     0.210 HD
ENDBRANCH  27  33
TORSDOF 2
ENDMDL
MODEL 3
REMARK VINA RESULT:    -6.866      4.754      7.675
REMARK INTER + INTRA:          -7.447
REMARK INTER:                  -7.379
REMARK INTRA:                  -0.068
REMARK UNBOUND:                 0.021
REMARK SMILES C[C@H]1[C@H]2C3=CC[C@H]4[C@@]5(C)CC[C@@H](O)C(C)(C)[C@@H]5CC[C@@]4(C)[C@]3(C)CC[C@@]2(C(=O)[O-])CC[C@@H]1C
REMARK SMILES IDX 26 1 30 2 25 3 3 4 31 5 24 6 4 7 2 8 32 9 22 10 5 11 1 12
REMARK SMILES IDX 33 13 23 14 20 15 6 16 7 17 19 18 21 19 8 20 18 21 17 22
REMARK SMILES IDX 10 23 9 24 14 25 11 26 12 27 15 28 16 29 27 30 28 31 29 32
REMARK SMILES IDX 13 33
REMARK H PARENT 13 34
REMARK Flexibility Score: inf
ROOT
ATOM      1  C   UNL     1      14.201  25.414  51.622  1.00  0.00     0.017 C 
ATOM      2  C   UNL     1      15.680  25.656  52.056  1.00  0.00     0.014 C 
ATOM      3  C   UNL     1      13.931  23.868  51.547  1.00  0.00     0.014 C 
ATOM      4  C   UNL     1      13.978  26.125  50.234  1.00  0.00     0.030 C 
ATOM      5  C   UNL     1      16.056  27.144  52.130  1.00  0.00     0.004 C 
ATOM      6  C   UNL     1      13.319  23.417  50.210  1.00  0.00     0.013 C 
ATOM      7  C   UNL     1      14.593  25.282  49.091  1.00  0.00    -0.063 C 
ATOM      8  C   UNL     1      14.342  27.650  50.333  1.00  0.00    -0.003 C 
ATOM      9  C   UNL     1      15.809  27.872  50.792  1.00  0.00    -0.011 C 
ATOM     10  C   UNL     1      14.240  23.789  48.999  1.00  0.00    -0.006 C 
ATOM     11  C   UNL     1      15.332  25.799  48.090  1.00  0.00    -0.027 C 
ATOM     12  C   UNL     1      13.915  28.474  49.094  1.00  0.00     0.008 C 
ATOM     13  C   UNL     1      16.139  29.364  50.964  1.00  0.00     0.008 C 
ATOM     14  C   UNL     1      15.566  22.960  49.175  1.00  0.00     0.017 C 
ATOM     15  C   UNL     1      13.545  23.504  47.570  1.00  0.00    -0.020 C 
ATOM     16  C   UNL     1      15.634  24.993  46.859  1.00  0.00     0.032 C 
ATOM     17  C   UNL     1      14.358  24.241  46.369  1.00  0.00     0.006 C 
ATOM     18  C   UNL     1      13.366  21.948  47.399  1.00  0.00     0.008 C 
ATOM     19  C   UNL     1      12.102  24.108  47.561  1.00  0.00     0.012 C 
ATOM     20  C   UNL     1      14.510  23.467  44.962  1.00  0.00    -0.025 C 
ATOM     21  C   UNL     1      13.308  21.455  45.965  1.00  0.00     0.005 C 
ATOM     22  C   UNL     1      14.569  21.918  45.208  1.00  0.00     0.003 C 
ATOM     23  C   UNL     1      15.814  23.884  44.204  1.00  0.00     0.010 C 
ATOM     24  C   UNL     1      13.309  23.898  44.059  1.00  0.00     0.012 C 
ATOM     25  C   UNL     1      14.968  20.990  43.981  1.00  0.00    -0.006 C 
ATOM     26  C   UNL     1      16.090  23.064  42.938  1.00  0.00     0.033 C 
ATOM     27  C   UNL     1      16.229  21.571  43.257  1.00  0.00     0.120 C 
ATOM     28  C   UNL     1      15.341  19.571  44.506  1.00  0.00     0.014 C 
ATOM     29  C   UNL     1      13.821  20.784  42.949  1.00  0.00     0.014 C 
ENDROOT
BRANCH   1  30
ATOM     30  C   UNL     1      13.243  25.980  52.670  1.00  0.00     0.048 C 
ATOM     31  O   UNL     1      13.542  25.957  53.894  1.00  0.00    -0.550 OA
ATOM     32  O   UNL     1      11.976  26.419  52.301  1.00  0.00    -0.550 OA
ENDBRANCH   1  30
BRANCH  27  33
ATOM     33  O   UNL     1      17.383  21.397  44.048  1.00  0.00    -0.393 OA
ATOM     34  H   UNL     1      17.414  22.142  44.704  1.00  0.00     0.210 HD
ENDBRANCH  27  33
TORSDOF 2
ENDMDL
MODEL 4
REMARK VINA RESULT:    -6.858      4.126      6.257
REMARK INTER + INTRA:          -7.439
REMARK INTER:                  -7.419
REMARK INTRA:                  -0.019
REMARK UNBOUND:                 0.021
REMARK SMILES C[C@H]1[C@H]2C3=CC[C@H]4[C@@]5(C)CC[C@@H](O)C(C)(C)[C@@H]5CC[C@@]4(C)[C@]3(C)CC[C@@]2(C(=O)[O-])CC[C@@H]1C
REMARK SMILES IDX 26 1 30 2 25 3 3 4 31 5 24 6 4 7 2 8 32 9 22 10 5 11 1 12
REMARK SMILES IDX 33 13 23 14 20 15 6 16 7 17 19 18 21 19 8 20 18 21 17 22
REMARK SMILES IDX 10 23 9 24 14 25 11 26 12 27 15 28 16 29 27 30 28 31 29 32
REMARK SMILES IDX 13 33
REMARK H PARENT 13 34
REMARK Flexibility Score: inf
ROOT
ATOM      1  C   UNL     1      16.235  23.535  43.671  1.00  0.00     0.017 C 
ATOM      2  C   UNL     1      17.547  22.704  43.820  1.00  0.00     0.014 C 
ATOM      3  C   UNL     1      16.555  25.053  43.919  1.00  0.00     0.014 C 
ATOM      4  C   UNL     1      15.183  22.973  44.700  1.00  0.00     0.030 C 
ATOM      5  C   UNL     1      17.335  21.194  43.627  1.00  0.00     0.004 C 
ATOM      6  C   UNL     1      15.637  25.710  44.964  1.00  0.00     0.013 C 
ATOM      7  C   UNL     1      15.500  23.479  46.128  1.00  0.00    -0.063 C 
ATOM      8  C   UNL     1      14.959  21.436  44.472  1.00  0.00    -0.003 C 
ATOM      9  C   UNL     1      16.279  20.627  44.597  1.00  0.00    -0.011 C 
ATOM     10  C   UNL     1      15.724  24.983  46.348  1.00  0.00    -0.006 C 
ATOM     11  C   UNL     1      15.477  22.697  47.225  1.00  0.00    -0.027 C 
ATOM     12  C   UNL     1      13.762  20.856  45.264  1.00  0.00     0.008 C 
ATOM     13  C   UNL     1      16.071  19.133  44.296  1.00  0.00     0.008 C 
ATOM     14  C   UNL     1      17.196  25.188  46.868  1.00  0.00     0.017 C 
ATOM     15  C   UNL     1      14.637  25.522  47.412  1.00  0.00    -0.020 C 
ATOM     16  C   UNL     1      15.485  23.298  48.601  1.00  0.00     0.032 C 
ATOM     17  C   UNL     1      14.505  24.508  48.678  1.00  0.00     0.006 C 
ATOM     18  C   UNL     1      14.993  27.012  47.784  1.00  0.00     0.008 C 
ATOM     19  C   UNL     1      13.226  25.571  46.738  1.00  0.00     0.012 C 
ATOM     20  C   UNL     1      14.303  25.142  50.146  1.00  0.00    -0.025 C 
ATOM     21  C   UNL     1      14.502  27.477  49.143  1.00  0.00     0.005 C 
ATOM     22  C   UNL     1      15.033  26.528  50.236  1.00  0.00     0.003 C 
ATOM     23  C   UNL     1      14.885  24.217  51.266  1.00  0.00     0.010 C 
ATOM     24  C   UNL     1      12.763  25.242  50.404  1.00  0.00     0.012 C 
ATOM     25  C   UNL     1      15.168  27.200  51.670  1.00  0.00    -0.006 C 
ATOM     26  C   UNL     1      14.863  24.842  52.667  1.00  0.00     0.033 C 
ATOM     27  C   UNL     1      15.670  26.144  52.711  1.00  0.00     0.120 C 
ATOM     28  C   UNL     1      16.229  28.339  51.609  1.00  0.00     0.014 C 
ATOM     29  C   UNL     1      13.854  27.858  52.183  1.00  0.00     0.014 C 
ENDROOT
BRANCH   1  30
ATOM     30  C   UNL     1      15.698  23.423  42.245  1.00  0.00     0.048 C 
ATOM     31  O   UNL     1      16.461  23.581  41.256  1.00  0.00    -0.550 OA
ATOM     32  O   UNL     1      14.334  23.266  42.017  1.00  0.00    -0.550 OA
ENDBRANCH   1  30
BRANCH  27  33
ATOM     33  O   UNL     1      17.026  25.828  52.489  1.00  0.00    -0.393 OA
ATOM     34  H   UNL     1      17.168  24.889  52.779  1.00  0.00     0.210 HD
ENDBRANCH  27  33
TORSDOF 2
ENDMDL
MODEL 5
REMARK VINA RESULT:    -6.716      2.287      7.950
REMARK INTER + INTRA:          -7.285
REMARK INTER:                  -7.275
REMARK INTRA:                  -0.010
REMARK UNBOUND:                 0.021
REMARK SMILES C[C@H]1[C@H]2C3=CC[C@H]4[C@@]5(C)CC[C@@H](O)C(C)(C)[C@@H]5CC[C@@]4(C)[C@]3(C)CC[C@@]2(C(=O)[O-])CC[C@@H]1C
REMARK SMILES IDX 26 1 30 2 25 3 3 4 31 5 24 6 4 7 2 8 32 9 22 10 5 11 1 12
REMARK SMILES IDX 33 13 23 14 20 15 6 16 7 17 19 18 21 19 8 20 18 21 17 22
REMARK SMILES IDX 10 23 9 24 14 25 11 26 12 27 15 28 16 29 27 30 28 31 29 32
REMARK SMILES IDX 13 33
REMARK H PARENT 13 34
REMARK Flexibility Score: inf
ROOT
ATOM      1  C   UNL     1      13.477  22.387  45.933  1.00  0.00     0.017 C 
ATOM      2  C   UNL     1      13.267  20.866  45.655  1.00  0.00     0.014 C 
ATOM      3  C   UNL     1      12.809  23.220  44.781  1.00  0.00     0.014 C 
ATOM      4  C   UNL     1      15.025  22.653  46.041  1.00  0.00     0.030 C 
ATOM      5  C   UNL     1      13.913  19.959  46.714  1.00  0.00     0.004 C 
ATOM      6  C   UNL     1      13.754  24.255  44.146  1.00  0.00     0.013 C 
ATOM      7  C   UNL     1      15.666  22.686  44.632  1.00  0.00    -0.063 C 
ATOM      8  C   UNL     1      15.665  21.738  47.145  1.00  0.00    -0.003 C 
ATOM      9  C   UNL     1      15.424  20.229  46.865  1.00  0.00    -0.011 C 
ATOM     10  C   UNL     1      15.035  23.578  43.552  1.00  0.00    -0.006 C 
ATOM     11  C   UNL     1      16.822  22.069  44.318  1.00  0.00    -0.027 C 
ATOM     12  C   UNL     1      17.127  22.111  47.493  1.00  0.00     0.008 C 
ATOM     13  C   UNL     1      15.983  19.339  47.988  1.00  0.00     0.008 C 
ATOM     14  C   UNL     1      14.547  22.653  42.376  1.00  0.00     0.017 C 
ATOM     15  C   UNL     1      16.136  24.647  43.049  1.00  0.00    -0.020 C 
ATOM     16  C   UNL     1      17.545  22.390  43.041  1.00  0.00     0.032 C 
ATOM     17  C   UNL     1      17.575  23.930  42.799  1.00  0.00     0.006 C 
ATOM     18  C   UNL     1      15.552  25.426  41.810  1.00  0.00     0.008 C 
ATOM     19  C   UNL     1      16.368  25.721  44.164  1.00  0.00     0.012 C 
ATOM     20  C   UNL     1      18.461  24.415  41.542  1.00  0.00    -0.025 C 
ATOM     21  C   UNL     1      16.586  26.002  40.860  1.00  0.00     0.005 C 
ATOM     22  C   UNL     1      17.523  24.878  40.372  1.00  0.00     0.003 C 
ATOM     23  C   UNL     1      19.379  23.270  40.999  1.00  0.00     0.010 C 
ATOM     24  C   UNL     1      19.412  25.548  42.050  1.00  0.00     0.012 C 
ATOM     25  C   UNL     1      18.190  25.156  38.957  1.00  0.00    -0.006 C 
ATOM     26  C   UNL     1      20.125  23.627  39.708  1.00  0.00     0.033 C 
ATOM     27  C   UNL     1      19.151  23.981  38.578  1.00  0.00     0.120 C 
ATOM     28  C   UNL     1      17.078  25.222  37.867  1.00  0.00     0.014 C 
ATOM     29  C   UNL     1      18.957  26.507  38.877  1.00  0.00     0.014 C 
ENDROOT
BRANCH   1  30
ATOM     30  C   UNL     1      12.777  22.788  47.231  1.00  0.00     0.048 C 
ATOM     31  O   UNL     1      11.876  22.060  47.727  1.00  0.00    -0.550 OA
ATOM     32  O   UNL     1      13.037  24.021  47.820  1.00  0.00    -0.550 OA
ENDBRANCH   1  30
BRANCH  27  33
ATOM     33  O   UNL     1      18.419  22.821  38.252  1.00  0.00    -0.393 OA
ATOM     34  H   UNL     1      17.643  22.770  38.871  1.00  0.00     0.210 HD
ENDBRANCH  27  33
TORSDOF 2
ENDMDL
MODEL 6
REMARK VINA RESULT:    -6.397      4.618      7.575
REMARK INTER + INTRA:          -6.937
REMARK INTER:                  -6.868
REMARK INTRA:                  -0.069
REMARK UNBOUND:                 0.021
REMARK SMILES C[C@H]1[C@H]2C3=CC[C@H]4[C@@]5(C)CC[C@@H](O)C(C)(C)[C@@H]5CC[C@@]4(C)[C@]3(C)CC[C@@]2(C(=O)[O-])CC[C@@H]1C
REMARK SMILES IDX 26 1 30 2 25 3 3 4 31 5 24 6 4 7 2 8 32 9 22 10 5 11 1 12
REMARK SMILES IDX 33 13 23 14 20 15 6 16 7 17 19 18 21 19 8 20 18 21 17 22
REMARK SMILES IDX 10 23 9 24 14 25 11 26 12 27 15 28 16 29 27 30 28 31 29 32
REMARK SMILES IDX 13 33
REMARK H PARENT 13 34
REMARK Flexibility Score: inf
ROOT
ATOM      1  C   UNL     1      14.935  22.596  44.965  1.00  0.00     0.017 C 
ATOM      2  C   UNL     1      16.353  21.947  44.991  1.00  0.00     0.014 C 
ATOM      3  C   UNL     1      15.077  24.138  44.704  1.00  0.00     0.014 C 
ATOM      4  C   UNL     1      14.233  22.288  46.341  1.00  0.00     0.030 C 
ATOM      5  C   UNL     1      16.326  20.437  45.273  1.00  0.00     0.004 C 
ATOM      6  C   UNL     1      14.331  25.006  45.731  1.00  0.00     0.013 C 
ATOM      7  C   UNL     1      14.784  23.218  47.448  1.00  0.00    -0.063 C 
ATOM      8  C   UNL     1      14.189  20.740  46.602  1.00  0.00    -0.003 C 
ATOM      9  C   UNL     1      15.608  20.107  46.598  1.00  0.00    -0.011 C 
ATOM     10  C   UNL     1      14.831  24.732  47.190  1.00  0.00    -0.006 C 
ATOM     11  C   UNL     1      15.122  22.798  48.684  1.00  0.00    -0.027 C 
ATOM     12  C   UNL     1      13.298  20.335  47.801  1.00  0.00     0.008 C 
ATOM     13  C   UNL     1      15.557  18.579  46.775  1.00  0.00     0.008 C 
ATOM     14  C   UNL     1      16.336  25.191  47.240  1.00  0.00     0.017 C 
ATOM     15  C   UNL     1      13.943  25.481  48.311  1.00  0.00    -0.020 C 
ATOM     16  C   UNL     1      15.351  23.780  49.797  1.00  0.00     0.032 C 
ATOM     17  C   UNL     1      14.247  24.882  49.793  1.00  0.00     0.006 C 
ATOM     18  C   UNL     1      14.153  27.035  48.163  1.00  0.00     0.008 C 
ATOM     19  C   UNL     1      12.425  25.221  48.034  1.00  0.00     0.012 C 
ATOM     20  C   UNL     1      14.289  25.906  51.037  1.00  0.00    -0.025 C 
ATOM     21  C   UNL     1      13.916  27.845  49.424  1.00  0.00     0.005 C 
ATOM     22  C   UNL     1      14.811  27.307  50.559  1.00  0.00     0.003 C 
ATOM     23  C   UNL     1      15.236  25.402  52.176  1.00  0.00     0.010 C 
ATOM     24  C   UNL     1      12.848  25.964  51.644  1.00  0.00     0.012 C 
ATOM     25  C   UNL     1      15.164  28.383  51.674  1.00  0.00    -0.006 C 
ATOM     26  C   UNL     1      15.437  26.412  53.313  1.00  0.00     0.033 C 
ATOM     27  C   UNL     1      16.035  27.725  52.796  1.00  0.00     0.120 C 
ATOM     28  C   UNL     1      16.008  29.529  51.037  1.00  0.00     0.014 C 
ATOM     29  C   UNL     1      13.917  29.063  52.309  1.00  0.00     0.014 C 
ENDROOT
BRANCH   1  30
ATOM     30  C   UNL     1      14.114  22.025  43.810  1.00  0.00     0.048 C 
ATOM     31  O   UNL     1      14.674  21.655  42.744  1.00  0.00    -0.550 OA
ATOM     32  O   UNL     1      12.724  22.019  43.869  1.00  0.00    -0.550 OA
ENDBRANCH   1  30
BRANCH  27  33
ATOM     33  O   UNL     1      17.338  27.460  52.327  1.00  0.00    -0.393 OA
ATOM     34  H   UNL     1      17.977  27.886  52.956  1.00  0.00     0.210 HD
ENDBRANCH  27  33
TORSDOF 2
ENDMDL
MODEL 7
REMARK VINA RESULT:    -6.319      2.175      3.498
REMARK INTER + INTRA:          -6.853
REMARK INTER:                  -7.236
REMARK INTRA:                   0.383
REMARK UNBOUND:                 0.021
REMARK SMILES C[C@H]1[C@H]2C3=CC[C@H]4[C@@]5(C)CC[C@@H](O)C(C)(C)[C@@H]5CC[C@@]4(C)[C@]3(C)CC[C@@]2(C(=O)[O-])CC[C@@H]1C
REMARK SMILES IDX 26 1 30 2 25 3 3 4 31 5 24 6 4 7 2 8 32 9 22 10 5 11 1 12
REMARK SMILES IDX 33 13 23 14 20 15 6 16 7 17 19 18 21 19 8 20 18 21 17 22
REMARK SMILES IDX 10 23 9 24 14 25 11 26 12 27 15 28 16 29 27 30 28 31 29 32
REMARK SMILES IDX 13 33
REMARK H PARENT 13 34
REMARK Flexibility Score: inf
ROOT
ATOM      1  C   UNL     1      18.787  24.975  39.314  1.00  0.00     0.017 C 
ATOM      2  C   UNL     1      18.951  23.582  38.632  1.00  0.00     0.014 C 
ATOM      3  C   UNL     1      19.667  25.019  40.615  1.00  0.00     0.014 C 
ATOM      4  C   UNL     1      17.258  25.190  39.622  1.00  0.00     0.030 C 
ATOM      5  C   UNL     1      18.102  23.424  37.361  1.00  0.00     0.004 C 
ATOM      6  C   UNL     1      18.889  25.460  41.866  1.00  0.00     0.013 C 
ATOM      7  C   UNL     1      16.840  24.379  40.873  1.00  0.00    -0.063 C 
ATOM      8  C   UNL     1      16.408  25.052  38.309  1.00  0.00    -0.003 C 
ATOM      9  C   UNL     1      16.603  23.668  37.630  1.00  0.00    -0.011 C 
ATOM     10  C   UNL     1      17.676  24.512  42.156  1.00  0.00    -0.006 C 
ATOM     11  C   UNL     1      15.712  23.647  40.951  1.00  0.00    -0.027 C 
ATOM     12  C   UNL     1      14.933  25.495  38.472  1.00  0.00     0.008 C 
ATOM     13  C   UNL     1      15.831  23.564  36.303  1.00  0.00     0.008 C 
ATOM     14  C   UNL     1      18.283  23.099  42.493  1.00  0.00     0.017 C 
ATOM     15  C   UNL     1      16.726  25.050  43.345  1.00  0.00    -0.020 C 
ATOM     16  C   UNL     1      15.209  23.143  42.274  1.00  0.00     0.032 C 
ATOM     17  C   UNL     1      15.304  24.260  43.359  1.00  0.00     0.006 C 
ATOM     18  C   UNL     1      17.533  24.996  44.697  1.00  0.00     0.008 C 
ATOM     19  C   UNL     1      16.390  26.559  43.102  1.00  0.00     0.012 C 
ATOM     20  C   UNL     1      14.647  23.896  44.785  1.00  0.00    -0.025 C 
ATOM     21  C   UNL     1      16.689  24.877  45.952  1.00  0.00     0.005 C 
ATOM     22  C   UNL     1      15.776  23.639  45.844  1.00  0.00     0.003 C 
ATOM     23  C   UNL     1      13.758  22.610  44.707  1.00  0.00     0.010 C 
ATOM     24  C   UNL     1      13.695  25.074  45.176  1.00  0.00     0.012 C 
ATOM     25  C   UNL     1      15.347  23.024  47.245  1.00  0.00    -0.006 C 
ATOM     26  C   UNL     1      13.237  22.127  46.066  1.00  0.00     0.033 C 
ATOM     27  C   UNL     1      14.389  21.806  47.025  1.00  0.00     0.120 C 
ATOM     28  C   UNL     1      16.613  22.496  47.986  1.00  0.00     0.014 C 
ATOM     29  C   UNL     1      14.678  24.049  48.206  1.00  0.00     0.014 C 
ENDROOT
BRANCH   1  30
ATOM     30  C   UNL     1      19.304  26.079  38.393  1.00  0.00     0.048 C 
ATOM     31  O   UNL     1      19.426  25.879  37.154  1.00  0.00    -0.550 OA
ATOM     32  O   UNL     1      19.764  27.280  38.922  1.00  0.00    -0.550 OA
ENDBRANCH   1  30
BRANCH  27  33
ATOM     33  O   UNL     1      15.096  20.701  46.507  1.00  0.00    -0.393 OA
ATOM     34  H   UNL     1      14.454  19.948  46.415  1.00  0.00     0.210 HD
ENDBRANCH  27  33
TORSDOF 2
ENDMDL
MODEL 8
REMARK VINA RESULT:    -6.262      3.843      7.283
REMARK INTER + INTRA:          -6.791
REMARK INTER:                  -6.816
REMARK INTRA:                   0.025
REMARK UNBOUND:                 0.021
REMARK SMILES C[C@H]1[C@H]2C3=CC[C@H]4[C@@]5(C)CC[C@@H](O)C(C)(C)[C@@H]5CC[C@@]4(C)[C@]3(C)CC[C@@]2(C(=O)[O-])CC[C@@H]1C
REMARK SMILES IDX 26 1 30 2 25 3 3 4 31 5 24 6 4 7 2 8 32 9 22 10 5 11 1 12
REMARK SMILES IDX 33 13 23 14 20 15 6 16 7 17 19 18 21 19 8 20 18 21 17 22
REMARK SMILES IDX 10 23 9 24 14 25 11 26 12 27 15 28 16 29 27 30 28 31 29 32
REMARK SMILES IDX 13 33
REMARK H PARENT 13 34
REMARK Flexibility Score: inf
ROOT
ATOM      1  C   UNL     1      15.708  19.992  45.968  1.00  0.00     0.017 C 
ATOM      2  C   UNL     1      15.494  18.882  47.042  1.00  0.00     0.014 C 
ATOM      3  C   UNL     1      16.906  20.910  46.406  1.00  0.00     0.014 C 
ATOM      4  C   UNL     1      14.363  20.799  45.825  1.00  0.00     0.030 C 
ATOM      5  C   UNL     1      14.318  17.946  46.722  1.00  0.00     0.004 C 
ATOM      6  C   UNL     1      16.563  22.409  46.403  1.00  0.00     0.013 C 
ATOM      7  C   UNL     1      14.197  21.786  47.006  1.00  0.00    -0.063 C 
ATOM      8  C   UNL     1      13.177  19.832  45.472  1.00  0.00    -0.003 C 
ATOM      9  C   UNL     1      12.995  18.717  46.539  1.00  0.00    -0.011 C 
ATOM     10  C   UNL     1      15.361  22.728  47.353  1.00  0.00    -0.006 C 
ATOM     11  C   UNL     1      13.046  21.960  47.684  1.00  0.00    -0.027 C 
ATOM     12  C   UNL     1      11.875  20.564  45.066  1.00  0.00     0.008 C 
ATOM     13  C   UNL     1      11.885  17.725  46.151  1.00  0.00     0.008 C 
ATOM     14  C   UNL     1      15.843  22.392  48.813  1.00  0.00     0.017 C 
ATOM     15  C   UNL     1      14.850  24.255  47.232  1.00  0.00    -0.020 C 
ATOM     16  C   UNL     1      12.860  23.136  48.599  1.00  0.00     0.032 C 
ATOM     17  C   UNL     1      13.393  24.441  47.932  1.00  0.00     0.006 C 
ATOM     18  C   UNL     1      15.980  25.208  47.777  1.00  0.00     0.008 C 
ATOM     19  C   UNL     1      14.664  24.625  45.723  1.00  0.00     0.012 C 
ATOM     20  C   UNL     1      13.106  25.801  48.748  1.00  0.00    -0.025 C 
ATOM     21  C   UNL     1      15.501  26.550  48.298  1.00  0.00     0.005 C 
ATOM     22  C   UNL     1      14.436  26.330  49.392  1.00  0.00     0.003 C 
ATOM     23  C   UNL     1      12.067  25.584  49.898  1.00  0.00     0.010 C 
ATOM     24  C   UNL     1      12.462  26.818  47.749  1.00  0.00     0.012 C 
ATOM     25  C   UNL     1      14.327  27.517  50.441  1.00  0.00    -0.006 C 
ATOM     26  C   UNL     1      11.876  26.805  50.806  1.00  0.00     0.033 C 
ATOM     27  C   UNL     1      13.192  27.216  51.476  1.00  0.00     0.120 C 
ATOM     28  C   UNL     1      15.665  27.632  51.233  1.00  0.00     0.014 C 
ATOM     29  C   UNL     1      14.087  28.911  49.792  1.00  0.00     0.014 C 
ENDROOT
BRANCH   1  30
ATOM     30  C   UNL     1      16.097  19.366  44.630  1.00  0.00     0.048 C 
ATOM     31  O   UNL     1      16.460  18.161  44.565  1.00  0.00    -0.550 OA
ATOM     32  O   UNL     1      16.174  20.148  43.482  1.00  0.00    -0.550 OA
ENDBRANCH   1  30
BRANCH  27  33
ATOM     33  O   UNL     1      13.578  26.182  52.354  1.00  0.00    -0.393 OA
ATOM     34  H   UNL     1      13.648  26.570  53.266  1.00  0.00     0.210 HD
ENDBRANCH  27  33
TORSDOF 2
ENDMDL
MODEL 9
REMARK VINA RESULT:    -6.196      1.946      3.684
REMARK INTER + INTRA:          -6.719
REMARK INTER:                  -6.960
REMARK INTRA:                   0.241
REMARK UNBOUND:                 0.021
REMARK SMILES C[C@H]1[C@H]2C3=CC[C@H]4[C@@]5(C)CC[C@@H](O)C(C)(C)[C@@H]5CC[C@@]4(C)[C@]3(C)CC[C@@]2(C(=O)[O-])CC[C@@H]1C
REMARK SMILES IDX 26 1 30 2 25 3 3 4 31 5 24 6 4 7 2 8 32 9 22 10 5 11 1 12
REMARK SMILES IDX 33 13 23 14 20 15 6 16 7 17 19 18 21 19 8 20 18 21 17 22
REMARK SMILES IDX 10 23 9 24 14 25 11 26 12 27 15 28 16 29 27 30 28 31 29 32
REMARK SMILES IDX 13 33
REMARK H PARENT 13 34
REMARK Flexibility Score: inf
ROOT
ATOM      1  C   UNL     1      15.275  24.940  41.809  1.00  0.00     0.017 C 
ATOM      2  C   UNL     1      15.780  26.277  42.435  1.00  0.00     0.014 C 
ATOM      3  C   UNL     1      13.823  24.643  42.329  1.00  0.00     0.014 C 
ATOM      4  C   UNL     1      16.293  23.804  42.203  1.00  0.00     0.030 C 
ATOM      5  C   UNL     1      17.211  26.644  42.012  1.00  0.00     0.004 C 
ATOM      6  C   UNL     1      13.661  23.233  42.923  1.00  0.00     0.013 C 
ATOM      7  C   UNL     1      16.066  23.360  43.668  1.00  0.00    -0.063 C 
ATOM      8  C   UNL     1      17.745  24.182  41.741  1.00  0.00    -0.003 C 
ATOM      9  C   UNL     1      18.220  25.529  42.352  1.00  0.00    -0.011 C 
ATOM     10  C   UNL     1      14.643  22.995  44.120  1.00  0.00    -0.006 C 
ATOM     11  C   UNL     1      17.060  23.156  44.554  1.00  0.00    -0.027 C 
ATOM     12  C   UNL     1      18.759  23.019  41.859  1.00  0.00     0.008 C 
ATOM     13  C   UNL     1      19.611  25.936  41.837  1.00  0.00     0.008 C 
ATOM     14  C   UNL     1      14.216  23.999  45.254  1.00  0.00     0.017 C 
ATOM     15  C   UNL     1      14.637  21.468  44.644  1.00  0.00    -0.020 C 
ATOM     16  C   UNL     1      16.805  22.435  45.847  1.00  0.00     0.032 C 
ATOM     17  C   UNL     1      15.914  21.177  45.609  1.00  0.00     0.006 C 
ATOM     18  C   UNL     1      13.231  21.163  45.287  1.00  0.00     0.008 C 
ATOM     19  C   UNL     1      14.775  20.497  43.426  1.00  0.00     0.012 C 
ATOM     20  C   UNL     1      15.701  20.228  46.894  1.00  0.00    -0.025 C 
ATOM     21  C   UNL     1      13.220  20.060  46.330  1.00  0.00     0.005 C 
ATOM     22  C   UNL     1      14.238  20.389  47.441  1.00  0.00     0.003 C 
ATOM     23  C   UNL     1      16.690  20.583  48.053  1.00  0.00     0.010 C 
ATOM     24  C   UNL     1      16.033  18.764  46.455  1.00  0.00     0.012 C 
ATOM     25  C   UNL     1      13.900  19.733  48.848  1.00  0.00    -0.006 C 
ATOM     26  C   UNL     1      16.426  19.820  49.356  1.00  0.00     0.033 C 
ATOM     27  C   UNL     1      15.013  20.090  49.888  1.00  0.00     0.120 C 
ATOM     28  C   UNL     1      12.556  20.317  49.380  1.00  0.00     0.014 C 
ATOM     29  C   UNL     1      13.710  18.189  48.793  1.00  0.00     0.014 C 
ENDROOT
BRANCH   1  30
ATOM     30  C   UNL     1      15.184  25.069  40.290  1.00  0.00     0.048 C 
ATOM     31  O   UNL     1      14.255  25.732  39.755  1.00  0.00    -0.550 OA
ATOM     32  O   UNL     1      16.053  24.357  39.469  1.00  0.00    -0.550 OA
ENDBRANCH   1  30
BRANCH  27  33
ATOM     33  O   UNL     1      14.936  21.450  50.255  1.00  0.00    -0.393 OA
ATOM     34  H   UNL     1      14.479  21.935  49.519  1.00  0.00     0.210 HD
ENDBRANCH  27  33
TORSDOF 2
ENDMDL
