MODEL 1
REMARK VINA RESULT:    -4.526      0.000      0.000
REMARK INTER + INTRA:          -4.917
REMARK INTER:                  -4.791
REMARK INTRA:                  -0.126
REMARK UNBOUND:                -0.126
REMARK SMILES C=C(C)[C@H]1CC=C(C)CC1
REMARK SMILES IDX 8 1 7 2 6 3 5 4 4 5 10 6 9 7 2 8 1 9 3 10
REMARK H PARENT
REMARK Flexibility Score: inf
ROOT
ATOM      1  C   UNL     1      29.863  21.998  13.553  1.00  0.00     0.039 C 
ATOM      2  C   UNL     1      29.678  23.379  12.985  1.00  0.00    -0.077 C 
ATOM      3  C   UNL     1      30.761  24.166  12.809  1.00  0.00    -0.027 C 
ATOM      4  C   UNL     1      30.673  25.582  12.297  1.00  0.00     0.035 C 
ATOM      5  C   UNL     1      29.382  25.831  11.497  1.00  0.00     0.018 C 
ATOM      6  C   UNL     1      28.172  25.304  12.283  1.00  0.00     0.013 C 
ATOM      7  C   UNL     1      28.301  23.792  12.503  1.00  0.00     0.031 C 
ENDROOT
BRANCH   5   8
ATOM      8  C   UNL     1      29.223  27.303  11.135  1.00  0.00    -0.077 C 
ATOM      9  C   UNL     1      30.148  27.949  10.403  1.00  0.00     0.008 C 
ATOM     10  C   UNL     1      28.012  28.069  11.602  1.00  0.00     0.039 C 
ENDBRANCH   5   8
TORSDOF 1
ENDMDL
MODEL 2
REMARK VINA RESULT:    -4.519      1.132      4.651
REMARK INTER + INTRA:          -4.909
REMARK INTER:                  -4.782
REMARK INTRA:                  -0.128
REMARK UNBOUND:                -0.126
REMARK SMILES C=C(C)[C@H]1CC=C(C)CC1
REMARK SMILES IDX 8 1 7 2 6 3 5 4 4 5 10 6 9 7 2 8 1 9 3 10
REMARK H PARENT
REMARK Flexibility Score: inf
ROOT
ATOM      1  C   UNL     1      30.331  29.916  11.145  1.00  0.00     0.039 C 
ATOM      2  C   UNL     1      29.874  28.516  11.452  1.00  0.00    -0.077 C 
ATOM      3  C   UNL     1      28.551  28.250  11.482  1.00  0.00    -0.027 C 
ATOM      4  C   UNL     1      27.993  26.893  11.832  1.00  0.00     0.035 C 
ATOM      5  C   UNL     1      29.016  25.767  11.600  1.00  0.00     0.018 C 
ATOM      6  C   UNL     1      30.362  26.146  12.236  1.00  0.00     0.013 C 
ATOM      7  C   UNL     1      30.914  27.421  11.586  1.00  0.00     0.031 C 
ENDROOT
BRANCH   5   8
ATOM      8  C   UNL     1      28.503  24.429  12.119  1.00  0.00    -0.077 C 
ATOM      9  C   UNL     1      27.255  24.006  11.852  1.00  0.00     0.008 C 
ATOM     10  C   UNL     1      29.398  23.550  12.953  1.00  0.00     0.039 C 
ENDBRANCH   5   8
TORSDOF 1
ENDMDL
MODEL 3
REMARK VINA RESULT:    -4.402      0.383      1.956
REMARK INTER + INTRA:          -4.784
REMARK INTER:                  -4.658
REMARK INTRA:                  -0.127
REMARK UNBOUND:                -0.126
REMARK SMILES C=C(C)[C@H]1CC=C(C)CC1
REMARK SMILES IDX 8 1 7 2 6 3 5 4 4 5 10 6 9 7 2 8 1 9 3 10
REMARK H PARENT
REMARK Flexibility Score: inf
ROOT
ATOM      1  C   UNL     1      29.867  21.925  13.609  1.00  0.00     0.039 C 
ATOM      2  C   UNL     1      29.657  23.286  13.003  1.00  0.00    -0.077 C 
ATOM      3  C   UNL     1      28.398  23.750  12.856  1.00  0.00    -0.027 C 
ATOM      4  C   UNL     1      28.081  25.077  12.212  1.00  0.00     0.035 C 
ATOM      5  C   UNL     1      29.276  26.046  12.260  1.00  0.00     0.018 C 
ATOM      6  C   UNL     1      30.547  25.329  11.779  1.00  0.00     0.013 C 
ATOM      7  C   UNL     1      30.868  24.146  12.699  1.00  0.00     0.031 C 
ENDROOT
BRANCH   5   8
ATOM      8  C   UNL     1      29.004  27.311  11.456  1.00  0.00    -0.077 C 
ATOM      9  C   UNL     1      27.898  28.049  11.664  1.00  0.00     0.008 C 
ATOM     10  C   UNL     1      29.979  27.760  10.399  1.00  0.00     0.039 C 
ENDBRANCH   5   8
TORSDOF 1
ENDMDL
MODEL 4
REMARK VINA RESULT:    -4.357      1.052      4.658
REMARK INTER + INTRA:          -4.738
REMARK INTER:                  -4.608
REMARK INTRA:                  -0.129
REMARK UNBOUND:                -0.126
REMARK SMILES C=C(C)[C@H]1CC=C(C)CC1
REMARK SMILES IDX 8 1 7 2 6 3 5 4 4 5 10 6 9 7 2 8 1 9 3 10
REMARK H PARENT
REMARK Flexibility Score: inf
ROOT
ATOM      1  C   UNL     1      28.207  27.845  11.535  1.00  0.00     0.039 C 
ATOM      2  C   UNL     1      28.813  26.510  11.872  1.00  0.00    -0.077 C 
ATOM      3  C   UNL     1      27.996  25.473  12.156  1.00  0.00    -0.027 C 
ATOM      4  C   UNL     1      28.507  24.110  12.556  1.00  0.00     0.035 C 
ATOM      5  C   UNL     1      29.949  23.867  12.078  1.00  0.00     0.018 C 
ATOM      6  C   UNL     1      30.830  25.071  12.446  1.00  0.00     0.013 C 
ATOM      7  C   UNL     1      30.314  26.337  11.751  1.00  0.00     0.031 C 
ENDROOT
BRANCH   5   8
ATOM      8  C   UNL     1      30.512  22.566  12.636  1.00  0.00    -0.077 C 
ATOM      9  C   UNL     1      29.917  21.926  13.658  1.00  0.00     0.008 C 
ATOM     10  C   UNL     1      31.763  21.969  12.044  1.00  0.00     0.039 C 
ENDBRANCH   5   8
TORSDOF 1
ENDMDL
MODEL 5
REMARK VINA RESULT:    -4.340      0.985      4.424
REMARK INTER + INTRA:          -4.720
REMARK INTER:                  -4.592
REMARK INTRA:                  -0.128
REMARK UNBOUND:                -0.126
REMARK SMILES C=C(C)[C@H]1CC=C(C)CC1
REMARK SMILES IDX 8 1 7 2 6 3 5 4 4 5 10 6 9 7 2 8 1 9 3 10
REMARK H PARENT
REMARK Flexibility Score: inf
ROOT
ATOM      1  C   UNL     1      28.311  27.761  11.488  1.00  0.00     0.039 C 
ATOM      2  C   UNL     1      28.869  26.398  11.799  1.00  0.00    -0.077 C 
ATOM      3  C   UNL     1      30.208  26.232  11.837  1.00  0.00    -0.027 C 
ATOM      4  C   UNL     1      30.864  24.896  12.088  1.00  0.00     0.035 C 
ATOM      5  C   UNL     1      29.928  23.919  12.822  1.00  0.00     0.018 C 
ATOM      6  C   UNL     1      28.554  23.897  12.136  1.00  0.00     0.013 C 
ATOM      7  C   UNL     1      27.913  25.289  12.191  1.00  0.00     0.031 C 
ENDROOT
BRANCH   5   8
ATOM      8  C   UNL     1      30.535  22.524  12.914  1.00  0.00    -0.077 C 
ATOM      9  C   UNL     1      29.987  21.571  13.688  1.00  0.00     0.008 C 
ATOM     10  C   UNL     1      31.778  22.189  12.131  1.00  0.00     0.039 C 
ENDBRANCH   5   8
TORSDOF 1
ENDMDL
MODEL 6
REMARK VINA RESULT:    -4.303      1.098      4.380
REMARK INTER + INTRA:          -4.680
REMARK INTER:                  -4.555
REMARK INTRA:                  -0.126
REMARK UNBOUND:                -0.126
REMARK SMILES C=C(C)[C@H]1CC=C(C)CC1
REMARK SMILES IDX 8 1 7 2 6 3 5 4 4 5 10 6 9 7 2 8 1 9 3 10
REMARK H PARENT
REMARK Flexibility Score: inf
ROOT
ATOM      1  C   UNL     1      30.679  29.643  10.956  1.00  0.00     0.039 C 
ATOM      2  C   UNL     1      30.088  28.293  11.258  1.00  0.00    -0.077 C 
ATOM      3  C   UNL     1      30.839  27.189  11.059  1.00  0.00    -0.027 C 
ATOM      4  C   UNL     1      30.319  25.790  11.282  1.00  0.00     0.035 C 
ATOM      5  C   UNL     1      29.121  25.763  12.247  1.00  0.00     0.018 C 
ATOM      6  C   UNL     1      28.092  26.825  11.831  1.00  0.00     0.013 C 
ATOM      7  C   UNL     1      28.716  28.223  11.901  1.00  0.00     0.031 C 
ENDROOT
BRANCH   5   8
ATOM      8  C   UNL     1      28.498  24.374  12.327  1.00  0.00    -0.077 C 
ATOM      9  C   UNL     1      27.292  24.116  11.792  1.00  0.00     0.008 C 
ATOM     10  C   UNL     1      29.233  23.256  13.020  1.00  0.00     0.039 C 
ENDBRANCH   5   8
TORSDOF 1
ENDMDL
MODEL 7
REMARK VINA RESULT:    -4.201      1.298      2.353
REMARK INTER + INTRA:          -4.572
REMARK INTER:                  -4.442
REMARK INTRA:                  -0.130
REMARK UNBOUND:                -0.126
REMARK SMILES C=C(C)[C@H]1CC=C(C)CC1
REMARK SMILES IDX 8 1 7 2 6 3 5 4 4 5 10 6 9 7 2 8 1 9 3 10
REMARK H PARENT
REMARK Flexibility Score: inf
ROOT
ATOM      1  C   UNL     1      30.961  20.381  13.653  1.00  0.00     0.039 C 
ATOM      2  C   UNL     1      30.582  21.711  13.062  1.00  0.00    -0.077 C 
ATOM      3  C   UNL     1      29.555  22.400  13.604  1.00  0.00    -0.027 C 
ATOM      4  C   UNL     1      29.065  23.716  13.051  1.00  0.00     0.035 C 
ATOM      5  C   UNL     1      30.144  24.435  12.222  1.00  0.00     0.018 C 
ATOM      6  C   UNL     1      30.771  23.455  11.220  1.00  0.00     0.013 C 
ATOM      7  C   UNL     1      31.448  22.297  11.964  1.00  0.00     0.031 C 
ENDROOT
BRANCH   5   8
ATOM      8  C   UNL     1      29.585  25.671  11.528  1.00  0.00    -0.077 C 
ATOM      9  C   UNL     1      30.281  26.314  10.574  1.00  0.00     0.008 C 
ATOM     10  C   UNL     1      28.227  26.202  11.909  1.00  0.00     0.039 C 
ENDBRANCH   5   8
TORSDOF 1
ENDMDL
MODEL 8
REMARK VINA RESULT:    -3.852      1.231      4.160
REMARK INTER + INTRA:          -4.203
REMARK INTER:                  -4.074
REMARK INTRA:                  -0.129
REMARK UNBOUND:                -0.126
REMARK SMILES C=C(C)[C@H]1CC=C(C)CC1
REMARK SMILES IDX 8 1 7 2 6 3 5 4 4 5 10 6 9 7 2 8 1 9 3 10
REMARK H PARENT
REMARK Flexibility Score: inf
ROOT
ATOM      1  C   UNL     1      31.803  27.688   9.639  1.00  0.00     0.039 C 
ATOM      2  C   UNL     1      31.072  26.651  10.446  1.00  0.00    -0.077 C 
ATOM      3  C   UNL     1      31.656  25.452  10.655  1.00  0.00    -0.027 C 
ATOM      4  C   UNL     1      30.983  24.329  11.405  1.00  0.00     0.035 C 
ATOM      5  C   UNL     1      29.879  24.840  12.347  1.00  0.00     0.018 C 
ATOM      6  C   UNL     1      28.962  25.817  11.595  1.00  0.00     0.013 C 
ATOM      7  C   UNL     1      29.764  27.031  11.112  1.00  0.00     0.031 C 
ENDROOT
BRANCH   5   8
ATOM      8  C   UNL     1      29.093  23.690  12.965  1.00  0.00    -0.077 C 
ATOM      9  C   UNL     1      29.696  22.545  13.328  1.00  0.00     0.008 C 
ATOM     10  C   UNL     1      27.607  23.820  13.178  1.00  0.00     0.039 C 
ENDBRANCH   5   8
TORSDOF 1
ENDMDL
MODEL 9
REMARK VINA RESULT:    -3.746      1.476      2.403
REMARK INTER + INTRA:          -4.091
REMARK INTER:                  -3.969
REMARK INTRA:                  -0.122
REMARK UNBOUND:                -0.126
REMARK SMILES C=C(C)[C@H]1CC=C(C)CC1
REMARK SMILES IDX 8 1 7 2 6 3 5 4 4 5 10 6 9 7 2 8 1 9 3 10
REMARK H PARENT
REMARK Flexibility Score: inf
ROOT
ATOM      1  C   UNL     1      27.156  23.856  12.383  1.00  0.00     0.039 C 
ATOM      2  C   UNL     1      28.212  24.882  12.070  1.00  0.00    -0.077 C 
ATOM      3  C   UNL     1      29.481  24.474  11.863  1.00  0.00    -0.027 C 
ATOM      4  C   UNL     1      30.619  25.429  11.595  1.00  0.00     0.035 C 
ATOM      5  C   UNL     1      30.126  26.778  11.041  1.00  0.00     0.018 C 
ATOM      6  C   UNL     1      28.969  27.304  11.904  1.00  0.00     0.013 C 
ATOM      7  C   UNL     1      27.791  26.324  11.865  1.00  0.00     0.031 C 
ENDROOT
BRANCH   5   8
ATOM      8  C   UNL     1      31.261  27.789  10.940  1.00  0.00    -0.077 C 
ATOM      9  C   UNL     1      31.584  28.365   9.769  1.00  0.00     0.008 C 
ATOM     10  C   UNL     1      32.052  28.162  12.167  1.00  0.00     0.039 C 
ENDBRANCH   5   8
TORSDOF 1
ENDMDL
