MODEL 1
REMARK VINA RESULT:    -4.621      0.000      0.000
REMARK INTER + INTRA:          -9.834
REMARK INTER:                  -8.402
REMARK INTRA:                  -1.431
REMARK UNBOUND:                -1.431
REMARK SMILES CCCCCCCCCCCCCCCC(=O)[O-]
REMARK SMILES IDX 9 1 10 2 11 3 12 4 13 5 14 6 15 7 16 8 17 9 18 10 8 11 7 12
REMARK SMILES IDX 6 13 5 14 4 15 3 16 2 17 1 18
REMARK H PARENT
REMARK Flexibility Score: inf
ROOT
ATOM      1  C   UNL     1      31.393   8.768  48.744  1.00  0.00     0.000 C 
ENDROOT
BRANCH   1   2
ATOM      2  C   UNL     1      30.043   8.070  48.995  1.00  0.00     0.000 C 
BRANCH   2   3
ATOM      3  C   UNL     1      30.035   6.598  48.550  1.00  0.00     0.000 C 
BRANCH   3   4
ATOM      4  C   UNL     1      31.116   6.292  47.502  1.00  0.00     0.000 C 
BRANCH   4   5
ATOM      5  C   UNL     1      32.218   5.366  48.039  1.00  0.00     0.000 C 
BRANCH   5   6
ATOM      6  C   UNL     1      33.599   6.028  47.916  1.00  0.00     0.006 C 
BRANCH   6   7
ATOM      7  C   UNL     1      34.196   5.870  46.512  1.00  0.00     0.053 C 
BRANCH   7   8
ATOM      8  C   UNL     1      35.237   4.792  46.469  1.00  0.00     0.041 C 
ATOM      9  O   UNL     1      35.984   4.592  47.462  1.00  0.00    -0.550 OA
ATOM     10  O   UNL     1      35.356   3.985  45.345  1.00  0.00    -0.550 OA
ENDBRANCH   7   8
ENDBRANCH   6   7
ENDBRANCH   5   6
ENDBRANCH   4   5
ENDBRANCH   3   4
ENDBRANCH   2   3
ENDBRANCH   1   2
BRANCH   1  11
ATOM     11  C   UNL     1      32.320   8.874  49.969  1.00  0.00     0.000 C 
BRANCH  11  12
ATOM     12  C   UNL     1      33.655   9.571  49.654  1.00  0.00    -0.000 C 
BRANCH  12  13
ATOM     13  C   UNL     1      33.509  10.720  48.639  1.00  0.00    -0.000 C 
BRANCH  13  14
ATOM     14  C   UNL     1      34.645  10.836  47.605  1.00  0.00    -0.000 C 
BRANCH  14  15
ATOM     15  C   UNL     1      34.355  10.068  46.305  1.00  0.00    -0.000 C 
BRANCH  15  16
ATOM     16  C   UNL     1      34.601  10.920  45.049  1.00  0.00    -0.000 C 
BRANCH  16  17
ATOM     17  C   UNL     1      34.482  10.108  43.750  1.00  0.00    -0.003 C 
ATOM     18  C   UNL     1      34.426   8.611  44.042  1.00  0.00     0.004 C 
ENDBRANCH  16  17
ENDBRANCH  15  16
ENDBRANCH  14  15
ENDBRANCH  13  14
ENDBRANCH  12  13
ENDBRANCH  11  12
ENDBRANCH   1  11
TORSDOF 14
ENDMDL
MODEL 2
REMARK VINA RESULT:    -4.540      1.219      1.730
REMARK INTER + INTRA:          -9.686
REMARK INTER:                  -8.026
REMARK INTRA:                  -1.661
REMARK UNBOUND:                -1.431
REMARK SMILES CCCCCCCCCCCCCCCC(=O)[O-]
REMARK SMILES IDX 9 1 10 2 11 3 12 4 13 5 14 6 15 7 16 8 17 9 18 10 8 11 7 12
REMARK SMILES IDX 6 13 5 14 4 15 3 16 2 17 1 18
REMARK H PARENT
REMARK Flexibility Score: inf
ROOT
ATOM      1  C   UNL     1      31.896  10.030  49.065  1.00  0.00     0.000 C 
ENDROOT
BRANCH   1   2
ATOM      2  C   UNL     1      31.268   8.877  49.870  1.00  0.00     0.000 C 
BRANCH   2   3
ATOM      3  C   UNL     1      30.140   8.159  49.111  1.00  0.00     0.000 C 
BRANCH   3   4
ATOM      4  C   UNL     1      30.002   6.683  49.518  1.00  0.00     0.000 C 
BRANCH   4   5
ATOM      5  C   UNL     1      30.297   5.718  48.359  1.00  0.00     0.000 C 
BRANCH   5   6
ATOM      6  C   UNL     1      31.522   6.183  47.557  1.00  0.00     0.006 C 
BRANCH   6   7
ATOM      7  C   UNL     1      32.842   5.813  48.246  1.00  0.00     0.053 C 
BRANCH   7   8
ATOM      8  C   UNL     1      33.924   5.518  47.252  1.00  0.00     0.041 C 
ATOM      9  O   UNL     1      34.696   4.539  47.428  1.00  0.00    -0.550 OA
ATOM     10  O   UNL     1      34.056   6.303  46.113  1.00  0.00    -0.550 OA
ENDBRANCH   7   8
ENDBRANCH   6   7
ENDBRANCH   5   6
ENDBRANCH   4   5
ENDBRANCH   3   4
ENDBRANCH   2   3
ENDBRANCH   1   2
BRANCH   1  11
ATOM     11  C   UNL     1      32.721   9.606  47.836  1.00  0.00     0.000 C 
BRANCH  11  12
ATOM     12  C   UNL     1      34.223   9.470  48.138  1.00  0.00    -0.000 C 
BRANCH  12  13
ATOM     13  C   UNL     1      34.875  10.800  48.559  1.00  0.00    -0.000 C 
BRANCH  13  14
ATOM     14  C   UNL     1      35.172  11.783  47.411  1.00  0.00    -0.000 C 
BRANCH  14  15
ATOM     15  C   UNL     1      35.558  11.078  46.100  1.00  0.00    -0.000 C 
BRANCH  15  16
ATOM     16  C   UNL     1      34.907  11.727  44.868  1.00  0.00    -0.000 C 
BRANCH  16  17
ATOM     17  C   UNL     1      34.188  10.706  43.972  1.00  0.00    -0.003 C 
ATOM     18  C   UNL     1      34.791   9.313  44.135  1.00  0.00     0.004 C 
ENDBRANCH  16  17
ENDBRANCH  15  16
ENDBRANCH  14  15
ENDBRANCH  13  14
ENDBRANCH  12  13
ENDBRANCH  11  12
ENDBRANCH   1  11
TORSDOF 14
ENDMDL
MODEL 3
REMARK VINA RESULT:    -4.487      2.301      5.003
REMARK INTER + INTRA:          -9.591
REMARK INTER:                  -7.860
REMARK INTRA:                  -1.731
REMARK UNBOUND:                -1.431
REMARK SMILES CCCCCCCCCCCCCCCC(=O)[O-]
REMARK SMILES IDX 9 1 10 2 11 3 12 4 13 5 14 6 15 7 16 8 17 9 18 10 8 11 7 12
REMARK SMILES IDX 6 13 5 14 4 15 3 16 2 17 1 18
REMARK H PARENT
REMARK Flexibility Score: inf
ROOT
ATOM      1  C   UNL     1      31.253   9.041  48.640  1.00  0.00     0.000 C 
ENDROOT
BRANCH   1   2
ATOM      2  C   UNL     1      32.362   9.587  49.559  1.00  0.00     0.000 C 
BRANCH   2   3
ATOM      3  C   UNL     1      32.580  11.101  49.404  1.00  0.00     0.000 C 
BRANCH   3   4
ATOM      4  C   UNL     1      34.062  11.468  49.221  1.00  0.00     0.000 C 
BRANCH   4   5
ATOM      5  C   UNL     1      34.840  10.412  48.421  1.00  0.00     0.000 C 
BRANCH   5   6
ATOM      6  C   UNL     1      35.041  10.865  46.967  1.00  0.00     0.006 C 
BRANCH   6   7
ATOM      7  C   UNL     1      34.096  10.144  45.998  1.00  0.00     0.053 C 
BRANCH   7   8
ATOM      8  C   UNL     1      34.589  10.213  44.585  1.00  0.00     0.041 C 
ATOM      9  O   UNL     1      35.088   9.195  44.037  1.00  0.00    -0.550 OA
ATOM     10  O   UNL     1      34.464  11.392  43.860  1.00  0.00    -0.550 OA
ENDBRANCH   7   8
ENDBRANCH   6   7
ENDBRANCH   5   6
ENDBRANCH   4   5
ENDBRANCH   3   4
ENDBRANCH   2   3
ENDBRANCH   1   2
BRANCH   1  11
ATOM     11  C   UNL     1      30.239   8.099  49.315  1.00  0.00     0.000 C 
BRANCH  11  12
ATOM     12  C   UNL     1      29.869   6.889  48.442  1.00  0.00    -0.000 C 
BRANCH  12  13
ATOM     13  C   UNL     1      31.027   6.419  47.541  1.00  0.00    -0.000 C 
BRANCH  13  14
ATOM     14  C   UNL     1      31.994   5.407  48.183  1.00  0.00    -0.000 C 
BRANCH  14  15
ATOM     15  C   UNL     1      33.471   5.806  48.028  1.00  0.00    -0.000 C 
BRANCH  15  16
ATOM     16  C   UNL     1      33.711   6.723  46.817  1.00  0.00    -0.000 C 
BRANCH  16  17
ATOM     17  C   UNL     1      34.244   5.961  45.595  1.00  0.00    -0.003 C 
ATOM     18  C   UNL     1      35.122   4.787  46.020  1.00  0.00     0.004 C 
ENDBRANCH  16  17
ENDBRANCH  15  16
ENDBRANCH  14  15
ENDBRANCH  13  14
ENDBRANCH  12  13
ENDBRANCH  11  12
ENDBRANCH   1  11
TORSDOF 14
ENDMDL
MODEL 4
REMARK VINA RESULT:    -4.358      1.587      2.309
REMARK INTER + INTRA:          -9.357
REMARK INTER:                  -7.814
REMARK INTRA:                  -1.543
REMARK UNBOUND:                -1.431
REMARK SMILES CCCCCCCCCCCCCCCC(=O)[O-]
REMARK SMILES IDX 9 1 10 2 11 3 12 4 13 5 14 6 15 7 16 8 17 9 18 10 8 11 7 12
REMARK SMILES IDX 6 13 5 14 4 15 3 16 2 17 1 18
REMARK H PARENT
REMARK Flexibility Score: inf
ROOT
ATOM      1  C   UNL     1      31.481   8.743  50.125  1.00  0.00     0.000 C 
ENDROOT
BRANCH   1   2
ATOM      2  C   UNL     1      30.429   8.385  49.059  1.00  0.00     0.000 C 
BRANCH   2   3
ATOM      3  C   UNL     1      29.702   7.062  49.352  1.00  0.00     0.000 C 
BRANCH   3   4
ATOM      4  C   UNL     1      29.997   5.980  48.301  1.00  0.00     0.000 C 
BRANCH   4   5
ATOM      5  C   UNL     1      31.229   6.308  47.442  1.00  0.00     0.000 C 
BRANCH   5   6
ATOM      6  C   UNL     1      32.459   5.525  47.928  1.00  0.00     0.006 C 
BRANCH   6   7
ATOM      7  C   UNL     1      33.772   6.253  47.613  1.00  0.00     0.053 C 
BRANCH   7   8
ATOM      8  C   UNL     1      34.362   5.799  46.312  1.00  0.00     0.041 C 
ATOM      9  O   UNL     1      35.015   4.724  46.254  1.00  0.00    -0.550 OA
ATOM     10  O   UNL     1      34.160   6.545  45.158  1.00  0.00    -0.550 OA
ENDBRANCH   7   8
ENDBRANCH   6   7
ENDBRANCH   5   6
ENDBRANCH   4   5
ENDBRANCH   3   4
ENDBRANCH   2   3
ENDBRANCH   1   2
BRANCH   1  11
ATOM     11  C   UNL     1      32.732   9.472  49.600  1.00  0.00     0.000 C 
BRANCH  11  12
ATOM     12  C   UNL     1      32.677   9.749  48.089  1.00  0.00    -0.000 C 
BRANCH  12  13
ATOM     13  C   UNL     1      34.061  10.043  47.479  1.00  0.00    -0.000 C 
BRANCH  13  14
ATOM     14  C   UNL     1      34.133   9.974  45.942  1.00  0.00    -0.000 C 
BRANCH  14  15
ATOM     15  C   UNL     1      35.132  10.978  45.342  1.00  0.00    -0.000 C 
BRANCH  15  16
ATOM     16  C   UNL     1      35.775  11.880  46.409  1.00  0.00    -0.000 C 
BRANCH  16  17
ATOM     17  C   UNL     1      35.875  13.346  45.962  1.00  0.00    -0.003 C 
ATOM     18  C   UNL     1      37.322  13.832  45.998  1.00  0.00     0.004 C 
ENDBRANCH  16  17
ENDBRANCH  15  16
ENDBRANCH  14  15
ENDBRANCH  13  14
ENDBRANCH  12  13
ENDBRANCH  11  12
ENDBRANCH   1  11
TORSDOF 14
ENDMDL
MODEL 5
REMARK VINA RESULT:    -4.349     17.899     19.918
REMARK INTER + INTRA:          -9.340
REMARK INTER:                  -7.311
REMARK INTRA:                  -2.030
REMARK UNBOUND:                -1.431
REMARK SMILES CCCCCCCCCCCCCCCC(=O)[O-]
REMARK SMILES IDX 9 1 10 2 11 3 12 4 13 5 14 6 15 7 16 8 17 9 18 10 8 11 7 12
REMARK SMILES IDX 6 13 5 14 4 15 3 16 2 17 1 18
REMARK H PARENT
REMARK Flexibility Score: inf
ROOT
ATOM      1  C   UNL     1      20.955  13.973  34.335  1.00  0.00     0.000 C 
ENDROOT
BRANCH   1   2
ATOM      2  C   UNL     1      20.034  13.670  33.138  1.00  0.00     0.000 C 
BRANCH   2   3
ATOM      3  C   UNL     1      20.519  12.481  32.292  1.00  0.00     0.000 C 
BRANCH   3   4
ATOM      4  C   UNL     1      21.828  12.784  31.544  1.00  0.00     0.000 C 
BRANCH   4   5
ATOM      5  C   UNL     1      21.717  14.012  30.628  1.00  0.00     0.000 C 
BRANCH   5   6
ATOM      6  C   UNL     1      22.805  15.044  30.961  1.00  0.00     0.006 C 
BRANCH   6   7
ATOM      7  C   UNL     1      22.214  16.394  31.389  1.00  0.00     0.053 C 
BRANCH   7   8
ATOM      8  C   UNL     1      23.088  17.539  30.977  1.00  0.00     0.041 C 
ATOM      9  O   UNL     1      24.330  17.376  30.853  1.00  0.00    -0.550 OA
ATOM     10  O   UNL     1      22.525  18.778  30.694  1.00  0.00    -0.550 OA
ENDBRANCH   7   8
ENDBRANCH   6   7
ENDBRANCH   5   6
ENDBRANCH   4   5
ENDBRANCH   3   4
ENDBRANCH   2   3
ENDBRANCH   1   2
BRANCH   1  11
ATOM     11  C   UNL     1      20.336  13.730  35.723  1.00  0.00     0.000 C 
BRANCH  11  12
ATOM     12  C   UNL     1      19.139  12.765  35.687  1.00  0.00    -0.000 C 
BRANCH  12  13
ATOM     13  C   UNL     1      19.489  11.351  36.186  1.00  0.00    -0.000 C 
BRANCH  13  14
ATOM     14  C   UNL     1      19.510  10.255  35.104  1.00  0.00    -0.000 C 
BRANCH  14  15
ATOM     15  C   UNL     1      20.915   9.679  34.859  1.00  0.00    -0.000 C 
BRANCH  15  16
ATOM     16  C   UNL     1      21.970  10.276  35.805  1.00  0.00    -0.000 C 
BRANCH  16  17
ATOM     17  C   UNL     1      23.071  11.042  35.054  1.00  0.00    -0.003 C 
ATOM     18  C   UNL     1      24.412  10.919  35.773  1.00  0.00     0.004 C 
ENDBRANCH  16  17
ENDBRANCH  15  16
ENDBRANCH  14  15
ENDBRANCH  13  14
ENDBRANCH  12  13
ENDBRANCH  11  12
ENDBRANCH   1  11
TORSDOF 14
ENDMDL
MODEL 6
REMARK VINA RESULT:    -4.185      3.073      5.235
REMARK INTER + INTRA:          -9.042
REMARK INTER:                  -7.582
REMARK INTRA:                  -1.460
REMARK UNBOUND:                -1.431
REMARK SMILES CCCCCCCCCCCCCCCC(=O)[O-]
REMARK SMILES IDX 9 1 10 2 11 3 12 4 13 5 14 6 15 7 16 8 17 9 18 10 8 11 7 12
REMARK SMILES IDX 6 13 5 14 4 15 3 16 2 17 1 18
REMARK H PARENT
REMARK Flexibility Score: inf
ROOT
ATOM      1  C   UNL     1      30.904   8.046  49.691  1.00  0.00     0.000 C 
ENDROOT
BRANCH   1   2
ATOM      2  C   UNL     1      31.865   9.249  49.731  1.00  0.00     0.000 C 
BRANCH   2   3
ATOM      3  C   UNL     1      31.950   9.997  48.390  1.00  0.00     0.000 C 
BRANCH   3   4
ATOM      4  C   UNL     1      33.252   9.699  47.630  1.00  0.00     0.000 C 
BRANCH   4   5
ATOM      5  C   UNL     1      34.497  10.237  48.354  1.00  0.00     0.000 C 
BRANCH   5   6
ATOM      6  C   UNL     1      35.098  11.430  47.596  1.00  0.00     0.006 C 
BRANCH   6   7
ATOM      7  C   UNL     1      35.376  11.102  46.123  1.00  0.00     0.053 C 
BRANCH   7   8
ATOM      8  C   UNL     1      35.160  12.292  45.238  1.00  0.00     0.041 C 
ATOM      9  O   UNL     1      35.709  13.392  45.510  1.00  0.00    -0.550 OA
ATOM     10  O   UNL     1      34.381  12.176  44.093  1.00  0.00    -0.550 OA
ENDBRANCH   7   8
ENDBRANCH   6   7
ENDBRANCH   5   6
ENDBRANCH   4   5
ENDBRANCH   3   4
ENDBRANCH   2   3
ENDBRANCH   1   2
BRANCH   1  11
ATOM     11  C   UNL     1      30.626   7.469  48.291  1.00  0.00     0.000 C 
BRANCH  11  12
ATOM     12  C   UNL     1      30.510   5.936  48.285  1.00  0.00    -0.000 C 
BRANCH  12  13
ATOM     13  C   UNL     1      31.872   5.229  48.152  1.00  0.00    -0.000 C 
BRANCH  13  14
ATOM     14  C   UNL     1      33.036   6.122  47.686  1.00  0.00    -0.000 C 
BRANCH  14  15
ATOM     15  C   UNL     1      34.231   5.319  47.145  1.00  0.00    -0.000 C 
BRANCH  15  16
ATOM     16  C   UNL     1      34.587   5.693  45.697  1.00  0.00    -0.000 C 
BRANCH  16  17
ATOM     17  C   UNL     1      33.562   6.646  45.064  1.00  0.00    -0.003 C 
ATOM     18  C   UNL     1      34.243   7.896  44.512  1.00  0.00     0.004 C 
ENDBRANCH  16  17
ENDBRANCH  15  16
ENDBRANCH  14  15
ENDBRANCH  13  14
ENDBRANCH  12  13
ENDBRANCH  11  12
ENDBRANCH   1  11
TORSDOF 14
ENDMDL
MODEL 7
REMARK VINA RESULT:    -4.104     18.007     19.988
REMARK INTER + INTRA:          -8.894
REMARK INTER:                  -6.601
REMARK INTRA:                  -2.293
REMARK UNBOUND:                -1.431
REMARK SMILES CCCCCCCCCCCCCCCC(=O)[O-]
REMARK SMILES IDX 9 1 10 2 11 3 12 4 13 5 14 6 15 7 16 8 17 9 18 10 8 11 7 12
REMARK SMILES IDX 6 13 5 14 4 15 3 16 2 17 1 18
REMARK H PARENT
REMARK Flexibility Score: inf
ROOT
ATOM      1  C   UNL     1      20.801  12.795  35.898  1.00  0.00     0.000 C 
ENDROOT
BRANCH   1   2
ATOM      2  C   UNL     1      19.957  13.708  34.989  1.00  0.00     0.000 C 
BRANCH   2   3
ATOM      3  C   UNL     1      20.745  14.252  33.785  1.00  0.00     0.000 C 
BRANCH   3   4
ATOM      4  C   UNL     1      19.855  14.484  32.554  1.00  0.00     0.000 C 
BRANCH   4   5
ATOM      5  C   UNL     1      20.667  14.654  31.259  1.00  0.00     0.000 C 
BRANCH   5   6
ATOM      6  C   UNL     1      22.139  14.958  31.572  1.00  0.00     0.006 C 
BRANCH   6   7
ATOM      7  C   UNL     1      22.598  16.292  30.970  1.00  0.00     0.053 C 
BRANCH   7   8
ATOM      8  C   UNL     1      24.067  16.293  30.674  1.00  0.00     0.041 C 
ATOM      9  O   UNL     1      24.730  17.361  30.758  1.00  0.00    -0.550 OA
ATOM     10  O   UNL     1      24.711  15.108  30.341  1.00  0.00    -0.550 OA
ENDBRANCH   7   8
ENDBRANCH   6   7
ENDBRANCH   5   6
ENDBRANCH   4   5
ENDBRANCH   3   4
ENDBRANCH   2   3
ENDBRANCH   1   2
BRANCH   1  11
ATOM     11  C   UNL     1      22.107  12.268  35.277  1.00  0.00     0.000 C 
BRANCH  11  12
ATOM     12  C   UNL     1      22.417  10.814  35.672  1.00  0.00    -0.000 C 
BRANCH  12  13
ATOM     13  C   UNL     1      21.190   9.889  35.574  1.00  0.00    -0.000 C 
BRANCH  13  14
ATOM     14  C   UNL     1      20.811   9.442  34.150  1.00  0.00    -0.000 C 
BRANCH  14  15
ATOM     15  C   UNL     1      19.552  10.145  33.614  1.00  0.00    -0.000 C 
BRANCH  15  16
ATOM     16  C   UNL     1      19.794  10.841  32.265  1.00  0.00    -0.000 C 
BRANCH  16  17
ATOM     17  C   UNL     1      21.286  11.036  31.959  1.00  0.00    -0.003 C 
ATOM     18  C   UNL     1      21.540  11.050  30.454  1.00  0.00     0.004 C 
ENDBRANCH  16  17
ENDBRANCH  15  16
ENDBRANCH  14  15
ENDBRANCH  13  14
ENDBRANCH  12  13
ENDBRANCH  11  12
ENDBRANCH   1  11
TORSDOF 14
ENDMDL
MODEL 8
REMARK VINA RESULT:    -4.011      3.774      6.891
REMARK INTER + INTRA:          -8.726
REMARK INTER:                  -7.771
REMARK INTRA:                  -0.955
REMARK UNBOUND:                -1.431
REMARK SMILES CCCCCCCCCCCCCCCC(=O)[O-]
REMARK SMILES IDX 9 1 10 2 11 3 12 4 13 5 14 6 15 7 16 8 17 9 18 10 8 11 7 12
REMARK SMILES IDX 6 13 5 14 4 15 3 16 2 17 1 18
REMARK H PARENT
REMARK Flexibility Score: inf
ROOT
ATOM      1  C   UNL     1      33.887   6.658  45.362  1.00  0.00     0.000 C 
ENDROOT
BRANCH   1   2
ATOM      2  C   UNL     1      34.298   8.139  45.271  1.00  0.00     0.000 C 
BRANCH   2   3
ATOM      3  C   UNL     1      34.344   8.664  43.826  1.00  0.00     0.000 C 
BRANCH   3   4
ATOM      4  C   UNL     1      34.358  10.199  43.756  1.00  0.00     0.000 C 
BRANCH   4   5
ATOM      5  C   UNL     1      34.586  10.854  45.128  1.00  0.00     0.000 C 
BRANCH   5   6
ATOM      6  C   UNL     1      35.049  12.310  44.969  1.00  0.00     0.006 C 
BRANCH   6   7
ATOM      7  C   UNL     1      36.007  12.740  46.088  1.00  0.00     0.053 C 
BRANCH   7   8
ATOM      8  C   UNL     1      35.868  14.196  46.410  1.00  0.00     0.041 C 
ATOM      9  O   UNL     1      35.963  15.059  45.498  1.00  0.00    -0.550 OA
ATOM     10  O   UNL     1      35.597  14.599  47.712  1.00  0.00    -0.550 OA
ENDBRANCH   7   8
ENDBRANCH   6   7
ENDBRANCH   5   6
ENDBRANCH   4   5
ENDBRANCH   3   4
ENDBRANCH   2   3
ENDBRANCH   1   2
BRANCH   1  11
ATOM     11  C   UNL     1      32.910   6.312  46.501  1.00  0.00     0.000 C 
BRANCH  11  12
ATOM     12  C   UNL     1      33.564   6.365  47.891  1.00  0.00    -0.000 C 
BRANCH  12  13
ATOM     13  C   UNL     1      33.369   7.719  48.599  1.00  0.00    -0.000 C 
BRANCH  13  14
ATOM     14  C   UNL     1      31.977   8.357  48.432  1.00  0.00    -0.000 C 
BRANCH  14  15
ATOM     15  C   UNL     1      31.107   8.241  49.695  1.00  0.00    -0.000 C 
BRANCH  15  16
ATOM     16  C   UNL     1      29.764   7.543  49.425  1.00  0.00    -0.000 C 
BRANCH  16  17
ATOM     17  C   UNL     1      29.845   6.530  48.273  1.00  0.00    -0.003 C 
ATOM     18  C   UNL     1      28.642   5.591  48.282  1.00  0.00     0.004 C 
ENDBRANCH  16  17
ENDBRANCH  15  16
ENDBRANCH  14  15
ENDBRANCH  13  14
ENDBRANCH  12  13
ENDBRANCH  11  12
ENDBRANCH   1  11
TORSDOF 14
ENDMDL
MODEL 9
REMARK VINA RESULT:    -4.010     18.313     20.440
REMARK INTER + INTRA:          -8.723
REMARK INTER:                  -6.536
REMARK INTRA:                  -2.187
REMARK UNBOUND:                -1.431
REMARK SMILES CCCCCCCCCCCCCCCC(=O)[O-]
REMARK SMILES IDX 9 1 10 2 11 3 12 4 13 5 14 6 15 7 16 8 17 9 18 10 8 11 7 12
REMARK SMILES IDX 6 13 5 14 4 15 3 16 2 17 1 18
REMARK H PARENT
REMARK Flexibility Score: inf
ROOT
ATOM      1  C   UNL     1      19.748  13.303  31.962  1.00  0.00     0.000 C 
ENDROOT
BRANCH   1   2
ATOM      2  C   UNL     1      20.513  11.988  32.202  1.00  0.00     0.000 C 
BRANCH   2   3
ATOM      3  C   UNL     1      21.903  11.971  31.545  1.00  0.00     0.000 C 
BRANCH   3   4
ATOM      4  C   UNL     1      21.998  12.921  30.340  1.00  0.00     0.000 C 
BRANCH   4   5
ATOM      5  C   UNL     1      22.951  14.101  30.588  1.00  0.00     0.000 C 
BRANCH   5   6
ATOM      6  C   UNL     1      22.304  15.427  30.160  1.00  0.00     0.006 C 
BRANCH   6   7
ATOM      7  C   UNL     1      22.244  16.442  31.309  1.00  0.00     0.053 C 
BRANCH   7   8
ATOM      8  C   UNL     1      23.153  17.609  31.069  1.00  0.00     0.041 C 
ATOM      9  O   UNL     1      24.340  17.420  30.692  1.00  0.00    -0.550 OA
ATOM     10  O   UNL     1      22.679  18.905  31.225  1.00  0.00    -0.550 OA
ENDBRANCH   7   8
ENDBRANCH   6   7
ENDBRANCH   5   6
ENDBRANCH   4   5
ENDBRANCH   3   4
ENDBRANCH   2   3
ENDBRANCH   1   2
BRANCH   1  11
ATOM     11  C   UNL     1      19.483  14.151  33.220  1.00  0.00     0.000 C 
BRANCH  11  12
ATOM     12  C   UNL     1      20.738  14.355  34.084  1.00  0.00    -0.000 C 
BRANCH  12  13
ATOM     13  C   UNL     1      20.602  13.754  35.496  1.00  0.00    -0.000 C 
BRANCH  13  14
ATOM     14  C   UNL     1      19.301  12.972  35.757  1.00  0.00    -0.000 C 
BRANCH  14  15
ATOM     15  C   UNL     1      19.481  11.449  35.640  1.00  0.00    -0.000 C 
BRANCH  15  16
ATOM     16  C   UNL     1      20.813  10.965  36.238  1.00  0.00    -0.000 C 
BRANCH  16  17
ATOM     17  C   UNL     1      21.699  10.249  35.207  1.00  0.00    -0.003 C 
ATOM     18  C   UNL     1      23.012  10.999  34.997  1.00  0.00     0.004 C 
ENDBRANCH  16  17
ENDBRANCH  15  16
ENDBRANCH  14  15
ENDBRANCH  13  14
ENDBRANCH  12  13
ENDBRANCH  11  12
ENDBRANCH   1  11
TORSDOF 14
ENDMDL
