MODEL 1
REMARK VINA RESULT:    -3.178      0.000      0.000
REMARK INTER + INTRA:          -8.111
REMARK INTER:                  -5.594
REMARK INTRA:                  -2.518
REMARK UNBOUND:                -2.518
REMARK SMILES CCCCCCCCCCCCCCC(=O)[O-]
REMARK SMILES IDX 9 1 10 2 11 3 12 4 13 5 14 6 15 7 16 8 17 9 8 10 7 11 6 12
REMARK SMILES IDX 5 13 4 14 3 15 2 16 1 17
REMARK H PARENT
REMARK Flexibility Score: inf
ROOT
ATOM      1  C   UNL     1      56.651 -36.763 -24.528  1.00  0.00     0.000 C 
ENDROOT
BRANCH   1   2
ATOM      2  C   UNL     1      55.967 -36.561 -25.895  1.00  0.00     0.000 C 
BRANCH   2   3
ATOM      3  C   UNL     1      54.701 -37.424 -26.086  1.00  0.00     0.000 C 
BRANCH   3   4
ATOM      4  C   UNL     1      54.879 -38.474 -27.196  1.00  0.00     0.000 C 
BRANCH   4   5
ATOM      5  C   UNL     1      56.283 -38.441 -27.819  1.00  0.00     0.006 C 
BRANCH   5   6
ATOM      6  C   UNL     1      56.926 -39.833 -27.874  1.00  0.00     0.053 C 
BRANCH   6   7
ATOM      7  C   UNL     1      57.168 -40.241 -29.293  1.00  0.00     0.041 C 
ATOM      8  O   UNL     1      58.123 -41.011 -29.577  1.00  0.00    -0.550 OA
ATOM      9  O   UNL     1      56.370 -39.730 -30.309  1.00  0.00    -0.550 OA
ENDBRANCH   6   7
ENDBRANCH   5   6
ENDBRANCH   4   5
ENDBRANCH   3   4
ENDBRANCH   2   3
ENDBRANCH   1   2
BRANCH   1  10
ATOM     10  C   UNL     1      58.077 -37.334 -24.600  1.00  0.00     0.000 C 
BRANCH  10  11
ATOM     11  C   UNL     1      58.115 -38.860 -24.413  1.00  0.00    -0.000 C 
BRANCH  11  12
ATOM     12  C   UNL     1      56.886 -39.386 -23.652  1.00  0.00    -0.000 C 
BRANCH  12  13
ATOM     13  C   UNL     1      56.259 -40.619 -24.325  1.00  0.00    -0.000 C 
BRANCH  13  14
ATOM     14  C   UNL     1      54.731 -40.677 -24.162  1.00  0.00    -0.000 C 
BRANCH  14  15
ATOM     15  C   UNL     1      54.234 -40.121 -22.810  1.00  0.00    -0.000 C 
BRANCH  15  16
ATOM     16  C   UNL     1      53.252 -38.953 -22.989  1.00  0.00    -0.003 C 
ATOM     17  C   UNL     1      53.791 -37.678 -22.349  1.00  0.00     0.004 C 
ENDBRANCH  15  16
ENDBRANCH  14  15
ENDBRANCH  13  14
ENDBRANCH  12  13
ENDBRANCH  11  12
ENDBRANCH  10  11
ENDBRANCH   1  10
TORSDOF 13
ENDMDL
MODEL 2
REMARK VINA RESULT:    -3.082     10.916     12.817
REMARK INTER + INTRA:          -7.942
REMARK INTER:                  -6.580
REMARK INTRA:                  -1.362
REMARK UNBOUND:                -2.518
REMARK SMILES CCCCCCCCCCCCCCC(=O)[O-]
REMARK SMILES IDX 9 1 10 2 11 3 12 4 13 5 14 6 15 7 16 8 17 9 8 10 7 11 6 12
REMARK SMILES IDX 5 13 4 14 3 15 2 16 1 17
REMARK H PARENT
REMARK Flexibility Score: inf
ROOT
ATOM      1  C   UNL     1      48.515 -28.338 -32.415  1.00  0.00     0.000 C 
ENDROOT
BRANCH   1   2
ATOM      2  C   UNL     1      49.769 -27.919 -33.207  1.00  0.00     0.000 C 
BRANCH   2   3
ATOM      3  C   UNL     1      51.012 -27.686 -32.320  1.00  0.00     0.000 C 
BRANCH   3   4
ATOM      4  C   UNL     1      51.838 -28.970 -32.132  1.00  0.00     0.000 C 
BRANCH   4   5
ATOM      5  C   UNL     1      51.906 -29.417 -30.664  1.00  0.00     0.006 C 
BRANCH   5   6
ATOM      6  C   UNL     1      52.738 -28.458 -29.803  1.00  0.00     0.053 C 
BRANCH   6   7
ATOM      7  C   UNL     1      54.180 -28.520 -30.196  1.00  0.00     0.041 C 
ATOM      8  O   UNL     1      54.871 -29.535 -29.914  1.00  0.00    -0.550 OA
ATOM      9  O   UNL     1      54.775 -27.436 -30.830  1.00  0.00    -0.550 OA
ENDBRANCH   6   7
ENDBRANCH   5   6
ENDBRANCH   4   5
ENDBRANCH   3   4
ENDBRANCH   2   3
ENDBRANCH   1   2
BRANCH   1  10
ATOM     10  C   UNL     1      48.190 -27.446 -31.205  1.00  0.00     0.000 C 
BRANCH  10  11
ATOM     11  C   UNL     1      48.265 -28.207 -29.870  1.00  0.00    -0.000 C 
BRANCH  11  12
ATOM     12  C   UNL     1      48.071 -29.721 -30.049  1.00  0.00    -0.000 C 
BRANCH  12  13
ATOM     13  C   UNL     1      46.607 -30.156 -29.858  1.00  0.00    -0.000 C 
BRANCH  13  14
ATOM     14  C   UNL     1      46.474 -31.518 -29.158  1.00  0.00    -0.000 C 
BRANCH  14  15
ATOM     15  C   UNL     1      47.829 -32.138 -28.753  1.00  0.00    -0.000 C 
BRANCH  15  16
ATOM     16  C   UNL     1      47.937 -33.615 -29.162  1.00  0.00    -0.003 C 
ATOM     17  C   UNL     1      46.574 -34.181 -29.546  1.00  0.00     0.004 C 
ENDBRANCH  15  16
ENDBRANCH  14  15
ENDBRANCH  13  14
ENDBRANCH  12  13
ENDBRANCH  11  12
ENDBRANCH  10  11
ENDBRANCH   1  10
TORSDOF 13
ENDMDL
MODEL 3
REMARK VINA RESULT:    -3.077      2.030      3.999
REMARK INTER + INTRA:          -7.933
REMARK INTER:                  -5.737
REMARK INTRA:                  -2.195
REMARK UNBOUND:                -2.518
REMARK SMILES CCCCCCCCCCCCCCC(=O)[O-]
REMARK SMILES IDX 9 1 10 2 11 3 12 4 13 5 14 6 15 7 16 8 17 9 8 10 7 11 6 12
REMARK SMILES IDX 5 13 4 14 3 15 2 16 1 17
REMARK H PARENT
REMARK Flexibility Score: inf
ROOT
ATOM      1  C   UNL     1      54.796 -40.752 -23.911  1.00  0.00     0.000 C 
ENDROOT
BRANCH   1   2
ATOM      2  C   UNL     1      53.600 -41.092 -24.821  1.00  0.00     0.000 C 
BRANCH   2   3
ATOM      3  C   UNL     1      53.950 -42.069 -25.964  1.00  0.00     0.000 C 
BRANCH   3   4
ATOM      4  C   UNL     1      55.444 -42.437 -25.973  1.00  0.00     0.000 C 
BRANCH   4   5
ATOM      5  C   UNL     1      55.950 -42.810 -27.376  1.00  0.00     0.006 C 
BRANCH   5   6
ATOM      6  C   UNL     1      55.166 -42.097 -28.484  1.00  0.00     0.053 C 
BRANCH   6   7
ATOM      7  C   UNL     1      55.583 -42.605 -29.828  1.00  0.00     0.041 C 
ATOM      8  O   UNL     1      55.147 -43.708 -30.252  1.00  0.00    -0.550 OA
ATOM      9  O   UNL     1      56.492 -41.884 -30.592  1.00  0.00    -0.550 OA
ENDBRANCH   6   7
ENDBRANCH   5   6
ENDBRANCH   4   5
ENDBRANCH   3   4
ENDBRANCH   2   3
ENDBRANCH   1   2
BRANCH   1  10
ATOM     10  C   UNL     1      54.679 -39.411 -23.168  1.00  0.00     0.000 C 
BRANCH  10  11
ATOM     11  C   UNL     1      55.997 -38.619 -23.161  1.00  0.00    -0.000 C 
BRANCH  11  12
ATOM     12  C   UNL     1      57.108 -39.329 -23.953  1.00  0.00    -0.000 C 
BRANCH  12  13
ATOM     13  C   UNL     1      58.125 -38.343 -24.556  1.00  0.00    -0.000 C 
BRANCH  13  14
ATOM     14  C   UNL     1      58.051 -38.272 -26.090  1.00  0.00    -0.000 C 
BRANCH  14  15
ATOM     15  C   UNL     1      57.022 -39.246 -26.703  1.00  0.00    -0.000 C 
BRANCH  15  16
ATOM     16  C   UNL     1      56.002 -38.525 -27.597  1.00  0.00    -0.003 C 
ATOM     17  C   UNL     1      54.704 -38.252 -26.843  1.00  0.00     0.004 C 
ENDBRANCH  15  16
ENDBRANCH  14  15
ENDBRANCH  13  14
ENDBRANCH  12  13
ENDBRANCH  11  12
ENDBRANCH  10  11
ENDBRANCH   1  10
TORSDOF 13
ENDMDL
MODEL 4
REMARK VINA RESULT:    -3.043      1.646      3.373
REMARK INTER + INTRA:          -7.873
REMARK INTER:                  -5.715
REMARK INTRA:                  -2.158
REMARK UNBOUND:                -2.518
REMARK SMILES CCCCCCCCCCCCCCC(=O)[O-]
REMARK SMILES IDX 9 1 10 2 11 3 12 4 13 5 14 6 15 7 16 8 17 9 8 10 7 11 6 12
REMARK SMILES IDX 5 13 4 14 3 15 2 16 1 17
REMARK H PARENT
REMARK Flexibility Score: inf
ROOT
ATOM      1  C   UNL     1      54.986 -39.447 -26.562  1.00  0.00     0.000 C 
ENDROOT
BRANCH   1   2
ATOM      2  C   UNL     1      55.748 -38.595 -27.595  1.00  0.00     0.000 C 
BRANCH   2   3
ATOM      3  C   UNL     1      57.135 -39.164 -27.965  1.00  0.00     0.000 C 
BRANCH   3   4
ATOM      4  C   UNL     1      57.490 -38.912 -29.440  1.00  0.00     0.000 C 
BRANCH   4   5
ATOM      5  C   UNL     1      56.589 -39.697 -30.406  1.00  0.00     0.006 C 
BRANCH   5   6
ATOM      6  C   UNL     1      56.504 -41.184 -30.041  1.00  0.00     0.053 C 
BRANCH   6   7
ATOM      7  C   UNL     1      55.075 -41.607 -29.902  1.00  0.00     0.041 C 
ATOM      8  O   UNL     1      54.763 -42.538 -29.113  1.00  0.00    -0.550 OA
ATOM      9  O   UNL     1      54.094 -41.007 -30.682  1.00  0.00    -0.550 OA
ENDBRANCH   6   7
ENDBRANCH   5   6
ENDBRANCH   4   5
ENDBRANCH   3   4
ENDBRANCH   2   3
ENDBRANCH   1   2
BRANCH   1  10
ATOM     10  C   UNL     1      55.678 -40.767 -26.181  1.00  0.00     0.000 C 
BRANCH  10  11
ATOM     11  C   UNL     1      55.467 -41.142 -24.704  1.00  0.00    -0.000 C 
BRANCH  11  12
ATOM     12  C   UNL     1      54.261 -40.417 -24.084  1.00  0.00    -0.000 C 
BRANCH  12  13
ATOM     13  C   UNL     1      54.610 -39.721 -22.757  1.00  0.00    -0.000 C 
BRANCH  13  14
ATOM     14  C   UNL     1      55.959 -38.983 -22.805  1.00  0.00    -0.000 C 
BRANCH  14  15
ATOM     15  C   UNL     1      55.885 -37.608 -23.502  1.00  0.00    -0.000 C 
BRANCH  15  16
ATOM     16  C   UNL     1      57.181 -37.266 -24.252  1.00  0.00    -0.003 C 
ATOM     17  C   UNL     1      58.077 -38.493 -24.389  1.00  0.00     0.004 C 
ENDBRANCH  15  16
ENDBRANCH  14  15
ENDBRANCH  13  14
ENDBRANCH  12  13
ENDBRANCH  11  12
ENDBRANCH  10  11
ENDBRANCH   1  10
TORSDOF 13
ENDMDL
MODEL 5
REMARK VINA RESULT:    -3.037      3.591      6.422
REMARK INTER + INTRA:          -7.863
REMARK INTER:                  -5.787
REMARK INTRA:                  -2.076
REMARK UNBOUND:                -2.518
REMARK SMILES CCCCCCCCCCCCCCC(=O)[O-]
REMARK SMILES IDX 9 1 10 2 11 3 12 4 13 5 14 6 15 7 16 8 17 9 8 10 7 11 6 12
REMARK SMILES IDX 5 13 4 14 3 15 2 16 1 17
REMARK H PARENT
REMARK Flexibility Score: inf
ROOT
ATOM      1  C   UNL     1      55.947 -41.346 -29.607  1.00  0.00     0.000 C 
ENDROOT
BRANCH   1   2
ATOM      2  C   UNL     1      55.754 -42.871 -29.500  1.00  0.00     0.000 C 
BRANCH   2   3
ATOM      3  C   UNL     1      56.357 -43.482 -28.217  1.00  0.00     0.000 C 
BRANCH   3   4
ATOM      4  C   UNL     1      55.350 -43.497 -27.054  1.00  0.00     0.000 C 
BRANCH   4   5
ATOM      5  C   UNL     1      55.984 -43.069 -25.721  1.00  0.00     0.006 C 
BRANCH   5   6
ATOM      6  C   UNL     1      55.295 -41.837 -25.120  1.00  0.00     0.053 C 
BRANCH   6   7
ATOM      7  C   UNL     1      56.212 -40.657 -25.156  1.00  0.00     0.041 C 
ATOM      8  O   UNL     1      56.621 -40.139 -24.083  1.00  0.00    -0.550 OA
ATOM      9  O   UNL     1      56.576 -40.095 -26.374  1.00  0.00    -0.550 OA
ENDBRANCH   6   7
ENDBRANCH   5   6
ENDBRANCH   4   5
ENDBRANCH   3   4
ENDBRANCH   2   3
ENDBRANCH   1   2
BRANCH   1  10
ATOM     10  C   UNL     1      55.946 -40.796 -31.043  1.00  0.00     0.000 C 
BRANCH  10  11
ATOM     11  C   UNL     1      54.906 -41.486 -31.942  1.00  0.00    -0.000 C 
BRANCH  11  12
ATOM     12  C   UNL     1      53.620 -40.657 -32.090  1.00  0.00    -0.000 C 
BRANCH  12  13
ATOM     13  C   UNL     1      52.415 -41.305 -31.387  1.00  0.00    -0.000 C 
BRANCH  13  14
ATOM     14  C   UNL     1      52.074 -40.634 -30.046  1.00  0.00    -0.000 C 
BRANCH  14  15
ATOM     15  C   UNL     1      52.275 -41.558 -28.825  1.00  0.00    -0.000 C 
BRANCH  15  16
ATOM     16  C   UNL     1      52.815 -40.797 -27.605  1.00  0.00    -0.003 C 
ATOM     17  C   UNL     1      53.328 -39.416 -27.999  1.00  0.00     0.004 C 
ENDBRANCH  15  16
ENDBRANCH  14  15
ENDBRANCH  13  14
ENDBRANCH  12  13
ENDBRANCH  11  12
ENDBRANCH  10  11
ENDBRANCH   1  10
TORSDOF 13
ENDMDL
MODEL 6
REMARK VINA RESULT:    -3.019      2.210      4.167
REMARK INTER + INTRA:          -7.832
REMARK INTER:                  -5.661
REMARK INTRA:                  -2.171
REMARK UNBOUND:                -2.518
REMARK SMILES CCCCCCCCCCCCCCC(=O)[O-]
REMARK SMILES IDX 9 1 10 2 11 3 12 4 13 5 14 6 15 7 16 8 17 9 8 10 7 11 6 12
REMARK SMILES IDX 5 13 4 14 3 15 2 16 1 17
REMARK H PARENT
REMARK Flexibility Score: inf
ROOT
ATOM      1  C   UNL     1      55.812 -42.285 -25.549  1.00  0.00     0.000 C 
ENDROOT
BRANCH   1   2
ATOM      2  C   UNL     1      56.227 -43.648 -26.137  1.00  0.00     0.000 C 
BRANCH   2   3
ATOM      3  C   UNL     1      55.900 -43.799 -27.638  1.00  0.00     0.000 C 
BRANCH   3   4
ATOM      4  C   UNL     1      57.162 -43.738 -28.515  1.00  0.00     0.000 C 
BRANCH   4   5
ATOM      5  C   UNL     1      57.283 -42.412 -29.283  1.00  0.00     0.006 C 
BRANCH   5   6
ATOM      6  C   UNL     1      55.961 -42.000 -29.942  1.00  0.00     0.053 C 
BRANCH   6   7
ATOM      7  C   UNL     1      56.156 -40.781 -30.786  1.00  0.00     0.041 C 
ATOM      8  O   UNL     1      56.549 -39.704 -30.263  1.00  0.00    -0.550 OA
ATOM      9  O   UNL     1      55.854 -40.818 -32.142  1.00  0.00    -0.550 OA
ENDBRANCH   6   7
ENDBRANCH   5   6
ENDBRANCH   4   5
ENDBRANCH   3   4
ENDBRANCH   2   3
ENDBRANCH   1   2
BRANCH   1  10
ATOM     10  C   UNL     1      54.789 -41.504 -26.392  1.00  0.00     0.000 C 
BRANCH  10  11
ATOM     11  C   UNL     1      55.302 -40.115 -26.809  1.00  0.00    -0.000 C 
BRANCH  11  12
ATOM     12  C   UNL     1      56.814 -39.957 -26.578  1.00  0.00    -0.000 C 
BRANCH  12  13
ATOM     13  C   UNL     1      57.173 -38.608 -25.931  1.00  0.00    -0.000 C 
BRANCH  13  14
ATOM     14  C   UNL     1      57.463 -38.725 -24.426  1.00  0.00    -0.000 C 
BRANCH  14  15
ATOM     15  C   UNL     1      56.265 -38.332 -23.535  1.00  0.00    -0.000 C 
BRANCH  15  16
ATOM     16  C   UNL     1      55.490 -39.557 -23.029  1.00  0.00    -0.003 C 
ATOM     17  C   UNL     1      53.999 -39.426 -23.322  1.00  0.00     0.004 C 
ENDBRANCH  15  16
ENDBRANCH  14  15
ENDBRANCH  13  14
ENDBRANCH  12  13
ENDBRANCH  11  12
ENDBRANCH  10  11
ENDBRANCH   1  10
TORSDOF 13
ENDMDL
MODEL 7
REMARK VINA RESULT:    -2.988      1.535      2.986
REMARK INTER + INTRA:          -7.776
REMARK INTER:                  -5.531
REMARK INTRA:                  -2.245
REMARK UNBOUND:                -2.518
REMARK SMILES CCCCCCCCCCCCCCC(=O)[O-]
REMARK SMILES IDX 9 1 10 2 11 3 12 4 13 5 14 6 15 7 16 8 17 9 8 10 7 11 6 12
REMARK SMILES IDX 5 13 4 14 3 15 2 16 1 17
REMARK H PARENT
REMARK Flexibility Score: inf
ROOT
ATOM      1  C   UNL     1      54.142 -39.013 -27.113  1.00  0.00     0.000 C 
ENDROOT
BRANCH   1   2
ATOM      2  C   UNL     1      55.172 -37.891 -26.878  1.00  0.00     0.000 C 
BRANCH   2   3
ATOM      3  C   UNL     1      56.594 -38.245 -27.365  1.00  0.00     0.000 C 
BRANCH   3   4
ATOM      4  C   UNL     1      56.573 -39.050 -28.676  1.00  0.00     0.000 C 
BRANCH   4   5
ATOM      5  C   UNL     1      57.558 -40.230 -28.658  1.00  0.00     0.006 C 
BRANCH   5   6
ATOM      6  C   UNL     1      56.922 -41.508 -28.096  1.00  0.00     0.053 C 
BRANCH   6   7
ATOM      7  C   UNL     1      57.248 -42.680 -28.967  1.00  0.00     0.041 C 
ATOM      8  O   UNL     1      57.564 -42.504 -30.174  1.00  0.00    -0.550 OA
ATOM      9  O   UNL     1      57.155 -43.970 -28.460  1.00  0.00    -0.550 OA
ENDBRANCH   6   7
ENDBRANCH   5   6
ENDBRANCH   4   5
ENDBRANCH   3   4
ENDBRANCH   2   3
ENDBRANCH   1   2
BRANCH   1  10
ATOM     10  C   UNL     1      53.633 -39.698 -25.834  1.00  0.00     0.000 C 
BRANCH  10  11
ATOM     11  C   UNL     1      54.328 -41.045 -25.567  1.00  0.00    -0.000 C 
BRANCH  11  12
ATOM     12  C   UNL     1      55.131 -41.037 -24.256  1.00  0.00    -0.000 C 
BRANCH  12  13
ATOM     13  C   UNL     1      56.562 -40.503 -24.443  1.00  0.00    -0.000 C 
BRANCH  13  14
ATOM     14  C   UNL     1      56.820 -39.200 -23.668  1.00  0.00    -0.000 C 
BRANCH  14  15
ATOM     15  C   UNL     1      55.694 -38.840 -22.675  1.00  0.00    -0.000 C 
BRANCH  15  16
ATOM     16  C   UNL     1      55.239 -37.381 -22.817  1.00  0.00    -0.003 C 
ATOM     17  C   UNL     1      56.263 -36.557 -23.591  1.00  0.00     0.004 C 
ENDBRANCH  15  16
ENDBRANCH  14  15
ENDBRANCH  13  14
ENDBRANCH  12  13
ENDBRANCH  11  12
ENDBRANCH  10  11
ENDBRANCH   1  10
TORSDOF 13
ENDMDL
MODEL 8
REMARK VINA RESULT:    -2.971      2.326      4.068
REMARK INTER + INTRA:          -7.746
REMARK INTER:                  -5.606
REMARK INTRA:                  -2.140
REMARK UNBOUND:                -2.518
REMARK SMILES CCCCCCCCCCCCCCC(=O)[O-]
REMARK SMILES IDX 9 1 10 2 11 3 12 4 13 5 14 6 15 7 16 8 17 9 8 10 7 11 6 12
REMARK SMILES IDX 5 13 4 14 3 15 2 16 1 17
REMARK H PARENT
REMARK Flexibility Score: inf
ROOT
ATOM      1  C   UNL     1      54.452 -40.754 -23.802  1.00  0.00     0.000 C 
ENDROOT
BRANCH   1   2
ATOM      2  C   UNL     1      53.098 -40.795 -24.538  1.00  0.00     0.000 C 
BRANCH   2   3
ATOM      3  C   UNL     1      53.187 -41.382 -25.963  1.00  0.00     0.000 C 
BRANCH   3   4
ATOM      4  C   UNL     1      54.502 -41.004 -26.665  1.00  0.00     0.000 C 
BRANCH   4   5
ATOM      5  C   UNL     1      54.271 -40.276 -27.998  1.00  0.00     0.006 C 
BRANCH   5   6
ATOM      6  C   UNL     1      52.780 -40.113 -28.319  1.00  0.00     0.053 C 
BRANCH   6   7
ATOM      7  C   UNL     1      52.430 -40.859 -29.568  1.00  0.00     0.041 C 
ATOM      8  O   UNL     1      52.885 -42.017 -29.764  1.00  0.00    -0.550 OA
ATOM      9  O   UNL     1      51.643 -40.254 -30.541  1.00  0.00    -0.550 OA
ENDBRANCH   6   7
ENDBRANCH   5   6
ENDBRANCH   4   5
ENDBRANCH   3   4
ENDBRANCH   2   3
ENDBRANCH   1   2
BRANCH   1  10
ATOM     10  C   UNL     1      54.593 -39.616 -22.777  1.00  0.00     0.000 C 
BRANCH  10  11
ATOM     11  C   UNL     1      55.959 -38.913 -22.856  1.00  0.00    -0.000 C 
BRANCH  11  12
ATOM     12  C   UNL     1      56.881 -39.545 -23.912  1.00  0.00    -0.000 C 
BRANCH  12  13
ATOM     13  C   UNL     1      58.024 -38.605 -24.335  1.00  0.00    -0.000 C 
BRANCH  13  14
ATOM     14  C   UNL     1      57.543 -37.436 -25.210  1.00  0.00    -0.000 C 
BRANCH  14  15
ATOM     15  C   UNL     1      56.467 -37.839 -26.241  1.00  0.00    -0.000 C 
BRANCH  15  16
ATOM     16  C   UNL     1      55.328 -36.812 -26.322  1.00  0.00    -0.003 C 
ATOM     17  C   UNL     1      54.032 -37.382 -25.755  1.00  0.00     0.004 C 
ENDBRANCH  15  16
ENDBRANCH  14  15
ENDBRANCH  13  14
ENDBRANCH  12  13
ENDBRANCH  11  12
ENDBRANCH  10  11
ENDBRANCH   1  10
TORSDOF 13
ENDMDL
MODEL 9
REMARK VINA RESULT:    -2.966      4.439      6.094
REMARK INTER + INTRA:          -7.738
REMARK INTER:                  -6.117
REMARK INTRA:                  -1.622
REMARK UNBOUND:                -2.518
REMARK SMILES CCCCCCCCCCCCCCC(=O)[O-]
REMARK SMILES IDX 9 1 10 2 11 3 12 4 13 5 14 6 15 7 16 8 17 9 8 10 7 11 6 12
REMARK SMILES IDX 5 13 4 14 3 15 2 16 1 17
REMARK H PARENT
REMARK Flexibility Score: inf
ROOT
ATOM      1  C   UNL     1      55.736 -42.008 -26.726  1.00  0.00     0.000 C 
ENDROOT
BRANCH   1   2
ATOM      2  C   UNL     1      56.455 -41.911 -28.086  1.00  0.00     0.000 C 
BRANCH   2   3
ATOM      3  C   UNL     1      56.255 -43.153 -28.982  1.00  0.00     0.000 C 
BRANCH   3   4
ATOM      4  C   UNL     1      55.365 -42.850 -30.200  1.00  0.00     0.000 C 
BRANCH   4   5
ATOM      5  C   UNL     1      55.122 -41.346 -30.393  1.00  0.00     0.006 C 
BRANCH   5   6
ATOM      6  C   UNL     1      55.809 -40.803 -31.652  1.00  0.00     0.053 C 
BRANCH   6   7
ATOM      7  C   UNL     1      54.793 -40.469 -32.698  1.00  0.00     0.041 C 
ATOM      8  O   UNL     1      55.137 -39.859 -33.745  1.00  0.00    -0.550 OA
ATOM      9  O   UNL     1      53.455 -40.786 -32.494  1.00  0.00    -0.550 OA
ENDBRANCH   6   7
ENDBRANCH   5   6
ENDBRANCH   4   5
ENDBRANCH   3   4
ENDBRANCH   2   3
ENDBRANCH   1   2
BRANCH   1  10
ATOM     10  C   UNL     1      54.811 -43.226 -26.573  1.00  0.00     0.000 C 
BRANCH  10  11
ATOM     11  C   UNL     1      53.350 -42.830 -26.296  1.00  0.00    -0.000 C 
BRANCH  11  12
ATOM     12  C   UNL     1      52.885 -41.660 -27.179  1.00  0.00    -0.000 C 
BRANCH  12  13
ATOM     13  C   UNL     1      52.047 -42.125 -28.382  1.00  0.00    -0.000 C 
BRANCH  13  14
ATOM     14  C   UNL     1      51.714 -40.982 -29.356  1.00  0.00    -0.000 C 
BRANCH  14  15
ATOM     15  C   UNL     1      50.289 -41.069 -29.944  1.00  0.00    -0.000 C 
BRANCH  15  16
ATOM     16  C   UNL     1      49.344 -41.894 -29.058  1.00  0.00    -0.003 C 
ATOM     17  C   UNL     1      48.421 -40.991 -28.247  1.00  0.00     0.004 C 
ENDBRANCH  15  16
ENDBRANCH  14  15
ENDBRANCH  13  14
ENDBRANCH  12  13
ENDBRANCH  11  12
ENDBRANCH  10  11
ENDBRANCH   1  10
TORSDOF 13
ENDMDL
