MODEL 1
REMARK VINA RESULT:    -1.324      0.000      0.000
REMARK INTER + INTRA:          -1.404
REMARK INTER:                  -1.943
REMARK INTRA:                   0.539
REMARK UNBOUND:                 0.539
REMARK SMILES O=c1c(O[C@@H]2O[C@H](CO)[C@H](O)[C@@H](O)[C@@H]2O)c(-c2ccc(O)c(O)c2)oc2cc(O)cc(O)c12
REMARK SMILES IDX 4 1 3 2 16 3 25 4 2 5 26 6 1 7 33 8 27 9 31 10 28 11 30 12
REMARK SMILES IDX 17 13 18 14 19 15 20 16 24 17 22 18 21 19 23 21 32 23 29 25
REMARK SMILES IDX 5 27 14 28 6 29 12 30 7 31 10 32 15 33 13 35 8 37 9 38 11 40
REMARK H PARENT 21 20 23 22 32 24 29 26 15 34 13 36 9 39 11 41
REMARK Flexibility Score: inf
ROOT
ATOM      1  O   UNL     1       0.590  14.439  26.750  1.00  0.00    -0.454 OA
ENDROOT
BRANCH   1   2
ATOM      2  C   UNL     1       1.167  15.719  26.813  1.00  0.00     0.214 A 
ATOM      3  C   UNL     1       2.528  15.955  26.521  1.00  0.00     0.180 A 
ATOM      4  O   UNL     1       3.032  17.172  26.682  1.00  0.00    -0.452 OA
ATOM      5  C   UNL     1       0.358  16.806  27.165  1.00  0.00     0.239 A 
ATOM      6  C   UNL     1       2.316  18.215  27.083  1.00  0.00     0.146 A 
ATOM      7  O   UNL     1      -0.881  16.613  27.280  1.00  0.00    -0.285 OA
ATOM      8  C   UNL     1       0.932  18.084  27.365  1.00  0.00     0.111 A 
ATOM      9  C   UNL     1       2.952  19.452  27.202  1.00  0.00     0.094 A 
ATOM     10  C   UNL     1       0.216  19.237  27.812  1.00  0.00     0.134 A 
ATOM     11  C   UNL     1       2.229  20.584  27.583  1.00  0.00     0.123 A 
ATOM     12  C   UNL     1       0.873  20.470  27.883  1.00  0.00     0.093 A 
BRANCH   3  13
ATOM     13  C   UNL     1       3.427  14.907  25.992  1.00  0.00     0.025 A 
ATOM     14  C   UNL     1       2.953  13.613  25.714  1.00  0.00     0.016 A 
ATOM     15  C   UNL     1       3.821  12.636  25.217  1.00  0.00     0.051 A 
ATOM     16  C   UNL     1       5.165  12.946  24.968  1.00  0.00     0.157 A 
ATOM     17  C   UNL     1       4.772  15.216  25.729  1.00  0.00     0.062 A 
ATOM     18  C   UNL     1       5.639  14.241  25.215  1.00  0.00     0.158 A 
BRANCH  16  19
ATOM     19  O   UNL     1       6.034  11.977  24.469  1.00  0.00    -0.504 OA
ATOM     20  H   UNL     1       6.463  11.286  25.076  1.00  0.00     0.293 HD
ENDBRANCH  16  19
BRANCH  18  21
ATOM     21  O   UNL     1       6.967  14.556  24.937  1.00  0.00    -0.504 OA
ATOM     22  H   UNL     1       7.717  14.281  25.560  1.00  0.00     0.293 HD
ENDBRANCH  18  21
ENDBRANCH   3  13
BRANCH  10  23
ATOM     23  O   UNL     1      -1.121  19.221  28.221  1.00  0.00    -0.507 OA
ATOM     24  H   UNL     1      -1.712  20.033  28.307  1.00  0.00     0.293 HD
ENDBRANCH  10  23
BRANCH  11  25
ATOM     25  O   UNL     1       2.848  21.830  27.661  1.00  0.00    -0.508 OA
ATOM     26  H   UNL     1       2.918  22.330  28.539  1.00  0.00     0.293 HD
ENDBRANCH  11  25
ENDBRANCH   1   2
BRANCH   1  27
ATOM     27  C   UNL     1       0.585  13.503  27.834  1.00  0.00     0.339 C 
ATOM     28  C   UNL     1      -0.350  12.290  27.533  1.00  0.00     0.214 C 
ATOM     29  O   UNL     1       1.928  13.105  28.063  1.00  0.00    -0.332 OA
ATOM     30  C   UNL     1       0.474  10.995  27.358  1.00  0.00     0.180 C 
ATOM     31  C   UNL     1       1.991  12.120  29.079  1.00  0.00     0.179 C 
ATOM     32  C   UNL     1       1.414  10.764  28.566  1.00  0.00     0.177 C 
BRANCH  28  33
ATOM     33  O   UNL     1      -1.121  12.523  26.383  1.00  0.00    -0.384 OA
ATOM     34  H   UNL     1      -2.040  12.193  26.576  1.00  0.00     0.211 HD
ENDBRANCH  28  33
BRANCH  30  35
ATOM     35  O   UNL     1      -0.362   9.881  27.157  1.00  0.00    -0.387 OA
ATOM     36  H   UNL     1       0.210   9.122  26.872  1.00  0.00     0.211 HD
ENDBRANCH  30  35
BRANCH  31  37
ATOM     37  C   UNL     1       3.436  12.023  29.592  1.00  0.00     0.191 C 
BRANCH  37  38
ATOM     38  O   UNL     1       4.309  11.704  28.541  1.00  0.00    -0.394 OA
ATOM     39  H   UNL     1       3.883  12.047  27.712  1.00  0.00     0.210 HD
ENDBRANCH  37  38
ENDBRANCH  31  37
BRANCH  32  40
ATOM     40  O   UNL     1       2.438   9.875  28.193  1.00  0.00    -0.387 OA
ATOM     41  H   UNL     1       2.118   9.384  27.390  1.00  0.00     0.211 HD
ENDBRANCH  32  40
ENDBRANCH   1  27
TORSDOF 12
ENDMDL
MODEL 2
REMARK VINA RESULT:    -1.078      1.741      5.648
REMARK INTER + INTRA:          -1.042
REMARK INTER:                  -0.161
REMARK INTRA:                  -0.882
REMARK UNBOUND:                 0.539
REMARK SMILES O=c1c(O[C@@H]2O[C@H](CO)[C@H](O)[C@@H](O)[C@@H]2O)c(-c2ccc(O)c(O)c2)oc2cc(O)cc(O)c12
REMARK SMILES IDX 4 1 3 2 16 3 25 4 2 5 26 6 1 7 33 8 27 9 31 10 28 11 30 12
REMARK SMILES IDX 17 13 18 14 19 15 20 16 24 17 22 18 21 19 23 21 32 23 29 25
REMARK SMILES IDX 5 27 14 28 6 29 12 30 7 31 10 32 15 33 13 35 8 37 9 38 11 40
REMARK H PARENT 21 20 23 22 32 24 29 26 15 34 13 36 9 39 11 41
REMARK Flexibility Score: inf
ROOT
ATOM      1  O   UNL     1       1.263  13.372  26.458  1.00  0.00    -0.454 OA
ENDROOT
BRANCH   1   2
ATOM      2  C   UNL     1       2.560  13.786  26.109  1.00  0.00     0.214 A 
ATOM      3  C   UNL     1       2.898  15.143  25.910  1.00  0.00     0.180 A 
ATOM      4  O   UNL     1       4.120  15.461  25.499  1.00  0.00    -0.452 OA
ATOM      5  C   UNL     1       3.561  12.818  25.968  1.00  0.00     0.239 A 
ATOM      6  C   UNL     1       5.077  14.568  25.284  1.00  0.00     0.146 A 
ATOM      7  O   UNL     1       3.291  11.631  26.289  1.00  0.00    -0.285 OA
ATOM      8  C   UNL     1       4.843  13.184  25.493  1.00  0.00     0.111 A 
ATOM      9  C   UNL     1       6.330  15.022  24.867  1.00  0.00     0.094 A 
ATOM     10  C   UNL     1       5.905  12.266  25.226  1.00  0.00     0.134 A 
ATOM     11  C   UNL     1       7.376  14.121  24.666  1.00  0.00     0.123 A 
ATOM     12  C   UNL     1       7.160  12.757  24.847  1.00  0.00     0.093 A 
BRANCH   3  13
ATOM     13  C   UNL     1       1.958  16.251  26.185  1.00  0.00     0.025 A 
ATOM     14  C   UNL     1       1.606  16.597  27.501  1.00  0.00     0.016 A 
ATOM     15  C   UNL     1       0.712  17.646  27.738  1.00  0.00     0.051 A 
ATOM     16  C   UNL     1       0.183  18.379  26.667  1.00  0.00     0.157 A 
ATOM     17  C   UNL     1       1.434  16.996  25.115  1.00  0.00     0.062 A 
ATOM     18  C   UNL     1       0.551  18.059  25.354  1.00  0.00     0.158 A 
BRANCH  16  19
ATOM     19  O   UNL     1      -0.705  19.428  26.899  1.00  0.00    -0.504 OA
ATOM     20  H   UNL     1      -1.076  19.988  26.138  1.00  0.00     0.293 HD
ENDBRANCH  16  19
BRANCH  18  21
ATOM     21  O   UNL     1       0.049  18.808  24.293  1.00  0.00    -0.504 OA
ATOM     22  H   UNL     1      -0.922  19.098  24.263  1.00  0.00     0.293 HD
ENDBRANCH  18  21
ENDBRANCH   3  13
BRANCH  10  23
ATOM     23  O   UNL     1       5.776  10.875  25.291  1.00  0.00    -0.507 OA
ATOM     24  H   UNL     1       5.400  10.363  26.072  1.00  0.00     0.293 HD
ENDBRANCH  10  23
BRANCH  11  25
ATOM     25  O   UNL     1       8.641  14.573  24.292  1.00  0.00    -0.508 OA
ATOM     26  H   UNL     1       9.466  14.333  24.828  1.00  0.00     0.293 HD
ENDBRANCH  11  25
ENDBRANCH   1   2
BRANCH   1  27
ATOM     27  C   UNL     1       0.798  13.233  27.806  1.00  0.00     0.339 C 
ATOM     28  C   UNL     1      -0.412  12.252  27.891  1.00  0.00     0.214 C 
ATOM     29  O   UNL     1       1.897  12.804  28.596  1.00  0.00    -0.332 OA
ATOM     30  C   UNL     1      -0.020  10.963  28.648  1.00  0.00     0.180 C 
ATOM     31  C   UNL     1       1.490  12.574  29.933  1.00  0.00     0.179 C 
ATOM     32  C   UNL     1       0.603  11.295  30.026  1.00  0.00     0.177 C 
BRANCH  28  33
ATOM     33  O   UNL     1      -0.885  11.925  26.610  1.00  0.00    -0.384 OA
ATOM     34  H   UNL     1      -1.878  11.885  26.666  1.00  0.00     0.211 HD
ENDBRANCH  28  33
BRANCH  30  35
ATOM     35  O   UNL     1      -1.123  10.101  28.793  1.00  0.00    -0.387 OA
ATOM     36  H   UNL     1      -0.894   9.243  28.351  1.00  0.00     0.211 HD
ENDBRANCH  30  35
BRANCH  31  37
ATOM     37  C   UNL     1       2.735  12.530  30.833  1.00  0.00     0.191 C 
BRANCH  37  38
ATOM     38  O   UNL     1       3.644  11.569  30.367  1.00  0.00    -0.394 OA
ATOM     39  H   UNL     1       3.173  11.066  29.651  1.00  0.00     0.210 HD
ENDBRANCH  37  38
ENDBRANCH  31  37
BRANCH  32  40
ATOM     40  O   UNL     1       1.340  10.186  30.479  1.00  0.00    -0.387 OA
ATOM     41  H   UNL     1       2.266  10.292  30.133  1.00  0.00     0.211 HD
ENDBRANCH  32  40
ENDBRANCH   1  27
TORSDOF 12
ENDMDL
MODEL 3
REMARK VINA RESULT:    -1.027      1.459      4.509
REMARK INTER + INTRA:          -0.969
REMARK INTER:                  -0.297
REMARK INTRA:                  -0.672
REMARK UNBOUND:                 0.539
REMARK SMILES O=c1c(O[C@@H]2O[C@H](CO)[C@H](O)[C@@H](O)[C@@H]2O)c(-c2ccc(O)c(O)c2)oc2cc(O)cc(O)c12
REMARK SMILES IDX 4 1 3 2 16 3 25 4 2 5 26 6 1 7 33 8 27 9 31 10 28 11 30 12
REMARK SMILES IDX 17 13 18 14 19 15 20 16 24 17 22 18 21 19 23 21 32 23 29 25
REMARK SMILES IDX 5 27 14 28 6 29 12 30 7 31 10 32 15 33 13 35 8 37 9 38 11 40
REMARK H PARENT 21 20 23 22 32 24 29 26 15 34 13 36 9 39 11 41
REMARK Flexibility Score: inf
ROOT
ATOM      1  O   UNL     1       3.451  14.539  26.999  1.00  0.00    -0.454 OA
ENDROOT
BRANCH   1   2
ATOM      2  C   UNL     1       2.475  15.550  27.041  1.00  0.00     0.214 A 
ATOM      3  C   UNL     1       1.094  15.270  27.131  1.00  0.00     0.180 A 
ATOM      4  O   UNL     1       0.218  16.267  27.082  1.00  0.00    -0.452 OA
ATOM      5  C   UNL     1       2.889  16.887  27.009  1.00  0.00     0.239 A 
ATOM      6  C   UNL     1       0.565  17.544  26.979  1.00  0.00     0.146 A 
ATOM      7  O   UNL     1       4.122  17.131  27.077  1.00  0.00    -0.285 OA
ATOM      8  C   UNL     1       1.931  17.925  26.920  1.00  0.00     0.111 A 
ATOM      9  C   UNL     1      -0.444  18.507  26.952  1.00  0.00     0.094 A 
ATOM     10  C   UNL     1       2.245  19.313  26.789  1.00  0.00     0.134 A 
ATOM     11  C   UNL     1      -0.123  19.864  26.883  1.00  0.00     0.123 A 
ATOM     12  C   UNL     1       1.211  20.257  26.804  1.00  0.00     0.093 A 
BRANCH   3  13
ATOM     13  C   UNL     1       0.564  13.903  27.327  1.00  0.00     0.025 A 
ATOM     14  C   UNL     1      -0.434  13.382  26.485  1.00  0.00     0.016 A 
ATOM     15  C   UNL     1      -0.924  12.089  26.691  1.00  0.00     0.051 A 
ATOM     16  C   UNL     1      -0.404  11.292  27.720  1.00  0.00     0.157 A 
ATOM     17  C   UNL     1       1.090  13.097  28.350  1.00  0.00     0.062 A 
ATOM     18  C   UNL     1       0.611  11.794  28.545  1.00  0.00     0.158 A 
BRANCH  16  19
ATOM     19  O   UNL     1      -0.887  10.001  27.926  1.00  0.00    -0.504 OA
ATOM     20  H   UNL     1      -1.718   9.827  28.483  1.00  0.00     0.293 HD
ENDBRANCH  16  19
BRANCH  18  21
ATOM     21  O   UNL     1       1.148  10.989  29.547  1.00  0.00    -0.504 OA
ATOM     22  H   UNL     1       1.873  10.311  29.349  1.00  0.00     0.293 HD
ENDBRANCH  18  21
ENDBRANCH   3  13
BRANCH  10  23
ATOM     23  O   UNL     1       3.539  19.813  26.617  1.00  0.00    -0.507 OA
ATOM     24  H   UNL     1       3.949  20.562  27.152  1.00  0.00     0.293 HD
ENDBRANCH  10  23
BRANCH  11  25
ATOM     25  O   UNL     1      -1.125  20.833  26.899  1.00  0.00    -0.508 OA
ATOM     26  H   UNL     1      -1.923  20.777  26.279  1.00  0.00     0.293 HD
ENDBRANCH  11  25
ENDBRANCH   1   2
BRANCH   1  27
ATOM     27  C   UNL     1       3.432  13.440  26.080  1.00  0.00     0.339 C 
ATOM     28  C   UNL     1       4.659  13.483  25.117  1.00  0.00     0.214 C 
ATOM     29  O   UNL     1       3.388  12.244  26.845  1.00  0.00    -0.332 OA
ATOM     30  C   UNL     1       5.619  12.306  25.399  1.00  0.00     0.180 C 
ATOM     31  C   UNL     1       3.442  11.109  25.998  1.00  0.00     0.179 C 
ATOM     32  C   UNL     1       4.863  10.954  25.375  1.00  0.00     0.177 C 
BRANCH  28  33
ATOM     33  O   UNL     1       5.351  14.699  25.238  1.00  0.00    -0.384 OA
ATOM     34  H   UNL     1       5.977  14.758  24.467  1.00  0.00     0.211 HD
ENDBRANCH  28  33
BRANCH  30  35
ATOM     35  O   UNL     1       6.693  12.292  24.490  1.00  0.00    -0.387 OA
ATOM     36  H   UNL     1       7.533  12.299  25.017  1.00  0.00     0.211 HD
ENDBRANCH  30  35
BRANCH  31  37
ATOM     37  C   UNL     1       2.974   9.876  26.787  1.00  0.00     0.191 C 
BRANCH  37  38
ATOM     38  O   UNL     1       3.534   9.875  28.074  1.00  0.00    -0.394 OA
ATOM     39  H   UNL     1       4.096  10.692  28.132  1.00  0.00     0.210 HD
ENDBRANCH  37  38
ENDBRANCH  31  37
BRANCH  32  40
ATOM     40  O   UNL     1       5.624   9.987  26.058  1.00  0.00    -0.387 OA
ATOM     41  H   UNL     1       6.358  10.470  26.522  1.00  0.00     0.211 HD
ENDBRANCH  32  40
ENDBRANCH   1  27
TORSDOF 12
ENDMDL
MODEL 4
REMARK VINA RESULT:    -0.743      1.745      4.342
REMARK INTER + INTRA:          -0.551
REMARK INTER:                  -2.382
REMARK INTRA:                   1.831
REMARK UNBOUND:                 0.539
REMARK SMILES O=c1c(O[C@@H]2O[C@H](CO)[C@H](O)[C@@H](O)[C@@H]2O)c(-c2ccc(O)c(O)c2)oc2cc(O)cc(O)c12
REMARK SMILES IDX 4 1 3 2 16 3 25 4 2 5 26 6 1 7 33 8 27 9 31 10 28 11 30 12
REMARK SMILES IDX 17 13 18 14 19 15 20 16 24 17 22 18 21 19 23 21 32 23 29 25
REMARK SMILES IDX 5 27 14 28 6 29 12 30 7 31 10 32 15 33 13 35 8 37 9 38 11 40
REMARK H PARENT 21 20 23 22 32 24 29 26 15 34 13 36 9 39 11 41
REMARK Flexibility Score: inf
ROOT
ATOM      1  O   UNL     1       1.209  15.810  24.799  1.00  0.00    -0.454 OA
ENDROOT
BRANCH   1   2
ATOM      2  C   UNL     1       0.806  16.491  25.961  1.00  0.00     0.214 A 
ATOM      3  C   UNL     1       0.441  15.819  27.148  1.00  0.00     0.180 A 
ATOM      4  O   UNL     1      -0.012  16.516  28.183  1.00  0.00    -0.452 OA
ATOM      5  C   UNL     1       0.779  17.890  25.946  1.00  0.00     0.239 A 
ATOM      6  C   UNL     1      -0.121  17.839  28.186  1.00  0.00     0.146 A 
ATOM      7  O   UNL     1       1.244  18.484  24.938  1.00  0.00    -0.285 OA
ATOM      8  C   UNL     1       0.256  18.603  27.051  1.00  0.00     0.111 A 
ATOM      9  C   UNL     1      -0.597  18.465  29.339  1.00  0.00     0.094 A 
ATOM     10  C   UNL     1       0.098  20.023  27.103  1.00  0.00     0.134 A 
ATOM     11  C   UNL     1      -0.691  19.856  29.399  1.00  0.00     0.123 A 
ATOM     12  C   UNL     1      -0.344  20.622  28.288  1.00  0.00     0.093 A 
BRANCH   3  13
ATOM     13  C   UNL     1       0.583  14.357  27.318  1.00  0.00     0.025 A 
ATOM     14  C   UNL     1      -0.348  13.465  26.757  1.00  0.00     0.016 A 
ATOM     15  C   UNL     1      -0.197  12.087  26.933  1.00  0.00     0.051 A 
ATOM     16  C   UNL     1       0.898  11.581  27.647  1.00  0.00     0.157 A 
ATOM     17  C   UNL     1       1.685  13.845  28.023  1.00  0.00     0.062 A 
ATOM     18  C   UNL     1       1.845  12.462  28.185  1.00  0.00     0.158 A 
BRANCH  16  19
ATOM     19  O   UNL     1       1.055  10.207  27.822  1.00  0.00    -0.504 OA
ATOM     20  H   UNL     1       1.041   9.784  28.745  1.00  0.00     0.293 HD
ENDBRANCH  16  19
BRANCH  18  21
ATOM     21  O   UNL     1       2.949  11.957  28.868  1.00  0.00    -0.504 OA
ATOM     22  H   UNL     1       3.895  12.148  28.559  1.00  0.00     0.293 HD
ENDBRANCH  18  21
ENDBRANCH   3  13
BRANCH  10  23
ATOM     23  O   UNL     1       0.333  20.879  26.023  1.00  0.00    -0.507 OA
ATOM     24  H   UNL     1       0.550  21.860  26.097  1.00  0.00     0.293 HD
ENDBRANCH  10  23
BRANCH  11  25
ATOM     25  O   UNL     1      -1.124  20.490  30.562  1.00  0.00    -0.508 OA
ATOM     26  H   UNL     1      -0.689  21.344  30.891  1.00  0.00     0.293 HD
ENDBRANCH  11  25
ENDBRANCH   1   2
BRANCH   1  27
ATOM     27  C   UNL     1       2.524  15.279  24.593  1.00  0.00     0.339 C 
ATOM     28  C   UNL     1       3.610  16.175  25.266  1.00  0.00     0.214 C 
ATOM     29  O   UNL     1       2.533  13.951  25.096  1.00  0.00    -0.332 OA
ATOM     30  C   UNL     1       4.272  15.437  26.451  1.00  0.00     0.180 C 
ATOM     31  C   UNL     1       3.828  13.387  24.991  1.00  0.00     0.179 C 
ATOM     32  C   UNL     1       4.800  14.048  26.016  1.00  0.00     0.177 C 
BRANCH  28  33
ATOM     33  O   UNL     1       3.057  17.387  25.709  1.00  0.00    -0.384 OA
ATOM     34  H   UNL     1       3.721  18.101  25.510  1.00  0.00     0.211 HD
ENDBRANCH  28  33
BRANCH  30  35
ATOM     35  O   UNL     1       5.303  16.207  27.020  1.00  0.00    -0.387 OA
ATOM     36  H   UNL     1       4.929  17.103  27.229  1.00  0.00     0.211 HD
ENDBRANCH  30  35
BRANCH  31  37
ATOM     37  C   UNL     1       3.721  11.861  25.135  1.00  0.00     0.191 C 
BRANCH  37  38
ATOM     38  O   UNL     1       4.963  11.256  24.888  1.00  0.00    -0.394 OA
ATOM     39  H   UNL     1       5.040  10.505  25.534  1.00  0.00     0.210 HD
ENDBRANCH  37  38
ENDBRANCH  31  37
BRANCH  32  40
ATOM     40  O   UNL     1       4.974  13.242  27.156  1.00  0.00    -0.387 OA
ATOM     41  H   UNL     1       5.946  13.239  27.364  1.00  0.00     0.211 HD
ENDBRANCH  32  40
ENDBRANCH   1  27
TORSDOF 12
ENDMDL
MODEL 5
REMARK VINA RESULT:    -0.373      1.742      6.111
REMARK INTER + INTRA:          -0.009
REMARK INTER:                   0.586
REMARK INTRA:                  -0.594
REMARK UNBOUND:                 0.539
REMARK SMILES O=c1c(O[C@@H]2O[C@H](CO)[C@H](O)[C@@H](O)[C@@H]2O)c(-c2ccc(O)c(O)c2)oc2cc(O)cc(O)c12
REMARK SMILES IDX 4 1 3 2 16 3 25 4 2 5 26 6 1 7 33 8 27 9 31 10 28 11 30 12
REMARK SMILES IDX 17 13 18 14 19 15 20 16 24 17 22 18 21 19 23 21 32 23 29 25
REMARK SMILES IDX 5 27 14 28 6 29 12 30 7 31 10 32 15 33 13 35 8 37 9 38 11 40
REMARK H PARENT 21 20 23 22 32 24 29 26 15 34 13 36 9 39 11 41
REMARK Flexibility Score: inf
ROOT
ATOM      1  O   UNL     1       2.261  14.474  25.074  1.00  0.00    -0.454 OA
ENDROOT
BRANCH   1   2
ATOM      2  C   UNL     1       2.594  13.697  26.197  1.00  0.00     0.214 A 
ATOM      3  C   UNL     1       3.929  13.402  26.548  1.00  0.00     0.180 A 
ATOM      4  O   UNL     1       4.175  12.592  27.571  1.00  0.00    -0.452 OA
ATOM      5  C   UNL     1       1.563  13.209  27.008  1.00  0.00     0.239 A 
ATOM      6  C   UNL     1       3.225  12.050  28.322  1.00  0.00     0.146 A 
ATOM      7  O   UNL     1       0.388  13.595  26.775  1.00  0.00    -0.285 OA
ATOM      8  C   UNL     1       1.854  12.317  28.068  1.00  0.00     0.111 A 
ATOM      9  C   UNL     1       3.603  11.225  29.382  1.00  0.00     0.094 A 
ATOM     10  C   UNL     1       0.873  11.690  28.897  1.00  0.00     0.134 A 
ATOM     11  C   UNL     1       2.639  10.664  30.220  1.00  0.00     0.123 A 
ATOM     12  C   UNL     1       1.288  10.899  29.975  1.00  0.00     0.093 A 
BRANCH   3  13
ATOM     13  C   UNL     1       5.091  13.996  25.852  1.00  0.00     0.025 A 
ATOM     14  C   UNL     1       5.201  15.386  25.675  1.00  0.00     0.016 A 
ATOM     15  C   UNL     1       6.306  15.926  25.010  1.00  0.00     0.051 A 
ATOM     16  C   UNL     1       7.326  15.088  24.539  1.00  0.00     0.157 A 
ATOM     17  C   UNL     1       6.121  13.161  25.387  1.00  0.00     0.062 A 
ATOM     18  C   UNL     1       7.238  13.704  24.736  1.00  0.00     0.158 A 
BRANCH  16  19
ATOM     19  O   UNL     1       8.432  15.623  23.879  1.00  0.00    -0.504 OA
ATOM     20  H   UNL     1       9.374  15.498  24.235  1.00  0.00     0.293 HD
ENDBRANCH  16  19
BRANCH  18  21
ATOM     21  O   UNL     1       8.266  12.876  24.294  1.00  0.00    -0.504 OA
ATOM     22  H   UNL     1       9.124  13.255  23.910  1.00  0.00     0.293 HD
ENDBRANCH  18  21
ENDBRANCH   3  13
BRANCH  10  23
ATOM     23  O   UNL     1      -0.506  11.786  28.691  1.00  0.00    -0.507 OA
ATOM     24  H   UNL     1      -1.113  12.460  29.129  1.00  0.00     0.293 HD
ENDBRANCH  10  23
BRANCH  11  25
ATOM     25  O   UNL     1       3.013   9.875  31.307  1.00  0.00    -0.508 OA
ATOM     26  H   UNL     1       2.668  10.065  32.240  1.00  0.00     0.293 HD
ENDBRANCH  11  25
ENDBRANCH   1   2
BRANCH   1  27
ATOM     27  C   UNL     1       2.229  15.907  25.068  1.00  0.00     0.339 C 
ATOM     28  C   UNL     1       0.924  16.443  24.402  1.00  0.00     0.214 C 
ATOM     29  O   UNL     1       2.368  16.344  26.412  1.00  0.00    -0.332 OA
ATOM     30  C   UNL     1       0.022  17.138  25.446  1.00  0.00     0.180 C 
ATOM     31  C   UNL     1       2.272  17.756  26.489  1.00  0.00     0.179 C 
ATOM     32  C   UNL     1       0.807  18.222  26.226  1.00  0.00     0.177 C 
BRANCH  28  33
ATOM     33  O   UNL     1       0.215  15.404  23.778  1.00  0.00    -0.384 OA
ATOM     34  H   UNL     1      -0.032  14.752  24.487  1.00  0.00     0.211 HD
ENDBRANCH  28  33
BRANCH  30  35
ATOM     35  O   UNL     1      -1.125  17.689  24.845  1.00  0.00    -0.387 OA
ATOM     36  H   UNL     1      -1.861  17.650  25.509  1.00  0.00     0.211 HD
ENDBRANCH  30  35
BRANCH  31  37
ATOM     37  C   UNL     1       2.836  18.221  27.841  1.00  0.00     0.191 C 
BRANCH  37  38
ATOM     38  O   UNL     1       2.581  19.587  28.035  1.00  0.00    -0.394 OA
ATOM     39  H   UNL     1       3.280  19.914  28.659  1.00  0.00     0.210 HD
ENDBRANCH  37  38
ENDBRANCH  31  37
BRANCH  32  40
ATOM     40  O   UNL     1       0.132  18.507  27.427  1.00  0.00    -0.387 OA
ATOM     41  H   UNL     1       0.825  18.610  28.132  1.00  0.00     0.211 HD
ENDBRANCH  32  40
ENDBRANCH   1  27
TORSDOF 12
ENDMDL
MODEL 6
REMARK VINA RESULT:    -0.260      1.483      4.688
REMARK INTER + INTRA:           0.158
REMARK INTER:                  -0.467
REMARK INTRA:                   0.624
REMARK UNBOUND:                 0.539
REMARK SMILES O=c1c(O[C@@H]2O[C@H](CO)[C@H](O)[C@@H](O)[C@@H]2O)c(-c2ccc(O)c(O)c2)oc2cc(O)cc(O)c12
REMARK SMILES IDX 4 1 3 2 16 3 25 4 2 5 26 6 1 7 33 8 27 9 31 10 28 11 30 12
REMARK SMILES IDX 17 13 18 14 19 15 20 16 24 17 22 18 21 19 23 21 32 23 29 25
REMARK SMILES IDX 5 27 14 28 6 29 12 30 7 31 10 32 15 33 13 35 8 37 9 38 11 40
REMARK H PARENT 21 20 23 22 32 24 29 26 15 34 13 36 9 39 11 41
REMARK Flexibility Score: inf
ROOT
ATOM      1  O   UNL     1       2.590  14.903  25.815  1.00  0.00    -0.454 OA
ENDROOT
BRANCH   1   2
ATOM      2  C   UNL     1       1.817  15.798  26.576  1.00  0.00     0.214 A 
ATOM      3  C   UNL     1       0.665  15.394  27.285  1.00  0.00     0.180 A 
ATOM      4  O   UNL     1      -0.069  16.304  27.915  1.00  0.00    -0.452 OA
ATOM      5  C   UNL     1       2.214  17.138  26.647  1.00  0.00     0.239 A 
ATOM      6  C   UNL     1       0.232  17.596  27.947  1.00  0.00     0.146 A 
ATOM      7  O   UNL     1       3.319  17.460  26.136  1.00  0.00    -0.285 OA
ATOM      8  C   UNL     1       1.391  18.090  27.294  1.00  0.00     0.111 A 
ATOM      9  C   UNL     1      -0.607  18.457  28.655  1.00  0.00     0.094 A 
ATOM     10  C   UNL     1       1.654  19.494  27.345  1.00  0.00     0.134 A 
ATOM     11  C   UNL     1      -0.308  19.817  28.747  1.00  0.00     0.123 A 
ATOM     12  C   UNL     1       0.815  20.324  28.096  1.00  0.00     0.093 A 
BRANCH   3  13
ATOM     13  C   UNL     1       0.250  13.980  27.402  1.00  0.00     0.025 A 
ATOM     14  C   UNL     1      -0.745  13.441  26.568  1.00  0.00     0.016 A 
ATOM     15  C   UNL     1      -1.125  12.102  26.699  1.00  0.00     0.051 A 
ATOM     16  C   UNL     1      -0.497  11.279  27.645  1.00  0.00     0.157 A 
ATOM     17  C   UNL     1       0.884  13.148  28.341  1.00  0.00     0.062 A 
ATOM     18  C   UNL     1       0.515  11.800  28.460  1.00  0.00     0.158 A 
BRANCH  16  19
ATOM     19  O   UNL     1      -0.870   9.942  27.776  1.00  0.00    -0.504 OA
ATOM     20  H   UNL     1      -0.254   9.188  27.486  1.00  0.00     0.293 HD
ENDBRANCH  16  19
BRANCH  18  21
ATOM     21  O   UNL     1       1.160  10.973  29.377  1.00  0.00    -0.504 OA
ATOM     22  H   UNL     1       1.030   9.969  29.365  1.00  0.00     0.293 HD
ENDBRANCH  18  21
ENDBRANCH   3  13
BRANCH  10  23
ATOM     23  O   UNL     1       2.700  20.122  26.662  1.00  0.00    -0.507 OA
ATOM     24  H   UNL     1       3.681  19.962  26.827  1.00  0.00     0.293 HD
ENDBRANCH  10  23
BRANCH  11  25
ATOM     25  O   UNL     1      -1.118  20.675  29.489  1.00  0.00    -0.508 OA
ATOM     26  H   UNL     1      -1.959  21.079  29.095  1.00  0.00     0.293 HD
ENDBRANCH  11  25
ENDBRANCH   1   2
BRANCH   1  27
ATOM     27  C   UNL     1       3.884  14.425  26.204  1.00  0.00     0.339 C 
ATOM     28  C   UNL     1       3.858  12.892  26.495  1.00  0.00     0.214 C 
ATOM     29  O   UNL     1       4.794  14.763  25.169  1.00  0.00    -0.332 OA
ATOM     30  C   UNL     1       4.678  12.120  25.437  1.00  0.00     0.180 C 
ATOM     31  C   UNL     1       6.085  14.253  25.454  1.00  0.00     0.179 C 
ATOM     32  C   UNL     1       6.108  12.700  25.309  1.00  0.00     0.177 C 
BRANCH  28  33
ATOM     33  O   UNL     1       2.541  12.407  26.522  1.00  0.00    -0.384 OA
ATOM     34  H   UNL     1       2.001  12.994  25.927  1.00  0.00     0.211 HD
ENDBRANCH  28  33
BRANCH  30  35
ATOM     35  O   UNL     1       4.722  10.744  25.729  1.00  0.00    -0.387 OA
ATOM     36  H   UNL     1       3.904  10.519  26.243  1.00  0.00     0.211 HD
ENDBRANCH  30  35
BRANCH  31  37
ATOM     37  C   UNL     1       7.113  14.973  24.567  1.00  0.00     0.191 C 
BRANCH  37  38
ATOM     38  O   UNL     1       8.337  14.287  24.578  1.00  0.00    -0.394 OA
ATOM     39  H   UNL     1       8.770  14.477  23.705  1.00  0.00     0.210 HD
ENDBRANCH  37  38
ENDBRANCH  31  37
BRANCH  32  40
ATOM     40  O   UNL     1       6.658  12.305  24.076  1.00  0.00    -0.387 OA
ATOM     41  H   UNL     1       7.364  11.634  24.275  1.00  0.00     0.211 HD
ENDBRANCH  32  40
ENDBRANCH   1  27
TORSDOF 12
ENDMDL
MODEL 7
REMARK VINA RESULT:     0.699      2.684      4.729
REMARK INTER + INTRA:           1.565
REMARK INTER:                   1.402
REMARK INTRA:                   0.163
REMARK UNBOUND:                 0.539
REMARK SMILES O=c1c(O[C@@H]2O[C@H](CO)[C@H](O)[C@@H](O)[C@@H]2O)c(-c2ccc(O)c(O)c2)oc2cc(O)cc(O)c12
REMARK SMILES IDX 4 1 3 2 16 3 25 4 2 5 26 6 1 7 33 8 27 9 31 10 28 11 30 12
REMARK SMILES IDX 17 13 18 14 19 15 20 16 24 17 22 18 21 19 23 21 32 23 29 25
REMARK SMILES IDX 5 27 14 28 6 29 12 30 7 31 10 32 15 33 13 35 8 37 9 38 11 40
REMARK H PARENT 21 20 23 22 32 24 29 26 15 34 13 36 9 39 11 41
REMARK Flexibility Score: inf
ROOT
ATOM      1  O   UNL     1       3.925  16.367  26.743  1.00  0.00    -0.454 OA
ENDROOT
BRANCH   1   2
ATOM      2  C   UNL     1       3.162  17.521  26.989  1.00  0.00     0.214 A 
ATOM      3  C   UNL     1       3.545  18.499  27.933  1.00  0.00     0.180 A 
ATOM      4  O   UNL     1       2.738  19.524  28.180  1.00  0.00    -0.452 OA
ATOM      5  C   UNL     1       1.984  17.719  26.258  1.00  0.00     0.239 A 
ATOM      6  C   UNL     1       1.579  19.711  27.561  1.00  0.00     0.146 A 
ATOM      7  O   UNL     1       1.726  16.923  25.318  1.00  0.00    -0.285 OA
ATOM      8  C   UNL     1       1.127  18.801  26.570  1.00  0.00     0.111 A 
ATOM      9  C   UNL     1       0.821  20.835  27.892  1.00  0.00     0.094 A 
ATOM     10  C   UNL     1      -0.138  19.042  25.951  1.00  0.00     0.134 A 
ATOM     11  C   UNL     1      -0.385  21.091  27.239  1.00  0.00     0.123 A 
ATOM     12  C   UNL     1      -0.855  20.199  26.277  1.00  0.00     0.093 A 
BRANCH   3  13
ATOM     13  C   UNL     1       4.842  18.464  28.642  1.00  0.00     0.025 A 
ATOM     14  C   UNL     1       5.817  17.500  28.329  1.00  0.00     0.016 A 
ATOM     15  C   UNL     1       7.035  17.482  29.014  1.00  0.00     0.051 A 
ATOM     16  C   UNL     1       7.306  18.442  30.000  1.00  0.00     0.157 A 
ATOM     17  C   UNL     1       5.122  19.431  29.622  1.00  0.00     0.062 A 
ATOM     18  C   UNL     1       6.351  19.423  30.297  1.00  0.00     0.158 A 
BRANCH  16  19
ATOM     19  O   UNL     1       8.521  18.431  30.683  1.00  0.00    -0.504 OA
ATOM     20  H   UNL     1       9.176  19.203  30.613  1.00  0.00     0.293 HD
ENDBRANCH  16  19
BRANCH  18  21
ATOM     21  O   UNL     1       6.634  20.395  31.254  1.00  0.00    -0.504 OA
ATOM     22  H   UNL     1       7.428  21.016  31.158  1.00  0.00     0.293 HD
ENDBRANCH  18  21
ENDBRANCH   3  13
BRANCH  10  23
ATOM     23  O   UNL     1      -0.744  18.173  25.039  1.00  0.00    -0.507 OA
ATOM     24  H   UNL     1      -0.454  17.225  24.859  1.00  0.00     0.293 HD
ENDBRANCH  10  23
BRANCH  11  25
ATOM     25  O   UNL     1      -1.125  22.235  27.534  1.00  0.00    -0.508 OA
ATOM     26  H   UNL     1      -1.918  22.203  28.163  1.00  0.00     0.293 HD
ENDBRANCH  11  25
ENDBRANCH   1   2
BRANCH   1  27
ATOM     27  C   UNL     1       3.423  15.195  26.087  1.00  0.00     0.339 C 
ATOM     28  C   UNL     1       4.552  14.458  25.301  1.00  0.00     0.214 C 
ATOM     29  O   UNL     1       2.829  14.371  27.079  1.00  0.00    -0.332 OA
ATOM     30  C   UNL     1       4.867  13.092  25.948  1.00  0.00     0.180 C 
ATOM     31  C   UNL     1       2.375  13.156  26.510  1.00  0.00     0.179 C 
ATOM     32  C   UNL     1       3.581  12.246  26.120  1.00  0.00     0.177 C 
BRANCH  28  33
ATOM     33  O   UNL     1       5.717  15.239  25.245  1.00  0.00    -0.384 OA
ATOM     34  H   UNL     1       6.111  15.111  24.340  1.00  0.00     0.211 HD
ENDBRANCH  28  33
BRANCH  30  35
ATOM     35  O   UNL     1       5.833  12.385  25.207  1.00  0.00    -0.387 OA
ATOM     36  H   UNL     1       5.517  12.341  24.267  1.00  0.00     0.211 HD
ENDBRANCH  30  35
BRANCH  31  37
ATOM     37  C   UNL     1       1.386  12.490  27.479  1.00  0.00     0.191 C 
BRANCH  37  38
ATOM     38  O   UNL     1       1.910  12.474  28.781  1.00  0.00    -0.394 OA
ATOM     39  H   UNL     1       2.603  13.185  28.810  1.00  0.00     0.210 HD
ENDBRANCH  37  38
ENDBRANCH  31  37
BRANCH  32  40
ATOM     40  O   UNL     1       3.809  11.249  27.085  1.00  0.00    -0.387 OA
ATOM     41  H   UNL     1       2.921  10.981  27.441  1.00  0.00     0.211 HD
ENDBRANCH  32  40
ENDBRANCH   1  27
TORSDOF 12
ENDMDL
