MODEL 1
REMARK VINA RESULT:    -4.631      0.000      0.000
REMARK INTER + INTRA:          -7.922
REMARK INTER:                  -7.338
REMARK INTRA:                  -0.584
REMARK UNBOUND:                -0.584
REMARK SMILES CCCCCCCCCCCC(=O)[O-]
REMARK SMILES IDX 7 1 8 2 9 3 10 4 11 5 12 6 13 7 14 8 6 9 5 10 4 11 3 12 2 13
REMARK SMILES IDX 1 14
REMARK H PARENT
REMARK Flexibility Score: inf
ROOT
ATOM      1  C   UNL     1      13.874 -32.481  20.861  1.00  0.00     0.000 C 
ENDROOT
BRANCH   1   2
ATOM      2  C   UNL     1      13.532 -31.049  21.305  1.00  0.00     0.000 C 
BRANCH   2   3
ATOM      3  C   UNL     1      14.782 -30.228  21.665  1.00  0.00     0.000 C 
BRANCH   3   4
ATOM      4  C   UNL     1      14.802 -29.794  23.139  1.00  0.00     0.006 C 
BRANCH   4   5
ATOM      5  C   UNL     1      13.417 -29.949  23.774  1.00  0.00     0.053 C 
BRANCH   5   6
ATOM      6  C   UNL     1      12.746 -28.618  23.903  1.00  0.00     0.041 C 
ATOM      7  O   UNL     1      11.518 -28.501  23.649  1.00  0.00    -0.550 OA
ATOM      8  O   UNL     1      13.465 -27.518  24.353  1.00  0.00    -0.550 OA
ENDBRANCH   5   6
ENDBRANCH   4   5
ENDBRANCH   3   4
ENDBRANCH   2   3
ENDBRANCH   1   2
BRANCH   1   9
ATOM      9  C   UNL     1      14.944 -33.134  21.750  1.00  0.00     0.000 C 
BRANCH   9  10
ATOM     10  C   UNL     1      15.393 -34.510  21.227  1.00  0.00    -0.000 C 
BRANCH  10  11
ATOM     11  C   UNL     1      15.760 -34.483  19.735  1.00  0.00    -0.000 C 
BRANCH  11  12
ATOM     12  C   UNL     1      17.120 -35.138  19.448  1.00  0.00    -0.000 C 
BRANCH  12  13
ATOM     13  C   UNL     1      16.986 -36.662  19.358  1.00  0.00    -0.003 C 
ATOM     14  C   UNL     1      17.851 -37.355  20.408  1.00  0.00     0.004 C 
ENDBRANCH  12  13
ENDBRANCH  11  12
ENDBRANCH  10  11
ENDBRANCH   9  10
ENDBRANCH   1   9
TORSDOF 10
ENDMDL
MODEL 2
REMARK VINA RESULT:    -4.605      1.694      2.385
REMARK INTER + INTRA:          -7.882
REMARK INTER:                  -6.569
REMARK INTRA:                  -1.313
REMARK UNBOUND:                -0.584
REMARK SMILES CCCCCCCCCCCC(=O)[O-]
REMARK SMILES IDX 7 1 8 2 9 3 10 4 11 5 12 6 13 7 14 8 6 9 5 10 4 11 3 12 2 13
REMARK SMILES IDX 1 14
REMARK H PARENT
REMARK Flexibility Score: inf
ROOT
ATOM      1  C   UNL     1      16.308 -32.867  22.351  1.00  0.00     0.000 C 
ENDROOT
BRANCH   1   2
ATOM      2  C   UNL     1      14.807 -33.159  22.185  1.00  0.00     0.000 C 
BRANCH   2   3
ATOM      3  C   UNL     1      14.150 -32.279  21.109  1.00  0.00     0.000 C 
BRANCH   3   4
ATOM      4  C   UNL     1      13.100 -31.318  21.688  1.00  0.00     0.006 C 
BRANCH   4   5
ATOM      5  C   UNL     1      13.177 -31.281  23.217  1.00  0.00     0.053 C 
BRANCH   5   6
ATOM      6  C   UNL     1      13.611 -29.930  23.689  1.00  0.00     0.041 C 
ATOM      7  O   UNL     1      14.744 -29.482  23.371  1.00  0.00    -0.550 OA
ATOM      8  O   UNL     1      12.746 -29.144  24.438  1.00  0.00    -0.550 OA
ENDBRANCH   5   6
ENDBRANCH   4   5
ENDBRANCH   3   4
ENDBRANCH   2   3
ENDBRANCH   1   2
BRANCH   1   9
ATOM      9  C   UNL     1      16.790 -31.722  21.445  1.00  0.00     0.000 C 
BRANCH   9  10
ATOM     10  C   UNL     1      18.094 -32.062  20.702  1.00  0.00    -0.000 C 
BRANCH  10  11
ATOM     11  C   UNL     1      18.273 -33.572  20.482  1.00  0.00    -0.000 C 
BRANCH  11  12
ATOM     12  C   UNL     1      17.662 -34.053  19.157  1.00  0.00    -0.000 C 
BRANCH  12  13
ATOM     13  C   UNL     1      16.632 -35.161  19.398  1.00  0.00    -0.003 C 
ATOM     14  C   UNL     1      17.056 -36.069  20.550  1.00  0.00     0.004 C 
ENDBRANCH  12  13
ENDBRANCH  11  12
ENDBRANCH  10  11
ENDBRANCH   9  10
ENDBRANCH   1   9
TORSDOF 10
ENDMDL
MODEL 3
REMARK VINA RESULT:    -4.602      4.152      6.602
REMARK INTER + INTRA:          -7.877
REMARK INTER:                  -6.386
REMARK INTRA:                  -1.491
REMARK UNBOUND:                -0.584
REMARK SMILES CCCCCCCCCCCC(=O)[O-]
REMARK SMILES IDX 7 1 8 2 9 3 10 4 11 5 12 6 13 7 14 8 6 9 5 10 4 11 3 12 2 13
REMARK SMILES IDX 1 14
REMARK H PARENT
REMARK Flexibility Score: inf
ROOT
ATOM      1  C   UNL     1      15.539 -32.811  24.211  1.00  0.00     0.000 C 
ENDROOT
BRANCH   1   2
ATOM      2  C   UNL     1      15.870 -34.067  23.388  1.00  0.00     0.000 C 
BRANCH   2   3
ATOM      3  C   UNL     1      16.241 -33.739  21.932  1.00  0.00     0.000 C 
BRANCH   3   4
ATOM      4  C   UNL     1      15.211 -34.271  20.924  1.00  0.00     0.006 C 
BRANCH   4   5
ATOM      5  C   UNL     1      15.835 -34.423  19.533  1.00  0.00     0.053 C 
BRANCH   5   6
ATOM      6  C   UNL     1      16.924 -35.448  19.555  1.00  0.00     0.041 C 
ATOM      7  O   UNL     1      16.653 -36.655  19.790  1.00  0.00    -0.550 OA
ATOM      8  O   UNL     1      18.232 -35.080  19.267  1.00  0.00    -0.550 OA
ENDBRANCH   5   6
ENDBRANCH   4   5
ENDBRANCH   3   4
ENDBRANCH   2   3
ENDBRANCH   1   2
BRANCH   1   9
ATOM      9  C   UNL     1      14.027 -32.551  24.308  1.00  0.00     0.000 C 
BRANCH   9  10
ATOM     10  C   UNL     1      13.615 -31.204  23.689  1.00  0.00    -0.000 C 
BRANCH  10  11
ATOM     11  C   UNL     1      13.225 -31.330  22.208  1.00  0.00    -0.000 C 
BRANCH  11  12
ATOM     12  C   UNL     1      14.225 -30.636  21.271  1.00  0.00    -0.000 C 
BRANCH  12  13
ATOM     13  C   UNL     1      15.177 -29.730  22.060  1.00  0.00    -0.003 C 
ATOM     14  C   UNL     1      16.634 -30.091  21.789  1.00  0.00     0.004 C 
ENDBRANCH  12  13
ENDBRANCH  11  12
ENDBRANCH  10  11
ENDBRANCH   9  10
ENDBRANCH   1   9
TORSDOF 10
ENDMDL
MODEL 4
REMARK VINA RESULT:    -4.592      3.596      6.137
REMARK INTER + INTRA:          -7.861
REMARK INTER:                  -6.314
REMARK INTRA:                  -1.547
REMARK UNBOUND:                -0.584
REMARK SMILES CCCCCCCCCCCC(=O)[O-]
REMARK SMILES IDX 7 1 8 2 9 3 10 4 11 5 12 6 13 7 14 8 6 9 5 10 4 11 3 12 2 13
REMARK SMILES IDX 1 14
REMARK H PARENT
REMARK Flexibility Score: inf
ROOT
ATOM      1  C   UNL     1      16.398 -29.914  23.020  1.00  0.00     0.000 C 
ENDROOT
BRANCH   1   2
ATOM      2  C   UNL     1      17.108 -30.378  21.737  1.00  0.00     0.000 C 
BRANCH   2   3
ATOM      3  C   UNL     1      16.833 -31.855  21.410  1.00  0.00     0.000 C 
BRANCH   3   4
ATOM      4  C   UNL     1      16.713 -32.728  22.668  1.00  0.00     0.006 C 
BRANCH   4   5
ATOM      5  C   UNL     1      15.641 -33.807  22.485  1.00  0.00     0.053 C 
BRANCH   5   6
ATOM      6  C   UNL     1      16.052 -34.781  21.427  1.00  0.00     0.041 C 
ATOM      7  O   UNL     1      15.303 -34.992  20.436  1.00  0.00    -0.550 OA
ATOM      8  O   UNL     1      17.283 -35.418  21.507  1.00  0.00    -0.550 OA
ENDBRANCH   5   6
ENDBRANCH   4   5
ENDBRANCH   3   4
ENDBRANCH   2   3
ENDBRANCH   1   2
BRANCH   1   9
ATOM      9  C   UNL     1      15.500 -28.689  22.787  1.00  0.00     0.000 C 
BRANCH   9  10
ATOM     10  C   UNL     1      14.016 -28.978  23.072  1.00  0.00    -0.000 C 
BRANCH  10  11
ATOM     11  C   UNL     1      13.811 -30.259  23.897  1.00  0.00    -0.000 C 
BRANCH  11  12
ATOM     12  C   UNL     1      13.129 -31.376  23.094  1.00  0.00    -0.000 C 
BRANCH  12  13
ATOM     13  C   UNL     1      12.725 -30.882  21.701  1.00  0.00    -0.003 C 
ATOM     14  C   UNL     1      13.261 -31.806  20.610  1.00  0.00     0.004 C 
ENDBRANCH  12  13
ENDBRANCH  11  12
ENDBRANCH  10  11
ENDBRANCH   9  10
ENDBRANCH   1   9
TORSDOF 10
ENDMDL
MODEL 5
REMARK VINA RESULT:    -4.552      4.094      7.362
REMARK INTER + INTRA:          -7.798
REMARK INTER:                  -7.029
REMARK INTRA:                  -0.769
REMARK UNBOUND:                -0.584
REMARK SMILES CCCCCCCCCCCC(=O)[O-]
REMARK SMILES IDX 7 1 8 2 9 3 10 4 11 5 12 6 13 7 14 8 6 9 5 10 4 11 3 12 2 13
REMARK SMILES IDX 1 14
REMARK H PARENT
REMARK Flexibility Score: inf
ROOT
ATOM      1  C   UNL     1      15.732 -32.970  24.223  1.00  0.00     0.000 C 
ENDROOT
BRANCH   1   2
ATOM      2  C   UNL     1      16.090 -34.361  23.669  1.00  0.00     0.000 C 
BRANCH   2   3
ATOM      3  C   UNL     1      16.632 -34.302  22.231  1.00  0.00     0.000 C 
BRANCH   3   4
ATOM      4  C   UNL     1      15.515 -34.202  21.180  1.00  0.00     0.006 C 
BRANCH   4   5
ATOM      5  C   UNL     1      15.653 -35.307  20.128  1.00  0.00     0.053 C 
BRANCH   5   6
ATOM      6  C   UNL     1      16.964 -35.194  19.417  1.00  0.00     0.041 C 
ATOM      7  O   UNL     1      17.755 -36.174  19.387  1.00  0.00    -0.550 OA
ATOM      8  O   UNL     1      17.292 -34.023  18.744  1.00  0.00    -0.550 OA
ENDBRANCH   5   6
ENDBRANCH   4   5
ENDBRANCH   3   4
ENDBRANCH   2   3
ENDBRANCH   1   2
BRANCH   1   9
ATOM      9  C   UNL     1      14.219 -32.788  24.424  1.00  0.00     0.000 C 
BRANCH   9  10
ATOM     10  C   UNL     1      13.650 -31.610  23.614  1.00  0.00    -0.000 C 
BRANCH  10  11
ATOM     11  C   UNL     1      14.681 -30.493  23.392  1.00  0.00    -0.000 C 
BRANCH  11  12
ATOM     12  C   UNL     1      14.037 -29.100  23.311  1.00  0.00    -0.000 C 
BRANCH  12  13
ATOM     13  C   UNL     1      12.798 -29.017  24.209  1.00  0.00    -0.003 C 
ATOM     14  C   UNL     1      11.613 -28.413  23.460  1.00  0.00     0.004 C 
ENDBRANCH  12  13
ENDBRANCH  11  12
ENDBRANCH  10  11
ENDBRANCH   9  10
ENDBRANCH   1   9
TORSDOF 10
ENDMDL
MODEL 6
REMARK VINA RESULT:    -4.540      4.259      7.025
REMARK INTER + INTRA:          -7.778
REMARK INTER:                  -6.681
REMARK INTRA:                  -1.097
REMARK UNBOUND:                -0.584
REMARK SMILES CCCCCCCCCCCC(=O)[O-]
REMARK SMILES IDX 7 1 8 2 9 3 10 4 11 5 12 6 13 7 14 8 6 9 5 10 4 11 3 12 2 13
REMARK SMILES IDX 1 14
REMARK H PARENT
REMARK Flexibility Score: inf
ROOT
ATOM      1  C   UNL     1      15.576 -32.952  21.079  1.00  0.00     0.000 C 
ENDROOT
BRANCH   1   2
ATOM      2  C   UNL     1      16.922 -32.238  21.289  1.00  0.00     0.000 C 
BRANCH   2   3
ATOM      3  C   UNL     1      18.053 -32.850  20.444  1.00  0.00     0.000 C 
BRANCH   3   4
ATOM      4  C   UNL     1      17.534 -33.823  19.375  1.00  0.00     0.006 C 
BRANCH   4   5
ATOM      5  C   UNL     1      18.257 -35.170  19.464  1.00  0.00     0.053 C 
BRANCH   5   6
ATOM      6  C   UNL     1      17.319 -36.241  19.922  1.00  0.00     0.041 C 
ATOM      7  O   UNL     1      16.087 -36.152  19.675  1.00  0.00    -0.550 OA
ATOM      8  O   UNL     1      17.810 -37.362  20.578  1.00  0.00    -0.550 OA
ENDBRANCH   5   6
ENDBRANCH   4   5
ENDBRANCH   3   4
ENDBRANCH   2   3
ENDBRANCH   1   2
BRANCH   1   9
ATOM      9  C   UNL     1      15.093 -33.682  22.343  1.00  0.00     0.000 C 
BRANCH   9  10
ATOM     10  C   UNL     1      15.230 -32.824  23.613  1.00  0.00    -0.000 C 
BRANCH  10  11
ATOM     11  C   UNL     1      13.899 -32.185  24.040  1.00  0.00    -0.000 C 
BRANCH  11  12
ATOM     12  C   UNL     1      13.919 -30.653  23.937  1.00  0.00    -0.000 C 
BRANCH  12  13
ATOM     13  C   UNL     1      13.583 -30.195  22.514  1.00  0.00    -0.003 C 
ATOM     14  C   UNL     1      12.227 -30.733  22.066  1.00  0.00     0.004 C 
ENDBRANCH  12  13
ENDBRANCH  11  12
ENDBRANCH  10  11
ENDBRANCH   9  10
ENDBRANCH   1   9
TORSDOF 10
ENDMDL
MODEL 7
REMARK VINA RESULT:    -4.531      1.719      3.280
REMARK INTER + INTRA:          -7.764
REMARK INTER:                  -6.305
REMARK INTRA:                  -1.459
REMARK UNBOUND:                -0.584
REMARK SMILES CCCCCCCCCCCC(=O)[O-]
REMARK SMILES IDX 7 1 8 2 9 3 10 4 11 5 12 6 13 7 14 8 6 9 5 10 4 11 3 12 2 13
REMARK SMILES IDX 1 14
REMARK H PARENT
REMARK Flexibility Score: inf
ROOT
ATOM      1  C   UNL     1      14.604 -33.183  22.000  1.00  0.00     0.000 C 
ENDROOT
BRANCH   1   2
ATOM      2  C   UNL     1      13.980 -32.266  20.934  1.00  0.00     0.000 C 
BRANCH   2   3
ATOM      3  C   UNL     1      13.547 -30.906  21.505  1.00  0.00     0.000 C 
BRANCH   3   4
ATOM      4  C   UNL     1      12.874 -31.027  22.881  1.00  0.00     0.006 C 
BRANCH   4   5
ATOM      5  C   UNL     1      13.523 -30.078  23.892  1.00  0.00     0.053 C 
BRANCH   5   6
ATOM      6  C   UNL     1      12.807 -28.765  23.915  1.00  0.00     0.041 C 
ATOM      7  O   UNL     1      11.563 -28.719  23.721  1.00  0.00    -0.550 OA
ATOM      8  O   UNL     1      13.503 -27.598  24.201  1.00  0.00    -0.550 OA
ENDBRANCH   5   6
ENDBRANCH   4   5
ENDBRANCH   3   4
ENDBRANCH   2   3
ENDBRANCH   1   2
BRANCH   1   9
ATOM      9  C   UNL     1      15.677 -34.117  21.418  1.00  0.00     0.000 C 
BRANCH   9  10
ATOM     10  C   UNL     1      16.765 -33.359  20.638  1.00  0.00    -0.000 C 
BRANCH  10  11
ATOM     11  C   UNL     1      17.647 -32.489  21.547  1.00  0.00    -0.000 C 
BRANCH  11  12
ATOM     12  C   UNL     1      17.538 -30.992  21.219  1.00  0.00    -0.000 C 
BRANCH  12  13
ATOM     13  C   UNL     1      17.046 -30.200  22.435  1.00  0.00    -0.003 C 
ATOM     14  C   UNL     1      17.109 -31.042  23.706  1.00  0.00     0.004 C 
ENDBRANCH  12  13
ENDBRANCH  11  12
ENDBRANCH  10  11
ENDBRANCH   9  10
ENDBRANCH   1   9
TORSDOF 10
ENDMDL
MODEL 8
REMARK VINA RESULT:    -4.519      3.607      6.048
REMARK INTER + INTRA:          -7.745
REMARK INTER:                  -6.424
REMARK INTRA:                  -1.321
REMARK UNBOUND:                -0.584
REMARK SMILES CCCCCCCCCCCC(=O)[O-]
REMARK SMILES IDX 7 1 8 2 9 3 10 4 11 5 12 6 13 7 14 8 6 9 5 10 4 11 3 12 2 13
REMARK SMILES IDX 1 14
REMARK H PARENT
REMARK Flexibility Score: inf
ROOT
ATOM      1  C   UNL     1      13.536 -31.521  23.262  1.00  0.00     0.000 C 
ENDROOT
BRANCH   1   2
ATOM      2  C   UNL     1      13.933 -32.530  24.354  1.00  0.00     0.000 C 
BRANCH   2   3
ATOM      3  C   UNL     1      14.989 -33.537  23.871  1.00  0.00     0.000 C 
BRANCH   3   4
ATOM      4  C   UNL     1      15.400 -33.311  22.408  1.00  0.00     0.006 C 
BRANCH   4   5
ATOM      5  C   UNL     1      15.988 -34.588  21.800  1.00  0.00     0.053 C 
BRANCH   5   6
ATOM      6  C   UNL     1      15.547 -34.745  20.379  1.00  0.00     0.041 C 
ATOM      7  O   UNL     1      14.627 -34.020  19.918  1.00  0.00    -0.550 OA
ATOM      8  O   UNL     1      16.186 -35.658  19.550  1.00  0.00    -0.550 OA
ENDBRANCH   5   6
ENDBRANCH   4   5
ENDBRANCH   3   4
ENDBRANCH   2   3
ENDBRANCH   1   2
BRANCH   1   9
ATOM      9  C   UNL     1      13.400 -30.089  23.804  1.00  0.00     0.000 C 
BRANCH   9  10
ATOM     10  C   UNL     1      14.322 -29.091  23.082  1.00  0.00    -0.000 C 
BRANCH  10  11
ATOM     11  C   UNL     1      15.016 -29.707  21.857  1.00  0.00    -0.000 C 
BRANCH  11  12
ATOM     12  C   UNL     1      16.545 -29.747  22.002  1.00  0.00    -0.000 C 
BRANCH  12  13
ATOM     13  C   UNL     1      16.952 -30.024  23.453  1.00  0.00    -0.003 C 
ATOM     14  C   UNL     1      18.074 -31.055  23.525  1.00  0.00     0.004 C 
ENDBRANCH  12  13
ENDBRANCH  11  12
ENDBRANCH  10  11
ENDBRANCH   9  10
ENDBRANCH   1   9
TORSDOF 10
ENDMDL
MODEL 9
REMARK VINA RESULT:    -4.488      2.201      3.511
REMARK INTER + INTRA:          -7.697
REMARK INTER:                  -6.271
REMARK INTRA:                  -1.425
REMARK UNBOUND:                -0.584
REMARK SMILES CCCCCCCCCCCC(=O)[O-]
REMARK SMILES IDX 7 1 8 2 9 3 10 4 11 5 12 6 13 7 14 8 6 9 5 10 4 11 3 12 2 13
REMARK SMILES IDX 1 14
REMARK H PARENT
REMARK Flexibility Score: inf
ROOT
ATOM      1  C   UNL     1      18.515 -33.775  21.815  1.00  0.00     0.000 C 
ENDROOT
BRANCH   1   2
ATOM      2  C   UNL     1      17.484 -33.265  22.836  1.00  0.00     0.000 C 
BRANCH   2   3
ATOM      3  C   UNL     1      16.356 -34.278  23.093  1.00  0.00     0.000 C 
BRANCH   3   4
ATOM      4  C   UNL     1      14.974 -33.614  23.193  1.00  0.00     0.006 C 
BRANCH   4   5
ATOM      5  C   UNL     1      14.671 -32.791  21.938  1.00  0.00     0.053 C 
BRANCH   5   6
ATOM      6  C   UNL     1      13.606 -31.779  22.218  1.00  0.00     0.041 C 
ATOM      7  O   UNL     1      13.375 -31.413  23.401  1.00  0.00    -0.550 OA
ATOM      8  O   UNL     1      12.902 -31.201  21.169  1.00  0.00    -0.550 OA
ENDBRANCH   5   6
ENDBRANCH   4   5
ENDBRANCH   3   4
ENDBRANCH   2   3
ENDBRANCH   1   2
BRANCH   1   9
ATOM      9  C   UNL     1      18.381 -33.087  20.448  1.00  0.00     0.000 C 
BRANCH   9  10
ATOM     10  C   UNL     1      18.043 -34.074  19.316  1.00  0.00    -0.000 C 
BRANCH  10  11
ATOM     11  C   UNL     1      16.557 -34.462  19.296  1.00  0.00    -0.000 C 
BRANCH  11  12
ATOM     12  C   UNL     1      16.321 -35.923  19.710  1.00  0.00    -0.000 C 
BRANCH  12  13
ATOM     13  C   UNL     1      17.631 -36.717  19.687  1.00  0.00    -0.003 C 
ATOM     14  C   UNL     1      17.937 -37.319  21.056  1.00  0.00     0.004 C 
ENDBRANCH  12  13
ENDBRANCH  11  12
ENDBRANCH  10  11
ENDBRANCH   9  10
ENDBRANCH   1   9
TORSDOF 10
ENDMDL
