MODEL 1
REMARK VINA RESULT:     9.240      0.000      0.000
REMARK INTER + INTRA:           9.545
REMARK INTER:                   9.781
REMARK INTRA:                  -0.236
REMARK UNBOUND:                -0.236
REMARK SMILES CC1=C[C@H]2C(=C(C)CC[C@@H]2C(C)C)CC1
REMARK SMILES IDX 1 1 2 2 3 3 4 4 10 5 9 6 8 7 6 8 5 9 14 10 15 11 7 12 11 13
REMARK SMILES IDX 12 14 13 15
REMARK H PARENT
REMARK Flexibility Score: inf
ROOT
ATOM      1  C   UNL     1       5.221  10.821  10.879  1.00  0.00     0.039 C 
ATOM      2  C   UNL     1       5.162   9.713  11.896  1.00  0.00    -0.076 C 
ATOM      3  C   UNL     1       6.267   9.000  12.182  1.00  0.00    -0.020 C 
ATOM      4  C   UNL     1       6.182   7.850  13.167  1.00  0.00     0.041 C 
ATOM      5  C   UNL     1       7.508   7.032  13.249  1.00  0.00     0.003 C 
ATOM      6  C   UNL     1       7.224   5.643  13.849  1.00  0.00     0.009 C 
ATOM      7  C   UNL     1       6.233   4.885  12.976  1.00  0.00     0.031 C 
ATOM      8  C   UNL     1       4.955   5.663  12.762  1.00  0.00    -0.073 C 
ATOM      9  C   UNL     1       4.941   7.025  12.796  1.00  0.00    -0.064 C 
ATOM     10  C   UNL     1       3.660   7.799  12.482  1.00  0.00     0.036 C 
ATOM     11  C   UNL     1       3.858   9.324  12.554  1.00  0.00     0.035 C 
ATOM     12  C   UNL     1       3.716   4.875  12.400  1.00  0.00     0.039 C 
ENDROOT
BRANCH   5  13
ATOM     13  C   UNL     1       8.680   7.725  14.036  1.00  0.00    -0.013 C 
ATOM     14  C   UNL     1       9.742   8.347  13.118  1.00  0.00     0.007 C 
ATOM     15  C   UNL     1       8.227   8.760  15.083  1.00  0.00     0.007 C 
ENDBRANCH   5  13
TORSDOF 1
ENDMDL
MODEL 2
REMARK VINA RESULT:    10.632      1.052      4.302
REMARK INTER + INTRA:          11.018
REMARK INTER:                  10.784
REMARK INTRA:                   0.234
REMARK UNBOUND:                -0.236
REMARK SMILES CC1=C[C@H]2C(=C(C)CC[C@@H]2C(C)C)CC1
REMARK SMILES IDX 1 1 2 2 3 3 4 4 10 5 9 6 8 7 6 8 5 9 14 10 15 11 7 12 11 13
REMARK SMILES IDX 12 14 13 15
REMARK H PARENT
REMARK Flexibility Score: inf
ROOT
ATOM      1  C   UNL     1      10.309   8.080  14.017  1.00  0.00     0.039 C 
ATOM      2  C   UNL     1       8.823   8.284  13.903  1.00  0.00    -0.076 C 
ATOM      3  C   UNL     1       8.052   7.338  13.336  1.00  0.00    -0.020 C 
ATOM      4  C   UNL     1       6.564   7.579  13.176  1.00  0.00     0.041 C 
ATOM      5  C   UNL     1       5.860   6.457  12.351  1.00  0.00     0.003 C 
ATOM      6  C   UNL     1       4.516   6.979  11.810  1.00  0.00     0.009 C 
ATOM      7  C   UNL     1       4.744   8.183  10.906  1.00  0.00     0.031 C 
ATOM      8  C   UNL     1       5.516   9.278  11.605  1.00  0.00    -0.073 C 
ATOM      9  C   UNL     1       6.392   8.996  12.610  1.00  0.00    -0.064 C 
ATOM     10  C   UNL     1       7.236  10.104  13.241  1.00  0.00     0.036 C 
ATOM     11  C   UNL     1       8.175   9.578  14.342  1.00  0.00     0.035 C 
ATOM     12  C   UNL     1       5.363  10.685  11.071  1.00  0.00     0.039 C 
ENDROOT
BRANCH   5  13
ATOM     13  C   UNL     1       5.639   5.099  13.111  1.00  0.00    -0.013 C 
ATOM     14  C   UNL     1       6.639   4.875  14.255  1.00  0.00     0.007 C 
ATOM     15  C   UNL     1       4.204   4.875  13.624  1.00  0.00     0.007 C 
ENDBRANCH   5  13
TORSDOF 1
ENDMDL
MODEL 3
REMARK VINA RESULT:    11.310      1.433      4.170
REMARK INTER + INTRA:          11.735
REMARK INTER:                  11.785
REMARK INTRA:                  -0.049
REMARK UNBOUND:                -0.236
REMARK SMILES CC1=C[C@H]2C(=C(C)CC[C@@H]2C(C)C)CC1
REMARK SMILES IDX 1 1 2 2 3 3 4 4 10 5 9 6 8 7 6 8 5 9 14 10 15 11 7 12 11 13
REMARK SMILES IDX 12 14 13 15
REMARK H PARENT
REMARK Flexibility Score: inf
ROOT
ATOM      1  C   UNL     1       8.598   9.347  15.935  1.00  0.00     0.039 C 
ATOM      2  C   UNL     1       8.033   8.818  14.645  1.00  0.00    -0.076 C 
ATOM      3  C   UNL     1       6.838   8.201  14.633  1.00  0.00    -0.020 C 
ATOM      4  C   UNL     1       6.305   7.623  13.336  1.00  0.00     0.041 C 
ATOM      5  C   UNL     1       4.994   6.800  13.541  1.00  0.00     0.003 C 
ATOM      6  C   UNL     1       4.783   5.858  12.341  1.00  0.00     0.009 C 
ATOM      7  C   UNL     1       5.954   4.893  12.216  1.00  0.00     0.031 C 
ATOM      8  C   UNL     1       7.277   5.617  12.118  1.00  0.00    -0.073 C 
ATOM      9  C   UNL     1       7.454   6.846  12.679  1.00  0.00    -0.064 C 
ATOM     10  C   UNL     1       8.826   7.522  12.654  1.00  0.00     0.036 C 
ATOM     11  C   UNL     1       8.822   8.893  13.356  1.00  0.00     0.035 C 
ATOM     12  C   UNL     1       8.426   4.877  11.472  1.00  0.00     0.039 C 
ENDROOT
BRANCH   5  13
ATOM     13  C   UNL     1       3.696   7.651  13.789  1.00  0.00    -0.013 C 
ATOM     14  C   UNL     1       3.650   8.295  15.182  1.00  0.00     0.007 C 
ATOM     15  C   UNL     1       3.411   8.717  12.714  1.00  0.00     0.007 C 
ENDBRANCH   5  13
TORSDOF 1
ENDMDL
