MODEL 1
REMARK VINA RESULT:    -3.466      0.000      0.000
REMARK INTER + INTRA:          -4.388
REMARK INTER:                  -4.176
REMARK INTRA:                  -0.212
REMARK UNBOUND:                -0.212
REMARK SMILES OCC(O)CO
REMARK SMILES IDX 3 1 5 2 6 3 2 5 1 6 4 8
REMARK H PARENT 6 4 1 7 4 9
REMARK Flexibility Score: inf
ROOT
ATOM      1  C   UNL     1    -103.460 183.827  -1.922  1.00  0.00     0.165 C 
ENDROOT
BRANCH   1   2
ATOM      2  C   UNL     1    -102.387 184.277  -0.919  1.00  0.00     0.190 C 
BRANCH   2   3
ATOM      3  O   UNL     1    -101.343 184.952  -1.569  1.00  0.00    -0.394 OA
ATOM      4  H   UNL     1    -101.631 185.896  -1.665  1.00  0.00     0.210 HD
ENDBRANCH   2   3
ENDBRANCH   1   2
BRANCH   1   5
ATOM      5  C   UNL     1    -103.214 182.391  -2.420  1.00  0.00     0.190 C 
BRANCH   5   6
ATOM      6  O   UNL     1    -101.874 182.205  -2.794  1.00  0.00    -0.394 OA
ATOM      7  H   UNL     1    -101.645 181.266  -2.574  1.00  0.00     0.210 HD
ENDBRANCH   5   6
ENDBRANCH   1   5
BRANCH   1   8
ATOM      8  O   UNL     1    -103.473 184.718  -3.008  1.00  0.00    -0.388 OA
ATOM      9  H   UNL     1    -102.529 184.846  -3.285  1.00  0.00     0.211 HD
ENDBRANCH   1   8
TORSDOF 5
ENDMDL
MODEL 2
REMARK VINA RESULT:    -3.342      0.684      2.418
REMARK INTER + INTRA:          -4.238
REMARK INTER:                  -4.062
REMARK INTRA:                  -0.176
REMARK UNBOUND:                -0.212
REMARK SMILES OCC(O)CO
REMARK SMILES IDX 3 1 5 2 6 3 2 5 1 6 4 8
REMARK H PARENT 6 4 1 7 4 9
REMARK Flexibility Score: inf
ROOT
ATOM      1  C   UNL     1    -103.271 184.055  -2.668  1.00  0.00     0.165 C 
ENDROOT
BRANCH   1   2
ATOM      2  C   UNL     1    -103.179 182.556  -2.991  1.00  0.00     0.190 C 
BRANCH   2   3
ATOM      3  O   UNL     1    -101.903 182.056  -2.695  1.00  0.00    -0.394 OA
ATOM      4  H   UNL     1    -101.315 182.842  -2.550  1.00  0.00     0.210 HD
ENDBRANCH   2   3
ENDBRANCH   1   2
BRANCH   1   5
ATOM      5  C   UNL     1    -102.588 184.397  -1.331  1.00  0.00     0.190 C 
BRANCH   5   6
ATOM      6  O   UNL     1    -101.316 184.953  -1.538  1.00  0.00    -0.394 OA
ATOM      7  H   UNL     1    -100.897 185.048  -0.644  1.00  0.00     0.210 HD
ENDBRANCH   5   6
ENDBRANCH   1   5
BRANCH   1   8
ATOM      8  O   UNL     1    -104.623 184.432  -2.629  1.00  0.00    -0.388 OA
ATOM      9  H   UNL     1    -104.643 185.419  -2.529  1.00  0.00     0.211 HD
ENDBRANCH   1   8
TORSDOF 5
ENDMDL
MODEL 3
REMARK VINA RESULT:    -3.301      0.659      2.556
REMARK INTER + INTRA:          -4.189
REMARK INTER:                  -3.966
REMARK INTRA:                  -0.223
REMARK UNBOUND:                -0.212
REMARK SMILES OCC(O)CO
REMARK SMILES IDX 3 1 5 2 6 3 2 5 1 6 4 8
REMARK H PARENT 6 4 1 7 4 9
REMARK Flexibility Score: inf
ROOT
ATOM      1  C   UNL     1    -103.031 182.938  -1.756  1.00  0.00     0.165 C 
ENDROOT
BRANCH   1   2
ATOM      2  C   UNL     1    -103.959 183.448  -2.870  1.00  0.00     0.190 C 
BRANCH   2   3
ATOM      3  O   UNL     1    -103.636 184.765  -3.229  1.00  0.00    -0.394 OA
ATOM      4  H   UNL     1    -102.907 184.706  -3.900  1.00  0.00     0.210 HD
ENDBRANCH   2   3
ENDBRANCH   1   2
BRANCH   1   5
ATOM      5  C   UNL     1    -102.598 184.070  -0.806  1.00  0.00     0.190 C 
BRANCH   5   6
ATOM      6  O   UNL     1    -101.463 184.736  -1.294  1.00  0.00    -0.394 OA
ATOM      7  H   UNL     1    -100.852 184.038  -1.646  1.00  0.00     0.210 HD
ENDBRANCH   5   6
ENDBRANCH   1   5
BRANCH   1   8
ATOM      8  O   UNL     1    -101.902 182.340  -2.340  1.00  0.00    -0.388 OA
ATOM      9  H   UNL     1    -102.090 181.367  -2.396  1.00  0.00     0.211 HD
ENDBRANCH   1   8
TORSDOF 5
ENDMDL
MODEL 4
REMARK VINA RESULT:    -3.275     12.670     13.408
REMARK INTER + INTRA:          -4.157
REMARK INTER:                  -3.948
REMARK INTRA:                  -0.209
REMARK UNBOUND:                -0.212
REMARK SMILES OCC(O)CO
REMARK SMILES IDX 3 1 5 2 6 3 2 5 1 6 4 8
REMARK H PARENT 6 4 1 7 4 9
REMARK Flexibility Score: inf
ROOT
ATOM      1  C   UNL     1    -104.551 196.658  -0.778  1.00  0.00     0.165 C 
ENDROOT
BRANCH   1   2
ATOM      2  C   UNL     1    -105.008 197.921  -1.523  1.00  0.00     0.190 C 
BRANCH   2   3
ATOM      3  O   UNL     1    -104.160 198.200  -2.605  1.00  0.00    -0.394 OA
ATOM      4  H   UNL     1    -104.743 198.327  -3.398  1.00  0.00     0.210 HD
ENDBRANCH   2   3
ENDBRANCH   1   2
BRANCH   1   5
ATOM      5  C   UNL     1    -103.050 196.703  -0.438  1.00  0.00     0.190 C 
BRANCH   5   6
ATOM      6  O   UNL     1    -102.265 196.425  -1.568  1.00  0.00    -0.394 OA
ATOM      7  H   UNL     1    -102.411 195.469  -1.788  1.00  0.00     0.210 HD
ENDBRANCH   5   6
ENDBRANCH   1   5
BRANCH   1   8
ATOM      8  O   UNL     1    -104.833 195.533  -1.569  1.00  0.00    -0.388 OA
ATOM      9  H   UNL     1    -104.061 194.916  -1.476  1.00  0.00     0.211 HD
ENDBRANCH   1   8
TORSDOF 5
ENDMDL
MODEL 5
REMARK VINA RESULT:    -3.237     12.479     13.163
REMARK INTER + INTRA:          -4.111
REMARK INTER:                  -3.889
REMARK INTRA:                  -0.222
REMARK UNBOUND:                -0.212
REMARK SMILES OCC(O)CO
REMARK SMILES IDX 3 1 5 2 6 3 2 5 1 6 4 8
REMARK H PARENT 6 4 1 7 4 9
REMARK Flexibility Score: inf
ROOT
ATOM      1  C   UNL     1    -104.447 197.467  -1.126  1.00  0.00     0.165 C 
ENDROOT
BRANCH   1   2
ATOM      2  C   UNL     1    -103.150 196.865  -0.564  1.00  0.00     0.190 C 
BRANCH   2   3
ATOM      3  O   UNL     1    -102.328 196.390  -1.596  1.00  0.00    -0.394 OA
ATOM      4  H   UNL     1    -102.675 195.496  -1.849  1.00  0.00     0.210 HD
ENDBRANCH   2   3
ENDBRANCH   1   2
BRANCH   1   5
ATOM      5  C   UNL     1    -105.561 196.412  -1.255  1.00  0.00     0.190 C 
BRANCH   5   6
ATOM      6  O   UNL     1    -105.035 195.156  -1.595  1.00  0.00    -0.394 OA
ATOM      7  H   UNL     1    -104.051 195.221  -1.488  1.00  0.00     0.210 HD
ENDBRANCH   5   6
ENDBRANCH   1   5
BRANCH   1   8
ATOM      8  O   UNL     1    -104.179 198.040  -2.380  1.00  0.00    -0.388 OA
ATOM      9  H   UNL     1    -103.603 198.831  -2.216  1.00  0.00     0.211 HD
ENDBRANCH   1   8
TORSDOF 5
ENDMDL
MODEL 6
REMARK VINA RESULT:    -3.236     17.891     18.294
REMARK INTER + INTRA:          -4.111
REMARK INTER:                  -3.888
REMARK INTRA:                  -0.222
REMARK UNBOUND:                -0.212
REMARK SMILES OCC(O)CO
REMARK SMILES IDX 3 1 5 2 6 3 2 5 1 6 4 8
REMARK H PARENT 6 4 1 7 4 9
REMARK Flexibility Score: inf
ROOT
ATOM      1  C   UNL     1     -97.159 192.957 -16.523  1.00  0.00     0.165 C 
ENDROOT
BRANCH   1   2
ATOM      2  C   UNL     1     -97.167 191.445 -16.250  1.00  0.00     0.190 C 
BRANCH   2   3
ATOM      3  O   UNL     1     -98.008 190.777 -17.151  1.00  0.00    -0.394 OA
ATOM      4  H   UNL     1     -97.869 191.199 -18.038  1.00  0.00     0.210 HD
ENDBRANCH   2   3
ENDBRANCH   1   2
BRANCH   1   5
ATOM      5  C   UNL     1     -97.580 193.283 -17.968  1.00  0.00     0.190 C 
BRANCH   5   6
ATOM      6  O   UNL     1     -98.970 193.443 -18.068  1.00  0.00    -0.394 OA
ATOM      7  H   UNL     1     -99.327 192.604 -18.459  1.00  0.00     0.210 HD
ENDBRANCH   5   6
ENDBRANCH   1   5
BRANCH   1   8
ATOM      8  O   UNL     1     -95.872 193.461 -16.270  1.00  0.00    -0.388 OA
ATOM      9  H   UNL     1     -95.827 194.356 -16.695  1.00  0.00     0.211 HD
ENDBRANCH   1   8
TORSDOF 5
ENDMDL
MODEL 7
REMARK VINA RESULT:    -3.229     17.752     18.217
REMARK INTER + INTRA:          -4.102
REMARK INTER:                  -3.890
REMARK INTRA:                  -0.212
REMARK UNBOUND:                -0.212
REMARK SMILES OCC(O)CO
REMARK SMILES IDX 3 1 5 2 6 3 2 5 1 6 4 8
REMARK H PARENT 6 4 1 7 4 9
REMARK Flexibility Score: inf
ROOT
ATOM      1  C   UNL     1     -97.349 192.393 -16.436  1.00  0.00     0.165 C 
ENDROOT
BRANCH   1   2
ATOM      2  C   UNL     1     -97.704 192.496 -17.927  1.00  0.00     0.190 C 
BRANCH   2   3
ATOM      3  O   UNL     1     -98.819 193.325 -18.122  1.00  0.00    -0.394 OA
ATOM      4  H   UNL     1     -98.779 193.638 -19.063  1.00  0.00     0.210 HD
ENDBRANCH   2   3
ENDBRANCH   1   2
BRANCH   1   5
ATOM      5  C   UNL     1     -97.051 193.772 -15.820  1.00  0.00     0.190 C 
BRANCH   5   6
ATOM      6  O   UNL     1     -98.219 194.366 -15.316  1.00  0.00    -0.394 OA
ATOM      7  H   UNL     1     -98.260 195.281 -15.698  1.00  0.00     0.210 HD
ENDBRANCH   5   6
ENDBRANCH   1   5
BRANCH   1   8
ATOM      8  O   UNL     1     -96.237 191.548 -16.288  1.00  0.00    -0.388 OA
ATOM      9  H   UNL     1     -96.564 190.620 -16.413  1.00  0.00     0.211 HD
ENDBRANCH   1   8
TORSDOF 5
ENDMDL
MODEL 8
REMARK VINA RESULT:    -3.181     17.856     18.212
REMARK INTER + INTRA:          -4.044
REMARK INTER:                  -3.822
REMARK INTRA:                  -0.222
REMARK UNBOUND:                -0.212
REMARK SMILES OCC(O)CO
REMARK SMILES IDX 3 1 5 2 6 3 2 5 1 6 4 8
REMARK H PARENT 6 4 1 7 4 9
REMARK Flexibility Score: inf
ROOT
ATOM      1  C   UNL     1     -97.210 193.221 -16.559  1.00  0.00     0.165 C 
ENDROOT
BRANCH   1   2
ATOM      2  C   UNL     1     -97.629 193.609 -17.986  1.00  0.00     0.190 C 
BRANCH   2   3
ATOM      3  O   UNL     1     -99.024 193.589 -18.123  1.00  0.00    -0.394 OA
ATOM      4  H   UNL     1     -99.266 194.375 -18.679  1.00  0.00     0.210 HD
ENDBRANCH   2   3
ENDBRANCH   1   2
BRANCH   1   5
ATOM      5  C   UNL     1     -97.157 191.693 -16.372  1.00  0.00     0.190 C 
BRANCH   5   6
ATOM      6  O   UNL     1     -97.942 191.036 -17.332  1.00  0.00    -0.394 OA
ATOM      7  H   UNL     1     -98.103 190.119 -16.990  1.00  0.00     0.210 HD
ENDBRANCH   5   6
ENDBRANCH   1   5
BRANCH   1   8
ATOM      8  O   UNL     1     -98.116 193.787 -15.647  1.00  0.00    -0.388 OA
ATOM      9  H   UNL     1     -98.818 193.106 -15.481  1.00  0.00     0.211 HD
ENDBRANCH   1   8
TORSDOF 5
ENDMDL
MODEL 9
REMARK VINA RESULT:    -3.096     17.915     18.292
REMARK INTER + INTRA:          -3.942
REMARK INTER:                  -3.739
REMARK INTRA:                  -0.203
REMARK UNBOUND:                -0.212
REMARK SMILES OCC(O)CO
REMARK SMILES IDX 3 1 5 2 6 3 2 5 1 6 4 8
REMARK H PARENT 6 4 1 7 4 9
REMARK Flexibility Score: inf
ROOT
ATOM      1  C   UNL     1     -97.576 193.203 -17.610  1.00  0.00     0.165 C 
ENDROOT
BRANCH   1   2
ATOM      2  C   UNL     1     -97.378 191.775 -17.078  1.00  0.00     0.190 C 
BRANCH   2   3
ATOM      3  O   UNL     1     -96.250 191.700 -16.248  1.00  0.00    -0.394 OA
ATOM      4  H   UNL     1     -95.593 192.356 -16.600  1.00  0.00     0.210 HD
ENDBRANCH   2   3
ENDBRANCH   1   2
BRANCH   1   5
ATOM      5  C   UNL     1     -97.341 194.261 -16.516  1.00  0.00     0.190 C 
BRANCH   5   6
ATOM      6  O   UNL     1     -98.129 194.004 -15.384  1.00  0.00    -0.394 OA
ATOM      7  H   UNL     1     -98.676 194.817 -15.227  1.00  0.00     0.210 HD
ENDBRANCH   5   6
ENDBRANCH   1   5
BRANCH   1   8
ATOM      8  O   UNL     1     -98.877 193.322 -18.125  1.00  0.00    -0.388 OA
ATOM      9  H   UNL     1     -99.321 194.049 -17.616  1.00  0.00     0.211 HD
ENDBRANCH   1   8
TORSDOF 5
ENDMDL
