MODEL 1
REMARK VINA RESULT:    -3.389      0.000      0.000
REMARK INTER + INTRA:          -4.144
REMARK INTER:                  -3.983
REMARK INTRA:                  -0.161
REMARK UNBOUND:                -0.161
REMARK SMILES [NH3+][C@H](CO)C(=O)[O-]
REMARK SMILES IDX 3 1 2 2 1 3 5 7 6 8 7 9 4 10
REMARK H PARENT 1 4 1 5 1 6 4 11
REMARK Flexibility Score: inf
ROOT
ATOM      1  C   UNL     1     110.488 109.556 124.006  1.00  0.00     0.227 C 
ENDROOT
BRANCH   1   2
ATOM      2  C   UNL     1     110.757 108.041 124.053  1.00  0.00     0.253 C 
BRANCH   2   3
ATOM      3  N   UNL     1     109.512 107.274 123.914  1.00  0.00    -0.348 N 
ATOM      4  H   UNL     1     108.691 107.902 124.073  1.00  0.00     0.345 HD
ATOM      5  H   UNL     1     109.486 106.513 124.631  1.00  0.00     0.345 HD
ATOM      6  H   UNL     1     109.437 106.849 122.961  1.00  0.00     0.345 HD
ENDBRANCH   2   3
BRANCH   2   7
ATOM      7  C   UNL     1     111.763 107.639 123.006  1.00  0.00     0.102 C 
ATOM      8  O   UNL     1     111.630 108.009 121.810  1.00  0.00    -0.544 OA
ATOM      9  O   UNL     1     112.878 106.893 123.371  1.00  0.00    -0.544 OA
ENDBRANCH   2   7
ENDBRANCH   1   2
BRANCH   1  10
ATOM     10  O   UNL     1     109.389 109.856 123.185  1.00  0.00    -0.390 OA
ATOM     11  H   UNL     1     109.755 110.130 122.302  1.00  0.00     0.210 HD
ENDBRANCH   1  10
TORSDOF 4
ENDMDL
MODEL 2
REMARK VINA RESULT:    -3.350      1.943      2.103
REMARK INTER + INTRA:          -4.099
REMARK INTER:                  -4.092
REMARK INTRA:                  -0.006
REMARK UNBOUND:                -0.161
REMARK SMILES [NH3+][C@H](CO)C(=O)[O-]
REMARK SMILES IDX 3 1 2 2 1 3 5 7 6 8 7 9 4 10
REMARK H PARENT 1 4 1 5 1 6 4 11
REMARK Flexibility Score: inf
ROOT
ATOM      1  C   UNL     1     110.401 107.171 124.131  1.00  0.00     0.227 C 
ENDROOT
BRANCH   1   2
ATOM      2  C   UNL     1     110.920 108.578 123.782  1.00  0.00     0.253 C 
BRANCH   2   3
ATOM      3  N   UNL     1     110.394 109.586 124.712  1.00  0.00    -0.348 N 
ATOM      4  H   UNL     1     110.027 109.117 125.571  1.00  0.00     0.345 HD
ATOM      5  H   UNL     1     109.606 110.104 124.260  1.00  0.00     0.345 HD
ATOM      6  H   UNL     1     111.138 110.268 124.987  1.00  0.00     0.345 HD
ENDBRANCH   2   3
BRANCH   2   7
ATOM      7  C   UNL     1     112.426 108.604 123.746  1.00  0.00     0.102 C 
ATOM      8  O   UNL     1     113.038 109.445 123.036  1.00  0.00    -0.544 OA
ATOM      9  O   UNL     1     113.150 107.724 124.541  1.00  0.00    -0.544 OA
ENDBRANCH   2   7
ENDBRANCH   1   2
BRANCH   1  10
ATOM     10  O   UNL     1     109.048 107.025 123.787  1.00  0.00    -0.390 OA
ATOM     11  H   UNL     1     108.977 106.198 123.241  1.00  0.00     0.210 HD
ENDBRANCH   1  10
TORSDOF 4
ENDMDL
MODEL 3
REMARK VINA RESULT:    -3.325      1.901      2.181
REMARK INTER + INTRA:          -4.068
REMARK INTER:                  -3.700
REMARK INTRA:                  -0.368
REMARK UNBOUND:                -0.161
REMARK SMILES [NH3+][C@H](CO)C(=O)[O-]
REMARK SMILES IDX 3 1 2 2 1 3 5 7 6 8 7 9 4 10
REMARK H PARENT 1 4 1 5 1 6 4 11
REMARK Flexibility Score: inf
ROOT
ATOM      1  C   UNL     1     110.117 106.602 124.158  1.00  0.00     0.227 C 
ENDROOT
BRANCH   1   2
ATOM      2  C   UNL     1     111.252 106.823 123.142  1.00  0.00     0.253 C 
BRANCH   2   3
ATOM      3  N   UNL     1     110.818 106.490 121.779  1.00  0.00    -0.348 N 
ATOM      4  H   UNL     1     109.787 106.635 121.690  1.00  0.00     0.345 HD
ATOM      5  H   UNL     1     111.025 105.483 121.580  1.00  0.00     0.345 HD
ATOM      6  H   UNL     1     111.308 107.085 121.072  1.00  0.00     0.345 HD
ENDBRANCH   2   3
BRANCH   2   7
ATOM      7  C   UNL     1     111.776 108.233 123.217  1.00  0.00     0.102 C 
ATOM      8  O   UNL     1     111.199 109.168 122.601  1.00  0.00    -0.544 OA
ATOM      9  O   UNL     1     112.879 108.518 124.013  1.00  0.00    -0.544 OA
ENDBRANCH   2   7
ENDBRANCH   1   2
BRANCH   1  10
ATOM     10  O   UNL     1     110.104 107.608 125.138  1.00  0.00    -0.390 OA
ATOM     11  H   UNL     1     110.860 107.420 125.754  1.00  0.00     0.210 HD
ENDBRANCH   1  10
TORSDOF 4
ENDMDL
MODEL 4
REMARK VINA RESULT:    -3.323      2.181      2.224
REMARK INTER + INTRA:          -4.067
REMARK INTER:                  -3.835
REMARK INTRA:                  -0.232
REMARK UNBOUND:                -0.161
REMARK SMILES [NH3+][C@H](CO)C(=O)[O-]
REMARK SMILES IDX 3 1 2 2 1 3 5 7 6 8 7 9 4 10
REMARK H PARENT 1 4 1 5 1 6 4 11
REMARK Flexibility Score: inf
ROOT
ATOM      1  C   UNL     1     111.015 109.442 123.743  1.00  0.00     0.227 C 
ENDROOT
BRANCH   1   2
ATOM      2  C   UNL     1     111.683 108.057 123.656  1.00  0.00     0.253 C 
BRANCH   2   3
ATOM      3  N   UNL     1     112.707 107.893 124.696  1.00  0.00    -0.348 N 
ATOM      4  H   UNL     1     113.031 106.899 124.719  1.00  0.00     0.345 HD
ATOM      5  H   UNL     1     112.299 108.125 125.631  1.00  0.00     0.345 HD
ATOM      6  H   UNL     1     113.528 108.515 124.517  1.00  0.00     0.345 HD
ENDBRANCH   2   3
BRANCH   2   7
ATOM      7  C   UNL     1     110.655 106.958 123.725  1.00  0.00     0.102 C 
ATOM      8  O   UNL     1     110.404 106.247 122.716  1.00  0.00    -0.544 OA
ATOM      9  O   UNL     1     110.012 106.690 124.927  1.00  0.00    -0.544 OA
ENDBRANCH   2   7
ENDBRANCH   1   2
BRANCH   1  10
ATOM     10  O   UNL     1     110.227 109.558 124.899  1.00  0.00    -0.390 OA
ATOM     11  H   UNL     1     109.560 110.273 124.722  1.00  0.00     0.210 HD
ENDBRANCH   1  10
TORSDOF 4
ENDMDL
MODEL 5
REMARK VINA RESULT:    -3.277      1.716      2.242
REMARK INTER + INTRA:          -4.013
REMARK INTER:                  -3.648
REMARK INTRA:                  -0.365
REMARK UNBOUND:                -0.161
REMARK SMILES [NH3+][C@H](CO)C(=O)[O-]
REMARK SMILES IDX 3 1 2 2 1 3 5 7 6 8 7 9 4 10
REMARK H PARENT 1 4 1 5 1 6 4 11
REMARK Flexibility Score: inf
ROOT
ATOM      1  C   UNL     1     111.306 109.464 122.516  1.00  0.00     0.227 C 
ENDROOT
BRANCH   1   2
ATOM      2  C   UNL     1     111.307 108.921 123.957  1.00  0.00     0.253 C 
BRANCH   2   3
ATOM      3  N   UNL     1     110.219 109.510 124.749  1.00  0.00    -0.348 N 
ATOM      4  H   UNL     1     110.285 110.553 124.720  1.00  0.00     0.345 HD
ATOM      5  H   UNL     1     110.304 109.204 125.746  1.00  0.00     0.345 HD
ATOM      6  H   UNL     1     109.285 109.217 124.380  1.00  0.00     0.345 HD
ENDBRANCH   2   3
BRANCH   2   7
ATOM      7  C   UNL     1     111.235 107.417 123.967  1.00  0.00     0.102 C 
ATOM      8  O   UNL     1     112.285 106.722 123.987  1.00  0.00    -0.544 OA
ATOM      9  O   UNL     1     109.997 106.786 124.003  1.00  0.00    -0.544 OA
ENDBRANCH   2   7
ENDBRANCH   1   2
BRANCH   1  10
ATOM     10  O   UNL     1     111.280 108.420 121.576  1.00  0.00    -0.390 OA
ATOM     11  H   UNL     1     112.154 107.952 121.641  1.00  0.00     0.210 HD
ENDBRANCH   1  10
TORSDOF 4
ENDMDL
MODEL 6
REMARK VINA RESULT:    -3.264      2.424      2.544
REMARK INTER + INTRA:          -3.997
REMARK INTER:                  -3.771
REMARK INTRA:                  -0.226
REMARK UNBOUND:                -0.161
REMARK SMILES [NH3+][C@H](CO)C(=O)[O-]
REMARK SMILES IDX 3 1 2 2 1 3 5 7 6 8 7 9 4 10
REMARK H PARENT 1 4 1 5 1 6 4 11
REMARK Flexibility Score: inf
ROOT
ATOM      1  C   UNL     1     110.823 109.879 123.743  1.00  0.00     0.227 C 
ENDROOT
BRANCH   1   2
ATOM      2  C   UNL     1     112.348 109.834 123.942  1.00  0.00     0.253 C 
BRANCH   2   3
ATOM      3  N   UNL     1     112.755 110.612 125.119  1.00  0.00    -0.348 N 
ATOM      4  H   UNL     1     113.420 110.053 125.701  1.00  0.00     0.345 HD
ATOM      5  H   UNL     1     111.916 110.833 125.703  1.00  0.00     0.345 HD
ATOM      6  H   UNL     1     113.219 111.506 124.837  1.00  0.00     0.345 HD
ENDBRANCH   2   3
BRANCH   2   7
ATOM      7  C   UNL     1     112.839 108.413 124.034  1.00  0.00     0.102 C 
ATOM      8  O   UNL     1     112.027 107.459 124.171  1.00  0.00    -0.544 OA
ATOM      9  O   UNL     1     114.197 108.143 123.916  1.00  0.00    -0.544 OA
ENDBRANCH   2   7
ENDBRANCH   1   2
BRANCH   1  10
ATOM     10  O   UNL     1     110.142 109.586 124.936  1.00  0.00    -0.390 OA
ATOM     11  H   UNL     1     110.529 110.172 125.640  1.00  0.00     0.210 HD
ENDBRANCH   1  10
TORSDOF 4
ENDMDL
MODEL 7
REMARK VINA RESULT:    -3.215      2.395      3.365
REMARK INTER + INTRA:          -3.940
REMARK INTER:                  -3.714
REMARK INTRA:                  -0.226
REMARK UNBOUND:                -0.161
REMARK SMILES [NH3+][C@H](CO)C(=O)[O-]
REMARK SMILES IDX 3 1 2 2 1 3 5 7 6 8 7 9 4 10
REMARK H PARENT 1 4 1 5 1 6 4 11
REMARK Flexibility Score: inf
ROOT
ATOM      1  C   UNL     1     112.968 107.436 122.052  1.00  0.00     0.227 C 
ENDROOT
BRANCH   1   2
ATOM      2  C   UNL     1     111.492 107.254 122.449  1.00  0.00     0.253 C 
BRANCH   2   3
ATOM      3  N   UNL     1     110.831 106.255 121.599  1.00  0.00    -0.348 N 
ATOM      4  H   UNL     1     111.054 106.443 120.595  1.00  0.00     0.345 HD
ATOM      5  H   UNL     1     109.794 106.320 121.721  1.00  0.00     0.345 HD
ATOM      6  H   UNL     1     111.144 105.288 121.842  1.00  0.00     0.345 HD
ENDBRANCH   2   3
BRANCH   2   7
ATOM      7  C   UNL     1     111.366 106.896 123.907  1.00  0.00     0.102 C 
ATOM      8  O   UNL     1     112.378 106.881 124.656  1.00  0.00    -0.544 OA
ATOM      9  O   UNL     1     110.113 106.628 124.445  1.00  0.00    -0.544 OA
ENDBRANCH   2   7
ENDBRANCH   1   2
BRANCH   1  10
ATOM     10  O   UNL     1     113.678 106.229 122.155  1.00  0.00    -0.390 OA
ATOM     11  H   UNL     1     114.002 106.007 121.242  1.00  0.00     0.210 HD
ENDBRANCH   1  10
TORSDOF 4
ENDMDL
MODEL 8
REMARK VINA RESULT:    -3.177      2.188      2.355
REMARK INTER + INTRA:          -3.896
REMARK INTER:                  -3.880
REMARK INTRA:                  -0.016
REMARK UNBOUND:                -0.161
REMARK SMILES [NH3+][C@H](CO)C(=O)[O-]
REMARK SMILES IDX 3 1 2 2 1 3 5 7 6 8 7 9 4 10
REMARK H PARENT 1 4 1 5 1 6 4 11
REMARK Flexibility Score: inf
ROOT
ATOM      1  C   UNL     1     111.893 110.166 123.876  1.00  0.00     0.227 C 
ENDROOT
BRANCH   1   2
ATOM      2  C   UNL     1     110.573 109.392 124.045  1.00  0.00     0.253 C 
BRANCH   2   3
ATOM      3  N   UNL     1     109.521 109.936 123.178  1.00  0.00    -0.348 N 
ATOM      4  H   UNL     1     109.131 110.809 123.601  1.00  0.00     0.345 HD
ATOM      5  H   UNL     1     108.744 109.241 123.089  1.00  0.00     0.345 HD
ATOM      6  H   UNL     1     109.894 110.155 122.226  1.00  0.00     0.345 HD
ENDBRANCH   2   3
BRANCH   2   7
ATOM      7  C   UNL     1     110.777 107.920 123.797  1.00  0.00     0.102 C 
ATOM      8  O   UNL     1     110.090 107.062 124.412  1.00  0.00    -0.544 OA
ATOM      9  O   UNL     1     111.696 107.502 122.842  1.00  0.00    -0.544 OA
ENDBRANCH   2   7
ENDBRANCH   1   2
BRANCH   1  10
ATOM     10  O   UNL     1     112.371 110.638 125.109  1.00  0.00    -0.390 OA
ATOM     11  H   UNL     1     112.010 111.556 125.226  1.00  0.00     0.210 HD
ENDBRANCH   1  10
TORSDOF 4
ENDMDL
MODEL 9
REMARK VINA RESULT:    -3.112      4.297      4.795
REMARK INTER + INTRA:          -3.818
REMARK INTER:                  -3.594
REMARK INTRA:                  -0.224
REMARK UNBOUND:                -0.161
REMARK SMILES [NH3+][C@H](CO)C(=O)[O-]
REMARK SMILES IDX 3 1 2 2 1 3 5 7 6 8 7 9 4 10
REMARK H PARENT 1 4 1 5 1 6 4 11
REMARK Flexibility Score: inf
ROOT
ATOM      1  C   UNL     1     112.207 109.144 119.789  1.00  0.00     0.227 C 
ENDROOT
BRANCH   1   2
ATOM      2  C   UNL     1     112.015 108.060 118.713  1.00  0.00     0.253 C 
BRANCH   2   3
ATOM      3  N   UNL     1     112.782 108.371 117.500  1.00  0.00    -0.348 N 
ATOM      4  H   UNL     1     112.548 109.335 117.172  1.00  0.00     0.345 HD
ATOM      5  H   UNL     1     112.530 107.696 116.741  1.00  0.00     0.345 HD
ATOM      6  H   UNL     1     113.811 108.313 117.681  1.00  0.00     0.345 HD
ENDBRANCH   2   3
BRANCH   2   7
ATOM      7  C   UNL     1     112.373 106.699 119.250  1.00  0.00     0.102 C 
ATOM      8  O   UNL     1     112.887 106.572 120.392  1.00  0.00    -0.544 OA
ATOM      9  O   UNL     1     112.088 105.565 118.499  1.00  0.00    -0.544 OA
ENDBRANCH   2   7
ENDBRANCH   1   2
BRANCH   1  10
ATOM     10  O   UNL     1     111.237 109.040 120.800  1.00  0.00    -0.390 OA
ATOM     11  H   UNL     1     110.406 109.454 120.445  1.00  0.00     0.210 HD
ENDBRANCH   1  10
TORSDOF 4
ENDMDL
