MODEL 1
REMARK VINA RESULT:    -5.795      0.000      0.000
REMARK INTER + INTRA:          -6.224
REMARK INTER:                  -6.134
REMARK INTRA:                  -0.090
REMARK UNBOUND:                -0.090
REMARK SMILES C=C(C)[C@@H]1CC=C(C)C(=O)C1
REMARK SMILES IDX 8 1 7 2 6 3 5 4 4 5 11 6 9 7 10 8 2 9 1 10 3 11
REMARK H PARENT
REMARK Flexibility Score: inf
ROOT
ATOM      1  C   UNL     1      19.754  -0.250  23.440  1.00  0.00     0.048 C 
ATOM      2  C   UNL     1      19.669   0.633  22.225  1.00  0.00    -0.012 C 
ATOM      3  C   UNL     1      19.745   1.968  22.354  1.00  0.00    -0.019 C 
ATOM      4  C   UNL     1      19.747   2.888  21.161  1.00  0.00     0.036 C 
ATOM      5  C   UNL     1      18.938   2.289  19.996  1.00  0.00     0.025 C 
ATOM      6  C   UNL     1      19.461   0.883  19.649  1.00  0.00     0.089 C 
ATOM      7  C   UNL     1      19.526   0.021  20.880  1.00  0.00     0.158 C 
ATOM      8  O   UNL     1      19.504  -1.232  20.755  1.00  0.00    -0.295 OA
ENDROOT
BRANCH   5   9
ATOM      9  C   UNL     1      18.952   3.204  18.779  1.00  0.00    -0.077 C 
ATOM     10  C   UNL     1      17.882   3.265  17.970  1.00  0.00     0.008 C 
ATOM     11  C   UNL     1      20.153   4.056  18.450  1.00  0.00     0.039 C 
ENDBRANCH   5   9
TORSDOF 1
ENDMDL
MODEL 2
REMARK VINA RESULT:    -5.404      1.386      2.027
REMARK INTER + INTRA:          -5.810
REMARK INTER:                  -5.714
REMARK INTRA:                  -0.096
REMARK UNBOUND:                -0.090
REMARK SMILES C=C(C)[C@@H]1CC=C(C)C(=O)C1
REMARK SMILES IDX 8 1 7 2 6 3 5 4 4 5 11 6 9 7 10 8 2 9 1 10 3 11
REMARK H PARENT
REMARK Flexibility Score: inf
ROOT
ATOM      1  C   UNL     1      19.981  -1.195  22.973  1.00  0.00     0.048 C 
ATOM      2  C   UNL     1      19.668  -0.107  21.981  1.00  0.00    -0.012 C 
ATOM      3  C   UNL     1      19.620  -0.385  20.667  1.00  0.00    -0.019 C 
ATOM      4  C   UNL     1      19.231   0.652  19.645  1.00  0.00     0.036 C 
ATOM      5  C   UNL     1      19.639   2.064  20.103  1.00  0.00     0.025 C 
ATOM      6  C   UNL     1      19.051   2.367  21.493  1.00  0.00     0.089 C 
ATOM      7  C   UNL     1      19.387   1.268  22.463  1.00  0.00     0.158 C 
ATOM      8  O   UNL     1      19.384   1.517  23.698  1.00  0.00    -0.295 OA
ENDROOT
BRANCH   5   9
ATOM      9  C   UNL     1      19.232   3.120  19.084  1.00  0.00    -0.077 C 
ATOM     10  C   UNL     1      17.938   3.283  18.763  1.00  0.00     0.008 C 
ATOM     11  C   UNL     1      20.257   4.001  18.413  1.00  0.00     0.039 C 
ENDBRANCH   5   9
TORSDOF 1
ENDMDL
MODEL 3
REMARK VINA RESULT:    -5.263      2.080      4.699
REMARK INTER + INTRA:          -5.660
REMARK INTER:                  -5.563
REMARK INTRA:                  -0.097
REMARK UNBOUND:                -0.090
REMARK SMILES C=C(C)[C@@H]1CC=C(C)C(=O)C1
REMARK SMILES IDX 8 1 7 2 6 3 5 4 4 5 11 6 9 7 10 8 2 9 1 10 3 11
REMARK H PARENT
REMARK Flexibility Score: inf
ROOT
ATOM      1  C   UNL     1      18.601   3.395  17.254  1.00  0.00     0.048 C 
ATOM      2  C   UNL     1      18.983   2.716  18.541  1.00  0.00    -0.012 C 
ATOM      3  C   UNL     1      19.016   1.375  18.613  1.00  0.00    -0.019 C 
ATOM      4  C   UNL     1      19.470   0.652  19.854  1.00  0.00     0.036 C 
ATOM      5  C   UNL     1      19.150   1.467  21.121  1.00  0.00     0.025 C 
ATOM      6  C   UNL     1      19.754   2.880  21.015  1.00  0.00     0.089 C 
ATOM      7  C   UNL     1      19.348   3.536  19.724  1.00  0.00     0.158 C 
ATOM      8  O   UNL     1      19.364   4.793  19.641  1.00  0.00    -0.295 OA
ENDROOT
BRANCH   5   9
ATOM      9  C   UNL     1      19.625   0.752  22.379  1.00  0.00    -0.077 C 
ATOM     10  C   UNL     1      19.778  -0.582  22.378  1.00  0.00     0.008 C 
ATOM     11  C   UNL     1      19.930   1.512  23.647  1.00  0.00     0.039 C 
ENDBRANCH   5   9
TORSDOF 1
ENDMDL
MODEL 4
REMARK VINA RESULT:    -4.950      1.359      4.385
REMARK INTER + INTRA:          -5.329
REMARK INTER:                  -5.231
REMARK INTRA:                  -0.098
REMARK UNBOUND:                -0.090
REMARK SMILES C=C(C)[C@@H]1CC=C(C)C(=O)C1
REMARK SMILES IDX 8 1 7 2 6 3 5 4 4 5 11 6 9 7 10 8 2 9 1 10 3 11
REMARK H PARENT
REMARK Flexibility Score: inf
ROOT
ATOM      1  C   UNL     1      19.757   3.758  19.153  1.00  0.00     0.048 C 
ATOM      2  C   UNL     1      19.582   2.611  20.111  1.00  0.00    -0.012 C 
ATOM      3  C   UNL     1      19.652   2.822  21.436  1.00  0.00    -0.019 C 
ATOM      4  C   UNL     1      19.404   1.722  22.435  1.00  0.00     0.036 C 
ATOM      5  C   UNL     1      19.816   0.351  21.866  1.00  0.00     0.025 C 
ATOM      6  C   UNL     1      19.106   0.093  20.525  1.00  0.00     0.089 C 
ATOM      7  C   UNL     1      19.306   1.251  19.586  1.00  0.00     0.158 C 
ATOM      8  O   UNL     1      19.192   1.063  18.346  1.00  0.00    -0.295 OA
ENDROOT
BRANCH   5   9
ATOM      9  C   UNL     1      19.548  -0.769  22.862  1.00  0.00    -0.077 C 
ATOM     10  C   UNL     1      18.780  -0.544  23.940  1.00  0.00     0.008 C 
ATOM     11  C   UNL     1      20.133  -2.147  22.671  1.00  0.00     0.039 C 
ENDBRANCH   5   9
TORSDOF 1
ENDMDL
MODEL 5
REMARK VINA RESULT:    -4.808      1.393      2.744
REMARK INTER + INTRA:          -5.179
REMARK INTER:                  -5.081
REMARK INTRA:                  -0.098
REMARK UNBOUND:                -0.090
REMARK SMILES C=C(C)[C@@H]1CC=C(C)C(=O)C1
REMARK SMILES IDX 8 1 7 2 6 3 5 4 4 5 11 6 9 7 10 8 2 9 1 10 3 11
REMARK H PARENT
REMARK Flexibility Score: inf
ROOT
ATOM      1  C   UNL     1      19.966  -3.310  22.977  1.00  0.00     0.048 C 
ATOM      2  C   UNL     1      19.916  -1.866  22.557  1.00  0.00    -0.012 C 
ATOM      3  C   UNL     1      20.081  -0.892  23.468  1.00  0.00    -0.019 C 
ATOM      4  C   UNL     1      20.120   0.564  23.082  1.00  0.00     0.036 C 
ATOM      5  C   UNL     1      19.252   0.833  21.839  1.00  0.00     0.025 C 
ATOM      6  C   UNL     1      19.677  -0.088  20.680  1.00  0.00     0.089 C 
ATOM      7  C   UNL     1      19.709  -1.524  21.128  1.00  0.00     0.158 C 
ATOM      8  O   UNL     1      19.603  -2.438  20.267  1.00  0.00    -0.295 OA
ENDROOT
BRANCH   5   9
ATOM      9  C   UNL     1      19.302   2.300  21.430  1.00  0.00    -0.077 C 
ATOM     10  C   UNL     1      19.758   3.223  22.292  1.00  0.00     0.008 C 
ATOM     11  C   UNL     1      18.846   2.751  20.065  1.00  0.00     0.039 C 
ENDBRANCH   5   9
TORSDOF 1
ENDMDL
MODEL 6
REMARK VINA RESULT:    -4.796      2.366      3.968
REMARK INTER + INTRA:          -5.166
REMARK INTER:                  -5.069
REMARK INTRA:                  -0.097
REMARK UNBOUND:                -0.090
REMARK SMILES C=C(C)[C@@H]1CC=C(C)C(=O)C1
REMARK SMILES IDX 8 1 7 2 6 3 5 4 4 5 11 6 9 7 10 8 2 9 1 10 3 11
REMARK H PARENT
REMARK Flexibility Score: inf
ROOT
ATOM      1  C   UNL     1      19.757  -1.983  20.939  1.00  0.00     0.048 C 
ATOM      2  C   UNL     1      19.734  -0.709  21.740  1.00  0.00    -0.012 C 
ATOM      3  C   UNL     1      19.895  -0.746  23.073  1.00  0.00    -0.019 C 
ATOM      4  C   UNL     1      19.960   0.507  23.906  1.00  0.00     0.036 C 
ATOM      5  C   UNL     1      19.121   1.636  23.279  1.00  0.00     0.025 C 
ATOM      6  C   UNL     1      19.555   1.880  21.822  1.00  0.00     0.089 C 
ATOM      7  C   UNL     1      19.560   0.591  21.046  1.00  0.00     0.158 C 
ATOM      8  O   UNL     1      19.459   0.630  19.791  1.00  0.00    -0.295 OA
ENDROOT
BRANCH   5   9
ATOM      9  C   UNL     1      19.198   2.913  24.104  1.00  0.00    -0.077 C 
ATOM     10  C   UNL     1      20.231   3.756  23.945  1.00  0.00     0.008 C 
ATOM     11  C   UNL     1      18.131   3.264  25.112  1.00  0.00     0.039 C 
ENDBRANCH   5   9
TORSDOF 1
ENDMDL
MODEL 7
REMARK VINA RESULT:    -4.718      2.037      4.698
REMARK INTER + INTRA:          -5.083
REMARK INTER:                  -4.988
REMARK INTRA:                  -0.095
REMARK UNBOUND:                -0.090
REMARK SMILES C=C(C)[C@@H]1CC=C(C)C(=O)C1
REMARK SMILES IDX 8 1 7 2 6 3 5 4 4 5 11 6 9 7 10 8 2 9 1 10 3 11
REMARK H PARENT
REMARK Flexibility Score: inf
ROOT
ATOM      1  C   UNL     1      19.044   1.384  18.411  1.00  0.00     0.048 C 
ATOM      2  C   UNL     1      19.322   1.347  19.890  1.00  0.00    -0.012 C 
ATOM      3  C   UNL     1      19.437   0.169  20.526  1.00  0.00    -0.019 C 
ATOM      4  C   UNL     1      19.794   0.081  21.986  1.00  0.00     0.036 C 
ATOM      5  C   UNL     1      19.278   1.309  22.760  1.00  0.00     0.025 C 
ATOM      6  C   UNL     1      19.794   2.606  22.111  1.00  0.00     0.089 C 
ATOM      7  C   UNL     1      19.494   2.618  20.637  1.00  0.00     0.158 C 
ATOM      8  O   UNL     1      19.434   3.721  20.031  1.00  0.00    -0.295 OA
ENDROOT
BRANCH   5   9
ATOM      9  C   UNL     1      19.653   1.237  24.234  1.00  0.00    -0.077 C 
ATOM     10  C   UNL     1      19.215   2.176  25.087  1.00  0.00     0.008 C 
ATOM     11  C   UNL     1      20.519   0.124  24.772  1.00  0.00     0.039 C 
ENDBRANCH   5   9
TORSDOF 1
ENDMDL
MODEL 8
REMARK VINA RESULT:    -4.716      1.722      4.858
REMARK INTER + INTRA:          -5.082
REMARK INTER:                  -4.984
REMARK INTRA:                  -0.098
REMARK UNBOUND:                -0.090
REMARK SMILES C=C(C)[C@@H]1CC=C(C)C(=O)C1
REMARK SMILES IDX 8 1 7 2 6 3 5 4 4 5 11 6 9 7 10 8 2 9 1 10 3 11
REMARK H PARENT
REMARK Flexibility Score: inf
ROOT
ATOM      1  C   UNL     1      18.737   2.675  18.381  1.00  0.00     0.048 C 
ATOM      2  C   UNL     1      19.146   1.835  19.561  1.00  0.00    -0.012 C 
ATOM      3  C   UNL     1      19.243   0.500  19.438  1.00  0.00    -0.019 C 
ATOM      4  C   UNL     1      19.726  -0.374  20.566  1.00  0.00     0.036 C 
ATOM      5  C   UNL     1      19.361   0.233  21.934  1.00  0.00     0.025 C 
ATOM      6  C   UNL     1      19.897   1.672  22.041  1.00  0.00     0.089 C 
ATOM      7  C   UNL     1      19.465   2.490  20.854  1.00  0.00     0.158 C 
ATOM      8  O   UNL     1      19.422   3.744  20.955  1.00  0.00    -0.295 OA
ENDROOT
BRANCH   5   9
ATOM      9  C   UNL     1      19.864  -0.635  23.080  1.00  0.00    -0.077 C 
ATOM     10  C   UNL     1      20.119  -0.086  24.279  1.00  0.00     0.008 C 
ATOM     11  C   UNL     1      20.089  -2.116  22.904  1.00  0.00     0.039 C 
ENDBRANCH   5   9
TORSDOF 1
ENDMDL
MODEL 9
REMARK VINA RESULT:    -4.566      2.489      3.920
REMARK INTER + INTRA:          -4.922
REMARK INTER:                  -4.826
REMARK INTRA:                  -0.096
REMARK UNBOUND:                -0.090
REMARK SMILES C=C(C)[C@@H]1CC=C(C)C(=O)C1
REMARK SMILES IDX 8 1 7 2 6 3 5 4 4 5 11 6 9 7 10 8 2 9 1 10 3 11
REMARK H PARENT
REMARK Flexibility Score: inf
ROOT
ATOM      1  C   UNL     1      19.754  -1.950  20.618  1.00  0.00     0.048 C 
ATOM      2  C   UNL     1      19.672  -0.736  21.503  1.00  0.00    -0.012 C 
ATOM      3  C   UNL     1      19.351   0.460  20.981  1.00  0.00    -0.019 C 
ATOM      4  C   UNL     1      19.177   1.686  21.839  1.00  0.00     0.036 C 
ATOM      5  C   UNL     1      20.079   1.625  23.085  1.00  0.00     0.025 C 
ATOM      6  C   UNL     1      19.824   0.324  23.868  1.00  0.00     0.089 C 
ATOM      7  C   UNL     1      19.922  -0.871  22.960  1.00  0.00     0.158 C 
ATOM      8  O   UNL     1      20.174  -2.001  23.456  1.00  0.00    -0.295 OA
ENDROOT
BRANCH   5   9
ATOM      9  C   UNL     1      19.894   2.852  23.968  1.00  0.00    -0.077 C 
ATOM     10  C   UNL     1      18.769   3.002  24.685  1.00  0.00     0.008 C 
ATOM     11  C   UNL     1      20.956   3.920  24.062  1.00  0.00     0.039 C 
ENDBRANCH   5   9
TORSDOF 1
ENDMDL
