MODEL 1
REMARK VINA RESULT:    -6.061      0.000      0.000
REMARK INTER + INTRA:          -6.839
REMARK INTER:                  -6.770
REMARK INTRA:                  -0.069
REMARK UNBOUND:                -0.069
REMARK SMILES COc1cc2ccc(=O)oc2c(O)c1O
REMARK SMILES IDX 3 1 14 2 12 3 11 4 5 5 4 6 6 7 7 8 8 9 9 10 10 11 2 12 1 13
REMARK SMILES IDX 15 14 13 16
REMARK H PARENT 15 15 13 17
REMARK Flexibility Score: inf
ROOT
ATOM      1  C   UNL     1      -8.500  -4.823   5.609  1.00  0.00     0.165 A 
ATOM      2  C   UNL     1      -9.759  -4.641   6.208  1.00  0.00     0.204 A 
ATOM      3  C   UNL     1     -10.053  -5.263   7.446  1.00  0.00     0.205 A 
ATOM      4  C   UNL     1      -9.081  -6.061   8.068  1.00  0.00     0.184 A 
ATOM      5  C   UNL     1      -7.821  -6.241   7.463  1.00  0.00     0.025 A 
ATOM      6  C   UNL     1      -7.533  -5.625   6.242  1.00  0.00     0.062 A 
ATOM      7  C   UNL     1      -6.876  -7.043   8.114  1.00  0.00     0.020 A 
ATOM      8  C   UNL     1      -7.205  -7.638   9.332  1.00  0.00     0.094 A 
ATOM      9  C   UNL     1      -8.474  -7.416   9.871  1.00  0.00     0.336 A 
ATOM     10  O   UNL     1      -8.791  -7.943  10.969  1.00  0.00    -0.246 OA
ATOM     11  O   UNL     1      -9.353  -6.648   9.232  1.00  0.00    -0.419 OA
ENDROOT
BRANCH   1  12
ATOM     12  O   UNL     1      -8.252  -4.188   4.381  1.00  0.00    -0.493 OA
ATOM     13  C   UNL     1      -8.248  -4.846   3.118  1.00  0.00     0.278 C 
ENDBRANCH   1  12
BRANCH   2  14
ATOM     14  O   UNL     1     -10.685  -3.835   5.539  1.00  0.00    -0.502 OA
ATOM     15  H   UNL     1     -11.452  -3.357   5.991  1.00  0.00     0.293 HD
ENDBRANCH   2  14
BRANCH   3  16
ATOM     16  O   UNL     1     -11.286  -5.117   8.087  1.00  0.00    -0.502 OA
ATOM     17  H   UNL     1     -12.167  -5.009   7.606  1.00  0.00     0.293 HD
ENDBRANCH   3  16
TORSDOF 3
ENDMDL
MODEL 2
REMARK VINA RESULT:    -5.468     16.001     17.507
REMARK INTER + INTRA:          -6.177
REMARK INTER:                  -6.128
REMARK INTRA:                  -0.048
REMARK UNBOUND:                -0.069
REMARK SMILES COc1cc2ccc(=O)oc2c(O)c1O
REMARK SMILES IDX 3 1 14 2 12 3 11 4 5 5 4 6 6 7 7 8 8 9 9 10 10 11 2 12 1 13
REMARK SMILES IDX 15 14 13 16
REMARK H PARENT 15 15 13 17
REMARK Flexibility Score: inf
ROOT
ATOM      1  C   UNL     1     -19.897  -3.391  17.810  1.00  0.00     0.165 A 
ATOM      2  C   UNL     1     -20.820  -2.356  17.586  1.00  0.00     0.204 A 
ATOM      3  C   UNL     1     -21.583  -1.840  18.663  1.00  0.00     0.205 A 
ATOM      4  C   UNL     1     -21.410  -2.369  19.949  1.00  0.00     0.184 A 
ATOM      5  C   UNL     1     -20.483  -3.408  20.169  1.00  0.00     0.025 A 
ATOM      6  C   UNL     1     -19.731  -3.915  19.105  1.00  0.00     0.062 A 
ATOM      7  C   UNL     1     -20.337  -3.910  21.468  1.00  0.00     0.020 A 
ATOM      8  C   UNL     1     -21.106  -3.374  22.500  1.00  0.00     0.094 A 
ATOM      9  C   UNL     1     -22.007  -2.347  22.208  1.00  0.00     0.336 A 
ATOM     10  O   UNL     1     -22.711  -1.849  23.125  1.00  0.00    -0.246 OA
ATOM     11  O   UNL     1     -22.125  -1.888  20.965  1.00  0.00    -0.419 OA
ENDROOT
BRANCH   1  12
ATOM     12  O   UNL     1     -19.162  -3.874  16.714  1.00  0.00    -0.493 OA
ATOM     13  C   UNL     1     -17.862  -3.419  16.350  1.00  0.00     0.278 C 
ENDBRANCH   1  12
BRANCH   2  14
ATOM     14  O   UNL     1     -20.948  -1.871  16.281  1.00  0.00    -0.502 OA
ATOM     15  H   UNL     1     -20.692  -2.391  15.454  1.00  0.00     0.293 HD
ENDBRANCH   2  14
BRANCH   3  16
ATOM     16  O   UNL     1     -22.515  -0.812  18.498  1.00  0.00    -0.502 OA
ATOM     17  H   UNL     1     -22.680  -0.328  17.627  1.00  0.00     0.293 HD
ENDBRANCH   3  16
TORSDOF 3
ENDMDL
MODEL 3
REMARK VINA RESULT:    -5.318     15.124     17.289
REMARK INTER + INTRA:          -6.009
REMARK INTER:                  -5.956
REMARK INTRA:                  -0.053
REMARK UNBOUND:                -0.069
REMARK SMILES COc1cc2ccc(=O)oc2c(O)c1O
REMARK SMILES IDX 3 1 14 2 12 3 11 4 5 5 4 6 6 7 7 8 8 9 9 10 10 11 2 12 1 13
REMARK SMILES IDX 15 14 13 16
REMARK H PARENT 15 15 13 17
REMARK Flexibility Score: inf
ROOT
ATOM      1  C   UNL     1     -20.423  -2.979  19.829  1.00  0.00     0.165 A 
ATOM      2  C   UNL     1     -19.370  -3.193  18.922  1.00  0.00     0.204 A 
ATOM      3  C   UNL     1     -19.505  -2.789  17.571  1.00  0.00     0.205 A 
ATOM      4  C   UNL     1     -20.693  -2.177  17.146  1.00  0.00     0.184 A 
ATOM      5  C   UNL     1     -21.747  -1.967  18.059  1.00  0.00     0.025 A 
ATOM      6  C   UNL     1     -21.611  -2.365  19.392  1.00  0.00     0.062 A 
ATOM      7  C   UNL     1     -22.917  -1.352  17.598  1.00  0.00     0.020 A 
ATOM      8  C   UNL     1     -23.009  -0.970  16.261  1.00  0.00     0.094 A 
ATOM      9  C   UNL     1     -21.926  -1.212  15.412  1.00  0.00     0.336 A 
ATOM     10  O   UNL     1     -21.988  -0.874  14.201  1.00  0.00    -0.246 OA
ATOM     11  O   UNL     1     -20.825  -1.796  15.876  1.00  0.00    -0.419 OA
ENDROOT
BRANCH   1  12
ATOM     12  O   UNL     1     -20.248  -3.396  21.159  1.00  0.00    -0.493 OA
ATOM     13  C   UNL     1     -21.299  -3.524  22.110  1.00  0.00     0.278 C 
ENDBRANCH   1  12
BRANCH   2  14
ATOM     14  O   UNL     1     -18.211  -3.806  19.406  1.00  0.00    -0.502 OA
ATOM     15  H   UNL     1     -18.199  -4.492  20.148  1.00  0.00     0.293 HD
ENDBRANCH   2  14
BRANCH   3  16
ATOM     16  O   UNL     1     -18.492  -2.975  16.627  1.00  0.00    -0.502 OA
ATOM     17  H   UNL     1     -17.507  -2.863  16.820  1.00  0.00     0.293 HD
ENDBRANCH   3  16
TORSDOF 3
ENDMDL
MODEL 4
REMARK VINA RESULT:    -5.265      2.042      2.502
REMARK INTER + INTRA:          -5.950
REMARK INTER:                  -5.883
REMARK INTRA:                  -0.068
REMARK UNBOUND:                -0.069
REMARK SMILES COc1cc2ccc(=O)oc2c(O)c1O
REMARK SMILES IDX 3 1 14 2 12 3 11 4 5 5 4 6 6 7 7 8 8 9 9 10 10 11 2 12 1 13
REMARK SMILES IDX 15 14 13 16
REMARK H PARENT 15 15 13 17
REMARK Flexibility Score: inf
ROOT
ATOM      1  C   UNL     1      -8.080  -4.867   5.631  1.00  0.00     0.165 A 
ATOM      2  C   UNL     1      -7.426  -3.762   6.203  1.00  0.00     0.204 A 
ATOM      3  C   UNL     1      -6.930  -3.838   7.528  1.00  0.00     0.205 A 
ATOM      4  C   UNL     1      -7.097  -5.020   8.262  1.00  0.00     0.184 A 
ATOM      5  C   UNL     1      -7.754  -6.126   7.685  1.00  0.00     0.025 A 
ATOM      6  C   UNL     1      -8.242  -6.048   6.377  1.00  0.00     0.062 A 
ATOM      7  C   UNL     1      -7.900  -7.289   8.449  1.00  0.00     0.020 A 
ATOM      8  C   UNL     1      -7.398  -7.324   9.749  1.00  0.00     0.094 A 
ATOM      9  C   UNL     1      -6.759  -6.189  10.256  1.00  0.00     0.336 A 
ATOM     10  O   UNL     1      -6.298  -6.199  11.428  1.00  0.00    -0.246 OA
ATOM     11  O   UNL     1      -6.633  -5.097   9.509  1.00  0.00    -0.419 OA
ENDROOT
BRANCH   1  12
ATOM     12  O   UNL     1      -8.557  -4.748   4.315  1.00  0.00    -0.493 OA
ATOM     13  C   UNL     1      -7.909  -5.290   3.169  1.00  0.00     0.278 C 
ENDBRANCH   1  12
BRANCH   2  14
ATOM     14  O   UNL     1      -7.291  -2.611   5.420  1.00  0.00    -0.502 OA
ATOM     15  H   UNL     1      -7.827  -1.766   5.556  1.00  0.00     0.293 HD
ENDBRANCH   2  14
BRANCH   3  16
ATOM     16  O   UNL     1      -6.273  -2.771   8.146  1.00  0.00    -0.502 OA
ATOM     17  H   UNL     1      -5.798  -2.031   7.649  1.00  0.00     0.293 HD
ENDBRANCH   3  16
TORSDOF 3
ENDMDL
MODEL 5
REMARK VINA RESULT:    -5.120      2.581      3.044
REMARK INTER + INTRA:          -5.788
REMARK INTER:                  -5.729
REMARK INTRA:                  -0.059
REMARK UNBOUND:                -0.069
REMARK SMILES COc1cc2ccc(=O)oc2c(O)c1O
REMARK SMILES IDX 3 1 14 2 12 3 11 4 5 5 4 6 6 7 7 8 8 9 9 10 10 11 2 12 1 13
REMARK SMILES IDX 15 14 13 16
REMARK H PARENT 15 15 13 17
REMARK Flexibility Score: inf
ROOT
ATOM      1  C   UNL     1      -7.499  -5.991   6.616  1.00  0.00     0.165 A 
ATOM      2  C   UNL     1      -7.120  -4.671   6.918  1.00  0.00     0.204 A 
ATOM      3  C   UNL     1      -6.773  -4.319   8.245  1.00  0.00     0.205 A 
ATOM      4  C   UNL     1      -6.811  -5.293   9.253  1.00  0.00     0.184 A 
ATOM      5  C   UNL     1      -7.193  -6.614   8.946  1.00  0.00     0.025 A 
ATOM      6  C   UNL     1      -7.534  -6.960   7.635  1.00  0.00     0.062 A 
ATOM      7  C   UNL     1      -7.218  -7.559   9.978  1.00  0.00     0.020 A 
ATOM      8  C   UNL     1      -6.869  -7.172  11.271  1.00  0.00     0.094 A 
ATOM      9  C   UNL     1      -6.502  -5.843  11.502  1.00  0.00     0.336 A 
ATOM     10  O   UNL     1      -6.183  -5.472  12.662  1.00  0.00    -0.246 OA
ATOM     11  O   UNL     1      -6.486  -4.966  10.503  1.00  0.00    -0.419 OA
ENDROOT
BRANCH   1  12
ATOM     12  O   UNL     1      -7.836  -6.297   5.288  1.00  0.00    -0.493 OA
ATOM     13  C   UNL     1      -7.441  -7.483   4.607  1.00  0.00     0.278 C 
ENDBRANCH   1  12
BRANCH   2  14
ATOM     14  O   UNL     1      -7.101  -3.746   5.870  1.00  0.00    -0.502 OA
ATOM     15  H   UNL     1      -7.320  -2.765   5.975  1.00  0.00     0.293 HD
ENDBRANCH   2  14
BRANCH   3  16
ATOM     16  O   UNL     1      -6.388  -3.024   8.602  1.00  0.00    -0.502 OA
ATOM     17  H   UNL     1      -6.343  -2.246   7.959  1.00  0.00     0.293 HD
ENDBRANCH   3  16
TORSDOF 3
ENDMDL
MODEL 6
REMARK VINA RESULT:    -5.111      2.518      5.497
REMARK INTER + INTRA:          -5.777
REMARK INTER:                  -5.725
REMARK INTRA:                  -0.053
REMARK UNBOUND:                -0.069
REMARK SMILES COc1cc2ccc(=O)oc2c(O)c1O
REMARK SMILES IDX 3 1 14 2 12 3 11 4 5 5 4 6 6 7 7 8 8 9 9 10 10 11 2 12 1 13
REMARK SMILES IDX 15 14 13 16
REMARK H PARENT 15 15 13 17
REMARK Flexibility Score: inf
ROOT
ATOM      1  C   UNL     1      -6.890  -6.736  10.991  1.00  0.00     0.165 A 
ATOM      2  C   UNL     1      -6.542  -5.433  10.595  1.00  0.00     0.204 A 
ATOM      3  C   UNL     1      -6.677  -5.043   9.239  1.00  0.00     0.205 A 
ATOM      4  C   UNL     1      -7.158  -5.965   8.299  1.00  0.00     0.184 A 
ATOM      5  C   UNL     1      -7.505  -7.271   8.700  1.00  0.00     0.025 A 
ATOM      6  C   UNL     1      -7.372  -7.652  10.039  1.00  0.00     0.062 A 
ATOM      7  C   UNL     1      -7.983  -8.162   7.733  1.00  0.00     0.020 A 
ATOM      8  C   UNL     1      -8.101  -7.740   6.410  1.00  0.00     0.094 A 
ATOM      9  C   UNL     1      -7.737  -6.431   6.084  1.00  0.00     0.336 A 
ATOM     10  O   UNL     1      -7.836  -6.029   4.895  1.00  0.00    -0.246 OA
ATOM     11  O   UNL     1      -7.287  -5.604   7.023  1.00  0.00    -0.419 OA
ENDROOT
BRANCH   1  12
ATOM     12  O   UNL     1      -6.740  -7.080  12.344  1.00  0.00    -0.493 OA
ATOM     13  C   UNL     1      -6.767  -8.412  12.846  1.00  0.00     0.278 C 
ENDBRANCH   1  12
BRANCH   2  14
ATOM     14  O   UNL     1      -6.068  -4.560  11.579  1.00  0.00    -0.502 OA
ATOM     15  H   UNL     1      -5.279  -4.755  12.179  1.00  0.00     0.293 HD
ENDBRANCH   2  14
BRANCH   3  16
ATOM     16  O   UNL     1      -6.347  -3.762   8.790  1.00  0.00    -0.502 OA
ATOM     17  H   UNL     1      -7.019  -3.087   8.455  1.00  0.00     0.293 HD
ENDBRANCH   3  16
TORSDOF 3
ENDMDL
MODEL 7
REMARK VINA RESULT:    -5.095      2.520      4.326
REMARK INTER + INTRA:          -5.760
REMARK INTER:                  -5.706
REMARK INTRA:                  -0.054
REMARK UNBOUND:                -0.069
REMARK SMILES COc1cc2ccc(=O)oc2c(O)c1O
REMARK SMILES IDX 3 1 14 2 12 3 11 4 5 5 4 6 6 7 7 8 8 9 9 10 10 11 2 12 1 13
REMARK SMILES IDX 15 14 13 16
REMARK H PARENT 15 15 13 17
REMARK Flexibility Score: inf
ROOT
ATOM      1  C   UNL     1      -8.860  -7.651   8.122  1.00  0.00     0.165 A 
ATOM      2  C   UNL     1      -9.149  -6.539   7.312  1.00  0.00     0.204 A 
ATOM      3  C   UNL     1     -10.222  -5.677   7.647  1.00  0.00     0.205 A 
ATOM      4  C   UNL     1     -10.993  -5.942   8.788  1.00  0.00     0.184 A 
ATOM      5  C   UNL     1     -10.701  -7.059   9.596  1.00  0.00     0.025 A 
ATOM      6  C   UNL     1      -9.640  -7.907   9.264  1.00  0.00     0.062 A 
ATOM      7  C   UNL     1     -11.492  -7.290  10.727  1.00  0.00     0.020 A 
ATOM      8  C   UNL     1     -12.539  -6.418  11.022  1.00  0.00     0.094 A 
ATOM      9  C   UNL     1     -12.772  -5.332  10.174  1.00  0.00     0.336 A 
ATOM     10  O   UNL     1     -13.712  -4.532  10.421  1.00  0.00    -0.246 OA
ATOM     11  O   UNL     1     -12.004  -5.135   9.106  1.00  0.00    -0.419 OA
ENDROOT
BRANCH   1  12
ATOM     12  O   UNL     1      -7.787  -8.479   7.754  1.00  0.00    -0.493 OA
ATOM     13  C   UNL     1      -7.648  -9.842   8.143  1.00  0.00     0.278 C 
ENDBRANCH   1  12
BRANCH   2  14
ATOM     14  O   UNL     1      -8.344  -6.328   6.189  1.00  0.00    -0.502 OA
ATOM     15  H   UNL     1      -8.052  -5.418   5.862  1.00  0.00     0.293 HD
ENDBRANCH   2  14
BRANCH   3  16
ATOM     16  O   UNL     1     -10.554  -4.557   6.879  1.00  0.00    -0.502 OA
ATOM     17  H   UNL     1     -11.199  -4.572   6.103  1.00  0.00     0.293 HD
ENDBRANCH   3  16
TORSDOF 3
ENDMDL
MODEL 8
REMARK VINA RESULT:    -4.901      2.460      3.083
REMARK INTER + INTRA:          -5.543
REMARK INTER:                  -5.487
REMARK INTRA:                  -0.056
REMARK UNBOUND:                -0.069
REMARK SMILES COc1cc2ccc(=O)oc2c(O)c1O
REMARK SMILES IDX 3 1 14 2 12 3 11 4 5 5 4 6 6 7 7 8 8 9 9 10 10 11 2 12 1 13
REMARK SMILES IDX 15 14 13 16
REMARK H PARENT 15 15 13 17
REMARK Flexibility Score: inf
ROOT
ATOM      1  C   UNL     1      -9.181  -6.531   7.374  1.00  0.00     0.165 A 
ATOM      2  C   UNL     1     -10.281  -5.689   7.613  1.00  0.00     0.204 A 
ATOM      3  C   UNL     1     -11.254  -6.049   8.578  1.00  0.00     0.205 A 
ATOM      4  C   UNL     1     -11.113  -7.249   9.289  1.00  0.00     0.184 A 
ATOM      5  C   UNL     1     -10.009  -8.092   9.045  1.00  0.00     0.025 A 
ATOM      6  C   UNL     1      -9.050  -7.733   8.094  1.00  0.00     0.062 A 
ATOM      7  C   UNL     1      -9.902  -9.281   9.775  1.00  0.00     0.020 A 
ATOM      8  C   UNL     1     -10.881  -9.599  10.715  1.00  0.00     0.094 A 
ATOM      9  C   UNL     1     -11.949  -8.717  10.903  1.00  0.00     0.336 A 
ATOM     10  O   UNL     1     -12.844  -8.984  11.747  1.00  0.00    -0.246 OA
ATOM     11  O   UNL     1     -12.026  -7.593  10.197  1.00  0.00    -0.419 OA
ENDROOT
BRANCH   1  12
ATOM     12  O   UNL     1      -8.240  -6.136   6.409  1.00  0.00    -0.493 OA
ATOM     13  C   UNL     1      -7.509  -7.033   5.579  1.00  0.00     0.278 C 
ENDBRANCH   1  12
BRANCH   2  14
ATOM     14  O   UNL     1     -10.366  -4.507   6.873  1.00  0.00    -0.502 OA
ATOM     15  H   UNL     1     -10.730  -3.636   7.233  1.00  0.00     0.293 HD
ENDBRANCH   2  14
BRANCH   3  16
ATOM     16  O   UNL     1     -12.366  -5.251   8.857  1.00  0.00    -0.502 OA
ATOM     17  H   UNL     1     -13.306  -5.459   8.552  1.00  0.00     0.293 HD
ENDBRANCH   3  16
TORSDOF 3
ENDMDL
MODEL 9
REMARK VINA RESULT:    -4.842     14.373     15.773
REMARK INTER + INTRA:          -5.477
REMARK INTER:                  -5.408
REMARK INTRA:                  -0.069
REMARK UNBOUND:                -0.069
REMARK SMILES COc1cc2ccc(=O)oc2c(O)c1O
REMARK SMILES IDX 3 1 14 2 12 3 11 4 5 5 4 6 6 7 7 8 8 9 9 10 10 11 2 12 1 13
REMARK SMILES IDX 15 14 13 16
REMARK H PARENT 15 15 13 17
REMARK Flexibility Score: inf
ROOT
ATOM      1  C   UNL     1     -20.304  -1.634  15.251  1.00  0.00     0.165 A 
ATOM      2  C   UNL     1     -21.624  -1.478  15.708  1.00  0.00     0.204 A 
ATOM      3  C   UNL     1     -21.997  -1.979  16.980  1.00  0.00     0.205 A 
ATOM      4  C   UNL     1     -21.044  -2.630  17.775  1.00  0.00     0.184 A 
ATOM      5  C   UNL     1     -19.721  -2.784  17.312  1.00  0.00     0.025 A 
ATOM      6  C   UNL     1     -19.355  -2.288  16.057  1.00  0.00     0.062 A 
ATOM      7  C   UNL     1     -18.797  -3.439  18.134  1.00  0.00     0.020 A 
ATOM      8  C   UNL     1     -19.205  -3.917  19.378  1.00  0.00     0.094 A 
ATOM      9  C   UNL     1     -20.532  -3.729  19.772  1.00  0.00     0.336 A 
ATOM     10  O   UNL     1     -20.921  -4.153  20.892  1.00  0.00    -0.246 OA
ATOM     11  O   UNL     1     -21.390  -3.103  18.972  1.00  0.00    -0.419 OA
ENDROOT
BRANCH   1  12
ATOM     12  O   UNL     1     -19.977  -1.123  13.984  1.00  0.00    -0.493 OA
ATOM     13  C   UNL     1     -19.116  -0.011  13.759  1.00  0.00     0.278 C 
ENDBRANCH   1  12
BRANCH   2  14
ATOM     14  O   UNL     1     -22.529  -0.820  14.870  1.00  0.00    -0.502 OA
ATOM     15  H   UNL     1     -23.339  -1.258  14.454  1.00  0.00     0.293 HD
ENDBRANCH   2  14
BRANCH   3  16
ATOM     16  O   UNL     1     -23.294  -1.852  17.486  1.00  0.00    -0.502 OA
ATOM     17  H   UNL     1     -23.828  -2.615  17.877  1.00  0.00     0.293 HD
ENDBRANCH   3  16
TORSDOF 3
ENDMDL
