MODEL 1
REMARK VINA RESULT:    -6.608      0.000      0.000
REMARK INTER + INTRA:          -7.096
REMARK INTER:                  -7.187
REMARK INTRA:                   0.092
REMARK UNBOUND:                 0.092
REMARK SMILES C[C@@H]1[C@H](C)CC[C@@]2(C(=O)[O-])CC[C@@]3(C)C(=CC[C@H]4[C@@]5(C)CC[C@@H](O)C(C)(C)[C@@H]5CC[C@]43C)[C@H]12
REMARK SMILES IDX 7 1 6 2 11 3 33 4 5 5 12 6 15 7 2 8 3 9 13 10 16 11 1 12
REMARK SMILES IDX 4 13 14 14 31 15 17 16 18 17 30 18 32 19 19 20 29 21 28 22
REMARK SMILES IDX 21 23 20 24 25 25 22 26 23 27 26 28 27 29 8 30 9 31 10 32
REMARK SMILES IDX 24 33
REMARK H PARENT 24 34
REMARK Flexibility Score: inf
ROOT
ATOM      1  C   UNL     1      -4.901  32.016  45.801  1.00  0.00     0.017 C 
ATOM      2  C   UNL     1      -3.875  32.653  46.791  1.00  0.00     0.014 C 
ATOM      3  C   UNL     1      -4.182  30.956  44.898  1.00  0.00     0.014 C 
ATOM      4  C   UNL     1      -6.011  31.344  46.672  1.00  0.00     0.030 C 
ATOM      5  C   UNL     1      -4.524  33.626  47.798  1.00  0.00     0.004 C 
ATOM      6  C   UNL     1      -4.481  29.482  45.247  1.00  0.00     0.013 C 
ATOM      7  C   UNL     1      -6.797  30.303  45.870  1.00  0.00    -0.063 C 
ATOM      8  C   UNL     1      -6.752  32.342  47.625  1.00  0.00    -0.003 C 
ATOM      9  C   UNL     1      -5.693  32.977  48.578  1.00  0.00    -0.011 C 
ATOM     10  C   UNL     1      -6.016  29.090  45.357  1.00  0.00    -0.006 C 
ATOM     11  C   UNL     1      -8.134  30.293  45.827  1.00  0.00    -0.027 C 
ATOM     12  C   UNL     1      -7.627  33.419  46.933  1.00  0.00     0.008 C 
ATOM     13  C   UNL     1      -6.305  33.972  49.575  1.00  0.00     0.008 C 
ATOM     14  C   UNL     1      -6.120  28.028  46.500  1.00  0.00     0.017 C 
ATOM     15  C   UNL     1      -6.638  28.489  43.994  1.00  0.00    -0.020 C 
ATOM     16  C   UNL     1      -8.909  29.540  44.800  1.00  0.00     0.032 C 
ATOM     17  C   UNL     1      -8.223  28.319  44.110  1.00  0.00     0.006 C 
ATOM     18  C   UNL     1      -6.322  29.425  42.791  1.00  0.00     0.008 C 
ATOM     19  C   UNL     1      -5.964  27.096  43.730  1.00  0.00     0.012 C 
ATOM     20  C   UNL     1      -8.968  27.929  42.737  1.00  0.00    -0.025 C 
ATOM     21  C   UNL     1      -7.009  29.045  41.467  1.00  0.00     0.005 C 
ATOM     22  C   UNL     1      -8.545  28.955  41.614  1.00  0.00     0.003 C 
ATOM     23  C   UNL     1     -10.528  28.000  42.900  1.00  0.00     0.010 C 
ATOM     24  C   UNL     1      -8.629  26.442  42.375  1.00  0.00     0.012 C 
ATOM     25  C   UNL     1      -9.339  28.855  40.246  1.00  0.00    -0.006 C 
ATOM     26  C   UNL     1     -11.307  27.847  41.580  1.00  0.00     0.033 C 
ATOM     27  C   UNL     1     -10.876  28.886  40.535  1.00  0.00     0.120 C 
ATOM     28  C   UNL     1      -9.001  30.076  39.345  1.00  0.00     0.014 C 
ATOM     29  C   UNL     1      -8.986  27.595  39.413  1.00  0.00     0.014 C 
ENDROOT
BRANCH   1  30
ATOM     30  C   UNL     1      -5.468  33.074  44.859  1.00  0.00     0.048 C 
ATOM     31  O   UNL     1      -5.033  34.258  44.874  1.00  0.00    -0.550 OA
ATOM     32  O   UNL     1      -6.388  32.717  43.881  1.00  0.00    -0.550 OA
ENDBRANCH   1  30
BRANCH  27  33
ATOM     33  O   UNL     1     -11.271  30.160  40.994  1.00  0.00    -0.393 OA
ATOM     34  H   UNL     1     -11.671  30.644  40.226  1.00  0.00     0.210 HD
ENDBRANCH  27  33
TORSDOF 2
ENDMDL
MODEL 2
REMARK VINA RESULT:    -6.223      1.283      1.609
REMARK INTER + INTRA:          -6.677
REMARK INTER:                  -6.768
REMARK INTRA:                   0.092
REMARK UNBOUND:                 0.092
REMARK SMILES C[C@@H]1[C@H](C)CC[C@@]2(C(=O)[O-])CC[C@@]3(C)C(=CC[C@H]4[C@@]5(C)CC[C@@H](O)C(C)(C)[C@@H]5CC[C@]43C)[C@H]12
REMARK SMILES IDX 7 1 6 2 11 3 33 4 5 5 12 6 15 7 2 8 3 9 13 10 16 11 1 12
REMARK SMILES IDX 4 13 14 14 31 15 17 16 18 17 30 18 32 19 19 20 29 21 28 22
REMARK SMILES IDX 21 23 20 24 25 25 22 26 23 27 26 28 27 29 8 30 9 31 10 32
REMARK SMILES IDX 24 33
REMARK H PARENT 24 34
REMARK Flexibility Score: inf
ROOT
ATOM      1  C   UNL     1      -5.474  30.913  44.702  1.00  0.00     0.017 C 
ATOM      2  C   UNL     1      -4.268  31.481  45.515  1.00  0.00     0.014 C 
ATOM      3  C   UNL     1      -4.970  29.823  43.694  1.00  0.00     0.014 C 
ATOM      4  C   UNL     1      -6.466  30.294  45.739  1.00  0.00     0.030 C 
ATOM      5  C   UNL     1      -4.691  32.478  46.614  1.00  0.00     0.004 C 
ATOM      6  C   UNL     1      -5.293  28.364  44.084  1.00  0.00     0.013 C 
ATOM      7  C   UNL     1      -7.429  29.308  45.072  1.00  0.00    -0.063 C 
ATOM      8  C   UNL     1      -6.987  31.322  46.800  1.00  0.00    -0.003 C 
ATOM      9  C   UNL     1      -5.754  31.888  47.571  1.00  0.00    -0.011 C 
ATOM     10  C   UNL     1      -6.810  28.058  44.439  1.00  0.00    -0.006 C 
ATOM     11  C   UNL     1      -8.753  29.372  45.246  1.00  0.00    -0.027 C 
ATOM     12  C   UNL     1      -7.899  32.453  46.259  1.00  0.00     0.008 C 
ATOM     13  C   UNL     1      -6.141  32.904  48.655  1.00  0.00     0.008 C 
ATOM     14  C   UNL     1      -6.789  26.991  45.583  1.00  0.00     0.017 C 
ATOM     15  C   UNL     1      -7.675  27.507  43.193  1.00  0.00    -0.020 C 
ATOM     16  C   UNL     1      -9.725  28.675  44.356  1.00  0.00     0.032 C 
ATOM     17  C   UNL     1      -9.229  27.424  43.562  1.00  0.00     0.006 C 
ATOM     18  C   UNL     1      -7.505  28.436  41.957  1.00  0.00     0.008 C 
ATOM     19  C   UNL     1      -7.134  26.081  42.822  1.00  0.00     0.012 C 
ATOM     20  C   UNL     1     -10.205  27.091  42.326  1.00  0.00    -0.025 C 
ATOM     21  C   UNL     1      -8.416  28.108  40.760  1.00  0.00     0.005 C 
ATOM     22  C   UNL     1      -9.911  28.103  41.151  1.00  0.00     0.003 C 
ATOM     23  C   UNL     1     -11.712  27.247  42.738  1.00  0.00     0.010 C 
ATOM     24  C   UNL     1     -10.014  25.591  41.913  1.00  0.00     0.012 C 
ATOM     25  C   UNL     1     -10.919  28.061  39.929  1.00  0.00    -0.006 C 
ATOM     26  C   UNL     1     -12.701  27.151  41.561  1.00  0.00     0.033 C 
ATOM     27  C   UNL     1     -12.385  28.175  40.462  1.00  0.00     0.120 C 
ATOM     28  C   UNL     1     -10.661  29.272  38.987  1.00  0.00     0.014 C 
ATOM     29  C   UNL     1     -10.776  26.793  39.048  1.00  0.00     0.014 C 
ENDROOT
BRANCH   1  30
ATOM     30  C   UNL     1      -6.124  32.010  43.864  1.00  0.00     0.048 C 
ATOM     31  O   UNL     1      -5.615  33.162  43.794  1.00  0.00    -0.550 OA
ATOM     32  O   UNL     1      -7.222  31.720  43.065  1.00  0.00    -0.550 OA
ENDBRANCH   1  30
BRANCH  27  33
ATOM     33  O   UNL     1     -12.628  29.464  40.980  1.00  0.00    -0.393 OA
ATOM     34  H   UNL     1     -11.885  30.051  40.683  1.00  0.00     0.210 HD
ENDBRANCH  27  33
TORSDOF 2
ENDMDL
MODEL 3
REMARK VINA RESULT:    -5.892      3.022      8.342
REMARK INTER + INTRA:          -6.317
REMARK INTER:                  -6.404
REMARK INTRA:                   0.087
REMARK UNBOUND:                 0.092
REMARK SMILES C[C@@H]1[C@H](C)CC[C@@]2(C(=O)[O-])CC[C@@]3(C)C(=CC[C@H]4[C@@]5(C)CC[C@@H](O)C(C)(C)[C@@H]5CC[C@]43C)[C@H]12
REMARK SMILES IDX 7 1 6 2 11 3 33 4 5 5 12 6 15 7 2 8 3 9 13 10 16 11 1 12
REMARK SMILES IDX 4 13 14 14 31 15 17 16 18 17 30 18 32 19 19 20 29 21 28 22
REMARK SMILES IDX 21 23 20 24 25 25 22 26 23 27 26 28 27 29 8 30 9 31 10 32
REMARK SMILES IDX 24 33
REMARK H PARENT 24 34
REMARK Flexibility Score: inf
ROOT
ATOM      1  C   UNL     1     -10.231  26.061  39.678  1.00  0.00     0.017 C 
ATOM      2  C   UNL     1     -11.162  25.640  38.498  1.00  0.00     0.014 C 
ATOM      3  C   UNL     1      -9.160  27.088  39.173  1.00  0.00     0.014 C 
ATOM      4  C   UNL     1     -11.148  26.705  40.768  1.00  0.00     0.030 C 
ATOM      5  C   UNL     1     -12.320  24.717  38.934  1.00  0.00     0.004 C 
ATOM      6  C   UNL     1      -9.398  28.553  39.600  1.00  0.00     0.013 C 
ATOM      7  C   UNL     1     -10.340  27.570  41.739  1.00  0.00    -0.063 C 
ATOM      8  C   UNL     1     -12.265  25.743  41.298  1.00  0.00    -0.003 C 
ATOM      9  C   UNL     1     -13.155  25.322  40.088  1.00  0.00    -0.011 C 
ATOM     10  C   UNL     1      -9.634  28.796  41.152  1.00  0.00    -0.006 C 
ATOM     11  C   UNL     1     -10.439  27.440  43.067  1.00  0.00    -0.027 C 
ATOM     12  C   UNL     1     -11.774  24.516  42.110  1.00  0.00     0.008 C 
ATOM     13  C   UNL     1     -14.301  24.381  40.487  1.00  0.00     0.008 C 
ATOM     14  C   UNL     1     -10.676  29.956  41.263  1.00  0.00     0.017 C 
ATOM     15  C   UNL     1      -8.295  29.183  41.964  1.00  0.00    -0.020 C 
ATOM     16  C   UNL     1      -9.434  27.997  44.016  1.00  0.00     0.032 C 
ATOM     17  C   UNL     1      -8.562  29.203  43.540  1.00  0.00     0.006 C 
ATOM     18  C   UNL     1      -7.159  28.163  41.663  1.00  0.00     0.008 C 
ATOM     19  C   UNL     1      -7.829  30.602  41.480  1.00  0.00     0.012 C 
ATOM     20  C   UNL     1      -7.246  29.368  44.452  1.00  0.00    -0.025 C 
ATOM     21  C   UNL     1      -5.886  28.330  42.512  1.00  0.00     0.005 C 
ATOM     22  C   UNL     1      -6.186  28.278  44.027  1.00  0.00     0.003 C 
ATOM     23  C   UNL     1      -7.580  29.157  45.972  1.00  0.00     0.010 C 
ATOM     24  C   UNL     1      -6.711  30.836  44.318  1.00  0.00     0.012 C 
ATOM     25  C   UNL     1      -4.908  28.152  44.955  1.00  0.00    -0.006 C 
ATOM     26  C   UNL     1      -6.343  29.090  46.886  1.00  0.00     0.033 C 
ATOM     27  C   UNL     1      -5.361  27.996  46.444  1.00  0.00     0.120 C 
ATOM     28  C   UNL     1      -4.095  26.883  44.570  1.00  0.00     0.014 C 
ATOM     29  C   UNL     1      -3.926  29.346  44.826  1.00  0.00     0.014 C 
ENDROOT
BRANCH   1  30
ATOM     30  C   UNL     1      -9.459  24.858  40.211  1.00  0.00     0.048 C 
ATOM     31  O   UNL     1      -9.519  23.739  39.632  1.00  0.00    -0.550 OA
ATOM     32  O   UNL     1      -8.578  25.009  41.275  1.00  0.00    -0.550 OA
ENDBRANCH   1  30
BRANCH  27  33
ATOM     33  O   UNL     1      -5.977  26.744  46.648  1.00  0.00    -0.393 OA
ATOM     34  H   UNL     1      -5.361  26.047  46.304  1.00  0.00     0.210 HD
ENDBRANCH  27  33
TORSDOF 2
ENDMDL
MODEL 4
REMARK VINA RESULT:    -5.704      1.873      3.474
REMARK INTER + INTRA:          -6.112
REMARK INTER:                  -6.203
REMARK INTRA:                   0.091
REMARK UNBOUND:                 0.092
REMARK SMILES C[C@@H]1[C@H](C)CC[C@@]2(C(=O)[O-])CC[C@@]3(C)C(=CC[C@H]4[C@@]5(C)CC[C@@H](O)C(C)(C)[C@@H]5CC[C@]43C)[C@H]12
REMARK SMILES IDX 7 1 6 2 11 3 33 4 5 5 12 6 15 7 2 8 3 9 13 10 16 11 1 12
REMARK SMILES IDX 4 13 14 14 31 15 17 16 18 17 30 18 32 19 19 20 29 21 28 22
REMARK SMILES IDX 21 23 20 24 25 25 22 26 23 27 26 28 27 29 8 30 9 31 10 32
REMARK SMILES IDX 24 33
REMARK H PARENT 24 34
REMARK Flexibility Score: inf
ROOT
ATOM      1  C   UNL     1      -6.529  30.424  43.238  1.00  0.00     0.017 C 
ATOM      2  C   UNL     1      -5.177  30.984  43.784  1.00  0.00     0.014 C 
ATOM      3  C   UNL     1      -6.303  29.760  41.837  1.00  0.00     0.014 C 
ATOM      4  C   UNL     1      -7.033  29.372  44.278  1.00  0.00     0.030 C 
ATOM      5  C   UNL     1      -5.287  31.553  45.215  1.00  0.00     0.004 C 
ATOM      6  C   UNL     1      -6.326  28.217  41.827  1.00  0.00     0.013 C 
ATOM      7  C   UNL     1      -8.066  28.426  43.659  1.00  0.00    -0.063 C 
ATOM      8  C   UNL     1      -7.251  29.960  45.713  1.00  0.00    -0.003 C 
ATOM      9  C   UNL     1      -5.888  30.534  46.212  1.00  0.00    -0.011 C 
ATOM     10  C   UNL     1      -7.588  27.534  42.509  1.00  0.00    -0.006 C 
ATOM     11  C   UNL     1      -9.248  28.180  44.236  1.00  0.00    -0.027 C 
ATOM     12  C   UNL     1      -8.400  30.991  45.857  1.00  0.00     0.008 C 
ATOM     13  C   UNL     1      -5.972  31.132  47.623  1.00  0.00     0.008 C 
ATOM     14  C   UNL     1      -7.066  26.230  43.197  1.00  0.00     0.017 C 
ATOM     15  C   UNL     1      -8.773  27.172  41.476  1.00  0.00    -0.020 C 
ATOM     16  C   UNL     1     -10.395  27.565  43.509  1.00  0.00     0.032 C 
ATOM     17  C   UNL     1     -10.086  26.690  42.252  1.00  0.00     0.006 C 
ATOM     18  C   UNL     1      -9.135  28.409  40.604  1.00  0.00     0.008 C 
ATOM     19  C   UNL     1      -8.258  26.030  40.531  1.00  0.00     0.012 C 
ATOM     20  C   UNL     1     -11.393  26.509  41.330  1.00  0.00    -0.025 C 
ATOM     21  C   UNL     1     -10.368  28.235  39.699  1.00  0.00     0.005 C 
ATOM     22  C   UNL     1     -11.626  27.832  40.502  1.00  0.00     0.003 C 
ATOM     23  C   UNL     1     -12.671  26.251  42.206  1.00  0.00     0.010 C 
ATOM     24  C   UNL     1     -11.212  25.239  40.429  1.00  0.00     0.012 C 
ATOM     25  C   UNL     1     -12.986  27.917  39.694  1.00  0.00    -0.006 C 
ATOM     26  C   UNL     1     -13.993  26.276  41.415  1.00  0.00     0.033 C 
ATOM     27  C   UNL     1     -14.180  27.595  40.652  1.00  0.00     0.120 C 
ATOM     28  C   UNL     1     -13.191  29.359  39.148  1.00  0.00     0.014 C 
ATOM     29  C   UNL     1     -13.035  26.979  38.459  1.00  0.00     0.014 C 
ENDROOT
BRANCH   1  30
ATOM     30  C   UNL     1      -7.533  31.553  43.026  1.00  0.00     0.048 C 
ATOM     31  O   UNL     1      -7.195  32.760  43.171  1.00  0.00    -0.550 OA
ATOM     32  O   UNL     1      -8.808  31.274  42.548  1.00  0.00    -0.550 OA
ENDBRANCH   1  30
BRANCH  27  33
ATOM     33  O   UNL     1     -14.353  28.627  41.597  1.00  0.00    -0.393 OA
ATOM     34  H   UNL     1     -14.402  28.207  42.495  1.00  0.00     0.210 HD
ENDBRANCH  27  33
TORSDOF 2
ENDMDL
MODEL 5
REMARK VINA RESULT:    -5.694     12.719     14.878
REMARK INTER + INTRA:          -6.102
REMARK INTER:                  -6.193
REMARK INTRA:                   0.092
REMARK UNBOUND:                 0.092
REMARK SMILES C[C@@H]1[C@H](C)CC[C@@]2(C(=O)[O-])CC[C@@]3(C)C(=CC[C@H]4[C@@]5(C)CC[C@@H](O)C(C)(C)[C@@H]5CC[C@]43C)[C@H]12
REMARK SMILES IDX 7 1 6 2 11 3 33 4 5 5 12 6 15 7 2 8 3 9 13 10 16 11 1 12
REMARK SMILES IDX 4 13 14 14 31 15 17 16 18 17 30 18 32 19 19 20 29 21 28 22
REMARK SMILES IDX 21 23 20 24 25 25 22 26 23 27 26 28 27 29 8 30 9 31 10 32
REMARK SMILES IDX 24 33
REMARK H PARENT 24 34
REMARK Flexibility Score: inf
ROOT
ATOM      1  C   UNL     1     -16.417  25.186  33.192  1.00  0.00     0.017 C 
ATOM      2  C   UNL     1     -17.677  26.090  33.011  1.00  0.00     0.014 C 
ATOM      3  C   UNL     1     -15.539  25.229  31.894  1.00  0.00     0.014 C 
ATOM      4  C   UNL     1     -15.628  25.753  34.416  1.00  0.00     0.030 C 
ATOM      5  C   UNL     1     -18.539  26.197  34.287  1.00  0.00     0.004 C 
ATOM      6  C   UNL     1     -14.243  26.062  32.002  1.00  0.00     0.013 C 
ATOM      7  C   UNL     1     -14.172  25.277  34.412  1.00  0.00    -0.063 C 
ATOM      8  C   UNL     1     -16.456  25.770  35.745  1.00  0.00    -0.003 C 
ATOM      9  C   UNL     1     -17.719  26.658  35.516  1.00  0.00    -0.011 C 
ATOM     10  C   UNL     1     -13.300  25.726  33.235  1.00  0.00    -0.006 C 
ATOM     11  C   UNL     1     -13.597  24.724  35.485  1.00  0.00    -0.027 C 
ATOM     12  C   UNL     1     -16.824  24.383  36.334  1.00  0.00     0.008 C 
ATOM     13  C   UNL     1     -18.611  26.761  36.762  1.00  0.00     0.008 C 
ATOM     14  C   UNL     1     -12.671  27.083  33.691  1.00  0.00     0.017 C 
ATOM     15  C   UNL     1     -12.131  24.667  32.896  1.00  0.00    -0.020 C 
ATOM     16  C   UNL     1     -12.330  23.942  35.416  1.00  0.00     0.032 C 
ATOM     17  C   UNL     1     -11.361  24.215  34.222  1.00  0.00     0.006 C 
ATOM     18  C   UNL     1     -12.723  23.403  32.207  1.00  0.00     0.008 C 
ATOM     19  C   UNL     1     -11.132  25.353  31.900  1.00  0.00     0.012 C 
ATOM     20  C   UNL     1     -10.320  23.003  34.025  1.00  0.00    -0.025 C 
ATOM     21  C   UNL     1     -11.728  22.248  31.991  1.00  0.00     0.005 C 
ATOM     22  C   UNL     1     -11.057  21.804  33.309  1.00  0.00     0.003 C 
ATOM     23  C   UNL     1      -9.781  22.489  35.407  1.00  0.00     0.010 C 
ATOM     24  C   UNL     1      -9.072  23.524  33.231  1.00  0.00     0.012 C 
ATOM     25  C   UNL     1     -10.246  20.445  33.219  1.00  0.00    -0.006 C 
ATOM     26  C   UNL     1      -8.945  21.199  35.318  1.00  0.00     0.033 C 
ATOM     27  C   UNL     1      -9.719  20.059  34.640  1.00  0.00     0.120 C 
ATOM     28  C   UNL     1     -11.181  19.301  32.733  1.00  0.00     0.014 C 
ATOM     29  C   UNL     1      -9.066  20.491  32.215  1.00  0.00     0.014 C 
ENDROOT
BRANCH   1  30
ATOM     30  C   UNL     1     -16.823  23.729  33.392  1.00  0.00     0.048 C 
ATOM     31  O   UNL     1     -18.030  23.373  33.302  1.00  0.00    -0.550 OA
ATOM     32  O   UNL     1     -15.852  22.749  33.555  1.00  0.00    -0.550 OA
ENDBRANCH   1  30
BRANCH  27  33
ATOM     33  O   UNL     1     -10.788  19.691  35.485  1.00  0.00    -0.393 OA
ATOM     34  H   UNL     1     -10.504  19.864  36.420  1.00  0.00     0.210 HD
ENDBRANCH  27  33
TORSDOF 2
ENDMDL
MODEL 6
REMARK VINA RESULT:    -5.662      1.115      7.487
REMARK INTER + INTRA:          -6.067
REMARK INTER:                  -6.167
REMARK INTRA:                   0.100
REMARK UNBOUND:                 0.092
REMARK SMILES C[C@@H]1[C@H](C)CC[C@@]2(C(=O)[O-])CC[C@@]3(C)C(=CC[C@H]4[C@@]5(C)CC[C@@H](O)C(C)(C)[C@@H]5CC[C@]43C)[C@H]12
REMARK SMILES IDX 7 1 6 2 11 3 33 4 5 5 12 6 15 7 2 8 3 9 13 10 16 11 1 12
REMARK SMILES IDX 4 13 14 14 31 15 17 16 18 17 30 18 32 19 19 20 29 21 28 22
REMARK SMILES IDX 21 23 20 24 25 25 22 26 23 27 26 28 27 29 8 30 9 31 10 32
REMARK SMILES IDX 24 33
REMARK H PARENT 24 34
REMARK Flexibility Score: inf
ROOT
ATOM      1  C   UNL     1     -10.100  28.348  41.661  1.00  0.00     0.017 C 
ATOM      2  C   UNL     1     -10.974  27.411  40.769  1.00  0.00     0.014 C 
ATOM      3  C   UNL     1     -10.305  27.987  43.172  1.00  0.00     0.014 C 
ATOM      4  C   UNL     1      -8.614  28.123  41.232  1.00  0.00     0.030 C 
ATOM      5  C   UNL     1     -10.743  27.621  39.257  1.00  0.00     0.004 C 
ATOM      6  C   UNL     1      -9.135  27.227  43.833  1.00  0.00     0.013 C 
ATOM      7  C   UNL     1      -7.642  28.601  42.314  1.00  0.00    -0.063 C 
ATOM      8  C   UNL     1      -8.342  28.434  39.721  1.00  0.00    -0.003 C 
ATOM      9  C   UNL     1      -9.251  27.500  38.864  1.00  0.00    -0.011 C 
ATOM     10  C   UNL     1      -7.697  27.879  43.663  1.00  0.00    -0.006 C 
ATOM     11  C   UNL     1      -6.617  29.418  42.044  1.00  0.00    -0.027 C 
ATOM     12  C   UNL     1      -8.478  29.920  39.299  1.00  0.00     0.008 C 
ATOM     13  C   UNL     1      -9.064  27.705  37.354  1.00  0.00     0.008 C 
ATOM     14  C   UNL     1      -6.687  26.692  43.530  1.00  0.00     0.017 C 
ATOM     15  C   UNL     1      -7.261  28.833  44.890  1.00  0.00    -0.020 C 
ATOM     16  C   UNL     1      -5.881  30.174  43.097  1.00  0.00     0.032 C 
ATOM     17  C   UNL     1      -5.909  29.618  44.557  1.00  0.00     0.006 C 
ATOM     18  C   UNL     1      -8.378  29.871  45.198  1.00  0.00     0.008 C 
ATOM     19  C   UNL     1      -7.060  27.928  46.157  1.00  0.00     0.012 C 
ATOM     20  C   UNL     1      -5.501  30.754  45.623  1.00  0.00    -0.025 C 
ATOM     21  C   UNL     1      -8.007  30.946  46.236  1.00  0.00     0.005 C 
ATOM     22  C   UNL     1      -6.730  31.721  45.839  1.00  0.00     0.003 C 
ATOM     23  C   UNL     1      -4.293  31.610  45.102  1.00  0.00     0.010 C 
ATOM     24  C   UNL     1      -5.016  30.065  46.945  1.00  0.00     0.012 C 
ATOM     25  C   UNL     1      -6.448  33.023  46.697  1.00  0.00    -0.006 C 
ATOM     26  C   UNL     1      -3.978  32.847  45.964  1.00  0.00     0.033 C 
ATOM     27  C   UNL     1      -5.199  33.765  46.118  1.00  0.00     0.120 C 
ATOM     28  C   UNL     1      -7.661  33.992  46.606  1.00  0.00     0.014 C 
ATOM     29  C   UNL     1      -6.238  32.738  48.207  1.00  0.00     0.014 C 
ENDROOT
BRANCH   1  30
ATOM     30  C   UNL     1     -10.533  29.802  41.500  1.00  0.00     0.048 C 
ATOM     31  O   UNL     1     -11.579  30.102  40.862  1.00  0.00    -0.550 OA
ATOM     32  O   UNL     1      -9.847  30.813  42.162  1.00  0.00    -0.550 OA
ENDBRANCH   1  30
BRANCH  27  33
ATOM     33  O   UNL     1      -5.491  34.322  44.856  1.00  0.00    -0.393 OA
ATOM     34  H   UNL     1      -5.362  33.610  44.177  1.00  0.00     0.210 HD
ENDBRANCH  27  33
TORSDOF 2
ENDMDL
MODEL 7
REMARK VINA RESULT:    -5.639      7.748     12.599
REMARK INTER + INTRA:          -6.042
REMARK INTER:                  -6.132
REMARK INTRA:                   0.090
REMARK UNBOUND:                 0.092
REMARK SMILES C[C@@H]1[C@H](C)CC[C@@]2(C(=O)[O-])CC[C@@]3(C)C(=CC[C@H]4[C@@]5(C)CC[C@@H](O)C(C)(C)[C@@H]5CC[C@]43C)[C@H]12
REMARK SMILES IDX 7 1 6 2 11 3 33 4 5 5 12 6 15 7 2 8 3 9 13 10 16 11 1 12
REMARK SMILES IDX 4 13 14 14 31 15 17 16 18 17 30 18 32 19 19 20 29 21 28 22
REMARK SMILES IDX 21 23 20 24 25 25 22 26 23 27 26 28 27 29 8 30 9 31 10 32
REMARK SMILES IDX 24 33
REMARK H PARENT 24 34
REMARK Flexibility Score: inf
ROOT
ATOM      1  C   UNL     1     -14.367  24.113  39.736  1.00  0.00     0.017 C 
ATOM      2  C   UNL     1     -13.816  23.557  41.086  1.00  0.00     0.014 C 
ATOM      3  C   UNL     1     -15.519  23.190  39.209  1.00  0.00     0.014 C 
ATOM      4  C   UNL     1     -14.898  25.554  40.025  1.00  0.00     0.030 C 
ATOM      5  C   UNL     1     -12.755  24.471  41.734  1.00  0.00     0.004 C 
ATOM      6  C   UNL     1     -16.944  23.762  39.361  1.00  0.00     0.013 C 
ATOM      7  C   UNL     1     -15.871  26.020  38.938  1.00  0.00    -0.063 C 
ATOM      8  C   UNL     1     -13.804  26.526  40.585  1.00  0.00    -0.003 C 
ATOM      9  C   UNL     1     -13.259  25.924  41.917  1.00  0.00    -0.011 C 
ATOM     10  C   UNL     1     -17.172  25.226  38.787  1.00  0.00    -0.006 C 
ATOM     11  C   UNL     1     -15.743  27.200  38.321  1.00  0.00    -0.027 C 
ATOM     12  C   UNL     1     -12.660  26.897  39.606  1.00  0.00     0.008 C 
ATOM     13  C   UNL     1     -12.181  26.799  42.572  1.00  0.00     0.008 C 
ATOM     14  C   UNL     1     -18.188  25.924  39.748  1.00  0.00     0.017 C 
ATOM     15  C   UNL     1     -17.739  25.255  37.276  1.00  0.00    -0.020 C 
ATOM     16  C   UNL     1     -16.437  27.529  37.042  1.00  0.00     0.032 C 
ATOM     17  C   UNL     1     -17.740  26.743  36.690  1.00  0.00     0.006 C 
ATOM     18  C   UNL     1     -16.871  24.355  36.349  1.00  0.00     0.008 C 
ATOM     19  C   UNL     1     -19.200  24.684  37.298  1.00  0.00     0.012 C 
ATOM     20  C   UNL     1     -18.085  26.856  35.121  1.00  0.00    -0.025 C 
ATOM     21  C   UNL     1     -17.211  24.437  34.850  1.00  0.00     0.005 C 
ATOM     22  C   UNL     1     -17.137  25.885  34.316  1.00  0.00     0.003 C 
ATOM     23  C   UNL     1     -17.848  28.317  34.595  1.00  0.00     0.010 C 
ATOM     24  C   UNL     1     -19.608  26.552  34.909  1.00  0.00     0.012 C 
ATOM     25  C   UNL     1     -17.188  26.015  32.737  1.00  0.00    -0.006 C 
ATOM     26  C   UNL     1     -17.952  28.459  33.065  1.00  0.00     0.033 C 
ATOM     27  C   UNL     1     -16.990  27.513  32.333  1.00  0.00     0.120 C 
ATOM     28  C   UNL     1     -16.032  25.194  32.099  1.00  0.00     0.014 C 
ATOM     29  C   UNL     1     -18.498  25.469  32.111  1.00  0.00     0.014 C 
ENDROOT
BRANCH   1  30
ATOM     30  C   UNL     1     -13.280  24.102  38.665  1.00  0.00     0.048 C 
ATOM     31  O   UNL     1     -12.148  23.594  38.892  1.00  0.00    -0.550 OA
ATOM     32  O   UNL     1     -13.563  24.543  37.378  1.00  0.00    -0.550 OA
ENDBRANCH   1  30
BRANCH  27  33
ATOM     33  O   UNL     1     -15.671  27.932  32.604  1.00  0.00    -0.393 OA
ATOM     34  H   UNL     1     -15.528  28.793  32.133  1.00  0.00     0.210 HD
ENDBRANCH  27  33
TORSDOF 2
ENDMDL
MODEL 8
REMARK VINA RESULT:    -5.510     11.932     16.382
REMARK INTER + INTRA:          -5.902
REMARK INTER:                  -5.994
REMARK INTRA:                   0.092
REMARK UNBOUND:                 0.092
REMARK SMILES C[C@@H]1[C@H](C)CC[C@@]2(C(=O)[O-])CC[C@@]3(C)C(=CC[C@H]4[C@@]5(C)CC[C@@H](O)C(C)(C)[C@@H]5CC[C@]43C)[C@H]12
REMARK SMILES IDX 7 1 6 2 11 3 33 4 5 5 12 6 15 7 2 8 3 9 13 10 16 11 1 12
REMARK SMILES IDX 4 13 14 14 31 15 17 16 18 17 30 18 32 19 19 20 29 21 28 22
REMARK SMILES IDX 21 23 20 24 25 25 22 26 23 27 26 28 27 29 8 30 9 31 10 32
REMARK SMILES IDX 24 33
REMARK H PARENT 24 34
REMARK Flexibility Score: inf
ROOT
ATOM      1  C   UNL     1     -17.603  24.852  33.626  1.00  0.00     0.017 C 
ATOM      2  C   UNL     1     -17.568  23.418  33.010  1.00  0.00     0.014 C 
ATOM      3  C   UNL     1     -16.891  25.864  32.663  1.00  0.00     0.014 C 
ATOM      4  C   UNL     1     -19.109  25.227  33.811  1.00  0.00     0.030 C 
ATOM      5  C   UNL     1     -18.350  22.379  33.841  1.00  0.00     0.004 C 
ATOM      6  C   UNL     1     -17.834  26.804  31.880  1.00  0.00     0.013 C 
ATOM      7  C   UNL     1     -19.296  26.740  33.951  1.00  0.00    -0.063 C 
ATOM      8  C   UNL     1     -19.893  24.238  34.739  1.00  0.00    -0.003 C 
ATOM      9  C   UNL     1     -19.811  22.814  34.107  1.00  0.00    -0.011 C 
ATOM     10  C   UNL     1     -18.899  27.601  32.748  1.00  0.00    -0.006 C 
ATOM     11  C   UNL     1     -20.004  27.285  34.947  1.00  0.00    -0.027 C 
ATOM     12  C   UNL     1     -19.475  24.233  36.232  1.00  0.00     0.008 C 
ATOM     13  C   UNL     1     -20.559  21.752  34.926  1.00  0.00     0.008 C 
ATOM     14  C   UNL     1     -20.193  27.700  31.875  1.00  0.00     0.017 C 
ATOM     15  C   UNL     1     -18.417  29.079  33.180  1.00  0.00    -0.020 C 
ATOM     16  C   UNL     1     -19.914  28.727  35.314  1.00  0.00     0.032 C 
ATOM     17  C   UNL     1     -19.437  29.736  34.221  1.00  0.00     0.006 C 
ATOM     18  C   UNL     1     -17.005  29.023  33.833  1.00  0.00     0.008 C 
ATOM     19  C   UNL     1     -18.331  29.958  31.883  1.00  0.00     0.012 C 
ATOM     20  C   UNL     1     -18.942  31.119  34.879  1.00  0.00    -0.025 C 
ATOM     21  C   UNL     1     -16.512  30.348  34.442  1.00  0.00     0.005 C 
ATOM     22  C   UNL     1     -17.500  30.911  35.488  1.00  0.00     0.003 C 
ATOM     23  C   UNL     1     -19.901  31.569  36.039  1.00  0.00     0.010 C 
ATOM     24  C   UNL     1     -18.999  32.251  33.796  1.00  0.00     0.012 C 
ATOM     25  C   UNL     1     -16.935  32.107  36.361  1.00  0.00    -0.006 C 
ATOM     26  C   UNL     1     -19.382  32.767  36.856  1.00  0.00     0.033 C 
ATOM     27  C   UNL     1     -17.991  32.500  37.447  1.00  0.00     0.120 C 
ATOM     28  C   UNL     1     -15.640  31.661  37.098  1.00  0.00     0.014 C 
ATOM     29  C   UNL     1     -16.547  33.356  35.528  1.00  0.00     0.014 C 
ENDROOT
BRANCH   1  30
ATOM     30  C   UNL     1     -16.832  24.893  34.942  1.00  0.00     0.048 C 
ATOM     31  O   UNL     1     -16.204  23.882  35.358  1.00  0.00    -0.550 OA
ATOM     32  O   UNL     1     -16.710  26.086  35.644  1.00  0.00    -0.550 OA
ENDBRANCH   1  30
BRANCH  27  33
ATOM     33  O   UNL     1     -18.113  31.482  38.415  1.00  0.00    -0.393 OA
ATOM     34  H   UNL     1     -18.888  30.918  38.160  1.00  0.00     0.210 HD
ENDBRANCH  27  33
TORSDOF 2
ENDMDL
MODEL 9
REMARK VINA RESULT:    -5.411     10.985     13.587
REMARK INTER + INTRA:          -5.794
REMARK INTER:                  -5.902
REMARK INTRA:                   0.108
REMARK UNBOUND:                 0.092
REMARK SMILES C[C@@H]1[C@H](C)CC[C@@]2(C(=O)[O-])CC[C@@]3(C)C(=CC[C@H]4[C@@]5(C)CC[C@@H](O)C(C)(C)[C@@H]5CC[C@]43C)[C@H]12
REMARK SMILES IDX 7 1 6 2 11 3 33 4 5 5 12 6 15 7 2 8 3 9 13 10 16 11 1 12
REMARK SMILES IDX 4 13 14 14 31 15 17 16 18 17 30 18 32 19 19 20 29 21 28 22
REMARK SMILES IDX 21 23 20 24 25 25 22 26 23 27 26 28 27 29 8 30 9 31 10 32
REMARK SMILES IDX 24 33
REMARK H PARENT 24 34
REMARK Flexibility Score: inf
ROOT
ATOM      1  C   UNL     1     -10.073  18.648  41.115  1.00  0.00     0.017 C 
ATOM      2  C   UNL     1     -10.252  18.390  42.644  1.00  0.00     0.014 C 
ATOM      3  C   UNL     1     -10.509  20.113  40.767  1.00  0.00     0.014 C 
ATOM      4  C   UNL     1      -8.559  18.428  40.795  1.00  0.00     0.030 C 
ATOM      5  C   UNL     1      -9.735  17.007  43.093  1.00  0.00     0.004 C 
ATOM      6  C   UNL     1      -9.353  21.095  40.480  1.00  0.00     0.013 C 
ATOM      7  C   UNL     1      -8.165  19.094  39.473  1.00  0.00    -0.063 C 
ATOM      8  C   UNL     1      -8.044  16.992  41.147  1.00  0.00    -0.003 C 
ATOM      9  C   UNL     1      -8.265  16.761  42.675  1.00  0.00    -0.011 C 
ATOM     10  C   UNL     1      -8.287  20.619  39.403  1.00  0.00    -0.006 C 
ATOM     11  C   UNL     1      -7.503  18.441  38.512  1.00  0.00    -0.027 C 
ATOM     12  C   UNL     1      -8.628  15.834  40.297  1.00  0.00     0.008 C 
ATOM     13  C   UNL     1      -7.785  15.381  43.146  1.00  0.00     0.008 C 
ATOM     14  C   UNL     1      -6.901  21.160  39.885  1.00  0.00     0.017 C 
ATOM     15  C   UNL     1      -8.589  21.144  37.907  1.00  0.00    -0.020 C 
ATOM     16  C   UNL     1      -7.417  18.930  37.106  1.00  0.00     0.032 C 
ATOM     17  C   UNL     1      -7.609  20.459  36.847  1.00  0.00     0.006 C 
ATOM     18  C   UNL     1     -10.059  20.829  37.504  1.00  0.00     0.008 C 
ATOM     19  C   UNL     1      -8.393  22.701  37.893  1.00  0.00     0.012 C 
ATOM     20  C   UNL     1      -7.964  20.749  35.303  1.00  0.00    -0.025 C 
ATOM     21  C   UNL     1     -10.415  21.129  36.037  1.00  0.00     0.005 C 
ATOM     22  C   UNL     1      -9.481  20.394  35.050  1.00  0.00     0.003 C 
ATOM     23  C   UNL     1      -7.088  19.865  34.346  1.00  0.00     0.010 C 
ATOM     24  C   UNL     1      -7.614  22.241  34.970  1.00  0.00     0.012 C 
ATOM     25  C   UNL     1      -9.957  20.419  33.538  1.00  0.00    -0.006 C 
ATOM     26  C   UNL     1      -7.512  19.930  32.866  1.00  0.00     0.033 C 
ATOM     27  C   UNL     1      -8.987  19.548  32.674  1.00  0.00     0.120 C 
ATOM     28  C   UNL     1     -11.380  19.804  33.420  1.00  0.00     0.014 C 
ATOM     29  C   UNL     1     -10.055  21.847  32.941  1.00  0.00     0.014 C 
ENDROOT
BRANCH   1  30
ATOM     30  C   UNL     1     -10.975  17.724  40.303  1.00  0.00     0.048 C 
ATOM     31  O   UNL     1     -11.756  16.913  40.873  1.00  0.00    -0.550 OA
ATOM     32  O   UNL     1     -11.040  17.847  38.921  1.00  0.00    -0.550 OA
ENDBRANCH   1  30
BRANCH  27  33
ATOM     33  O   UNL     1      -9.131  18.181  32.989  1.00  0.00    -0.393 OA
ATOM     34  H   UNL     1      -8.853  18.060  33.934  1.00  0.00     0.210 HD
ENDBRANCH  27  33
TORSDOF 2
ENDMDL
