MODEL 1
REMARK VINA RESULT:    -5.479      0.000      0.000
REMARK INTER + INTRA:          -6.262
REMARK INTER:                  -6.119
REMARK INTRA:                  -0.143
REMARK UNBOUND:                -0.143
REMARK SMILES O=C([O-])C=Cc1ccccc1
REMARK SMILES IDX 4 1 5 2 2 3 1 4 3 5 6 6 7 7 11 8 8 9 10 10 9 11
REMARK H PARENT
REMARK Flexibility Score: inf
ROOT
ATOM      1  C   UNL     1       7.009 -18.091  21.107  1.00  0.00     0.025 C 
ATOM      2  C   UNL     1       6.691 -19.307  20.640  1.00  0.00     0.010 C 
ENDROOT
BRANCH   1   3
ATOM      3  C   UNL     1       6.102 -16.938  20.975  1.00  0.00     0.064 C 
ATOM      4  O   UNL     1       6.539 -15.756  21.006  1.00  0.00    -0.545 OA
ATOM      5  O   UNL     1       4.741 -17.156  20.813  1.00  0.00    -0.545 OA
ENDBRANCH   1   3
BRANCH   2   6
ATOM      6  C   UNL     1       7.560 -20.512  20.741  1.00  0.00    -0.026 A 
ATOM      7  C   UNL     1       7.059 -21.832  20.749  1.00  0.00     0.008 A 
ATOM      8  C   UNL     1       8.951 -20.320  20.832  1.00  0.00     0.008 A 
ATOM      9  C   UNL     1       7.931 -22.921  20.847  1.00  0.00     0.001 A 
ATOM     10  C   UNL     1       9.818 -21.413  20.929  1.00  0.00     0.001 A 
ATOM     11  C   UNL     1       9.309 -22.711  20.936  1.00  0.00     0.000 A 
ENDBRANCH   2   6
TORSDOF 2
ENDMDL
MODEL 2
REMARK VINA RESULT:    -5.172     11.318     11.890
REMARK INTER + INTRA:          -5.919
REMARK INTER:                  -5.791
REMARK INTRA:                  -0.128
REMARK UNBOUND:                -0.143
REMARK SMILES O=C([O-])C=Cc1ccccc1
REMARK SMILES IDX 4 1 5 2 2 3 1 4 3 5 6 6 7 7 11 8 8 9 10 10 9 11
REMARK H PARENT
REMARK Flexibility Score: inf
ROOT
ATOM      1  C   UNL     1      11.864 -14.420  29.441  1.00  0.00     0.025 C 
ATOM      2  C   UNL     1      12.332 -15.200  30.428  1.00  0.00     0.010 C 
ENDROOT
BRANCH   1   3
ATOM      3  C   UNL     1      12.748 -13.570  28.627  1.00  0.00     0.064 C 
ATOM      4  O   UNL     1      12.417 -12.396  28.312  1.00  0.00    -0.545 OA
ATOM      5  O   UNL     1      13.970 -14.071  28.198  1.00  0.00    -0.545 OA
ENDBRANCH   1   3
BRANCH   2   6
ATOM      6  C   UNL     1      11.493 -16.082  31.286  1.00  0.00    -0.026 A 
ATOM      7  C   UNL     1      10.385 -15.616  32.028  1.00  0.00     0.008 A 
ATOM      8  C   UNL     1      11.826 -17.447  31.359  1.00  0.00     0.008 A 
ATOM      9  C   UNL     1       9.639 -16.498  32.816  1.00  0.00     0.001 A 
ATOM     10  C   UNL     1      11.074 -18.324  32.148  1.00  0.00     0.001 A 
ATOM     11  C   UNL     1       9.983 -17.850  32.875  1.00  0.00     0.000 A 
ENDBRANCH   2   6
TORSDOF 2
ENDMDL
MODEL 3
REMARK VINA RESULT:    -5.171     11.288     11.931
REMARK INTER + INTRA:          -5.918
REMARK INTER:                  -5.782
REMARK INTRA:                  -0.136
REMARK UNBOUND:                -0.143
REMARK SMILES O=C([O-])C=Cc1ccccc1
REMARK SMILES IDX 4 1 5 2 2 3 1 4 3 5 6 6 7 7 11 8 8 9 10 10 9 11
REMARK H PARENT
REMARK Flexibility Score: inf
ROOT
ATOM      1  C   UNL     1      11.922 -14.495  29.485  1.00  0.00     0.025 C 
ATOM      2  C   UNL     1      12.384 -15.278  30.471  1.00  0.00     0.010 C 
ENDROOT
BRANCH   1   3
ATOM      3  C   UNL     1      12.808 -13.622  28.696  1.00  0.00     0.064 C 
ATOM      4  O   UNL     1      12.352 -12.642  28.049  1.00  0.00    -0.545 OA
ATOM      5  O   UNL     1      14.171 -13.884  28.665  1.00  0.00    -0.545 OA
ENDBRANCH   1   3
BRANCH   2   6
ATOM      6  C   UNL     1      11.543 -16.182  31.305  1.00  0.00    -0.026 A 
ATOM      7  C   UNL     1      11.819 -17.556  31.479  1.00  0.00     0.008 A 
ATOM      8  C   UNL     1      10.419 -15.634  31.949  1.00  0.00     0.008 A 
ATOM      9  C   UNL     1      10.988 -18.350  32.276  1.00  0.00     0.001 A 
ATOM     10  C   UNL     1       9.593 -16.433  32.746  1.00  0.00     0.001 A 
ATOM     11  C   UNL     1       9.877 -17.789  32.909  1.00  0.00     0.000 A 
ENDBRANCH   2   6
TORSDOF 2
ENDMDL
MODEL 4
REMARK VINA RESULT:    -5.158     10.402     11.257
REMARK INTER + INTRA:          -5.905
REMARK INTER:                  -5.774
REMARK INTRA:                  -0.131
REMARK UNBOUND:                -0.143
REMARK SMILES O=C([O-])C=Cc1ccccc1
REMARK SMILES IDX 4 1 5 2 2 3 1 4 3 5 6 6 7 7 11 8 8 9 10 10 9 11
REMARK H PARENT
REMARK Flexibility Score: inf
ROOT
ATOM      1  C   UNL     1      11.796 -13.586  27.322  1.00  0.00     0.025 C 
ATOM      2  C   UNL     1      12.641 -13.550  28.364  1.00  0.00     0.010 C 
ENDROOT
BRANCH   1   3
ATOM      3  C   UNL     1      11.929 -12.673  26.173  1.00  0.00     0.064 C 
ATOM      4  O   UNL     1      10.981 -12.502  25.362  1.00  0.00    -0.545 OA
ATOM      5  O   UNL     1      13.123 -11.991  25.980  1.00  0.00    -0.545 OA
ENDBRANCH   1   3
BRANCH   2   6
ATOM      6  C   UNL     1      12.562 -14.442  29.554  1.00  0.00    -0.026 A 
ATOM      7  C   UNL     1      11.342 -14.895  30.105  1.00  0.00     0.008 A 
ATOM      8  C   UNL     1      13.765 -14.853  30.155  1.00  0.00     0.008 A 
ATOM      9  C   UNL     1      11.338 -15.732  31.225  1.00  0.00     0.001 A 
ATOM     10  C   UNL     1      13.754 -15.691  31.274  1.00  0.00     0.001 A 
ATOM     11  C   UNL     1      12.543 -16.130  31.809  1.00  0.00     0.000 A 
ENDBRANCH   2   6
TORSDOF 2
ENDMDL
MODEL 5
REMARK VINA RESULT:    -5.134     10.428     11.341
REMARK INTER + INTRA:          -5.878
REMARK INTER:                  -5.732
REMARK INTRA:                  -0.146
REMARK UNBOUND:                -0.143
REMARK SMILES O=C([O-])C=Cc1ccccc1
REMARK SMILES IDX 4 1 5 2 2 3 1 4 3 5 6 6 7 7 11 8 8 9 10 10 9 11
REMARK H PARENT
REMARK Flexibility Score: inf
ROOT
ATOM      1  C   UNL     1      11.777 -13.571  27.490  1.00  0.00     0.025 C 
ATOM      2  C   UNL     1      12.783 -13.778  28.354  1.00  0.00     0.010 C 
ENDROOT
BRANCH   1   3
ATOM      3  C   UNL     1      11.936 -12.738  26.286  1.00  0.00     0.064 C 
ATOM      4  O   UNL     1      10.981 -12.563  25.483  1.00  0.00    -0.545 OA
ATOM      5  O   UNL     1      13.160 -12.134  26.031  1.00  0.00    -0.545 OA
ENDBRANCH   1   3
BRANCH   2   6
ATOM      6  C   UNL     1      12.689 -14.607  29.587  1.00  0.00    -0.026 A 
ATOM      7  C   UNL     1      13.818 -15.069  30.300  1.00  0.00     0.008 A 
ATOM      8  C   UNL     1      11.408 -14.945  30.063  1.00  0.00     0.008 A 
ATOM      9  C   UNL     1      13.659 -15.845  31.452  1.00  0.00     0.001 A 
ATOM     10  C   UNL     1      11.257 -15.721  31.216  1.00  0.00     0.001 A 
ATOM     11  C   UNL     1      12.381 -16.170  31.910  1.00  0.00     0.000 A 
ENDBRANCH   2   6
TORSDOF 2
ENDMDL
MODEL 6
REMARK VINA RESULT:    -5.077     12.219     12.893
REMARK INTER + INTRA:          -5.814
REMARK INTER:                  -5.680
REMARK INTRA:                  -0.135
REMARK UNBOUND:                -0.143
REMARK SMILES O=C([O-])C=Cc1ccccc1
REMARK SMILES IDX 4 1 5 2 2 3 1 4 3 5 6 6 7 7 11 8 8 9 10 10 9 11
REMARK H PARENT
REMARK Flexibility Score: inf
ROOT
ATOM      1  C   UNL     1       9.967 -20.520  32.282  1.00  0.00     0.025 C 
ATOM      2  C   UNL     1      10.199 -19.428  33.026  1.00  0.00     0.010 C 
ENDROOT
BRANCH   1   3
ATOM      3  C   UNL     1       9.594 -21.813  32.881  1.00  0.00     0.064 C 
ATOM      4  O   UNL     1       8.746 -21.882  33.810  1.00  0.00    -0.545 OA
ATOM      5  O   UNL     1      10.189 -22.977  32.415  1.00  0.00    -0.545 OA
ENDBRANCH   1   3
BRANCH   2   6
ATOM      6  C   UNL     1      10.579 -18.094  32.484  1.00  0.00    -0.026 A 
ATOM      7  C   UNL     1       9.827 -16.920  32.715  1.00  0.00     0.008 A 
ATOM      8  C   UNL     1      11.746 -18.003  31.703  1.00  0.00     0.008 A 
ATOM      9  C   UNL     1      10.240 -15.698  32.176  1.00  0.00     0.001 A 
ATOM     10  C   UNL     1      12.153 -16.777  31.168  1.00  0.00     0.001 A 
ATOM     11  C   UNL     1      11.401 -15.626  31.404  1.00  0.00     0.000 A 
ENDBRANCH   2   6
TORSDOF 2
ENDMDL
MODEL 7
REMARK VINA RESULT:    -5.035     11.850     12.540
REMARK INTER + INTRA:          -5.767
REMARK INTER:                  -5.636
REMARK INTRA:                  -0.132
REMARK UNBOUND:                -0.143
REMARK SMILES O=C([O-])C=Cc1ccccc1
REMARK SMILES IDX 4 1 5 2 2 3 1 4 3 5 6 6 7 7 11 8 8 9 10 10 9 11
REMARK H PARENT
REMARK Flexibility Score: inf
ROOT
ATOM      1  C   UNL     1      10.816 -18.539  32.032  1.00  0.00     0.025 C 
ATOM      2  C   UNL     1      10.841 -17.201  32.134  1.00  0.00     0.010 C 
ENDROOT
BRANCH   1   3
ATOM      3  C   UNL     1       9.908 -19.371  32.840  1.00  0.00     0.064 C 
ATOM      4  O   UNL     1      10.278 -19.863  33.940  1.00  0.00    -0.545 OA
ATOM      5  O   UNL     1       8.621 -19.618  32.382  1.00  0.00    -0.545 OA
ENDBRANCH   1   3
BRANCH   2   6
ATOM      6  C   UNL     1      11.732 -16.304  31.348  1.00  0.00    -0.026 A 
ATOM      7  C   UNL     1      11.252 -15.344  30.430  1.00  0.00     0.008 A 
ATOM      8  C   UNL     1      13.122 -16.422  31.534  1.00  0.00     0.008 A 
ATOM      9  C   UNL     1      12.145 -14.532  29.723  1.00  0.00     0.001 A 
ATOM     10  C   UNL     1      14.009 -15.606  30.825  1.00  0.00     0.001 A 
ATOM     11  C   UNL     1      13.521 -14.663  29.921  1.00  0.00     0.000 A 
ENDBRANCH   2   6
TORSDOF 2
ENDMDL
MODEL 8
REMARK VINA RESULT:    -4.994      2.911      5.298
REMARK INTER + INTRA:          -5.721
REMARK INTER:                  -5.580
REMARK INTRA:                  -0.141
REMARK UNBOUND:                -0.143
REMARK SMILES O=C([O-])C=Cc1ccccc1
REMARK SMILES IDX 4 1 5 2 2 3 1 4 3 5 6 6 7 7 11 8 8 9 10 10 9 11
REMARK H PARENT
REMARK Flexibility Score: inf
ROOT
ATOM      1  C   UNL     1       8.062 -19.720  21.075  1.00  0.00     0.025 C 
ATOM      2  C   UNL     1       6.916 -19.484  20.417  1.00  0.00     0.010 C 
ENDROOT
BRANCH   1   3
ATOM      3  C   UNL     1       8.873 -20.925  20.830  1.00  0.00     0.064 C 
ATOM      4  O   UNL     1      10.113 -20.848  20.626  1.00  0.00    -0.545 OA
ATOM      5  O   UNL     1       8.258 -22.171  20.823  1.00  0.00    -0.545 OA
ENDBRANCH   1   3
BRANCH   2   6
ATOM      6  C   UNL     1       6.052 -18.288  20.617  1.00  0.00    -0.026 A 
ATOM      7  C   UNL     1       4.647 -18.313  20.468  1.00  0.00     0.008 A 
ATOM      8  C   UNL     1       6.670 -17.075  20.972  1.00  0.00     0.008 A 
ATOM      9  C   UNL     1       3.893 -17.153  20.671  1.00  0.00     0.001 A 
ATOM     10  C   UNL     1       5.910 -15.919  21.173  1.00  0.00     0.001 A 
ATOM     11  C   UNL     1       4.524 -15.958  21.023  1.00  0.00     0.000 A 
ENDBRANCH   2   6
TORSDOF 2
ENDMDL
MODEL 9
REMARK VINA RESULT:    -4.928      5.550      7.155
REMARK INTER + INTRA:          -5.647
REMARK INTER:                  -5.509
REMARK INTRA:                  -0.138
REMARK UNBOUND:                -0.143
REMARK SMILES O=C([O-])C=Cc1ccccc1
REMARK SMILES IDX 4 1 5 2 2 3 1 4 3 5 6 6 7 7 11 8 8 9 10 10 9 11
REMARK H PARENT
REMARK Flexibility Score: inf
ROOT
ATOM      1  C   UNL     1      11.422 -23.401  21.600  1.00  0.00     0.025 C 
ATOM      2  C   UNL     1      11.093 -24.300  22.540  1.00  0.00     0.010 C 
ENDROOT
BRANCH   1   3
ATOM      3  C   UNL     1      10.417 -22.780  20.721  1.00  0.00     0.064 C 
ATOM      4  O   UNL     1      10.747 -22.237  19.634  1.00  0.00    -0.545 OA
ATOM      5  O   UNL     1       9.081 -22.794  21.098  1.00  0.00    -0.545 OA
ENDBRANCH   1   3
BRANCH   2   6
ATOM      6  C   UNL     1      12.058 -24.963  23.459  1.00  0.00    -0.026 A 
ATOM      7  C   UNL     1      11.838 -25.102  24.847  1.00  0.00     0.008 A 
ATOM      8  C   UNL     1      13.248 -25.477  22.912  1.00  0.00     0.008 A 
ATOM      9  C   UNL     1      12.787 -25.736  25.655  1.00  0.00     0.001 A 
ATOM     10  C   UNL     1      14.192 -26.112  23.725  1.00  0.00     0.001 A 
ATOM     11  C   UNL     1      13.962 -26.241  25.095  1.00  0.00     0.000 A 
ENDBRANCH   2   6
TORSDOF 2
ENDMDL
