MODEL 1
REMARK VINA RESULT:    -9.120      0.000      0.000
REMARK INTER + INTRA:         -11.291
REMARK INTER:                 -10.986
REMARK INTRA:                  -0.305
REMARK UNBOUND:                -0.305
REMARK SMILES O=c1c(O)c(-c2ccc(O)c(O)c2)oc2cc(O)cc(O)c12
REMARK SMILES IDX 5 1 3 2 2 3 1 4 22 5 20 6 19 7 17 8 16 9 15 10 14 11 6 12
REMARK SMILES IDX 7 13 8 14 9 15 13 16 11 17 10 18 12 20 4 22 21 24 18 26
REMARK H PARENT 10 19 12 21 4 23 21 25 18 27
REMARK Flexibility Score: inf
ROOT
ATOM      1  C   UNL     1       3.571 -71.508 208.892  1.00  0.00     0.180 A 
ATOM      2  C   UNL     1       3.748 -72.561 207.978  1.00  0.00     0.208 A 
ATOM      3  C   UNL     1       4.492 -72.331 206.810  1.00  0.00     0.238 A 
ATOM      4  O   UNL     1       4.600 -73.262 205.969  1.00  0.00    -0.285 OA
ATOM      5  C   UNL     1       5.063 -71.057 206.577  1.00  0.00     0.111 A 
ATOM      6  C   UNL     1       5.869 -70.725 205.448  1.00  0.00     0.134 A 
ATOM      7  C   UNL     1       6.273 -69.398 205.254  1.00  0.00     0.093 A 
ATOM      8  C   UNL     1       5.957 -68.406 206.181  1.00  0.00     0.123 A 
ATOM      9  C   UNL     1       5.220 -68.732 207.320  1.00  0.00     0.094 A 
ATOM     10  C   UNL     1       4.772 -70.040 207.523  1.00  0.00     0.146 A 
ATOM     11  O   UNL     1       4.064 -70.306 208.614  1.00  0.00    -0.452 OA
ENDROOT
BRANCH   1  12
ATOM     12  C   UNL     1       2.821 -71.679 210.157  1.00  0.00     0.025 A 
ATOM     13  C   UNL     1       3.484 -71.902 211.376  1.00  0.00     0.016 A 
ATOM     14  C   UNL     1       2.756 -72.037 212.562  1.00  0.00     0.051 A 
ATOM     15  C   UNL     1       1.362 -71.937 212.551  1.00  0.00     0.157 A 
ATOM     16  C   UNL     1       1.421 -71.559 210.153  1.00  0.00     0.062 A 
ATOM     17  C   UNL     1       0.690 -71.694 211.342  1.00  0.00     0.158 A 
BRANCH  15  18
ATOM     18  O   UNL     1       0.663 -72.078 213.750  1.00  0.00    -0.504 OA
ATOM     19  H   UNL     1       1.131 -72.084 214.648  1.00  0.00     0.293 HD
ENDBRANCH  15  18
BRANCH  17  20
ATOM     20  O   UNL     1      -0.700 -71.586 211.324  1.00  0.00    -0.504 OA
ATOM     21  H   UNL     1      -1.183 -70.860 211.839  1.00  0.00     0.293 HD
ENDBRANCH  17  20
ENDBRANCH   1  12
BRANCH   2  22
ATOM     22  O   UNL     1       3.156 -73.805 208.217  1.00  0.00    -0.502 OA
ATOM     23  H   UNL     1       2.608 -74.290 207.517  1.00  0.00     0.293 HD
ENDBRANCH   2  22
BRANCH   6  24
ATOM     24  O   UNL     1       6.319 -71.658 204.508  1.00  0.00    -0.507 OA
ATOM     25  H   UNL     1       5.846 -72.519 204.282  1.00  0.00     0.293 HD
ENDBRANCH   6  24
BRANCH   8  26
ATOM     26  O   UNL     1       6.390 -67.099 205.965  1.00  0.00    -0.508 OA
ATOM     27  H   UNL     1       7.333 -66.809 206.193  1.00  0.00     0.293 HD
ENDBRANCH   8  26
TORSDOF 6
ENDMDL
MODEL 2
REMARK VINA RESULT:    -8.520      1.208      2.875
REMARK INTER + INTRA:         -10.568
REMARK INTER:                 -10.262
REMARK INTRA:                  -0.306
REMARK UNBOUND:                -0.305
REMARK SMILES O=c1c(O)c(-c2ccc(O)c(O)c2)oc2cc(O)cc(O)c12
REMARK SMILES IDX 5 1 3 2 2 3 1 4 22 5 20 6 19 7 17 8 16 9 15 10 14 11 6 12
REMARK SMILES IDX 7 13 8 14 9 15 13 16 11 17 10 18 12 20 4 22 21 24 18 26
REMARK H PARENT 10 19 12 21 4 23 21 25 18 27
REMARK Flexibility Score: inf
ROOT
ATOM      1  C   UNL     1       3.637 -70.881 209.004  1.00  0.00     0.180 A 
ATOM      2  C   UNL     1       4.169 -69.598 208.787  1.00  0.00     0.208 A 
ATOM      3  C   UNL     1       4.849 -69.338 207.586  1.00  0.00     0.238 A 
ATOM      4  O   UNL     1       5.370 -68.203 207.420  1.00  0.00    -0.285 OA
ATOM      5  C   UNL     1       4.974 -70.357 206.612  1.00  0.00     0.111 A 
ATOM      6  C   UNL     1       5.607 -70.192 205.343  1.00  0.00     0.134 A 
ATOM      7  C   UNL     1       5.789 -71.303 204.512  1.00  0.00     0.093 A 
ATOM      8  C   UNL     1       5.303 -72.560 204.873  1.00  0.00     0.123 A 
ATOM      9  C   UNL     1       4.630 -72.720 206.084  1.00  0.00     0.094 A 
ATOM     10  C   UNL     1       4.465 -71.637 206.951  1.00  0.00     0.146 A 
ATOM     11  O   UNL     1       3.829 -71.834 208.100  1.00  0.00    -0.452 OA
ENDROOT
BRANCH   1  12
ATOM     12  C   UNL     1       2.887 -71.225 210.234  1.00  0.00     0.025 A 
ATOM     13  C   UNL     1       3.551 -71.587 211.418  1.00  0.00     0.016 A 
ATOM     14  C   UNL     1       2.824 -71.884 212.573  1.00  0.00     0.051 A 
ATOM     15  C   UNL     1       1.429 -71.811 212.569  1.00  0.00     0.157 A 
ATOM     16  C   UNL     1       1.485 -71.133 210.238  1.00  0.00     0.062 A 
ATOM     17  C   UNL     1       0.754 -71.431 211.397  1.00  0.00     0.158 A 
BRANCH  15  18
ATOM     18  O   UNL     1       0.729 -72.115 213.737  1.00  0.00    -0.504 OA
ATOM     19  H   UNL     1      -0.020 -71.528 214.084  1.00  0.00     0.293 HD
ENDBRANCH  15  18
BRANCH  17  20
ATOM     20  O   UNL     1      -0.637 -71.350 211.386  1.00  0.00    -0.504 OA
ATOM     21  H   UNL     1      -1.121 -70.495 211.634  1.00  0.00     0.293 HD
ENDBRANCH  17  20
ENDBRANCH   1  12
BRANCH   2  22
ATOM     22  O   UNL     1       4.053 -68.613 209.771  1.00  0.00    -0.502 OA
ATOM     23  H   UNL     1       3.390 -68.681 210.534  1.00  0.00     0.293 HD
ENDBRANCH   2  22
BRANCH   6  24
ATOM     24  O   UNL     1       6.047 -68.961 204.845  1.00  0.00    -0.507 OA
ATOM     25  H   UNL     1       6.602 -68.844 204.012  1.00  0.00     0.293 HD
ENDBRANCH   6  24
BRANCH   8  26
ATOM     26  O   UNL     1       5.488 -73.641 204.014  1.00  0.00    -0.508 OA
ATOM     27  H   UNL     1       5.013 -73.695 203.120  1.00  0.00     0.293 HD
ENDBRANCH   8  26
TORSDOF 6
ENDMDL
MODEL 3
REMARK VINA RESULT:    -6.239      3.128      6.078
REMARK INTER + INTRA:          -7.820
REMARK INTER:                  -7.846
REMARK INTRA:                   0.025
REMARK UNBOUND:                -0.305
REMARK SMILES O=c1c(O)c(-c2ccc(O)c(O)c2)oc2cc(O)cc(O)c12
REMARK SMILES IDX 5 1 3 2 2 3 1 4 22 5 20 6 19 7 17 8 16 9 15 10 14 11 6 12
REMARK SMILES IDX 7 13 8 14 9 15 13 16 11 17 10 18 12 20 4 22 21 24 18 26
REMARK H PARENT 10 19 12 21 4 23 21 25 18 27
REMARK Flexibility Score: inf
ROOT
ATOM      1  C   UNL     1       3.415 -73.722 207.001  1.00  0.00     0.180 A 
ATOM      2  C   UNL     1       4.551 -73.004 206.590  1.00  0.00     0.208 A 
ATOM      3  C   UNL     1       4.913 -71.843 207.293  1.00  0.00     0.238 A 
ATOM      4  O   UNL     1       5.899 -71.174 206.886  1.00  0.00    -0.285 OA
ATOM      5  C   UNL     1       4.146 -71.425 208.406  1.00  0.00     0.111 A 
ATOM      6  C   UNL     1       4.445 -70.288 209.216  1.00  0.00     0.134 A 
ATOM      7  C   UNL     1       3.544 -69.893 210.212  1.00  0.00     0.093 A 
ATOM      8  C   UNL     1       2.389 -70.630 210.472  1.00  0.00     0.123 A 
ATOM      9  C   UNL     1       2.117 -71.777 209.726  1.00  0.00     0.094 A 
ATOM     10  C   UNL     1       2.978 -72.176 208.701  1.00  0.00     0.146 A 
ATOM     11  O   UNL     1       2.678 -73.268 208.008  1.00  0.00    -0.452 OA
ENDROOT
BRANCH   1  12
ATOM     12  C   UNL     1       2.983 -74.968 206.326  1.00  0.00     0.025 A 
ATOM     13  C   UNL     1       2.690 -76.132 207.057  1.00  0.00     0.016 A 
ATOM     14  C   UNL     1       2.261 -77.288 206.401  1.00  0.00     0.051 A 
ATOM     15  C   UNL     1       2.105 -77.297 205.012  1.00  0.00     0.157 A 
ATOM     16  C   UNL     1       2.806 -74.973 204.932  1.00  0.00     0.062 A 
ATOM     17  C   UNL     1       2.376 -76.134 204.273  1.00  0.00     0.158 A 
BRANCH  15  18
ATOM     18  O   UNL     1       1.677 -78.467 204.385  1.00  0.00    -0.504 OA
ATOM     19  H   UNL     1       1.687 -79.364 204.855  1.00  0.00     0.293 HD
ENDBRANCH  15  18
BRANCH  17  20
ATOM     20  O   UNL     1       2.216 -76.133 202.888  1.00  0.00    -0.504 OA
ATOM     21  H   UNL     1       1.586 -76.778 202.425  1.00  0.00     0.293 HD
ENDBRANCH  17  20
ENDBRANCH   1  12
BRANCH   2  22
ATOM     22  O   UNL     1       5.281 -73.422 205.474  1.00  0.00    -0.502 OA
ATOM     23  H   UNL     1       4.992 -73.216 204.525  1.00  0.00     0.293 HD
ENDBRANCH   2  22
BRANCH   6  24
ATOM     24  O   UNL     1       5.618 -69.535 209.100  1.00  0.00    -0.507 OA
ATOM     25  H   UNL     1       5.895 -69.027 208.275  1.00  0.00     0.293 HD
ENDBRANCH   6  24
BRANCH   8  26
ATOM     26  O   UNL     1       1.522 -70.217 211.482  1.00  0.00    -0.508 OA
ATOM     27  H   UNL     1       0.603 -70.630 211.593  1.00  0.00     0.293 HD
ENDBRANCH   8  26
TORSDOF 6
ENDMDL
