MODEL 1
REMARK VINA RESULT:    -6.720      0.000      0.000
REMARK INTER + INTRA:         -15.934
REMARK INTER:                 -12.809
REMARK INTRA:                  -3.125
REMARK UNBOUND:                -3.125
REMARK SMILES C[C@@H]1O[C@@H](O[C@H]2[C@H](O)[C@H](OCCc3ccc(O)c(O)c3)O[C@@H](CO)[C@H]2OC(=O)C=Cc2ccc(O)c(O)c2)[C@@H](O)[C@H](O)[C@@H]1O
REMARK SMILES IDX 6 1 7 2 9 3 21 4 22 5 25 6 5 7 4 8 1 9 2 10 43 11 3 12 41 13
REMARK SMILES IDX 39 14 44 15 42 17 40 19 8 21 26 23 27 24 28 25 29 26 30 27
REMARK SMILES IDX 31 28 38 29 32 30 36 31 33 32 34 33 37 34 35 36 10 38 11 39
REMARK SMILES IDX 12 40 13 41 20 42 14 43 18 44 15 45 16 46 19 47 17 49 23 51
REMARK SMILES IDX 24 52
REMARK H PARENT 44 16 42 18 40 20 8 22 37 35 35 37 19 48 17 50 24 53
REMARK Flexibility Score: inf
ROOT
ATOM      1  C   UNL     1      69.214  45.403   8.702  1.00  0.00     0.199 C 
ATOM      2  C   UNL     1      69.414  44.609   7.401  1.00  0.00     0.203 C 
ATOM      3  C   UNL     1      70.591  43.593   7.462  1.00  0.00     0.282 C 
ATOM      4  O   UNL     1      71.757  44.190   8.034  1.00  0.00    -0.340 OA
ATOM      5  C   UNL     1      71.487  44.667   9.344  1.00  0.00     0.190 C 
ATOM      6  C   UNL     1      70.579  45.910   9.238  1.00  0.00     0.240 C 
ENDROOT
BRANCH   1   7
ATOM      7  O   UNL     1      68.427  46.526   8.414  1.00  0.00    -0.340 OA
BRANCH   7   8
ATOM      8  C   UNL     1      67.784  47.159   9.519  1.00  0.00     0.282 C 
ATOM      9  C   UNL     1      64.657  45.255   9.339  1.00  0.00     0.041 C 
ATOM     10  C   UNL     1      65.916  45.945   8.803  1.00  0.00     0.150 C 
ATOM     11  C   UNL     1      65.611  47.180   7.860  1.00  0.00     0.174 C 
ATOM     12  O   UNL     1      66.736  46.291   9.927  1.00  0.00    -0.344 OA
ATOM     13  C   UNL     1      65.747  48.530   8.605  1.00  0.00     0.179 C 
ATOM     14  C   UNL     1      67.159  48.592   9.271  1.00  0.00     0.202 C 
BRANCH  11  15
ATOM     15  O   UNL     1      64.383  47.049   7.184  1.00  0.00    -0.388 OA
ATOM     16  H   UNL     1      64.485  46.363   6.464  1.00  0.00     0.211 HD
ENDBRANCH  11  15
BRANCH  13  17
ATOM     17  O   UNL     1      64.777  48.545   9.617  1.00  0.00    -0.387 OA
ATOM     18  H   UNL     1      64.847  47.698  10.138  1.00  0.00     0.211 HD
ENDBRANCH  13  17
BRANCH  14  19
ATOM     19  O   UNL     1      68.010  49.447   8.565  1.00  0.00    -0.385 OA
ATOM     20  H   UNL     1      67.757  49.321   7.608  1.00  0.00     0.211 HD
ENDBRANCH  14  19
ENDBRANCH   7   8
ENDBRANCH   1   7
BRANCH   2  21
ATOM     21  O   UNL     1      68.208  43.986   6.980  1.00  0.00    -0.385 OA
ATOM     22  H   UNL     1      67.525  44.695   6.891  1.00  0.00     0.211 HD
ENDBRANCH   2  21
BRANCH   6  23
ATOM     23  O   UNL     1      71.113  46.857   8.305  1.00  0.00    -0.453 OA
BRANCH  23  24
ATOM     24  C   UNL     1      71.491  48.175   8.608  1.00  0.00     0.331 C 
ATOM     25  O   UNL     1      70.745  48.861   9.360  1.00  0.00    -0.247 OA
BRANCH  24  26
ATOM     26  C   UNL     1      72.883  48.638   8.440  1.00  0.00     0.094 C 
ATOM     27  C   UNL     1      73.621  48.476   7.346  1.00  0.00     0.016 C 
BRANCH  27  28
ATOM     28  C   UNL     1      73.284  47.597   6.218  1.00  0.00    -0.021 A 
ATOM     29  C   UNL     1      72.392  48.022   5.212  1.00  0.00     0.058 A 
ATOM     30  C   UNL     1      73.995  46.405   6.049  1.00  0.00     0.012 A 
ATOM     31  C   UNL     1      72.277  47.310   4.012  1.00  0.00     0.157 A 
ATOM     32  C   UNL     1      73.849  45.660   4.870  1.00  0.00     0.051 A 
ATOM     33  C   UNL     1      72.993  46.100   3.858  1.00  0.00     0.157 A 
BRANCH  31  34
ATOM     34  O   UNL     1      71.450  47.782   2.989  1.00  0.00    -0.504 OA
ATOM     35  H   UNL     1      70.447  47.907   3.108  1.00  0.00     0.293 HD
ENDBRANCH  31  34
BRANCH  33  36
ATOM     36  O   UNL     1      72.924  45.378   2.662  1.00  0.00    -0.504 OA
ATOM     37  H   UNL     1      73.642  45.474   1.935  1.00  0.00     0.293 HD
ENDBRANCH  33  36
ENDBRANCH  27  28
ENDBRANCH  24  26
ENDBRANCH  23  24
ENDBRANCH   6  23
BRANCH   3  38
ATOM     38  O   UNL     1      70.258  42.415   8.194  1.00  0.00    -0.350 OA
BRANCH  38  39
ATOM     39  C   UNL     1      70.455  41.243   7.424  1.00  0.00     0.168 C 
BRANCH  39  40
ATOM     40  C   UNL     1      71.865  40.617   7.591  1.00  0.00     0.064 C 
BRANCH  40  41
ATOM     41  C   UNL     1      72.706  40.701   6.340  1.00  0.00    -0.042 A 
ATOM     42  C   UNL     1      72.595  39.705   5.356  1.00  0.00     0.054 A 
ATOM     43  C   UNL     1      73.516  41.821   6.086  1.00  0.00     0.008 A 
ATOM     44  C   UNL     1      73.237  39.833   4.126  1.00  0.00     0.157 A 
ATOM     45  C   UNL     1      74.222  41.919   4.890  1.00  0.00     0.050 A 
ATOM     46  C   UNL     1      74.072  40.951   3.894  1.00  0.00     0.157 A 
BRANCH  44  47
ATOM     47  O   UNL     1      73.021  38.843   3.166  1.00  0.00    -0.504 OA
ATOM     48  H   UNL     1      72.788  37.902   3.409  1.00  0.00     0.293 HD
ENDBRANCH  44  47
BRANCH  46  49
ATOM     49  O   UNL     1      74.763  41.144   2.701  1.00  0.00    -0.504 OA
ATOM     50  H   UNL     1      74.333  41.381   1.836  1.00  0.00     0.293 HD
ENDBRANCH  46  49
ENDBRANCH  40  41
ENDBRANCH  39  40
ENDBRANCH  38  39
ENDBRANCH   3  38
BRANCH   5  51
ATOM     51  C   UNL     1      72.795  44.925  10.116  1.00  0.00     0.192 C 
BRANCH  51  52
ATOM     52  O   UNL     1      73.798  45.438   9.285  1.00  0.00    -0.394 OA
ATOM     53  H   UNL     1      73.899  46.384   9.553  1.00  0.00     0.210 HD
ENDBRANCH  51  52
ENDBRANCH   5  51
TORSDOF 20
ENDMDL
MODEL 2
REMARK VINA RESULT:    -6.636      1.714      5.164
REMARK INTER + INTRA:         -15.775
REMARK INTER:                 -12.306
REMARK INTRA:                  -3.469
REMARK UNBOUND:                -3.125
REMARK SMILES C[C@@H]1O[C@@H](O[C@H]2[C@H](O)[C@H](OCCc3ccc(O)c(O)c3)O[C@@H](CO)[C@H]2OC(=O)C=Cc2ccc(O)c(O)c2)[C@@H](O)[C@H](O)[C@@H]1O
REMARK SMILES IDX 6 1 7 2 9 3 21 4 22 5 25 6 5 7 4 8 1 9 2 10 43 11 3 12 41 13
REMARK SMILES IDX 39 14 44 15 42 17 40 19 8 21 26 23 27 24 28 25 29 26 30 27
REMARK SMILES IDX 31 28 38 29 32 30 36 31 33 32 34 33 37 34 35 36 10 38 11 39
REMARK SMILES IDX 12 40 13 41 20 42 14 43 18 44 15 45 16 46 19 47 17 49 23 51
REMARK SMILES IDX 24 52
REMARK H PARENT 44 16 42 18 40 20 8 22 37 35 35 37 19 48 17 50 24 53
REMARK Flexibility Score: inf
ROOT
ATOM      1  C   UNL     1      68.322  46.342   7.946  1.00  0.00     0.199 C 
ATOM      2  C   UNL     1      68.416  47.215   9.207  1.00  0.00     0.203 C 
ATOM      3  C   UNL     1      69.876  47.567   9.618  1.00  0.00     0.282 C 
ATOM      4  O   UNL     1      70.716  46.411   9.574  1.00  0.00    -0.340 OA
ATOM      5  C   UNL     1      70.723  45.844   8.273  1.00  0.00     0.190 C 
ATOM      6  C   UNL     1      69.353  45.184   8.016  1.00  0.00     0.240 C 
ENDROOT
BRANCH   1   7
ATOM      7  O   UNL     1      67.043  45.771   7.903  1.00  0.00    -0.340 OA
BRANCH   7   8
ATOM      8  C   UNL     1      66.102  46.233   8.871  1.00  0.00     0.282 C 
ATOM      9  C   UNL     1      64.543  42.984   9.535  1.00  0.00     0.041 C 
ATOM     10  C   UNL     1      65.244  44.063   8.703  1.00  0.00     0.150 C 
ATOM     11  C   UNL     1      64.362  44.622   7.513  1.00  0.00     0.174 C 
ATOM     12  O   UNL     1      65.682  45.091   9.602  1.00  0.00    -0.344 OA
ATOM     13  C   UNL     1      63.698  45.975   7.864  1.00  0.00     0.179 C 
ATOM     14  C   UNL     1      64.809  46.969   8.333  1.00  0.00     0.202 C 
BRANCH  11  15
ATOM     15  O   UNL     1      63.443  43.670   7.033  1.00  0.00    -0.388 OA
ATOM     16  H   UNL     1      63.148  43.941   6.118  1.00  0.00     0.211 HD
ENDBRANCH  11  15
BRANCH  13  17
ATOM     17  O   UNL     1      62.827  45.744   8.939  1.00  0.00    -0.387 OA
ATOM     18  H   UNL     1      62.050  45.212   8.611  1.00  0.00     0.211 HD
ENDBRANCH  13  17
BRANCH  14  19
ATOM     19  O   UNL     1      65.088  47.914   7.341  1.00  0.00    -0.385 OA
ATOM     20  H   UNL     1      64.223  48.391   7.195  1.00  0.00     0.211 HD
ENDBRANCH  14  19
ENDBRANCH   7   8
ENDBRANCH   1   7
BRANCH   2  21
ATOM     21  O   UNL     1      67.610  48.381   9.098  1.00  0.00    -0.385 OA
ATOM     22  H   UNL     1      67.093  48.462   9.937  1.00  0.00     0.211 HD
ENDBRANCH   2  21
BRANCH   6  23
ATOM     23  O   UNL     1      68.991  44.314   9.095  1.00  0.00    -0.453 OA
BRANCH  23  24
ATOM     24  C   UNL     1      69.149  42.919   9.106  1.00  0.00     0.331 C 
ATOM     25  O   UNL     1      69.720  42.382  10.095  1.00  0.00    -0.247 OA
BRANCH  24  26
ATOM     26  C   UNL     1      68.330  42.042   8.245  1.00  0.00     0.094 C 
ATOM     27  C   UNL     1      68.750  41.441   7.136  1.00  0.00     0.016 C 
BRANCH  27  28
ATOM     28  C   UNL     1      70.006  41.738   6.435  1.00  0.00    -0.021 A 
ATOM     29  C   UNL     1      70.033  42.642   5.353  1.00  0.00     0.058 A 
ATOM     30  C   UNL     1      71.209  41.260   6.961  1.00  0.00     0.012 A 
ATOM     31  C   UNL     1      71.248  43.131   4.860  1.00  0.00     0.157 A 
ATOM     32  C   UNL     1      72.432  41.709   6.442  1.00  0.00     0.051 A 
ATOM     33  C   UNL     1      72.458  42.631   5.395  1.00  0.00     0.157 A 
BRANCH  31  34
ATOM     34  O   UNL     1      71.263  44.087   3.841  1.00  0.00    -0.504 OA
ATOM     35  H   UNL     1      71.658  43.903   2.921  1.00  0.00     0.293 HD
ENDBRANCH  31  34
BRANCH  33  36
ATOM     36  O   UNL     1      73.690  43.119   4.947  1.00  0.00    -0.504 OA
ATOM     37  H   UNL     1      74.505  43.173   5.569  1.00  0.00     0.293 HD
ENDBRANCH  33  36
ENDBRANCH  27  28
ENDBRANCH  24  26
ENDBRANCH  23  24
ENDBRANCH   6  23
BRANCH   3  38
ATOM     38  O   UNL     1      70.441  48.590   8.801  1.00  0.00    -0.350 OA
BRANCH  38  39
ATOM     39  C   UNL     1      71.684  49.043   9.308  1.00  0.00     0.168 C 
BRANCH  39  40
ATOM     40  C   UNL     1      72.675  49.504   8.208  1.00  0.00     0.064 C 
BRANCH  40  41
ATOM     41  C   UNL     1      72.884  48.474   7.125  1.00  0.00    -0.042 A 
ATOM     42  C   UNL     1      72.051  48.471   5.994  1.00  0.00     0.054 A 
ATOM     43  C   UNL     1      73.972  47.586   7.170  1.00  0.00     0.008 A 
ATOM     44  C   UNL     1      72.313  47.637   4.909  1.00  0.00     0.157 A 
ATOM     45  C   UNL     1      74.196  46.696   6.122  1.00  0.00     0.050 A 
ATOM     46  C   UNL     1      73.395  46.729   4.979  1.00  0.00     0.157 A 
BRANCH  44  47
ATOM     47  O   UNL     1      71.489  47.741   3.786  1.00  0.00    -0.504 OA
ATOM     48  H   UNL     1      70.841  47.026   3.529  1.00  0.00     0.293 HD
ENDBRANCH  44  47
BRANCH  46  49
ATOM     49  O   UNL     1      73.713  45.851   3.946  1.00  0.00    -0.504 OA
ATOM     50  H   UNL     1      73.189  45.036   3.722  1.00  0.00     0.293 HD
ENDBRANCH  46  49
ENDBRANCH  40  41
ENDBRANCH  39  40
ENDBRANCH  38  39
ENDBRANCH   3  38
BRANCH   5  51
ATOM     51  C   UNL     1      71.912  44.880   8.100  1.00  0.00     0.192 C 
BRANCH  51  52
ATOM     52  O   UNL     1      72.120  44.099   9.244  1.00  0.00    -0.394 OA
ATOM     53  H   UNL     1      71.582  44.529   9.954  1.00  0.00     0.210 HD
ENDBRANCH  51  52
ENDBRANCH   5  51
TORSDOF 20
ENDMDL
MODEL 3
REMARK VINA RESULT:    -6.602      1.961      6.995
REMARK INTER + INTRA:         -15.710
REMARK INTER:                 -12.638
REMARK INTRA:                  -3.072
REMARK UNBOUND:                -3.125
REMARK SMILES C[C@@H]1O[C@@H](O[C@H]2[C@H](O)[C@H](OCCc3ccc(O)c(O)c3)O[C@@H](CO)[C@H]2OC(=O)C=Cc2ccc(O)c(O)c2)[C@@H](O)[C@H](O)[C@@H]1O
REMARK SMILES IDX 6 1 7 2 9 3 21 4 22 5 25 6 5 7 4 8 1 9 2 10 43 11 3 12 41 13
REMARK SMILES IDX 39 14 44 15 42 17 40 19 8 21 26 23 27 24 28 25 29 26 30 27
REMARK SMILES IDX 31 28 38 29 32 30 36 31 33 32 34 33 37 34 35 36 10 38 11 39
REMARK SMILES IDX 12 40 13 41 20 42 14 43 18 44 15 45 16 46 19 47 17 49 23 51
REMARK SMILES IDX 24 52
REMARK H PARENT 44 16 42 18 40 20 8 22 37 35 35 37 19 48 17 50 24 53
REMARK Flexibility Score: inf
ROOT
ATOM      1  C   UNL     1      69.428  45.957   7.927  1.00  0.00     0.199 C 
ATOM      2  C   UNL     1      68.457  46.486   8.993  1.00  0.00     0.203 C 
ATOM      3  C   UNL     1      67.766  47.825   8.602  1.00  0.00     0.282 C 
ATOM      4  O   UNL     1      68.712  48.759   8.078  1.00  0.00    -0.340 OA
ATOM      5  C   UNL     1      69.368  48.224   6.938  1.00  0.00     0.190 C 
ATOM      6  C   UNL     1      70.327  47.107   7.400  1.00  0.00     0.240 C 
ENDROOT
BRANCH   1   7
ATOM      7  O   UNL     1      70.264  45.006   8.528  1.00  0.00    -0.340 OA
BRANCH   7   8
ATOM      8  C   UNL     1      70.987  44.143   7.653  1.00  0.00     0.282 C 
ATOM      9  C   UNL     1      68.317  41.675   7.189  1.00  0.00     0.041 C 
ATOM     10  C   UNL     1      69.143  42.729   7.933  1.00  0.00     0.150 C 
ATOM     11  C   UNL     1      69.908  42.162   9.198  1.00  0.00     0.174 C 
ATOM     12  O   UNL     1      70.020  43.347   6.982  1.00  0.00    -0.344 OA
ATOM     13  C   UNL     1      71.399  41.874   8.897  1.00  0.00     0.179 C 
ATOM     14  C   UNL     1      72.048  43.168   8.308  1.00  0.00     0.202 C 
BRANCH  11  15
ATOM     15  O   UNL     1      69.245  41.065   9.778  1.00  0.00    -0.388 OA
ATOM     16  H   UNL     1      69.808  40.248   9.655  1.00  0.00     0.211 HD
ENDBRANCH  11  15
BRANCH  13  17
ATOM     17  O   UNL     1      71.439  40.872   7.917  1.00  0.00    -0.387 OA
ATOM     18  H   UNL     1      70.561  40.854   7.444  1.00  0.00     0.211 HD
ENDBRANCH  13  17
BRANCH  14  19
ATOM     19  O   UNL     1      72.860  43.798   9.255  1.00  0.00    -0.385 OA
ATOM     20  H   UNL     1      73.029  44.707   8.878  1.00  0.00     0.211 HD
ENDBRANCH  14  19
ENDBRANCH   7   8
ENDBRANCH   1   7
BRANCH   2  21
ATOM     21  O   UNL     1      67.505  45.499   9.370  1.00  0.00    -0.385 OA
ATOM     22  H   UNL     1      66.641  45.960   9.506  1.00  0.00     0.211 HD
ENDBRANCH   2  21
BRANCH   6  23
ATOM     23  O   UNL     1      71.164  47.561   8.470  1.00  0.00    -0.453 OA
BRANCH  23  24
ATOM     24  C   UNL     1      72.568  47.526   8.478  1.00  0.00     0.331 C 
ATOM     25  O   UNL     1      73.148  46.621   9.138  1.00  0.00    -0.247 OA
BRANCH  24  26
ATOM     26  C   UNL     1      73.363  48.216   7.441  1.00  0.00     0.094 C 
ATOM     27  C   UNL     1      73.659  47.722   6.243  1.00  0.00     0.016 C 
BRANCH  27  28
ATOM     28  C   UNL     1      73.474  46.324   5.833  1.00  0.00    -0.021 A 
ATOM     29  C   UNL     1      72.479  45.970   4.898  1.00  0.00     0.058 A 
ATOM     30  C   UNL     1      74.410  45.367   6.235  1.00  0.00     0.012 A 
ATOM     31  C   UNL     1      72.473  44.702   4.305  1.00  0.00     0.157 A 
ATOM     32  C   UNL     1      74.383  44.079   5.682  1.00  0.00     0.051 A 
ATOM     33  C   UNL     1      73.420  43.740   4.730  1.00  0.00     0.157 A 
BRANCH  31  34
ATOM     34  O   UNL     1      71.533  44.387   3.321  1.00  0.00    -0.504 OA
ATOM     35  H   UNL     1      70.839  43.652   3.441  1.00  0.00     0.293 HD
ENDBRANCH  31  34
BRANCH  33  36
ATOM     36  O   UNL     1      73.462  42.473   4.139  1.00  0.00    -0.504 OA
ATOM     37  H   UNL     1      72.651  41.845   4.156  1.00  0.00     0.293 HD
ENDBRANCH  33  36
ENDBRANCH  27  28
ENDBRANCH  24  26
ENDBRANCH  23  24
ENDBRANCH   6  23
BRANCH   3  38
ATOM     38  O   UNL     1      66.714  47.640   7.657  1.00  0.00    -0.350 OA
BRANCH  38  39
ATOM     39  C   UNL     1      65.508  48.249   8.085  1.00  0.00     0.168 C 
BRANCH  39  40
ATOM     40  C   UNL     1      64.929  47.637   9.387  1.00  0.00     0.064 C 
BRANCH  40  41
ATOM     41  C   UNL     1      64.021  46.456   9.138  1.00  0.00    -0.042 A 
ATOM     42  C   UNL     1      64.213  45.656   8.001  1.00  0.00     0.054 A 
ATOM     43  C   UNL     1      63.057  46.072  10.086  1.00  0.00     0.008 A 
ATOM     44  C   UNL     1      63.497  44.474   7.823  1.00  0.00     0.157 A 
ATOM     45  C   UNL     1      62.283  44.933   9.877  1.00  0.00     0.050 A 
ATOM     46  C   UNL     1      62.510  44.113   8.770  1.00  0.00     0.157 A 
BRANCH  44  47
ATOM     47  O   UNL     1      63.794  43.687   6.708  1.00  0.00    -0.504 OA
ATOM     48  H   UNL     1      63.228  42.911   6.433  1.00  0.00     0.293 HD
ENDBRANCH  44  47
BRANCH  46  49
ATOM     49  O   UNL     1      61.739  42.959   8.656  1.00  0.00    -0.504 OA
ATOM     50  H   UNL     1      60.894  42.899   8.134  1.00  0.00     0.293 HD
ENDBRANCH  46  49
ENDBRANCH  40  41
ENDBRANCH  39  40
ENDBRANCH  38  39
ENDBRANCH   3  38
BRANCH   5  51
ATOM     51  C   UNL     1      70.063  49.337   6.130  1.00  0.00     0.192 C 
BRANCH  51  52
ATOM     52  O   UNL     1      70.530  48.870   4.896  1.00  0.00    -0.394 OA
ATOM     53  H   UNL     1      71.432  48.508   5.079  1.00  0.00     0.210 HD
ENDBRANCH  51  52
ENDBRANCH   5  51
TORSDOF 20
ENDMDL
MODEL 4
REMARK VINA RESULT:    -6.547      2.185      7.429
REMARK INTER + INTRA:         -15.604
REMARK INTER:                 -11.865
REMARK INTRA:                  -3.739
REMARK UNBOUND:                -3.125
REMARK SMILES C[C@@H]1O[C@@H](O[C@H]2[C@H](O)[C@H](OCCc3ccc(O)c(O)c3)O[C@@H](CO)[C@H]2OC(=O)C=Cc2ccc(O)c(O)c2)[C@@H](O)[C@H](O)[C@@H]1O
REMARK SMILES IDX 6 1 7 2 9 3 21 4 22 5 25 6 5 7 4 8 1 9 2 10 43 11 3 12 41 13
REMARK SMILES IDX 39 14 44 15 42 17 40 19 8 21 26 23 27 24 28 25 29 26 30 27
REMARK SMILES IDX 31 28 38 29 32 30 36 31 33 32 34 33 37 34 35 36 10 38 11 39
REMARK SMILES IDX 12 40 13 41 20 42 14 43 18 44 15 45 16 46 19 47 17 49 23 51
REMARK SMILES IDX 24 52
REMARK H PARENT 44 16 42 18 40 20 8 22 37 35 35 37 19 48 17 50 24 53
REMARK Flexibility Score: inf
ROOT
ATOM      1  C   UNL     1      69.404  46.373   8.663  1.00  0.00     0.199 C 
ATOM      2  C   UNL     1      68.650  46.896   7.430  1.00  0.00     0.203 C 
ATOM      3  C   UNL     1      67.142  46.510   7.408  1.00  0.00     0.282 C 
ATOM      4  O   UNL     1      66.958  45.131   7.734  1.00  0.00    -0.340 OA
ATOM      5  C   UNL     1      67.493  44.842   9.017  1.00  0.00     0.190 C 
ATOM      6  C   UNL     1      69.032  44.890   8.931  1.00  0.00     0.240 C 
ENDROOT
BRANCH   1   7
ATOM      7  O   UNL     1      70.777  46.424   8.391  1.00  0.00    -0.340 OA
BRANCH   7   8
ATOM      8  C   UNL     1      71.637  46.732   9.487  1.00  0.00     0.282 C 
ATOM      9  C   UNL     1      72.741  50.003   8.259  1.00  0.00     0.041 C 
ATOM     10  C   UNL     1      72.269  48.549   8.156  1.00  0.00     0.150 C 
ATOM     11  C   UNL     1      73.345  47.574   7.527  1.00  0.00     0.174 C 
ATOM     12  O   UNL     1      71.838  48.137   9.460  1.00  0.00    -0.344 OA
ATOM     13  C   UNL     1      74.105  46.767   8.608  1.00  0.00     0.179 C 
ATOM     14  C   UNL     1      73.059  46.037   9.511  1.00  0.00     0.202 C 
BRANCH  11  15
ATOM     15  O   UNL     1      74.207  48.233   6.630  1.00  0.00    -0.388 OA
ATOM     16  H   UNL     1      75.146  47.943   6.815  1.00  0.00     0.211 HD
ENDBRANCH  11  15
BRANCH  13  17
ATOM     17  O   UNL     1      74.806  47.689   9.397  1.00  0.00    -0.387 OA
ATOM     18  H   UNL     1      74.705  47.430  10.355  1.00  0.00     0.211 HD
ENDBRANCH  13  17
BRANCH  14  19
ATOM     19  O   UNL     1      73.008  44.672   9.217  1.00  0.00    -0.385 OA
ATOM     20  H   UNL     1      72.471  44.615   8.377  1.00  0.00     0.211 HD
ENDBRANCH  14  19
ENDBRANCH   7   8
ENDBRANCH   1   7
BRANCH   2  21
ATOM     21  O   UNL     1      68.833  48.295   7.260  1.00  0.00    -0.385 OA
ATOM     22  H   UNL     1      69.762  48.435   6.951  1.00  0.00     0.211 HD
ENDBRANCH   2  21
BRANCH   6  23
ATOM     23  O   UNL     1      69.510  44.094   7.841  1.00  0.00    -0.453 OA
BRANCH  23  24
ATOM     24  C   UNL     1      70.319  42.952   7.958  1.00  0.00     0.331 C 
ATOM     25  O   UNL     1      70.833  42.687   9.079  1.00  0.00    -0.247 OA
BRANCH  24  26
ATOM     26  C   UNL     1      70.253  41.854   6.973  1.00  0.00     0.094 C 
ATOM     27  C   UNL     1      71.086  41.685   5.951  1.00  0.00     0.016 C 
BRANCH  27  28
ATOM     28  C   UNL     1      72.051  42.683   5.470  1.00  0.00    -0.021 A 
ATOM     29  C   UNL     1      71.683  43.635   4.497  1.00  0.00     0.058 A 
ATOM     30  C   UNL     1      73.286  42.801   6.115  1.00  0.00     0.012 A 
ATOM     31  C   UNL     1      72.498  44.742   4.235  1.00  0.00     0.157 A 
ATOM     32  C   UNL     1      74.131  43.882   5.824  1.00  0.00     0.051 A 
ATOM     33  C   UNL     1      73.750  44.844   4.887  1.00  0.00     0.157 A 
BRANCH  31  34
ATOM     34  O   UNL     1      72.087  45.722   3.328  1.00  0.00    -0.504 OA
ATOM     35  H   UNL     1      71.197  45.675   2.836  1.00  0.00     0.293 HD
ENDBRANCH  31  34
BRANCH  33  36
ATOM     36  O   UNL     1      74.577  45.950   4.671  1.00  0.00    -0.504 OA
ATOM     37  H   UNL     1      75.041  46.106   3.769  1.00  0.00     0.293 HD
ENDBRANCH  33  36
ENDBRANCH  27  28
ENDBRANCH  24  26
ENDBRANCH  23  24
ENDBRANCH   6  23
BRANCH   3  38
ATOM     38  O   UNL     1      66.361  47.311   8.293  1.00  0.00    -0.350 OA
BRANCH  38  39
ATOM     39  C   UNL     1      65.005  47.376   7.887  1.00  0.00     0.168 C 
BRANCH  39  40
ATOM     40  C   UNL     1      64.001  47.006   9.010  1.00  0.00     0.064 C 
BRANCH  40  41
ATOM     41  C   UNL     1      63.368  45.649   8.819  1.00  0.00    -0.042 A 
ATOM     42  C   UNL     1      63.978  44.706   7.976  1.00  0.00     0.054 A 
ATOM     43  C   UNL     1      62.238  45.267   9.561  1.00  0.00     0.008 A 
ATOM     44  C   UNL     1      63.508  43.397   7.900  1.00  0.00     0.157 A 
ATOM     45  C   UNL     1      61.715  43.982   9.432  1.00  0.00     0.050 A 
ATOM     46  C   UNL     1      62.352  43.033   8.631  1.00  0.00     0.157 A 
BRANCH  44  47
ATOM     47  O   UNL     1      64.209  42.492   7.101  1.00  0.00    -0.504 OA
ATOM     48  H   UNL     1      64.779  42.783   6.334  1.00  0.00     0.293 HD
ENDBRANCH  44  47
BRANCH  46  49
ATOM     49  O   UNL     1      61.807  41.752   8.595  1.00  0.00    -0.504 OA
ATOM     50  H   UNL     1      61.977  41.090   7.872  1.00  0.00     0.293 HD
ENDBRANCH  46  49
ENDBRANCH  40  41
ENDBRANCH  39  40
ENDBRANCH  38  39
ENDBRANCH   3  38
BRANCH   5  51
ATOM     51  C   UNL     1      66.948  43.504   9.552  1.00  0.00     0.192 C 
BRANCH  51  52
ATOM     52  O   UNL     1      66.881  42.530   8.547  1.00  0.00    -0.394 OA
ATOM     53  H   UNL     1      65.986  42.638   8.140  1.00  0.00     0.210 HD
ENDBRANCH  51  52
ENDBRANCH   5  51
TORSDOF 20
ENDMDL
MODEL 5
REMARK VINA RESULT:    -6.509      1.666      5.455
REMARK INTER + INTRA:         -15.533
REMARK INTER:                 -12.575
REMARK INTRA:                  -2.958
REMARK UNBOUND:                -3.125
REMARK SMILES C[C@@H]1O[C@@H](O[C@H]2[C@H](O)[C@H](OCCc3ccc(O)c(O)c3)O[C@@H](CO)[C@H]2OC(=O)C=Cc2ccc(O)c(O)c2)[C@@H](O)[C@H](O)[C@@H]1O
REMARK SMILES IDX 6 1 7 2 9 3 21 4 22 5 25 6 5 7 4 8 1 9 2 10 43 11 3 12 41 13
REMARK SMILES IDX 39 14 44 15 42 17 40 19 8 21 26 23 27 24 28 25 29 26 30 27
REMARK SMILES IDX 31 28 38 29 32 30 36 31 33 32 34 33 37 34 35 36 10 38 11 39
REMARK SMILES IDX 12 40 13 41 20 42 14 43 18 44 15 45 16 46 19 47 17 49 23 51
REMARK SMILES IDX 24 52
REMARK H PARENT 44 16 42 18 40 20 8 22 37 35 35 37 19 48 17 50 24 53
REMARK Flexibility Score: inf
ROOT
ATOM      1  C   UNL     1      70.504  46.242   8.501  1.00  0.00     0.199 C 
ATOM      2  C   UNL     1      71.069  46.752   9.836  1.00  0.00     0.203 C 
ATOM      3  C   UNL     1      72.524  46.277  10.123  1.00  0.00     0.282 C 
ATOM      4  O   UNL     1      72.671  44.880   9.855  1.00  0.00    -0.340 OA
ATOM      5  C   UNL     1      72.345  44.590   8.504  1.00  0.00     0.190 C 
ATOM      6  C   UNL     1      70.820  44.733   8.324  1.00  0.00     0.240 C 
ENDROOT
BRANCH   1   7
ATOM      7  O   UNL     1      69.110  46.384   8.533  1.00  0.00    -0.340 OA
BRANCH   7   8
ATOM      8  C   UNL     1      68.540  47.314   7.614  1.00  0.00     0.282 C 
ATOM      9  C   UNL     1      67.004  49.502  10.121  1.00  0.00     0.041 C 
ATOM     10  C   UNL     1      67.506  48.183   9.525  1.00  0.00     0.150 C 
ATOM     11  C   UNL     1      66.355  47.133   9.247  1.00  0.00     0.174 C 
ATOM     12  O   UNL     1      68.269  48.497   8.353  1.00  0.00    -0.344 OA
ATOM     13  C   UNL     1      65.931  47.112   7.758  1.00  0.00     0.179 C 
ATOM     14  C   UNL     1      67.205  46.884   6.881  1.00  0.00     0.202 C 
BRANCH  11  15
ATOM     15  O   UNL     1      65.264  47.287  10.123  1.00  0.00    -0.388 OA
ATOM     16  H   UNL     1      65.007  46.387  10.477  1.00  0.00     0.211 HD
ENDBRANCH  11  15
BRANCH  13  17
ATOM     17  O   UNL     1      65.406  48.376   7.458  1.00  0.00    -0.387 OA
ATOM     18  H   UNL     1      64.945  48.731   8.269  1.00  0.00     0.211 HD
ENDBRANCH  13  17
BRANCH  14  19
ATOM     19  O   UNL     1      67.247  45.577   6.387  1.00  0.00    -0.385 OA
ATOM     20  H   UNL     1      67.197  44.998   7.199  1.00  0.00     0.211 HD
ENDBRANCH  14  19
ENDBRANCH   7   8
ENDBRANCH   1   7
BRANCH   2  21
ATOM     21  O   UNL     1      70.950  48.164   9.950  1.00  0.00    -0.385 OA
ATOM     22  H   UNL     1      70.021  48.359  10.226  1.00  0.00     0.211 HD
ENDBRANCH   2  21
BRANCH   6  23
ATOM     23  O   UNL     1      70.113  43.997   9.329  1.00  0.00    -0.453 OA
BRANCH  23  24
ATOM     24  C   UNL     1      69.577  42.709   9.171  1.00  0.00     0.331 C 
ATOM     25  O   UNL     1      69.988  41.785   9.925  1.00  0.00    -0.247 OA
BRANCH  24  26
ATOM     26  C   UNL     1      68.293  42.488   8.475  1.00  0.00     0.094 C 
ATOM     27  C   UNL     1      68.157  41.970   7.258  1.00  0.00     0.016 C 
BRANCH  27  28
ATOM     28  C   UNL     1      69.249  41.766   6.296  1.00  0.00    -0.021 A 
ATOM     29  C   UNL     1      69.754  42.841   5.537  1.00  0.00     0.058 A 
ATOM     30  C   UNL     1      69.910  40.534   6.268  1.00  0.00     0.012 A 
ATOM     31  C   UNL     1      70.955  42.715   4.829  1.00  0.00     0.157 A 
ATOM     32  C   UNL     1      71.088  40.385   5.523  1.00  0.00     0.051 A 
ATOM     33  C   UNL     1      71.608  41.460   4.801  1.00  0.00     0.157 A 
BRANCH  31  34
ATOM     34  O   UNL     1      71.489  43.810   4.145  1.00  0.00    -0.504 OA
ATOM     35  H   UNL     1      72.345  43.750   3.596  1.00  0.00     0.293 HD
ENDBRANCH  31  34
BRANCH  33  36
ATOM     36  O   UNL     1      72.824  41.305   4.128  1.00  0.00    -0.504 OA
ATOM     37  H   UNL     1      72.902  41.466   3.117  1.00  0.00     0.293 HD
ENDBRANCH  33  36
ENDBRANCH  27  28
ENDBRANCH  24  26
ENDBRANCH  23  24
ENDBRANCH   6  23
BRANCH   3  38
ATOM     38  O   UNL     1      73.493  47.005   9.371  1.00  0.00    -0.350 OA
BRANCH  38  39
ATOM     39  C   UNL     1      73.426  48.396   9.634  1.00  0.00     0.168 C 
BRANCH  39  40
ATOM     40  C   UNL     1      73.459  49.274   8.355  1.00  0.00     0.064 C 
BRANCH  40  41
ATOM     41  C   UNL     1      73.106  48.512   7.101  1.00  0.00    -0.042 A 
ATOM     42  C   UNL     1      71.905  48.791   6.429  1.00  0.00     0.054 A 
ATOM     43  C   UNL     1      74.013  47.607   6.525  1.00  0.00     0.008 A 
ATOM     44  C   UNL     1      71.624  48.220   5.189  1.00  0.00     0.157 A 
ATOM     45  C   UNL     1      73.704  46.973   5.323  1.00  0.00     0.050 A 
ATOM     46  C   UNL     1      72.532  47.289   4.634  1.00  0.00     0.157 A 
BRANCH  44  47
ATOM     47  O   UNL     1      70.446  48.601   4.542  1.00  0.00    -0.504 OA
ATOM     48  H   UNL     1      70.378  49.439   4.003  1.00  0.00     0.293 HD
ENDBRANCH  44  47
BRANCH  46  49
ATOM     49  O   UNL     1      72.317  46.660   3.411  1.00  0.00    -0.504 OA
ATOM     50  H   UNL     1      71.430  46.586   2.967  1.00  0.00     0.293 HD
ENDBRANCH  46  49
ENDBRANCH  40  41
ENDBRANCH  39  40
ENDBRANCH  38  39
ENDBRANCH   3  38
BRANCH   5  51
ATOM     51  C   UNL     1      72.887  43.207   8.092  1.00  0.00     0.192 C 
BRANCH  51  52
ATOM     52  O   UNL     1      72.909  42.315   9.171  1.00  0.00    -0.394 OA
ATOM     53  H   UNL     1      72.250  41.614   8.942  1.00  0.00     0.210 HD
ENDBRANCH  51  52
ENDBRANCH   5  51
TORSDOF 20
ENDMDL
MODEL 6
REMARK VINA RESULT:    -6.506      1.984      7.116
REMARK INTER + INTRA:         -15.527
REMARK INTER:                 -12.955
REMARK INTRA:                  -2.571
REMARK UNBOUND:                -3.125
REMARK SMILES C[C@@H]1O[C@@H](O[C@H]2[C@H](O)[C@H](OCCc3ccc(O)c(O)c3)O[C@@H](CO)[C@H]2OC(=O)C=Cc2ccc(O)c(O)c2)[C@@H](O)[C@H](O)[C@@H]1O
REMARK SMILES IDX 6 1 7 2 9 3 21 4 22 5 25 6 5 7 4 8 1 9 2 10 43 11 3 12 41 13
REMARK SMILES IDX 39 14 44 15 42 17 40 19 8 21 26 23 27 24 28 25 29 26 30 27
REMARK SMILES IDX 31 28 38 29 32 30 36 31 33 32 34 33 37 34 35 36 10 38 11 39
REMARK SMILES IDX 12 40 13 41 20 42 14 43 18 44 15 45 16 46 19 47 17 49 23 51
REMARK SMILES IDX 24 52
REMARK H PARENT 44 16 42 18 40 20 8 22 37 35 35 37 19 48 17 50 24 53
REMARK Flexibility Score: inf
ROOT
ATOM      1  C   UNL     1      69.391  45.572   6.925  1.00  0.00     0.199 C 
ATOM      2  C   UNL     1      68.172  45.490   7.858  1.00  0.00     0.203 C 
ATOM      3  C   UNL     1      67.507  46.869   8.142  1.00  0.00     0.282 C 
ATOM      4  O   UNL     1      68.489  47.859   8.456  1.00  0.00    -0.340 OA
ATOM      5  C   UNL     1      69.418  48.001   7.392  1.00  0.00     0.190 C 
ATOM      6  C   UNL     1      70.313  46.746   7.349  1.00  0.00     0.240 C 
ENDROOT
BRANCH   1   7
ATOM      7  O   UNL     1      70.125  44.386   7.059  1.00  0.00    -0.340 OA
BRANCH   7   8
ATOM      8  C   UNL     1      69.632  43.245   6.357  1.00  0.00     0.282 C 
ATOM      9  C   UNL     1      70.394  40.781   8.960  1.00  0.00     0.041 C 
ATOM     10  C   UNL     1      70.586  42.055   8.131  1.00  0.00     0.150 C 
ATOM     11  C   UNL     1      71.918  42.062   7.276  1.00  0.00     0.174 C 
ATOM     12  O   UNL     1      69.410  42.236   7.332  1.00  0.00    -0.344 OA
ATOM     13  C   UNL     1      71.663  41.689   5.795  1.00  0.00     0.179 C 
ATOM     14  C   UNL     1      70.556  42.634   5.227  1.00  0.00     0.202 C 
BRANCH  11  15
ATOM     15  O   UNL     1      72.939  41.293   7.866  1.00  0.00    -0.388 OA
ATOM     16  H   UNL     1      73.823  41.633   7.546  1.00  0.00     0.211 HD
ENDBRANCH  11  15
BRANCH  13  17
ATOM     17  O   UNL     1      71.177  40.374   5.776  1.00  0.00    -0.387 OA
ATOM     18  H   UNL     1      71.951  39.750   5.697  1.00  0.00     0.211 HD
ENDBRANCH  13  17
BRANCH  14  19
ATOM     19  O   UNL     1      71.107  43.604   4.385  1.00  0.00    -0.385 OA
ATOM     20  H   UNL     1      72.009  43.248   4.146  1.00  0.00     0.211 HD
ENDBRANCH  14  19
ENDBRANCH   7   8
ENDBRANCH   1   7
BRANCH   2  21
ATOM     21  O   UNL     1      67.222  44.540   7.395  1.00  0.00    -0.385 OA
ATOM     22  H   UNL     1      67.311  43.735   7.962  1.00  0.00     0.211 HD
ENDBRANCH   2  21
BRANCH   6  23
ATOM     23  O   UNL     1      70.856  46.458   8.642  1.00  0.00    -0.453 OA
BRANCH  23  24
ATOM     24  C   UNL     1      72.220  46.297   8.937  1.00  0.00     0.331 C 
ATOM     25  O   UNL     1      72.729  45.147   8.836  1.00  0.00    -0.247 OA
BRANCH  24  26
ATOM     26  C   UNL     1      73.149  47.445   8.945  1.00  0.00     0.094 C 
ATOM     27  C   UNL     1      73.703  47.995   7.869  1.00  0.00     0.016 C 
BRANCH  27  28
ATOM     28  C   UNL     1      73.697  47.412   6.520  1.00  0.00    -0.021 A 
ATOM     29  C   UNL     1      74.102  46.078   6.308  1.00  0.00     0.058 A 
ATOM     30  C   UNL     1      73.112  48.128   5.472  1.00  0.00     0.012 A 
ATOM     31  C   UNL     1      73.847  45.438   5.089  1.00  0.00     0.157 A 
ATOM     32  C   UNL     1      72.896  47.510   4.232  1.00  0.00     0.051 A 
ATOM     33  C   UNL     1      73.265  46.178   4.033  1.00  0.00     0.157 A 
BRANCH  31  34
ATOM     34  O   UNL     1      74.180  44.093   4.915  1.00  0.00    -0.504 OA
ATOM     35  H   UNL     1      73.478  43.364   4.797  1.00  0.00     0.293 HD
ENDBRANCH  31  34
BRANCH  33  36
ATOM     36  O   UNL     1      72.969  45.564   2.812  1.00  0.00    -0.504 OA
ATOM     37  H   UNL     1      73.429  44.694   2.523  1.00  0.00     0.293 HD
ENDBRANCH  33  36
ENDBRANCH  27  28
ENDBRANCH  24  26
ENDBRANCH  23  24
ENDBRANCH   6  23
BRANCH   3  38
ATOM     38  O   UNL     1      66.711  47.326   7.050  1.00  0.00    -0.350 OA
BRANCH  38  39
ATOM     39  C   UNL     1      65.437  47.774   7.479  1.00  0.00     0.168 C 
BRANCH  39  40
ATOM     40  C   UNL     1      65.009  47.209   8.859  1.00  0.00     0.064 C 
BRANCH  40  41
ATOM     41  C   UNL     1      64.043  46.053   8.756  1.00  0.00    -0.042 A 
ATOM     42  C   UNL     1      64.294  45.012   7.847  1.00  0.00     0.054 A 
ATOM     43  C   UNL     1      62.954  45.941   9.636  1.00  0.00     0.008 A 
ATOM     44  C   UNL     1      63.509  43.861   7.838  1.00  0.00     0.157 A 
ATOM     45  C   UNL     1      62.119  44.827   9.580  1.00  0.00     0.050 A 
ATOM     46  C   UNL     1      62.399  43.772   8.710  1.00  0.00     0.157 A 
BRANCH  44  47
ATOM     47  O   UNL     1      63.862  42.833   6.961  1.00  0.00    -0.504 OA
ATOM     48  H   UNL     1      63.548  41.893   7.083  1.00  0.00     0.293 HD
ENDBRANCH  44  47
BRANCH  46  49
ATOM     49  O   UNL     1      61.555  42.665   8.749  1.00  0.00    -0.504 OA
ATOM     50  H   UNL     1      60.564  42.713   8.686  1.00  0.00     0.293 HD
ENDBRANCH  46  49
ENDBRANCH  40  41
ENDBRANCH  39  40
ENDBRANCH  38  39
ENDBRANCH   3  38
BRANCH   5  51
ATOM     51  C   UNL     1      70.209  49.317   7.524  1.00  0.00     0.192 C 
BRANCH  51  52
ATOM     52  O   UNL     1      70.486  49.625   8.862  1.00  0.00    -0.394 OA
ATOM     53  H   UNL     1      71.090  48.907   9.174  1.00  0.00     0.210 HD
ENDBRANCH  51  52
ENDBRANCH   5  51
TORSDOF 20
ENDMDL
MODEL 7
REMARK VINA RESULT:    -6.304      2.242      7.500
REMARK INTER + INTRA:         -15.141
REMARK INTER:                 -12.629
REMARK INTRA:                  -2.512
REMARK UNBOUND:                -3.125
REMARK SMILES C[C@@H]1O[C@@H](O[C@H]2[C@H](O)[C@H](OCCc3ccc(O)c(O)c3)O[C@@H](CO)[C@H]2OC(=O)C=Cc2ccc(O)c(O)c2)[C@@H](O)[C@H](O)[C@@H]1O
REMARK SMILES IDX 6 1 7 2 9 3 21 4 22 5 25 6 5 7 4 8 1 9 2 10 43 11 3 12 41 13
REMARK SMILES IDX 39 14 44 15 42 17 40 19 8 21 26 23 27 24 28 25 29 26 30 27
REMARK SMILES IDX 31 28 38 29 32 30 36 31 33 32 34 33 37 34 35 36 10 38 11 39
REMARK SMILES IDX 12 40 13 41 20 42 14 43 18 44 15 45 16 46 19 47 17 49 23 51
REMARK SMILES IDX 24 52
REMARK H PARENT 44 16 42 18 40 20 8 22 37 35 35 37 19 48 17 50 24 53
REMARK Flexibility Score: inf
ROOT
ATOM      1  C   UNL     1      69.312  47.096   8.809  1.00  0.00     0.199 C 
ATOM      2  C   UNL     1      68.666  47.255   7.424  1.00  0.00     0.203 C 
ATOM      3  C   UNL     1      67.197  46.746   7.355  1.00  0.00     0.282 C 
ATOM      4  O   UNL     1      67.065  45.468   7.981  1.00  0.00    -0.340 OA
ATOM      5  C   UNL     1      67.473  45.528   9.339  1.00  0.00     0.190 C 
ATOM      6  C   UNL     1      69.006  45.688   9.386  1.00  0.00     0.240 C 
ENDROOT
BRANCH   1   7
ATOM      7  O   UNL     1      70.701  47.202   8.660  1.00  0.00    -0.340 OA
BRANCH   7   8
ATOM      8  C   UNL     1      71.192  47.357   7.329  1.00  0.00     0.282 C 
ATOM      9  C   UNL     1      74.078  45.125   7.677  1.00  0.00     0.041 C 
ATOM     10  C   UNL     1      73.021  46.137   8.131  1.00  0.00     0.150 C 
ATOM     11  C   UNL     1      73.624  47.535   8.565  1.00  0.00     0.174 C 
ATOM     12  O   UNL     1      72.049  46.251   7.083  1.00  0.00    -0.344 OA
ATOM     13  C   UNL     1      73.497  48.598   7.447  1.00  0.00     0.179 C 
ATOM     14  C   UNL     1      72.000  48.679   7.004  1.00  0.00     0.202 C 
BRANCH  11  15
ATOM     15  O   UNL     1      74.935  47.422   9.066  1.00  0.00    -0.388 OA
ATOM     16  H   UNL     1      74.912  46.880   9.906  1.00  0.00     0.211 HD
ENDBRANCH  11  15
BRANCH  13  17
ATOM     17  O   UNL     1      74.258  48.150   6.359  1.00  0.00    -0.387 OA
ATOM     18  H   UNL     1      74.614  48.943   5.870  1.00  0.00     0.211 HD
ENDBRANCH  13  17
BRANCH  14  19
ATOM     19  O   UNL     1      71.390  49.832   7.505  1.00  0.00    -0.385 OA
ATOM     20  H   UNL     1      70.411  49.670   7.389  1.00  0.00     0.211 HD
ENDBRANCH  14  19
ENDBRANCH   7   8
ENDBRANCH   1   7
BRANCH   2  21
ATOM     21  O   UNL     1      68.779  48.588   6.945  1.00  0.00    -0.385 OA
ATOM     22  H   UNL     1      69.114  48.540   6.015  1.00  0.00     0.211 HD
ENDBRANCH   2  21
BRANCH   6  23
ATOM     23  O   UNL     1      69.650  44.707   8.564  1.00  0.00    -0.453 OA
BRANCH  23  24
ATOM     24  C   UNL     1      70.337  43.575   9.031  1.00  0.00     0.331 C 
ATOM     25  O   UNL     1      71.245  43.731   9.894  1.00  0.00    -0.247 OA
BRANCH  24  26
ATOM     26  C   UNL     1      69.778  42.216   8.882  1.00  0.00     0.094 C 
ATOM     27  C   UNL     1      70.176  41.314   7.991  1.00  0.00     0.016 C 
BRANCH  27  28
ATOM     28  C   UNL     1      71.051  41.585   6.842  1.00  0.00    -0.021 A 
ATOM     29  C   UNL     1      70.656  42.481   5.828  1.00  0.00     0.058 A 
ATOM     30  C   UNL     1      72.358  41.089   6.851  1.00  0.00     0.012 A 
ATOM     31  C   UNL     1      71.580  42.946   4.885  1.00  0.00     0.157 A 
ATOM     32  C   UNL     1      73.278  41.513   5.881  1.00  0.00     0.051 A 
ATOM     33  C   UNL     1      72.896  42.428   4.899  1.00  0.00     0.157 A 
BRANCH  31  34
ATOM     34  O   UNL     1      71.199  43.895   3.933  1.00  0.00    -0.504 OA
ATOM     35  H   UNL     1      71.513  43.858   2.965  1.00  0.00     0.293 HD
ENDBRANCH  31  34
BRANCH  33  36
ATOM     36  O   UNL     1      73.853  42.892   3.990  1.00  0.00    -0.504 OA
ATOM     37  H   UNL     1      74.478  43.672   4.220  1.00  0.00     0.293 HD
ENDBRANCH  33  36
ENDBRANCH  27  28
ENDBRANCH  24  26
ENDBRANCH  23  24
ENDBRANCH   6  23
BRANCH   3  38
ATOM     38  O   UNL     1      66.276  47.659   7.950  1.00  0.00    -0.350 OA
BRANCH  38  39
ATOM     39  C   UNL     1      64.942  47.399   7.547  1.00  0.00     0.168 C 
BRANCH  39  40
ATOM     40  C   UNL     1      63.989  47.065   8.724  1.00  0.00     0.064 C 
BRANCH  40  41
ATOM     41  C   UNL     1      63.408  45.674   8.644  1.00  0.00    -0.042 A 
ATOM     42  C   UNL     1      64.058  44.689   7.883  1.00  0.00     0.054 A 
ATOM     43  C   UNL     1      62.289  45.312   9.413  1.00  0.00     0.008 A 
ATOM     44  C   UNL     1      63.637  43.361   7.914  1.00  0.00     0.157 A 
ATOM     45  C   UNL     1      61.815  44.003   9.389  1.00  0.00     0.050 A 
ATOM     46  C   UNL     1      62.492  43.015   8.670  1.00  0.00     0.157 A 
BRANCH  44  47
ATOM     47  O   UNL     1      64.376  42.420   7.194  1.00  0.00    -0.504 OA
ATOM     48  H   UNL     1      64.388  41.451   7.434  1.00  0.00     0.293 HD
ENDBRANCH  44  47
BRANCH  46  49
ATOM     49  O   UNL     1      61.995  41.716   8.738  1.00  0.00    -0.504 OA
ATOM     50  H   UNL     1      62.542  40.919   8.970  1.00  0.00     0.293 HD
ENDBRANCH  46  49
ENDBRANCH  40  41
ENDBRANCH  39  40
ENDBRANCH  38  39
ENDBRANCH   3  38
BRANCH   5  51
ATOM     51  C   UNL     1      66.957  44.306  10.123  1.00  0.00     0.192 C 
BRANCH  51  52
ATOM     52  O   UNL     1      66.750  43.202   9.288  1.00  0.00    -0.394 OA
ATOM     53  H   UNL     1      66.118  42.620   9.778  1.00  0.00     0.210 HD
ENDBRANCH  51  52
ENDBRANCH   5  51
TORSDOF 20
ENDMDL
MODEL 8
REMARK VINA RESULT:    -6.296      2.439      8.335
REMARK INTER + INTRA:         -15.126
REMARK INTER:                 -12.287
REMARK INTRA:                  -2.838
REMARK UNBOUND:                -3.125
REMARK SMILES C[C@@H]1O[C@@H](O[C@H]2[C@H](O)[C@H](OCCc3ccc(O)c(O)c3)O[C@@H](CO)[C@H]2OC(=O)C=Cc2ccc(O)c(O)c2)[C@@H](O)[C@H](O)[C@@H]1O
REMARK SMILES IDX 6 1 7 2 9 3 21 4 22 5 25 6 5 7 4 8 1 9 2 10 43 11 3 12 41 13
REMARK SMILES IDX 39 14 44 15 42 17 40 19 8 21 26 23 27 24 28 25 29 26 30 27
REMARK SMILES IDX 31 28 38 29 32 30 36 31 33 32 34 33 37 34 35 36 10 38 11 39
REMARK SMILES IDX 12 40 13 41 20 42 14 43 18 44 15 45 16 46 19 47 17 49 23 51
REMARK SMILES IDX 24 52
REMARK H PARENT 44 16 42 18 40 20 8 22 37 35 35 37 19 48 17 50 24 53
REMARK Flexibility Score: inf
ROOT
ATOM      1  C   UNL     1      69.853  45.567   8.600  1.00  0.00     0.199 C 
ATOM      2  C   UNL     1      68.871  46.550   7.942  1.00  0.00     0.203 C 
ATOM      3  C   UNL     1      67.404  46.031   7.893  1.00  0.00     0.282 C 
ATOM      4  O   UNL     1      67.352  44.676   7.443  1.00  0.00    -0.340 OA
ATOM      5  C   UNL     1      68.114  43.834   8.294  1.00  0.00     0.190 C 
ATOM      6  C   UNL     1      69.611  44.129   8.068  1.00  0.00     0.240 C 
ENDROOT
BRANCH   1   7
ATOM      7  O   UNL     1      71.154  45.941   8.240  1.00  0.00    -0.340 OA
BRANCH   7   8
ATOM      8  C   UNL     1      72.000  46.408   9.289  1.00  0.00     0.282 C 
ATOM      9  C   UNL     1      72.547  49.768   7.932  1.00  0.00     0.041 C 
ATOM     10  C   UNL     1      72.296  48.257   7.886  1.00  0.00     0.150 C 
ATOM     11  C   UNL     1      73.482  47.435   7.234  1.00  0.00     0.174 C 
ATOM     12  O   UNL     1      71.986  47.827   9.218  1.00  0.00    -0.344 OA
ATOM     13  C   UNL     1      74.397  46.786   8.301  1.00  0.00     0.179 C 
ATOM     14  C   UNL     1      73.511  45.936   9.268  1.00  0.00     0.202 C 
BRANCH  11  15
ATOM     15  O   UNL     1      74.198  48.188   6.284  1.00  0.00    -0.388 OA
ATOM     16  H   UNL     1      74.539  47.570   5.576  1.00  0.00     0.211 HD
ENDBRANCH  11  15
BRANCH  13  17
ATOM     17  O   UNL     1      74.982  47.827   9.035  1.00  0.00    -0.387 OA
ATOM     18  H   UNL     1      74.387  48.626   8.985  1.00  0.00     0.211 HD
ENDBRANCH  13  17
BRANCH  14  19
ATOM     19  O   UNL     1      73.655  44.570   9.010  1.00  0.00    -0.385 OA
ATOM     20  H   UNL     1      73.670  44.501   8.014  1.00  0.00     0.211 HD
ENDBRANCH  14  19
ENDBRANCH   7   8
ENDBRANCH   1   7
BRANCH   2  21
ATOM     21  O   UNL     1      68.948  47.840   8.534  1.00  0.00    -0.385 OA
ATOM     22  H   UNL     1      69.805  48.243   8.250  1.00  0.00     0.211 HD
ENDBRANCH   2  21
BRANCH   6  23
ATOM     23  O   UNL     1      69.935  44.098   6.673  1.00  0.00    -0.453 OA
BRANCH  23  24
ATOM     24  C   UNL     1      70.867  43.236   6.072  1.00  0.00     0.331 C 
ATOM     25  O   UNL     1      70.852  43.108   4.817  1.00  0.00    -0.247 OA
BRANCH  24  26
ATOM     26  C   UNL     1      72.097  42.817   6.776  1.00  0.00     0.094 C 
ATOM     27  C   UNL     1      72.488  41.560   6.959  1.00  0.00     0.016 C 
BRANCH  27  28
ATOM     28  C   UNL     1      71.657  40.371   6.727  1.00  0.00    -0.021 A 
ATOM     29  C   UNL     1      70.684  39.975   7.667  1.00  0.00     0.058 A 
ATOM     30  C   UNL     1      71.708  39.737   5.482  1.00  0.00     0.012 A 
ATOM     31  C   UNL     1      69.717  39.018   7.336  1.00  0.00     0.157 A 
ATOM     32  C   UNL     1      70.773  38.743   5.160  1.00  0.00     0.051 A 
ATOM     33  C   UNL     1      69.787  38.377   6.077  1.00  0.00     0.157 A 
BRANCH  31  34
ATOM     34  O   UNL     1      68.708  38.690   8.246  1.00  0.00    -0.504 OA
ATOM     35  H   UNL     1      68.831  37.985   8.971  1.00  0.00     0.293 HD
ENDBRANCH  31  34
BRANCH  33  36
ATOM     36  O   UNL     1      68.821  37.438   5.702  1.00  0.00    -0.504 OA
ATOM     37  H   UNL     1      67.821  37.605   5.857  1.00  0.00     0.293 HD
ENDBRANCH  33  36
ENDBRANCH  27  28
ENDBRANCH  24  26
ENDBRANCH  23  24
ENDBRANCH   6  23
BRANCH   3  38
ATOM     38  O   UNL     1      66.747  46.134   9.155  1.00  0.00    -0.350 OA
BRANCH  38  39
ATOM     39  C   UNL     1      65.596  46.957   9.084  1.00  0.00     0.168 C 
BRANCH  39  40
ATOM     40  C   UNL     1      64.603  46.546   7.966  1.00  0.00     0.064 C 
BRANCH  40  41
ATOM     41  C   UNL     1      63.774  45.335   8.321  1.00  0.00    -0.042 A 
ATOM     42  C   UNL     1      62.644  45.479   9.142  1.00  0.00     0.054 A 
ATOM     43  C   UNL     1      64.046  44.080   7.750  1.00  0.00     0.008 A 
ATOM     44  C   UNL     1      61.773  44.414   9.361  1.00  0.00     0.157 A 
ATOM     45  C   UNL     1      63.222  42.991   8.026  1.00  0.00     0.050 A 
ATOM     46  C   UNL     1      62.072  43.148   8.803  1.00  0.00     0.157 A 
BRANCH  44  47
ATOM     47  O   UNL     1      60.628  44.647  10.125  1.00  0.00    -0.504 OA
ATOM     48  H   UNL     1      60.360  45.562  10.423  1.00  0.00     0.293 HD
ENDBRANCH  44  47
BRANCH  46  49
ATOM     49  O   UNL     1      61.265  42.030   8.989  1.00  0.00    -0.504 OA
ATOM     50  H   UNL     1      61.513  41.245   9.548  1.00  0.00     0.293 HD
ENDBRANCH  46  49
ENDBRANCH  40  41
ENDBRANCH  39  40
ENDBRANCH  38  39
ENDBRANCH   3  38
BRANCH   5  51
ATOM     51  C   UNL     1      67.740  42.354   8.082  1.00  0.00     0.192 C 
BRANCH  51  52
ATOM     52  O   UNL     1      67.871  41.971   6.742  1.00  0.00    -0.394 OA
ATOM     53  H   UNL     1      67.316  41.158   6.648  1.00  0.00     0.210 HD
ENDBRANCH  51  52
ENDBRANCH   5  51
TORSDOF 20
ENDMDL
MODEL 9
REMARK VINA RESULT:    -5.824      2.178      7.930
REMARK INTER + INTRA:         -14.226
REMARK INTER:                 -10.204
REMARK INTRA:                  -4.023
REMARK UNBOUND:                -3.125
REMARK SMILES C[C@@H]1O[C@@H](O[C@H]2[C@H](O)[C@H](OCCc3ccc(O)c(O)c3)O[C@@H](CO)[C@H]2OC(=O)C=Cc2ccc(O)c(O)c2)[C@@H](O)[C@H](O)[C@@H]1O
REMARK SMILES IDX 6 1 7 2 9 3 21 4 22 5 25 6 5 7 4 8 1 9 2 10 43 11 3 12 41 13
REMARK SMILES IDX 39 14 44 15 42 17 40 19 8 21 26 23 27 24 28 25 29 26 30 27
REMARK SMILES IDX 31 28 38 29 32 30 36 31 33 32 34 33 37 34 35 36 10 38 11 39
REMARK SMILES IDX 12 40 13 41 20 42 14 43 18 44 15 45 16 46 19 47 17 49 23 51
REMARK SMILES IDX 24 52
REMARK H PARENT 44 16 42 18 40 20 8 22 37 35 35 37 19 48 17 50 24 53
REMARK Flexibility Score: inf
ROOT
ATOM      1  C   UNL     1      71.731  42.724   6.552  1.00  0.00     0.199 C 
ATOM      2  C   UNL     1      71.314  43.662   5.407  1.00  0.00     0.203 C 
ATOM      3  C   UNL     1      71.620  45.163   5.684  1.00  0.00     0.282 C 
ATOM      4  O   UNL     1      71.210  45.537   7.001  1.00  0.00    -0.340 OA
ATOM      5  C   UNL     1      71.865  44.742   7.977  1.00  0.00     0.190 C 
ATOM      6  C   UNL     1      71.287  43.313   7.917  1.00  0.00     0.240 C 
ENDROOT
BRANCH   1   7
ATOM      7  O   UNL     1      71.068  41.502   6.380  1.00  0.00    -0.340 OA
BRANCH   7   8
ATOM      8  C   UNL     1      71.792  40.469   5.713  1.00  0.00     0.282 C 
ATOM      9  C   UNL     1      68.871  38.603   4.522  1.00  0.00     0.041 C 
ATOM     10  C   UNL     1      69.680  39.490   5.474  1.00  0.00     0.150 C 
ATOM     11  C   UNL     1      69.948  38.828   6.887  1.00  0.00     0.174 C 
ATOM     12  O   UNL     1      70.887  39.868   4.798  1.00  0.00    -0.344 OA
ATOM     13  C   UNL     1      71.367  38.219   6.986  1.00  0.00     0.179 C 
ATOM     14  C   UNL     1      72.410  39.321   6.610  1.00  0.00     0.202 C 
BRANCH  11  15
ATOM     15  O   UNL     1      68.936  37.921   7.255  1.00  0.00    -0.388 OA
ATOM     16  H   UNL     1      68.072  38.417   7.330  1.00  0.00     0.211 HD
ENDBRANCH  11  15
BRANCH  13  17
ATOM     17  O   UNL     1      71.446  37.191   6.037  1.00  0.00    -0.387 OA
ATOM     18  H   UNL     1      71.876  37.551   5.212  1.00  0.00     0.211 HD
ENDBRANCH  13  17
BRANCH  14  19
ATOM     19  O   UNL     1      73.062  39.804   7.748  1.00  0.00    -0.385 OA
ATOM     20  H   UNL     1      73.769  40.414   7.394  1.00  0.00     0.211 HD
ENDBRANCH  14  19
ENDBRANCH   7   8
ENDBRANCH   1   7
BRANCH   2  21
ATOM     21  O   UNL     1      71.857  43.240   4.163  1.00  0.00    -0.385 OA
ATOM     22  H   UNL     1      71.151  42.732   3.691  1.00  0.00     0.211 HD
ENDBRANCH   2  21
BRANCH   6  23
ATOM     23  O   UNL     1      69.855  43.337   7.961  1.00  0.00    -0.453 OA
BRANCH  23  24
ATOM     24  C   UNL     1      69.060  42.736   8.951  1.00  0.00     0.331 C 
ATOM     25  O   UNL     1      69.515  42.653  10.125  1.00  0.00    -0.247 OA
BRANCH  24  26
ATOM     26  C   UNL     1      67.600  42.588   8.784  1.00  0.00     0.094 C 
ATOM     27  C   UNL     1      66.750  43.578   8.531  1.00  0.00     0.016 C 
BRANCH  27  28
ATOM     28  C   UNL     1      67.063  45.010   8.628  1.00  0.00    -0.021 A 
ATOM     29  C   UNL     1      67.163  45.808   7.469  1.00  0.00     0.058 A 
ATOM     30  C   UNL     1      67.082  45.620   9.886  1.00  0.00     0.012 A 
ATOM     31  C   UNL     1      67.192  47.204   7.563  1.00  0.00     0.157 A 
ATOM     32  C   UNL     1      67.159  47.015   9.990  1.00  0.00     0.051 A 
ATOM     33  C   UNL     1      67.221  47.807   8.843  1.00  0.00     0.157 A 
BRANCH  31  34
ATOM     34  O   UNL     1      67.209  47.989   6.407  1.00  0.00    -0.504 OA
ATOM     35  H   UNL     1      68.028  48.521   6.117  1.00  0.00     0.293 HD
ENDBRANCH  31  34
BRANCH  33  36
ATOM     36  O   UNL     1      67.221  49.200   8.974  1.00  0.00    -0.504 OA
ATOM     37  H   UNL     1      68.049  49.761   8.745  1.00  0.00     0.293 HD
ENDBRANCH  33  36
ENDBRANCH  27  28
ENDBRANCH  24  26
ENDBRANCH  23  24
ENDBRANCH   6  23
BRANCH   3  38
ATOM     38  O   UNL     1      73.001  45.478   5.513  1.00  0.00    -0.350 OA
BRANCH  38  39
ATOM     39  C   UNL     1      73.188  46.828   5.126  1.00  0.00     0.168 C 
BRANCH  39  40
ATOM     40  C   UNL     1      73.873  47.699   6.212  1.00  0.00     0.064 C 
BRANCH  40  41
ATOM     41  C   UNL     1      72.892  48.420   7.104  1.00  0.00    -0.042 A 
ATOM     42  C   UNL     1      71.642  48.809   6.596  1.00  0.00     0.054 A 
ATOM     43  C   UNL     1      73.159  48.607   8.471  1.00  0.00     0.008 A 
ATOM     44  C   UNL     1      70.657  49.333   7.430  1.00  0.00     0.157 A 
ATOM     45  C   UNL     1      72.208  49.202   9.297  1.00  0.00     0.050 A 
ATOM     46  C   UNL     1      70.949  49.543   8.799  1.00  0.00     0.157 A 
BRANCH  44  47
ATOM     47  O   UNL     1      69.411  49.627   6.872  1.00  0.00    -0.504 OA
ATOM     48  H   UNL     1      68.779  50.280   7.287  1.00  0.00     0.293 HD
ENDBRANCH  44  47
BRANCH  46  49
ATOM     49  O   UNL     1      70.028  50.080   9.695  1.00  0.00    -0.504 OA
ATOM     50  H   UNL     1      70.243  50.776  10.371  1.00  0.00     0.293 HD
ENDBRANCH  46  49
ENDBRANCH  40  41
ENDBRANCH  39  40
ENDBRANCH  38  39
ENDBRANCH   3  38
BRANCH   5  51
ATOM     51  C   UNL     1      71.764  45.389   9.372  1.00  0.00     0.192 C 
BRANCH  51  52
ATOM     52  O   UNL     1      70.537  46.037   9.557  1.00  0.00    -0.394 OA
ATOM     53  H   UNL     1      70.626  46.522  10.415  1.00  0.00     0.210 HD
ENDBRANCH  51  52
ENDBRANCH   5  51
TORSDOF 20
ENDMDL
