MODEL 1
REMARK VINA RESULT:    -7.023      0.000      0.000
REMARK INTER + INTRA:         -11.913
REMARK INTER:                 -10.718
REMARK INTRA:                  -1.195
REMARK UNBOUND:                -1.195
REMARK SMILES OC[C@@H]1O[C@H](O[C@]2(CO)O[C@H](CO)[C@H](O)[C@@H]2O)[C@H](O)[C@@H](O)[C@H]1O
REMARK SMILES IDX 6 1 5 2 3 3 22 4 4 5 20 6 18 7 2 8 1 9 23 11 21 13 19 15
REMARK SMILES IDX 7 17 16 18 10 19 14 20 11 21 8 22 9 23 17 25 15 27 12 29
REMARK SMILES IDX 13 30
REMARK H PARENT 1 10 23 12 21 14 19 16 9 24 17 26 15 28 13 31
REMARK Flexibility Score: inf
ROOT
ATOM      1  O   UNL     1      62.263  -2.454   4.079  1.00  0.00    -0.313 OA
ENDROOT
BRANCH   1   2
ATOM      2  C   UNL     1      62.886  -1.562   4.989  1.00  0.00     0.285 C 
ATOM      3  C   UNL     1      62.761   0.598   5.861  1.00  0.00     0.178 C 
ATOM      4  C   UNL     1      62.838   0.128   7.335  1.00  0.00     0.177 C 
ATOM      5  O   UNL     1      62.107  -0.382   5.076  1.00  0.00    -0.341 OA
ATOM      6  C   UNL     1      63.490  -1.271   7.440  1.00  0.00     0.179 C 
ATOM      7  C   UNL     1      62.948  -2.244   6.365  1.00  0.00     0.202 C 
BRANCH   3   8
ATOM      8  C   UNL     1      61.968   1.907   5.733  1.00  0.00     0.191 C 
BRANCH   8   9
ATOM      9  O   UNL     1      61.270   1.946   4.519  1.00  0.00    -0.394 OA
ATOM     10  H   UNL     1      60.664   2.729   4.578  1.00  0.00     0.210 HD
ENDBRANCH   8   9
ENDBRANCH   3   8
BRANCH   4  11
ATOM     11  O   UNL     1      63.589   1.041   8.098  1.00  0.00    -0.387 OA
ATOM     12  H   UNL     1      64.060   1.642   7.466  1.00  0.00     0.211 HD
ENDBRANCH   4  11
BRANCH   6  13
ATOM     13  O   UNL     1      64.898  -1.201   7.399  1.00  0.00    -0.387 OA
ATOM     14  H   UNL     1      65.164  -0.639   6.626  1.00  0.00     0.211 HD
ENDBRANCH   6  13
BRANCH   7  15
ATOM     15  O   UNL     1      61.659  -2.678   6.723  1.00  0.00    -0.385 OA
ATOM     16  H   UNL     1      61.086  -2.562   5.921  1.00  0.00     0.211 HD
ENDBRANCH   7  15
ENDBRANCH   1   2
BRANCH   1  17
ATOM     17  C   UNL     1      62.975  -2.616   2.851  1.00  0.00     0.224 C 
ATOM     18  C   UNL     1      63.112  -4.126   2.541  1.00  0.00     0.208 C 
ATOM     19  O   UNL     1      62.274  -2.024   1.761  1.00  0.00    -0.337 OA
ATOM     20  C   UNL     1      61.982  -4.383   1.574  1.00  0.00     0.180 C 
ATOM     21  C   UNL     1      61.942  -3.045   0.843  1.00  0.00     0.179 C 
BRANCH  17  22
ATOM     22  C   UNL     1      64.371  -1.970   2.987  1.00  0.00     0.225 C 
BRANCH  22  23
ATOM     23  O   UNL     1      65.369  -2.955   2.988  1.00  0.00    -0.391 OA
ATOM     24  H   UNL     1      64.941  -3.776   3.344  1.00  0.00     0.210 HD
ENDBRANCH  22  23
ENDBRANCH  17  22
BRANCH  18  25
ATOM     25  O   UNL     1      63.095  -4.967   3.672  1.00  0.00    -0.385 OA
ATOM     26  H   UNL     1      62.180  -4.980   4.056  1.00  0.00     0.211 HD
ENDBRANCH  18  25
BRANCH  20  27
ATOM     27  O   UNL     1      60.780  -4.618   2.266  1.00  0.00    -0.387 OA
ATOM     28  H   UNL     1      60.155  -5.049   1.624  1.00  0.00     0.211 HD
ENDBRANCH  20  27
BRANCH  21  29
ATOM     29  C   UNL     1      60.605  -2.733   0.164  1.00  0.00     0.191 C 
BRANCH  29  30
ATOM     30  O   UNL     1      59.763  -2.061   1.059  1.00  0.00    -0.394 OA
ATOM     31  H   UNL     1      60.011  -2.384   1.962  1.00  0.00     0.210 HD
ENDBRANCH  29  30
ENDBRANCH  21  29
ENDBRANCH   1  17
TORSDOF 13
ENDMDL
MODEL 2
REMARK VINA RESULT:    -7.019      1.042      2.622
REMARK INTER + INTRA:         -11.907
REMARK INTER:                 -10.658
REMARK INTRA:                  -1.249
REMARK UNBOUND:                -1.195
REMARK SMILES OC[C@@H]1O[C@H](O[C@]2(CO)O[C@H](CO)[C@H](O)[C@@H]2O)[C@H](O)[C@@H](O)[C@H]1O
REMARK SMILES IDX 6 1 5 2 3 3 22 4 4 5 20 6 18 7 2 8 1 9 23 11 21 13 19 15
REMARK SMILES IDX 7 17 16 18 10 19 14 20 11 21 8 22 9 23 17 25 15 27 12 29
REMARK SMILES IDX 13 30
REMARK H PARENT 1 10 23 12 21 14 19 16 9 24 17 26 15 28 13 31
REMARK Flexibility Score: inf
ROOT
ATOM      1  O   UNL     1      61.883  -2.731   4.226  1.00  0.00    -0.313 OA
ENDROOT
BRANCH   1   2
ATOM      2  C   UNL     1      62.723  -1.874   4.981  1.00  0.00     0.285 C 
ATOM      3  C   UNL     1      63.101   0.365   5.518  1.00  0.00     0.178 C 
ATOM      4  C   UNL     1      63.146   0.108   7.044  1.00  0.00     0.177 C 
ATOM      5  O   UNL     1      62.217  -0.553   4.899  1.00  0.00    -0.341 OA
ATOM      6  C   UNL     1      63.490  -1.368   7.350  1.00  0.00     0.179 C 
ATOM      7  C   UNL     1      62.704  -2.346   6.444  1.00  0.00     0.202 C 
BRANCH   3   8
ATOM      8  C   UNL     1      62.598   1.782   5.204  1.00  0.00     0.191 C 
BRANCH   8   9
ATOM      9  O   UNL     1      61.340   1.737   4.588  1.00  0.00    -0.394 OA
ATOM     10  H   UNL     1      61.271   0.839   4.175  1.00  0.00     0.210 HD
ENDBRANCH   8   9
ENDBRANCH   3   8
BRANCH   4  11
ATOM     11  O   UNL     1      64.109   0.938   7.649  1.00  0.00    -0.387 OA
ATOM     12  H   UNL     1      65.002   0.580   7.410  1.00  0.00     0.211 HD
ENDBRANCH   4  11
BRANCH   6  13
ATOM     13  O   UNL     1      64.877  -1.612   7.278  1.00  0.00    -0.387 OA
ATOM     14  H   UNL     1      65.267  -1.021   6.583  1.00  0.00     0.211 HD
ENDBRANCH   6  13
BRANCH   7  15
ATOM     15  O   UNL     1      61.371  -2.434   6.882  1.00  0.00    -0.385 OA
ATOM     16  H   UNL     1      60.954  -3.181   6.380  1.00  0.00     0.211 HD
ENDBRANCH   7  15
ENDBRANCH   1   2
BRANCH   1  17
ATOM     17  C   UNL     1      62.579  -3.509   3.251  1.00  0.00     0.224 C 
ATOM     18  C   UNL     1      62.017  -3.183   1.847  1.00  0.00     0.208 C 
ATOM     19  O   UNL     1      63.969  -3.196   3.231  1.00  0.00    -0.337 OA
ATOM     20  C   UNL     1      63.000  -2.173   1.308  1.00  0.00     0.180 C 
ATOM     21  C   UNL     1      64.285  -2.675   1.957  1.00  0.00     0.179 C 
BRANCH  17  22
ATOM     22  C   UNL     1      62.386  -5.008   3.569  1.00  0.00     0.225 C 
BRANCH  22  23
ATOM     23  O   UNL     1      61.256  -5.508   2.906  1.00  0.00    -0.391 OA
ATOM     24  H   UNL     1      60.599  -5.728   3.615  1.00  0.00     0.210 HD
ENDBRANCH  22  23
ENDBRANCH  17  22
BRANCH  18  25
ATOM     25  O   UNL     1      60.679  -2.738   1.834  1.00  0.00    -0.385 OA
ATOM     26  H   UNL     1      60.232  -3.070   1.012  1.00  0.00     0.211 HD
ENDBRANCH  18  25
BRANCH  20  27
ATOM     27  O   UNL     1      62.678  -0.879   1.754  1.00  0.00    -0.387 OA
ATOM     28  H   UNL     1      62.286  -0.393   0.981  1.00  0.00     0.211 HD
ENDBRANCH  20  27
BRANCH  21  29
ATOM     29  C   UNL     1      65.389  -1.619   2.076  1.00  0.00     0.191 C 
BRANCH  29  30
ATOM     30  O   UNL     1      65.203  -0.866   3.242  1.00  0.00    -0.394 OA
ATOM     31  H   UNL     1      65.950  -0.216   3.269  1.00  0.00     0.210 HD
ENDBRANCH  29  30
ENDBRANCH  21  29
ENDBRANCH   1  17
TORSDOF 13
ENDMDL
MODEL 3
REMARK VINA RESULT:    -7.006      1.763      5.634
REMARK INTER + INTRA:         -11.887
REMARK INTER:                 -10.196
REMARK INTRA:                  -1.692
REMARK UNBOUND:                -1.195
REMARK SMILES OC[C@@H]1O[C@H](O[C@]2(CO)O[C@H](CO)[C@H](O)[C@@H]2O)[C@H](O)[C@@H](O)[C@H]1O
REMARK SMILES IDX 6 1 5 2 3 3 22 4 4 5 20 6 18 7 2 8 1 9 23 11 21 13 19 15
REMARK SMILES IDX 7 17 16 18 10 19 14 20 11 21 8 22 9 23 17 25 15 27 12 29
REMARK SMILES IDX 13 30
REMARK H PARENT 1 10 23 12 21 14 19 16 9 24 17 26 15 28 13 31
REMARK Flexibility Score: inf
ROOT
ATOM      1  O   UNL     1      62.585  -2.277   6.629  1.00  0.00    -0.313 OA
ENDROOT
BRANCH   1   2
ATOM      2  C   UNL     1      62.629  -2.394   5.217  1.00  0.00     0.285 C 
ATOM      3  C   UNL     1      64.008  -2.074   3.363  1.00  0.00     0.178 C 
ATOM      4  C   UNL     1      63.747  -3.486   2.784  1.00  0.00     0.177 C 
ATOM      5  O   UNL     1      63.946  -2.112   4.777  1.00  0.00    -0.341 OA
ATOM      6  C   UNL     1      62.419  -4.071   3.320  1.00  0.00     0.179 C 
ATOM      7  C   UNL     1      62.255  -3.836   4.840  1.00  0.00     0.202 C 
BRANCH   3   8
ATOM      8  C   UNL     1      65.399  -1.557   2.969  1.00  0.00     0.191 C 
BRANCH   8   9
ATOM      9  O   UNL     1      65.749  -0.440   3.738  1.00  0.00    -0.394 OA
ATOM     10  H   UNL     1      65.333   0.341   3.291  1.00  0.00     0.210 HD
ENDBRANCH   8   9
ENDBRANCH   3   8
BRANCH   4  11
ATOM     11  O   UNL     1      63.691  -3.435   1.379  1.00  0.00    -0.387 OA
ATOM     12  H   UNL     1      62.771  -3.686   1.108  1.00  0.00     0.211 HD
ENDBRANCH   4  11
BRANCH   6  13
ATOM     13  O   UNL     1      61.304  -3.584   2.607  1.00  0.00    -0.387 OA
ATOM     14  H   UNL     1      60.560  -4.233   2.701  1.00  0.00     0.211 HD
ENDBRANCH   6  13
BRANCH   7  15
ATOM     15  O   UNL     1      63.079  -4.726   5.552  1.00  0.00    -0.385 OA
ATOM     16  H   UNL     1      62.487  -5.244   6.155  1.00  0.00     0.211 HD
ENDBRANCH   7  15
ENDBRANCH   1   2
BRANCH   1  17
ATOM     17  C   UNL     1      61.983  -1.066   7.090  1.00  0.00     0.224 C 
ATOM     18  C   UNL     1      62.938  -0.375   8.093  1.00  0.00     0.208 C 
ATOM     19  O   UNL     1      61.765  -0.153   6.018  1.00  0.00    -0.337 OA
ATOM     20  C   UNL     1      63.647   0.651   7.243  1.00  0.00     0.180 C 
ATOM     21  C   UNL     1      62.533   1.008   6.265  1.00  0.00     0.179 C 
BRANCH  17  22
ATOM     22  C   UNL     1      60.639  -1.398   7.774  1.00  0.00     0.225 C 
BRANCH  22  23
ATOM     23  O   UNL     1      60.689  -1.071   9.137  1.00  0.00    -0.391 OA
ATOM     24  H   UNL     1      61.640  -1.162   9.405  1.00  0.00     0.210 HD
ENDBRANCH  22  23
ENDBRANCH  17  22
BRANCH  18  25
ATOM     25  O   UNL     1      63.810  -1.247   8.777  1.00  0.00    -0.385 OA
ATOM     26  H   UNL     1      63.650  -2.177   8.469  1.00  0.00     0.211 HD
ENDBRANCH  18  25
BRANCH  20  27
ATOM     27  O   UNL     1      64.742   0.073   6.575  1.00  0.00    -0.387 OA
ATOM     28  H   UNL     1      64.741   0.433   5.649  1.00  0.00     0.211 HD
ENDBRANCH  20  27
BRANCH  21  29
ATOM     29  C   UNL     1      63.018   1.612   4.944  1.00  0.00     0.191 C 
BRANCH  29  30
ATOM     30  O   UNL     1      62.399   0.963   3.868  1.00  0.00    -0.394 OA
ATOM     31  H   UNL     1      62.798   0.057   3.830  1.00  0.00     0.210 HD
ENDBRANCH  29  30
ENDBRANCH  21  29
ENDBRANCH   1  17
TORSDOF 13
ENDMDL
MODEL 4
REMARK VINA RESULT:    -6.942      2.029      3.611
REMARK INTER + INTRA:         -11.790
REMARK INTER:                 -10.221
REMARK INTRA:                  -1.570
REMARK UNBOUND:                -1.195
REMARK SMILES OC[C@@H]1O[C@H](O[C@]2(CO)O[C@H](CO)[C@H](O)[C@@H]2O)[C@H](O)[C@@H](O)[C@H]1O
REMARK SMILES IDX 6 1 5 2 3 3 22 4 4 5 20 6 18 7 2 8 1 9 23 11 21 13 19 15
REMARK SMILES IDX 7 17 16 18 10 19 14 20 11 21 8 22 9 23 17 25 15 27 12 29
REMARK SMILES IDX 13 30
REMARK H PARENT 1 10 23 12 21 14 19 16 9 24 17 26 15 28 13 31
REMARK Flexibility Score: inf
ROOT
ATOM      1  O   UNL     1      61.887  -2.139   5.830  1.00  0.00    -0.313 OA
ENDROOT
BRANCH   1   2
ATOM      2  C   UNL     1      62.103  -1.003   6.650  1.00  0.00     0.285 C 
ATOM      3  C   UNL     1      61.954   1.325   6.685  1.00  0.00     0.178 C 
ATOM      4  C   UNL     1      61.166   1.367   8.017  1.00  0.00     0.177 C 
ATOM      5  O   UNL     1      61.631   0.147   5.969  1.00  0.00    -0.341 OA
ATOM      6  C   UNL     1      61.390   0.075   8.838  1.00  0.00     0.179 C 
ATOM      7  C   UNL     1      61.312  -1.193   7.955  1.00  0.00     0.202 C 
BRANCH   3   8
ATOM      8  C   UNL     1      61.607   2.525   5.792  1.00  0.00     0.191 C 
BRANCH   8   9
ATOM      9  O   UNL     1      61.214   2.097   4.517  1.00  0.00    -0.394 OA
ATOM     10  H   UNL     1      60.686   1.270   4.658  1.00  0.00     0.210 HD
ENDBRANCH   8   9
ENDBRANCH   3   8
BRANCH   4  11
ATOM     11  O   UNL     1      61.569   2.474   8.787  1.00  0.00    -0.387 OA
ATOM     12  H   UNL     1      62.031   2.125   9.591  1.00  0.00     0.211 HD
ENDBRANCH   4  11
BRANCH   6  13
ATOM     13  O   UNL     1      62.599   0.115   9.563  1.00  0.00    -0.387 OA
ATOM     14  H   UNL     1      62.969  -0.803   9.613  1.00  0.00     0.211 HD
ENDBRANCH   6  13
BRANCH   7  15
ATOM     15  O   UNL     1      59.969  -1.474   7.642  1.00  0.00    -0.385 OA
ATOM     16  H   UNL     1      59.414  -0.879   8.209  1.00  0.00     0.211 HD
ENDBRANCH   7  15
ENDBRANCH   1   2
BRANCH   1  17
ATOM     17  C   UNL     1      63.089  -2.730   5.334  1.00  0.00     0.224 C 
ATOM     18  C   UNL     1      63.099  -2.640   3.789  1.00  0.00     0.208 C 
ATOM     19  O   UNL     1      64.242  -2.037   5.805  1.00  0.00    -0.337 OA
ATOM     20  C   UNL     1      63.943  -1.417   3.522  1.00  0.00     0.180 C 
ATOM     21  C   UNL     1      64.922  -1.504   4.687  1.00  0.00     0.179 C 
BRANCH  17  22
ATOM     22  C   UNL     1      63.149  -4.207   5.783  1.00  0.00     0.225 C 
BRANCH  22  23
ATOM     23  O   UNL     1      62.631  -5.044   4.784  1.00  0.00    -0.391 OA
ATOM     24  H   UNL     1      62.393  -5.894   5.237  1.00  0.00     0.210 HD
ENDBRANCH  22  23
ENDBRANCH  17  22
BRANCH  18  25
ATOM     25  O   UNL     1      61.824  -2.593   3.191  1.00  0.00    -0.385 OA
ATOM     26  H   UNL     1      61.129  -2.621   3.899  1.00  0.00     0.211 HD
ENDBRANCH  18  25
BRANCH  20  27
ATOM     27  O   UNL     1      63.164  -0.249   3.601  1.00  0.00    -0.387 OA
ATOM     28  H   UNL     1      62.219  -0.518   3.449  1.00  0.00     0.211 HD
ENDBRANCH  20  27
BRANCH  21  29
ATOM     29  C   UNL     1      65.588  -0.175   5.057  1.00  0.00     0.191 C 
BRANCH  29  30
ATOM     30  O   UNL     1      66.148   0.410   3.915  1.00  0.00    -0.394 OA
ATOM     31  H   UNL     1      65.617   0.075   3.148  1.00  0.00     0.210 HD
ENDBRANCH  29  30
ENDBRANCH  21  29
ENDBRANCH   1  17
TORSDOF 13
ENDMDL
MODEL 5
REMARK VINA RESULT:    -6.731      1.685      5.915
REMARK INTER + INTRA:         -11.468
REMARK INTER:                 -10.145
REMARK INTRA:                  -1.323
REMARK UNBOUND:                -1.195
REMARK SMILES OC[C@@H]1O[C@H](O[C@]2(CO)O[C@H](CO)[C@H](O)[C@@H]2O)[C@H](O)[C@@H](O)[C@H]1O
REMARK SMILES IDX 6 1 5 2 3 3 22 4 4 5 20 6 18 7 2 8 1 9 23 11 21 13 19 15
REMARK SMILES IDX 7 17 16 18 10 19 14 20 11 21 8 22 9 23 17 25 15 27 12 29
REMARK SMILES IDX 13 30
REMARK H PARENT 1 10 23 12 21 14 19 16 9 24 17 26 15 28 13 31
REMARK Flexibility Score: inf
ROOT
ATOM      1  O   UNL     1      63.530  -0.324   4.073  1.00  0.00    -0.313 OA
ENDROOT
BRANCH   1   2
ATOM      2  C   UNL     1      63.620  -1.729   3.905  1.00  0.00     0.285 C 
ATOM      3  C   UNL     1      62.536  -3.564   2.957  1.00  0.00     0.178 C 
ATOM      4  C   UNL     1      63.807  -4.089   2.245  1.00  0.00     0.177 C 
ATOM      5  O   UNL     1      62.579  -2.151   3.042  1.00  0.00    -0.341 OA
ATOM      6  C   UNL     1      65.088  -3.559   2.931  1.00  0.00     0.179 C 
ATOM      7  C   UNL     1      64.982  -2.053   3.271  1.00  0.00     0.202 C 
BRANCH   3   8
ATOM      8  C   UNL     1      61.265  -3.949   2.186  1.00  0.00     0.191 C 
BRANCH   8   9
ATOM      9  O   UNL     1      60.940  -5.294   2.405  1.00  0.00    -0.394 OA
ATOM     10  H   UNL     1      61.279  -5.788   1.615  1.00  0.00     0.210 HD
ENDBRANCH   8   9
ENDBRANCH   3   8
BRANCH   4  11
ATOM     11  O   UNL     1      63.828  -5.496   2.261  1.00  0.00    -0.387 OA
ATOM     12  H   UNL     1      62.961  -5.803   2.629  1.00  0.00     0.211 HD
ENDBRANCH   4  11
BRANCH   6  13
ATOM     13  O   UNL     1      65.427  -4.315   4.072  1.00  0.00    -0.387 OA
ATOM     14  H   UNL     1      65.174  -3.799   4.880  1.00  0.00     0.211 HD
ENDBRANCH   6  13
BRANCH   7  15
ATOM     15  O   UNL     1      65.139  -1.288   2.102  1.00  0.00    -0.385 OA
ATOM     16  H   UNL     1      65.964  -1.613   1.656  1.00  0.00     0.211 HD
ENDBRANCH   7  15
ENDBRANCH   1   2
BRANCH   1  17
ATOM     17  C   UNL     1      63.497   0.094   5.439  1.00  0.00     0.224 C 
ATOM     18  C   UNL     1      64.577   1.179   5.663  1.00  0.00     0.208 C 
ATOM     19  O   UNL     1      62.240   0.674   5.775  1.00  0.00    -0.337 OA
ATOM     20  C   UNL     1      63.797   2.467   5.561  1.00  0.00     0.180 C 
ATOM     21  C   UNL     1      62.461   2.020   6.142  1.00  0.00     0.179 C 
BRANCH  17  22
ATOM     22  C   UNL     1      63.769  -1.125   6.347  1.00  0.00     0.225 C 
BRANCH  22  23
ATOM     23  O   UNL     1      64.993  -0.976   7.014  1.00  0.00    -0.391 OA
ATOM     24  H   UNL     1      65.641  -1.547   6.526  1.00  0.00     0.210 HD
ENDBRANCH  22  23
ENDBRANCH  17  22
BRANCH  18  25
ATOM     25  O   UNL     1      65.678   1.109   4.785  1.00  0.00    -0.385 OA
ATOM     26  H   UNL     1      65.756   1.966   4.289  1.00  0.00     0.211 HD
ENDBRANCH  18  25
BRANCH  20  27
ATOM     27  O   UNL     1      63.660   2.860   4.217  1.00  0.00    -0.387 OA
ATOM     28  H   UNL     1      62.705   3.099   4.080  1.00  0.00     0.211 HD
ENDBRANCH  20  27
BRANCH  21  29
ATOM     29  C   UNL     1      61.267   2.886   5.726  1.00  0.00     0.191 C 
BRANCH  29  30
ATOM     30  O   UNL     1      60.745   2.422   4.511  1.00  0.00    -0.394 OA
ATOM     31  H   UNL     1      61.526   2.240   3.930  1.00  0.00     0.210 HD
ENDBRANCH  29  30
ENDBRANCH  21  29
ENDBRANCH   1  17
TORSDOF 13
ENDMDL
MODEL 6
REMARK VINA RESULT:    -6.727      1.239      5.771
REMARK INTER + INTRA:         -11.462
REMARK INTER:                 -10.903
REMARK INTRA:                  -0.559
REMARK UNBOUND:                -1.195
REMARK SMILES OC[C@@H]1O[C@H](O[C@]2(CO)O[C@H](CO)[C@H](O)[C@@H]2O)[C@H](O)[C@@H](O)[C@H]1O
REMARK SMILES IDX 6 1 5 2 3 3 22 4 4 5 20 6 18 7 2 8 1 9 23 11 21 13 19 15
REMARK SMILES IDX 7 17 16 18 10 19 14 20 11 21 8 22 9 23 17 25 15 27 12 29
REMARK SMILES IDX 13 30
REMARK H PARENT 1 10 23 12 21 14 19 16 9 24 17 26 15 28 13 31
REMARK Flexibility Score: inf
ROOT
ATOM      1  O   UNL     1      63.338  -1.784   4.354  1.00  0.00    -0.313 OA
ENDROOT
BRANCH   1   2
ATOM      2  C   UNL     1      62.516  -2.759   3.733  1.00  0.00     0.285 C 
ATOM      3  C   UNL     1      61.212  -3.163   1.841  1.00  0.00     0.178 C 
ATOM      4  C   UNL     1      61.878  -4.527   1.536  1.00  0.00     0.177 C 
ATOM      5  O   UNL     1      62.150  -2.292   2.446  1.00  0.00    -0.341 OA
ATOM      6  C   UNL     1      62.534  -5.123   2.804  1.00  0.00     0.179 C 
ATOM      7  C   UNL     1      63.325  -4.059   3.601  1.00  0.00     0.202 C 
BRANCH   3   8
ATOM      8  C   UNL     1      60.706  -2.489   0.558  1.00  0.00     0.191 C 
BRANCH   8   9
ATOM      9  O   UNL     1      59.392  -2.032   0.723  1.00  0.00    -0.394 OA
ATOM     10  H   UNL     1      58.827  -2.616   0.156  1.00  0.00     0.210 HD
ENDBRANCH   8   9
ENDBRANCH   3   8
BRANCH   4  11
ATOM     11  O   UNL     1      60.924  -5.436   1.043  1.00  0.00    -0.387 OA
ATOM     12  H   UNL     1      60.536  -5.044   0.219  1.00  0.00     0.211 HD
ENDBRANCH   4  11
BRANCH   6  13
ATOM     13  O   UNL     1      61.593  -5.778   3.625  1.00  0.00    -0.387 OA
ATOM     14  H   UNL     1      61.130  -5.099   4.180  1.00  0.00     0.211 HD
ENDBRANCH   6  13
BRANCH   7  15
ATOM     15  O   UNL     1      64.540  -3.782   2.950  1.00  0.00    -0.385 OA
ATOM     16  H   UNL     1      64.943  -3.005   3.417  1.00  0.00     0.211 HD
ENDBRANCH   7  15
ENDBRANCH   1   2
BRANCH   1  17
ATOM     17  C   UNL     1      62.871  -1.369   5.638  1.00  0.00     0.224 C 
ATOM     18  C   UNL     1      64.073  -0.873   6.478  1.00  0.00     0.208 C 
ATOM     19  O   UNL     1      61.954  -0.284   5.532  1.00  0.00    -0.337 OA
ATOM     20  C   UNL     1      64.019   0.626   6.304  1.00  0.00     0.180 C 
ATOM     21  C   UNL     1      62.512   0.831   6.197  1.00  0.00     0.179 C 
BRANCH  17  22
ATOM     22  C   UNL     1      62.188  -2.564   6.339  1.00  0.00     0.225 C 
BRANCH  22  23
ATOM     23  O   UNL     1      61.133  -2.119   7.148  1.00  0.00    -0.391 OA
ATOM     24  H   UNL     1      61.526  -1.962   8.046  1.00  0.00     0.210 HD
ENDBRANCH  22  23
ENDBRANCH  17  22
BRANCH  18  25
ATOM     25  O   UNL     1      65.314  -1.442   6.129  1.00  0.00    -0.385 OA
ATOM     26  H   UNL     1      65.908  -0.733   5.766  1.00  0.00     0.211 HD
ENDBRANCH  18  25
BRANCH  20  27
ATOM     27  O   UNL     1      64.669   1.012   5.118  1.00  0.00    -0.387 OA
ATOM     28  H   UNL     1      63.962   1.281   4.473  1.00  0.00     0.211 HD
ENDBRANCH  20  27
BRANCH  21  29
ATOM     29  C   UNL     1      62.097   2.128   5.496  1.00  0.00     0.191 C 
BRANCH  29  30
ATOM     30  O   UNL     1      61.192   1.843   4.466  1.00  0.00    -0.394 OA
ATOM     31  H   UNL     1      60.289   1.939   4.861  1.00  0.00     0.210 HD
ENDBRANCH  29  30
ENDBRANCH  21  29
ENDBRANCH   1  17
TORSDOF 13
ENDMDL
MODEL 7
REMARK VINA RESULT:    -6.624      2.152      5.848
REMARK INTER + INTRA:         -11.304
REMARK INTER:                  -9.600
REMARK INTRA:                  -1.705
REMARK UNBOUND:                -1.195
REMARK SMILES OC[C@@H]1O[C@H](O[C@]2(CO)O[C@H](CO)[C@H](O)[C@@H]2O)[C@H](O)[C@@H](O)[C@H]1O
REMARK SMILES IDX 6 1 5 2 3 3 22 4 4 5 20 6 18 7 2 8 1 9 23 11 21 13 19 15
REMARK SMILES IDX 7 17 16 18 10 19 14 20 11 21 8 22 9 23 17 25 15 27 12 29
REMARK SMILES IDX 13 30
REMARK H PARENT 1 10 23 12 21 14 19 16 9 24 17 26 15 28 13 31
REMARK Flexibility Score: inf
ROOT
ATOM      1  O   UNL     1      65.039   1.026   4.605  1.00  0.00    -0.313 OA
ENDROOT
BRANCH   1   2
ATOM      2  C   UNL     1      65.158  -0.387   4.582  1.00  0.00     0.285 C 
ATOM      3  C   UNL     1      64.275  -2.315   3.610  1.00  0.00     0.178 C 
ATOM      4  C   UNL     1      65.658  -2.879   3.203  1.00  0.00     0.177 C 
ATOM      5  O   UNL     1      64.301  -0.900   3.576  1.00  0.00    -0.341 OA
ATOM      6  C   UNL     1      66.785  -2.270   4.071  1.00  0.00     0.179 C 
ATOM      7  C   UNL     1      66.616  -0.743   4.250  1.00  0.00     0.202 C 
BRANCH   3   8
ATOM      8  C   UNL     1      63.175  -2.786   2.647  1.00  0.00     0.191 C 
BRANCH   8   9
ATOM      9  O   UNL     1      61.932  -2.823   3.294  1.00  0.00    -0.394 OA
ATOM     10  H   UNL     1      61.463  -1.991   3.031  1.00  0.00     0.210 HD
ENDBRANCH   8   9
ENDBRANCH   3   8
BRANCH   4  11
ATOM     11  O   UNL     1      65.675  -4.279   3.346  1.00  0.00    -0.387 OA
ATOM     12  H   UNL     1      66.395  -4.629   2.762  1.00  0.00     0.211 HD
ENDBRANCH   4  11
BRANCH   6  13
ATOM     13  O   UNL     1      66.898  -2.919   5.318  1.00  0.00    -0.387 OA
ATOM     14  H   UNL     1      67.650  -2.511   5.820  1.00  0.00     0.211 HD
ENDBRANCH   6  13
BRANCH   7  15
ATOM     15  O   UNL     1      66.995  -0.079   3.070  1.00  0.00    -0.385 OA
ATOM     16  H   UNL     1      66.616  -0.600   2.315  1.00  0.00     0.211 HD
ENDBRANCH   7  15
ENDBRANCH   1   2
BRANCH   1  17
ATOM     17  C   UNL     1      64.472   1.538   5.812  1.00  0.00     0.224 C 
ATOM     18  C   UNL     1      63.392   2.589   5.458  1.00  0.00     0.208 C 
ATOM     19  O   UNL     1      63.830   0.510   6.562  1.00  0.00    -0.337 OA
ATOM     20  C   UNL     1      62.107   1.803   5.539  1.00  0.00     0.180 C 
ATOM     21  C   UNL     1      62.457   0.827   6.657  1.00  0.00     0.179 C 
BRANCH  17  22
ATOM     22  C   UNL     1      65.589   2.184   6.661  1.00  0.00     0.225 C 
BRANCH  22  23
ATOM     23  O   UNL     1      65.442   3.578   6.684  1.00  0.00    -0.391 OA
ATOM     24  H   UNL     1      64.495   3.757   6.447  1.00  0.00     0.210 HD
ENDBRANCH  22  23
ENDBRANCH  17  22
BRANCH  18  25
ATOM     25  O   UNL     1      63.584   3.242   4.224  1.00  0.00    -0.385 OA
ATOM     26  H   UNL     1      63.279   4.184   4.301  1.00  0.00     0.211 HD
ENDBRANCH  18  25
BRANCH  20  27
ATOM     27  O   UNL     1      61.863   1.124   4.332  1.00  0.00    -0.387 OA
ATOM     28  H   UNL     1      62.678   1.222   3.772  1.00  0.00     0.211 HD
ENDBRANCH  20  27
BRANCH  21  29
ATOM     29  C   UNL     1      61.617  -0.454   6.667  1.00  0.00     0.191 C 
BRANCH  29  30
ATOM     30  O   UNL     1      61.978  -1.267   5.584  1.00  0.00    -0.394 OA
ATOM     31  H   UNL     1      62.916  -1.540   5.749  1.00  0.00     0.210 HD
ENDBRANCH  29  30
ENDBRANCH  21  29
ENDBRANCH   1  17
TORSDOF 13
ENDMDL
MODEL 8
REMARK VINA RESULT:    -6.575      1.854      6.190
REMARK INTER + INTRA:         -11.229
REMARK INTER:                 -10.129
REMARK INTRA:                  -1.100
REMARK UNBOUND:                -1.195
REMARK SMILES OC[C@@H]1O[C@H](O[C@]2(CO)O[C@H](CO)[C@H](O)[C@@H]2O)[C@H](O)[C@@H](O)[C@H]1O
REMARK SMILES IDX 6 1 5 2 3 3 22 4 4 5 20 6 18 7 2 8 1 9 23 11 21 13 19 15
REMARK SMILES IDX 7 17 16 18 10 19 14 20 11 21 8 22 9 23 17 25 15 27 12 29
REMARK SMILES IDX 13 30
REMARK H PARENT 1 10 23 12 21 14 19 16 9 24 17 26 15 28 13 31
REMARK Flexibility Score: inf
ROOT
ATOM      1  O   UNL     1      62.234  -0.694   5.642  1.00  0.00    -0.313 OA
ENDROOT
BRANCH   1   2
ATOM      2  C   UNL     1      63.012  -1.568   4.840  1.00  0.00     0.285 C 
ATOM      3  C   UNL     1      62.910  -3.536   3.592  1.00  0.00     0.178 C 
ATOM      4  C   UNL     1      63.572  -2.910   2.340  1.00  0.00     0.177 C 
ATOM      5  O   UNL     1      62.160  -2.555   4.284  1.00  0.00    -0.341 OA
ATOM      6  C   UNL     1      64.405  -1.662   2.717  1.00  0.00     0.179 C 
ATOM      7  C   UNL     1      63.655  -0.745   3.713  1.00  0.00     0.202 C 
BRANCH   3   8
ATOM      8  C   UNL     1      61.950  -4.672   3.206  1.00  0.00     0.191 C 
BRANCH   8   9
ATOM      9  O   UNL     1      62.664  -5.804   2.790  1.00  0.00    -0.394 OA
ATOM     10  H   UNL     1      62.810  -5.692   1.816  1.00  0.00     0.210 HD
ENDBRANCH   8   9
ENDBRANCH   3   8
BRANCH   4  11
ATOM     11  O   UNL     1      64.412  -3.848   1.713  1.00  0.00    -0.387 OA
ATOM     12  H   UNL     1      63.831  -4.509   1.255  1.00  0.00     0.211 HD
ENDBRANCH   4  11
BRANCH   6  13
ATOM     13  O   UNL     1      65.681  -2.009   3.207  1.00  0.00    -0.387 OA
ATOM     14  H   UNL     1      66.343  -1.364   2.849  1.00  0.00     0.211 HD
ENDBRANCH   6  13
BRANCH   7  15
ATOM     15  O   UNL     1      62.652  -0.027   3.037  1.00  0.00    -0.385 OA
ATOM     16  H   UNL     1      63.114   0.624   2.448  1.00  0.00     0.211 HD
ENDBRANCH   7  15
ENDBRANCH   1   2
BRANCH   1  17
ATOM     17  C   UNL     1      62.663  -0.624   7.002  1.00  0.00     0.224 C 
ATOM     18  C   UNL     1      63.093   0.828   7.324  1.00  0.00     0.208 C 
ATOM     19  O   UNL     1      61.608  -0.960   7.898  1.00  0.00    -0.337 OA
ATOM     20  C   UNL     1      61.870   1.409   7.991  1.00  0.00     0.180 C 
ATOM     21  C   UNL     1      61.336   0.170   8.702  1.00  0.00     0.179 C 
BRANCH  17  22
ATOM     22  C   UNL     1      63.850  -1.590   7.209  1.00  0.00     0.225 C 
BRANCH  22  23
ATOM     23  O   UNL     1      64.987  -0.886   7.631  1.00  0.00    -0.391 OA
ATOM     24  H   UNL     1      64.655  -0.162   8.222  1.00  0.00     0.210 HD
ENDBRANCH  22  23
ENDBRANCH  17  22
BRANCH  18  25
ATOM     25  O   UNL     1      63.543   1.571   6.214  1.00  0.00    -0.385 OA
ATOM     26  H   UNL     1      64.535   1.603   6.222  1.00  0.00     0.211 HD
ENDBRANCH  18  25
BRANCH  20  27
ATOM     27  O   UNL     1      60.954   1.876   7.031  1.00  0.00    -0.387 OA
ATOM     28  H   UNL     1      61.486   2.222   6.265  1.00  0.00     0.211 HD
ENDBRANCH  20  27
BRANCH  21  29
ATOM     29  C   UNL     1      59.844   0.230   9.046  1.00  0.00     0.191 C 
BRANCH  29  30
ATOM     30  O   UNL     1      59.198  -0.911   8.554  1.00  0.00    -0.394 OA
ATOM     31  H   UNL     1      58.597  -0.595   7.832  1.00  0.00     0.210 HD
ENDBRANCH  29  30
ENDBRANCH  21  29
ENDBRANCH   1  17
TORSDOF 13
ENDMDL
MODEL 9
REMARK VINA RESULT:    -6.546     13.908     15.774
REMARK INTER + INTRA:         -11.186
REMARK INTER:                  -9.563
REMARK INTRA:                  -1.623
REMARK UNBOUND:                -1.195
REMARK SMILES OC[C@@H]1O[C@H](O[C@]2(CO)O[C@H](CO)[C@H](O)[C@@H]2O)[C@H](O)[C@@H](O)[C@H]1O
REMARK SMILES IDX 6 1 5 2 3 3 22 4 4 5 20 6 18 7 2 8 1 9 23 11 21 13 19 15
REMARK SMILES IDX 7 17 16 18 10 19 14 20 11 21 8 22 9 23 17 25 15 27 12 29
REMARK SMILES IDX 13 30
REMARK H PARENT 1 10 23 12 21 14 19 16 9 24 17 26 15 28 13 31
REMARK Flexibility Score: inf
ROOT
ATOM      1  O   UNL     1      52.854   1.968  -6.910  1.00  0.00    -0.313 OA
ENDROOT
BRANCH   1   2
ATOM      2  C   UNL     1      51.696   2.670  -6.488  1.00  0.00     0.285 C 
ATOM      3  C   UNL     1      50.250   2.964  -4.682  1.00  0.00     0.178 C 
ATOM      4  C   UNL     1      50.335   4.509  -4.721  1.00  0.00     0.177 C 
ATOM      5  O   UNL     1      51.476   2.402  -5.115  1.00  0.00    -0.341 OA
ATOM      6  C   UNL     1      50.773   5.008  -6.118  1.00  0.00     0.179 C 
ATOM      7  C   UNL     1      51.944   4.174  -6.689  1.00  0.00     0.202 C 
BRANCH   3   8
ATOM      8  C   UNL     1      49.979   2.455  -3.258  1.00  0.00     0.191 C 
BRANCH   8   9
ATOM      9  O   UNL     1      50.908   1.470  -2.898  1.00  0.00    -0.394 OA
ATOM     10  H   UNL     1      51.427   1.847  -2.143  1.00  0.00     0.210 HD
ENDBRANCH   8   9
ENDBRANCH   3   8
BRANCH   4  11
ATOM     11  O   UNL     1      49.085   5.074  -4.404  1.00  0.00    -0.387 OA
ATOM     12  H   UNL     1      48.398   4.374  -4.546  1.00  0.00     0.211 HD
ENDBRANCH   4  11
BRANCH   6  13
ATOM     13  O   UNL     1      49.693   5.054  -7.023  1.00  0.00    -0.387 OA
ATOM     14  H   UNL     1      49.862   5.777  -7.681  1.00  0.00     0.211 HD
ENDBRANCH   6  13
BRANCH   7  15
ATOM     15  O   UNL     1      53.143   4.532  -6.046  1.00  0.00    -0.385 OA
ATOM     16  H   UNL     1      53.150   4.062  -5.173  1.00  0.00     0.211 HD
ENDBRANCH   7  15
ENDBRANCH   1   2
BRANCH   1  17
ATOM     17  C   UNL     1      52.572   0.791  -7.668  1.00  0.00     0.224 C 
ATOM     18  C   UNL     1      53.827  -0.114  -7.685  1.00  0.00     0.208 C 
ATOM     19  O   UNL     1      51.516   0.035  -7.081  1.00  0.00    -0.337 OA
ATOM     20  C   UNL     1      53.547  -1.113  -6.589  1.00  0.00     0.180 C 
ATOM     21  C   UNL     1      52.031  -1.226  -6.708  1.00  0.00     0.179 C 
BRANCH  17  22
ATOM     22  C   UNL     1      52.186   1.196  -9.107  1.00  0.00     0.225 C 
BRANCH  22  23
ATOM     23  O   UNL     1      53.320   1.615  -9.818  1.00  0.00    -0.391 OA
ATOM     24  H   UNL     1      53.080   1.547 -10.779  1.00  0.00     0.210 HD
ENDBRANCH  22  23
ENDBRANCH  17  22
BRANCH  18  25
ATOM     25  O   UNL     1      55.051   0.568  -7.533  1.00  0.00    -0.385 OA
ATOM     26  H   UNL     1      55.625   0.390  -8.323  1.00  0.00     0.211 HD
ENDBRANCH  18  25
BRANCH  20  27
ATOM     27  O   UNL     1      53.919  -0.594  -5.336  1.00  0.00    -0.387 OA
ATOM     28  H   UNL     1      54.172  -1.366  -4.764  1.00  0.00     0.211 HD
ENDBRANCH  20  27
BRANCH  21  29
ATOM     29  C   UNL     1      51.331  -1.730  -5.442  1.00  0.00     0.191 C 
BRANCH  29  30
ATOM     30  O   UNL     1      51.103  -0.661  -4.567  1.00  0.00    -0.394 OA
ATOM     31  H   UNL     1      50.277  -0.888  -4.068  1.00  0.00     0.210 HD
ENDBRANCH  29  30
ENDBRANCH  21  29
ENDBRANCH   1  17
TORSDOF 13
ENDMDL
