MODEL 1
REMARK VINA RESULT:    -4.728      0.000      0.000
REMARK INTER + INTRA:          -6.986
REMARK INTER:                  -6.386
REMARK INTRA:                  -0.600
REMARK UNBOUND:                -0.600
REMARK SMILES CC(=O)OCC=C(C)CCC=C(C)C
REMARK SMILES IDX 7 1 6 2 8 3 9 4 10 5 11 6 13 7 12 8 14 9 5 10 4 11 2 12 3 13
REMARK SMILES IDX 1 14
REMARK H PARENT
REMARK Flexibility Score: inf
ROOT
ATOM      1  C   UNL     1      13.995  -9.094  32.927  1.00  0.00    -0.074 C 
ATOM      2  C   UNL     1      13.152  -8.997  31.874  1.00  0.00     0.013 C 
ATOM      3  C   UNL     1      14.084 -10.352  33.757  1.00  0.00     0.039 C 
ENDROOT
BRANCH   1   4
ATOM      4  C   UNL     1      14.855  -7.903  33.296  1.00  0.00     0.034 C 
BRANCH   4   5
ATOM      5  C   UNL     1      14.888  -6.857  32.175  1.00  0.00     0.032 C 
BRANCH   5   6
ATOM      6  C   UNL     1      14.261  -5.558  32.628  1.00  0.00    -0.028 C 
ATOM      7  C   UNL     1      12.681  -3.677  32.623  1.00  0.00     0.039 C 
ATOM      8  C   UNL     1      13.233  -4.937  32.008  1.00  0.00    -0.080 C 
ATOM      9  C   UNL     1      12.627  -5.467  30.730  1.00  0.00     0.039 C 
ENDBRANCH   5   6
ENDBRANCH   4   5
ENDBRANCH   1   4
BRANCH   2  10
ATOM     10  C   UNL     1      12.239 -10.105  31.431  1.00  0.00     0.260 C 
BRANCH  10  11
ATOM     11  O   UNL     1      12.074 -10.059  30.018  1.00  0.00    -0.462 OA
BRANCH  11  12
ATOM     12  C   UNL     1      12.799 -10.876  29.145  1.00  0.00     0.302 C 
ATOM     13  O   UNL     1      12.227 -11.454  28.181  1.00  0.00    -0.253 OA
ATOM     14  C   UNL     1      14.251 -11.104  29.390  1.00  0.00     0.139 C 
ENDBRANCH  11  12
ENDBRANCH  10  11
ENDBRANCH   2  10
TORSDOF 6
ENDMDL
MODEL 2
REMARK VINA RESULT:    -4.663      2.800      5.577
REMARK INTER + INTRA:          -6.898
REMARK INTER:                  -6.421
REMARK INTRA:                  -0.478
REMARK UNBOUND:                -0.600
REMARK SMILES CC(=O)OCC=C(C)CCC=C(C)C
REMARK SMILES IDX 7 1 6 2 8 3 9 4 10 5 11 6 13 7 12 8 14 9 5 10 4 11 2 12 3 13
REMARK SMILES IDX 1 14
REMARK H PARENT
REMARK Flexibility Score: inf
ROOT
ATOM      1  C   UNL     1      14.922  -8.303  33.257  1.00  0.00    -0.074 C 
ATOM      2  C   UNL     1      14.346  -7.140  32.879  1.00  0.00     0.013 C 
ATOM      3  C   UNL     1      16.319  -8.346  33.829  1.00  0.00     0.039 C 
ENDROOT
BRANCH   1   4
ATOM      4  C   UNL     1      14.155  -9.598  33.083  1.00  0.00     0.034 C 
BRANCH   4   5
ATOM      5  C   UNL     1      13.713  -9.805  31.629  1.00  0.00     0.032 C 
BRANCH   5   6
ATOM      6  C   UNL     1      14.905 -10.002  30.722  1.00  0.00    -0.028 C 
ATOM      7  C   UNL     1      16.133 -10.642  28.694  1.00  0.00     0.039 C 
ATOM      8  C   UNL     1      14.862 -10.577  29.500  1.00  0.00    -0.080 C 
ATOM      9  C   UNL     1      13.588 -11.149  28.925  1.00  0.00     0.039 C 
ENDBRANCH   5   6
ENDBRANCH   4   5
ENDBRANCH   1   4
BRANCH   2  10
ATOM     10  C   UNL     1      15.020  -5.801  32.986  1.00  0.00     0.260 C 
BRANCH  10  11
ATOM     11  O   UNL     1      14.390  -4.873  32.109  1.00  0.00    -0.462 OA
BRANCH  11  12
ATOM     12  C   UNL     1      13.003  -4.718  32.043  1.00  0.00     0.302 C 
ATOM     13  O   UNL     1      12.355  -4.287  33.035  1.00  0.00    -0.253 OA
ATOM     14  C   UNL     1      12.279  -5.117  30.803  1.00  0.00     0.139 C 
ENDBRANCH  11  12
ENDBRANCH  10  11
ENDBRANCH   2  10
TORSDOF 6
ENDMDL
MODEL 3
REMARK VINA RESULT:    -4.631     13.767     15.806
REMARK INTER + INTRA:          -6.855
REMARK INTER:                  -6.367
REMARK INTRA:                  -0.488
REMARK UNBOUND:                -0.600
REMARK SMILES CC(=O)OCC=C(C)CCC=C(C)C
REMARK SMILES IDX 7 1 6 2 8 3 9 4 10 5 11 6 13 7 12 8 14 9 5 10 4 11 2 12 3 13
REMARK SMILES IDX 1 14
REMARK H PARENT
REMARK Flexibility Score: inf
ROOT
ATOM      1  C   UNL     1       0.031 -18.252  33.238  1.00  0.00    -0.074 C 
ATOM      2  C   UNL     1       0.860 -19.268  32.909  1.00  0.00     0.013 C 
ATOM      3  C   UNL     1      -1.211 -18.481  34.067  1.00  0.00     0.039 C 
ENDROOT
BRANCH   1   4
ATOM      4  C   UNL     1       0.344 -16.854  32.748  1.00  0.00     0.034 C 
BRANCH   4   5
ATOM      5  C   UNL     1       1.796 -16.731  32.270  1.00  0.00     0.032 C 
BRANCH   5   6
ATOM      6  C   UNL     1       1.873 -15.994  30.953  1.00  0.00    -0.028 C 
ATOM      7  C   UNL     1       2.889 -15.138  28.888  1.00  0.00     0.039 C 
ATOM      8  C   UNL     1       2.993 -15.850  30.211  1.00  0.00    -0.080 C 
ATOM      9  C   UNL     1       4.332 -16.379  30.665  1.00  0.00     0.039 C 
ENDBRANCH   5   6
ENDBRANCH   4   5
ENDBRANCH   1   4
BRANCH   2  10
ATOM     10  C   UNL     1       0.637 -20.696  33.321  1.00  0.00     0.260 C 
BRANCH  10  11
ATOM     11  O   UNL     1       1.165 -21.572  32.331  1.00  0.00    -0.462 OA
BRANCH  11  12
ATOM     12  C   UNL     1       2.528 -21.635  32.028  1.00  0.00     0.302 C 
ATOM     13  O   UNL     1       3.367 -21.978  32.905  1.00  0.00    -0.253 OA
ATOM     14  C   UNL     1       2.996 -21.242  30.669  1.00  0.00     0.139 C 
ENDBRANCH  11  12
ENDBRANCH  10  11
ENDBRANCH   2  10
TORSDOF 6
ENDMDL
MODEL 4
REMARK VINA RESULT:    -4.606      1.797      2.347
REMARK INTER + INTRA:          -6.822
REMARK INTER:                  -6.299
REMARK INTRA:                  -0.523
REMARK UNBOUND:                -0.600
REMARK SMILES CC(=O)OCC=C(C)CCC=C(C)C
REMARK SMILES IDX 7 1 6 2 8 3 9 4 10 5 11 6 13 7 12 8 14 9 5 10 4 11 2 12 3 13
REMARK SMILES IDX 1 14
REMARK H PARENT
REMARK Flexibility Score: inf
ROOT
ATOM      1  C   UNL     1      13.253  -9.498  31.520  1.00  0.00    -0.074 C 
ATOM      2  C   UNL     1      14.190 -10.088  30.744  1.00  0.00     0.013 C 
ATOM      3  C   UNL     1      11.785  -9.812  31.363  1.00  0.00     0.039 C 
ENDROOT
BRANCH   1   4
ATOM      4  C   UNL     1      13.685  -8.482  32.557  1.00  0.00     0.034 C 
BRANCH   4   5
ATOM      5  C   UNL     1      14.504  -7.346  31.932  1.00  0.00     0.032 C 
BRANCH   5   6
ATOM      6  C   UNL     1      14.118  -6.010  32.524  1.00  0.00    -0.028 C 
ATOM      7  C   UNL     1      12.855  -3.918  32.775  1.00  0.00     0.039 C 
ATOM      8  C   UNL     1      13.163  -5.191  32.030  1.00  0.00    -0.080 C 
ATOM      9  C   UNL     1      12.402  -5.514  30.766  1.00  0.00     0.039 C 
ENDBRANCH   5   6
ENDBRANCH   4   5
ENDBRANCH   1   4
BRANCH   2  10
ATOM     10  C   UNL     1      13.876 -11.092  29.672  1.00  0.00     0.260 C 
BRANCH  10  11
ATOM     11  O   UNL     1      14.648 -10.815  28.509  1.00  0.00    -0.462 OA
BRANCH  11  12
ATOM     12  C   UNL     1      16.012 -10.511  28.563  1.00  0.00     0.302 C 
ATOM     13  O   UNL     1      16.456  -9.452  28.042  1.00  0.00    -0.253 OA
ATOM     14  C   UNL     1      16.953 -11.475  29.198  1.00  0.00     0.139 C 
ENDBRANCH  11  12
ENDBRANCH  10  11
ENDBRANCH   2  10
TORSDOF 6
ENDMDL
MODEL 5
REMARK VINA RESULT:    -4.567     12.894     15.552
REMARK INTER + INTRA:          -6.768
REMARK INTER:                  -6.177
REMARK INTRA:                  -0.591
REMARK UNBOUND:                -0.600
REMARK SMILES CC(=O)OCC=C(C)CCC=C(C)C
REMARK SMILES IDX 7 1 6 2 8 3 9 4 10 5 11 6 13 7 12 8 14 9 5 10 4 11 2 12 3 13
REMARK SMILES IDX 1 14
REMARK H PARENT
REMARK Flexibility Score: inf
ROOT
ATOM      1  C   UNL     1       0.794 -16.606  31.956  1.00  0.00    -0.074 C 
ATOM      2  C   UNL     1       0.394 -16.123  30.758  1.00  0.00     0.013 C 
ATOM      3  C   UNL     1       1.960 -16.005  32.703  1.00  0.00     0.039 C 
ENDROOT
BRANCH   1   4
ATOM      4  C   UNL     1       0.067 -17.793  32.554  1.00  0.00     0.034 C 
BRANCH   4   5
ATOM      5  C   UNL     1       1.023 -18.956  32.848  1.00  0.00     0.032 C 
BRANCH   5   6
ATOM      6  C   UNL     1       1.757 -19.384  31.598  1.00  0.00    -0.028 C 
ATOM      7  C   UNL     1       2.934 -20.896  30.062  1.00  0.00     0.039 C 
ATOM      8  C   UNL     1       2.286 -20.610  31.391  1.00  0.00    -0.080 C 
ATOM      9  C   UNL     1       2.245 -21.691  32.446  1.00  0.00     0.039 C 
ENDBRANCH   5   6
ENDBRANCH   4   5
ENDBRANCH   1   4
BRANCH   2  10
ATOM     10  C   UNL     1       1.054 -14.966  30.062  1.00  0.00     0.260 C 
BRANCH  10  11
ATOM     11  O   UNL     1       1.694 -15.418  28.874  1.00  0.00    -0.462 OA
BRANCH  11  12
ATOM     12  C   UNL     1       3.073 -15.311  28.672  1.00  0.00     0.302 C 
ATOM     13  O   UNL     1       3.534 -14.966  27.550  1.00  0.00    -0.253 OA
ATOM     14  C   UNL     1       4.006 -15.659  29.780  1.00  0.00     0.139 C 
ENDBRANCH  11  12
ENDBRANCH  10  11
ENDBRANCH   2  10
TORSDOF 6
ENDMDL
MODEL 6
REMARK VINA RESULT:    -4.360      3.263      6.144
REMARK INTER + INTRA:          -6.490
REMARK INTER:                  -6.062
REMARK INTRA:                  -0.427
REMARK UNBOUND:                -0.600
REMARK SMILES CC(=O)OCC=C(C)CCC=C(C)C
REMARK SMILES IDX 7 1 6 2 8 3 9 4 10 5 11 6 13 7 12 8 14 9 5 10 4 11 2 12 3 13
REMARK SMILES IDX 1 14
REMARK H PARENT
REMARK Flexibility Score: inf
ROOT
ATOM      1  C   UNL     1      13.973  -8.425  32.408  1.00  0.00    -0.074 C 
ATOM      2  C   UNL     1      14.532  -7.204  32.565  1.00  0.00     0.013 C 
ATOM      3  C   UNL     1      14.554  -9.652  33.068  1.00  0.00     0.039 C 
ENDROOT
BRANCH   1   4
ATOM      4  C   UNL     1      12.746  -8.569  31.532  1.00  0.00     0.034 C 
BRANCH   4   5
ATOM      5  C   UNL     1      12.289 -10.029  31.431  1.00  0.00     0.032 C 
BRANCH   5   6
ATOM      6  C   UNL     1      11.941 -10.391  30.005  1.00  0.00    -0.028 C 
ATOM      7  C   UNL     1      12.288 -11.265  27.736  1.00  0.00     0.039 C 
ATOM      8  C   UNL     1      12.808 -10.899  29.101  1.00  0.00    -0.080 C 
ATOM      9  C   UNL     1      14.270 -11.108  29.419  1.00  0.00     0.039 C 
ENDBRANCH   5   6
ENDBRANCH   4   5
ENDBRANCH   1   4
BRANCH   2  10
ATOM     10  C   UNL     1      15.760  -6.948  33.393  1.00  0.00     0.260 C 
BRANCH  10  11
ATOM     11  O   UNL     1      15.649  -5.686  34.043  1.00  0.00    -0.462 OA
BRANCH  11  12
ATOM     12  C   UNL     1      15.222  -4.531  33.383  1.00  0.00     0.302 C 
ATOM     13  O   UNL     1      16.045  -3.802  32.765  1.00  0.00    -0.253 OA
ATOM     14  C   UNL     1      13.789  -4.132  33.454  1.00  0.00     0.139 C 
ENDBRANCH  11  12
ENDBRANCH  10  11
ENDBRANCH   2  10
TORSDOF 6
ENDMDL
MODEL 7
REMARK VINA RESULT:    -4.275     19.082     21.686
REMARK INTER + INTRA:          -6.374
REMARK INTER:                  -5.529
REMARK INTRA:                  -0.845
REMARK UNBOUND:                -0.600
REMARK SMILES CC(=O)OCC=C(C)CCC=C(C)C
REMARK SMILES IDX 7 1 6 2 8 3 9 4 10 5 11 6 13 7 12 8 14 9 5 10 4 11 2 12 3 13
REMARK SMILES IDX 1 14
REMARK H PARENT
REMARK Flexibility Score: inf
ROOT
ATOM      1  C   UNL     1       1.610 -16.510  18.252  1.00  0.00    -0.074 C 
ATOM      2  C   UNL     1       1.422 -17.069  17.036  1.00  0.00     0.013 C 
ATOM      3  C   UNL     1       2.430 -15.254  18.427  1.00  0.00     0.039 C 
ENDROOT
BRANCH   1   4
ATOM      4  C   UNL     1       1.002 -17.171  19.472  1.00  0.00     0.034 C 
BRANCH   4   5
ATOM      5  C   UNL     1      -0.530 -17.191  19.402  1.00  0.00     0.032 C 
BRANCH   5   6
ATOM      6  C   UNL     1      -1.063 -18.591  19.603  1.00  0.00    -0.028 C 
ATOM      7  C   UNL     1      -2.075 -20.744  18.994  1.00  0.00     0.039 C 
ATOM      8  C   UNL     1      -1.652 -19.341  18.646  1.00  0.00    -0.080 C 
ATOM      9  C   UNL     1      -1.894 -18.817  17.250  1.00  0.00     0.039 C 
ENDBRANCH   5   6
ENDBRANCH   4   5
ENDBRANCH   1   4
BRANCH   2  10
ATOM     10  C   UNL     1       1.994 -16.513  15.763  1.00  0.00     0.260 C 
BRANCH  10  11
ATOM     11  O   UNL     1       0.940 -16.122  14.890  1.00  0.00    -0.462 OA
BRANCH  11  12
ATOM     12  C   UNL     1       0.080 -15.058  15.175  1.00  0.00     0.302 C 
ATOM     13  O   UNL     1       0.436 -13.867  14.961  1.00  0.00    -0.253 OA
ATOM     14  C   UNL     1      -1.252 -15.334  15.784  1.00  0.00     0.139 C 
ENDBRANCH  11  12
ENDBRANCH  10  11
ENDBRANCH   2  10
TORSDOF 6
ENDMDL
MODEL 8
REMARK VINA RESULT:    -4.230     13.972     16.543
REMARK INTER + INTRA:          -6.314
REMARK INTER:                  -5.905
REMARK INTRA:                  -0.409
REMARK UNBOUND:                -0.600
REMARK SMILES CC(=O)OCC=C(C)CCC=C(C)C
REMARK SMILES IDX 7 1 6 2 8 3 9 4 10 5 11 6 13 7 12 8 14 9 5 10 4 11 2 12 3 13
REMARK SMILES IDX 1 14
REMARK H PARENT
REMARK Flexibility Score: inf
ROOT
ATOM      1  C   UNL     1       1.945 -16.377  30.644  1.00  0.00    -0.074 C 
ATOM      2  C   UNL     1       0.639 -16.046  30.537  1.00  0.00     0.013 C 
ATOM      3  C   UNL     1       3.022 -15.588  29.939  1.00  0.00     0.039 C 
ENDROOT
BRANCH   1   4
ATOM      4  C   UNL     1       2.336 -17.582  31.474  1.00  0.00     0.034 C 
BRANCH   4   5
ATOM      5  C   UNL     1       1.228 -18.642  31.495  1.00  0.00     0.032 C 
BRANCH   5   6
ATOM      6  C   UNL     1       1.714 -19.923  32.133  1.00  0.00    -0.028 C 
ATOM      7  C   UNL     1       2.875 -22.081  32.292  1.00  0.00     0.039 C 
ATOM      8  C   UNL     1       2.410 -20.890  31.496  1.00  0.00    -0.080 C 
ATOM      9  C   UNL     1       2.731 -20.810  30.022  1.00  0.00     0.039 C 
ENDBRANCH   5   6
ENDBRANCH   4   5
ENDBRANCH   1   4
BRANCH   2  10
ATOM     10  C   UNL     1       0.135 -14.887  29.725  1.00  0.00     0.260 C 
BRANCH  10  11
ATOM     11  O   UNL     1      -1.169 -15.174  29.231  1.00  0.00    -0.462 OA
BRANCH  11  12
ATOM     12  C   UNL     1      -2.331 -14.687  29.837  1.00  0.00     0.302 C 
ATOM     13  O   UNL     1      -2.688 -13.488  29.673  1.00  0.00    -0.253 OA
ATOM     14  C   UNL     1      -3.125 -15.581  30.725  1.00  0.00     0.139 C 
ENDBRANCH  11  12
ENDBRANCH  10  11
ENDBRANCH   2  10
TORSDOF 6
ENDMDL
MODEL 9
REMARK VINA RESULT:    -4.097     19.106     21.773
REMARK INTER + INTRA:          -6.134
REMARK INTER:                  -5.197
REMARK INTRA:                  -0.938
REMARK UNBOUND:                -0.600
REMARK SMILES CC(=O)OCC=C(C)CCC=C(C)C
REMARK SMILES IDX 7 1 6 2 8 3 9 4 10 5 11 6 13 7 12 8 14 9 5 10 4 11 2 12 3 13
REMARK SMILES IDX 1 14
REMARK H PARENT
REMARK Flexibility Score: inf
ROOT
ATOM      1  C   UNL     1       0.925 -16.747  18.698  1.00  0.00    -0.074 C 
ATOM      2  C   UNL     1       0.217 -16.392  17.603  1.00  0.00     0.013 C 
ATOM      3  C   UNL     1       2.384 -16.388  18.848  1.00  0.00     0.039 C 
ENDROOT
BRANCH   1   4
ATOM      4  C   UNL     1       0.244 -17.542  19.793  1.00  0.00     0.034 C 
BRANCH   4   5
ATOM      5  C   UNL     1      -1.249 -17.741  19.505  1.00  0.00     0.032 C 
BRANCH   5   6
ATOM      6  C   UNL     1      -1.630 -19.200  19.604  1.00  0.00    -0.028 C 
ATOM      7  C   UNL     1      -2.046 -21.494  18.832  1.00  0.00     0.039 C 
ATOM      8  C   UNL     1      -1.711 -20.052  18.558  1.00  0.00    -0.080 C 
ATOM      9  C   UNL     1      -1.477 -19.602  17.135  1.00  0.00     0.039 C 
ENDBRANCH   5   6
ENDBRANCH   4   5
ENDBRANCH   1   4
BRANCH   2  10
ATOM     10  C   UNL     1       0.794 -15.623  16.448  1.00  0.00     0.260 C 
BRANCH  10  11
ATOM     11  O   UNL     1       1.025 -16.501  15.351  1.00  0.00    -0.462 OA
BRANCH  11  12
ATOM     12  C   UNL     1       2.071 -17.428  15.333  1.00  0.00     0.302 C 
ATOM     13  O   UNL     1       3.271 -17.046  15.399  1.00  0.00    -0.253 OA
ATOM     14  C   UNL     1       1.763 -18.878  15.183  1.00  0.00     0.139 C 
ENDBRANCH  11  12
ENDBRANCH  10  11
ENDBRANCH   2  10
TORSDOF 6
ENDMDL
