MODEL 1
REMARK VINA RESULT:    -4.339      0.000      0.000
REMARK INTER + INTRA:          -5.425
REMARK INTER:                  -5.354
REMARK INTRA:                  -0.071
REMARK UNBOUND:                -0.071
REMARK SMILES CCCCCC(=O)[O-]
REMARK SMILES IDX 4 1 5 2 6 3 7 4 8 5 3 6 2 7 1 8
REMARK H PARENT
REMARK Flexibility Score: inf
ROOT
ATOM      1  C   UNL     1       7.537  -9.449  21.586  1.00  0.00     0.006 C 
ENDROOT
BRANCH   1   2
ATOM      2  C   UNL     1       8.945  -9.820  22.065  1.00  0.00     0.053 C 
BRANCH   2   3
ATOM      3  C   UNL     1       9.518  -8.723  22.906  1.00  0.00     0.041 C 
ATOM      4  O   UNL     1      10.683  -8.301  22.688  1.00  0.00    -0.550 OA
ATOM      5  O   UNL     1       8.782  -8.201  23.962  1.00  0.00    -0.550 OA
ENDBRANCH   2   3
ENDBRANCH   1   2
BRANCH   1   6
ATOM      6  C   UNL     1       6.903 -10.606  20.800  1.00  0.00     0.000 C 
BRANCH   6   7
ATOM      7  C   UNL     1       6.639 -10.246  19.329  1.00  0.00    -0.003 C 
ATOM      8  C   UNL     1       7.911  -9.853  18.580  1.00  0.00     0.004 C 
ENDBRANCH   6   7
ENDBRANCH   1   6
TORSDOF 4
ENDMDL
MODEL 2
REMARK VINA RESULT:    -4.049     15.990     17.229
REMARK INTER + INTRA:          -5.067
REMARK INTER:                  -5.004
REMARK INTRA:                  -0.063
REMARK UNBOUND:                -0.071
REMARK SMILES CCCCCC(=O)[O-]
REMARK SMILES IDX 4 1 5 2 6 3 7 4 8 5 3 6 2 7 1 8
REMARK H PARENT
REMARK Flexibility Score: inf
ROOT
ATOM      1  C   UNL     1      21.619 -15.029  11.746  1.00  0.00     0.006 C 
ENDROOT
BRANCH   1   2
ATOM      2  C   UNL     1      20.120 -15.233  11.499  1.00  0.00     0.053 C 
BRANCH   2   3
ATOM      3  C   UNL     1      19.754 -14.796  10.115  1.00  0.00     0.041 C 
ATOM      4  O   UNL     1      20.461 -15.143   9.133  1.00  0.00    -0.550 OA
ATOM      5  O   UNL     1      18.659 -13.965   9.916  1.00  0.00    -0.550 OA
ENDBRANCH   2   3
ENDBRANCH   1   2
BRANCH   1   6
ATOM      6  C   UNL     1      22.028 -15.579  13.121  1.00  0.00     0.000 C 
BRANCH   6   7
ATOM      7  C   UNL     1      22.496 -14.476  14.083  1.00  0.00    -0.003 C 
ATOM      8  C   UNL     1      21.440 -13.394  14.300  1.00  0.00     0.004 C 
ENDBRANCH   6   7
ENDBRANCH   1   6
TORSDOF 4
ENDMDL
MODEL 3
REMARK VINA RESULT:    -4.019      9.975     11.166
REMARK INTER + INTRA:          -5.030
REMARK INTER:                  -4.939
REMARK INTRA:                  -0.091
REMARK UNBOUND:                -0.071
REMARK SMILES CCCCCC(=O)[O-]
REMARK SMILES IDX 4 1 5 2 6 3 7 4 8 5 3 6 2 7 1 8
REMARK H PARENT
REMARK Flexibility Score: inf
ROOT
ATOM      1  C   UNL     1      15.232  -3.545  16.760  1.00  0.00     0.006 C 
ENDROOT
BRANCH   1   2
ATOM      2  C   UNL     1      13.712  -3.654  16.595  1.00  0.00     0.053 C 
BRANCH   2   3
ATOM      3  C   UNL     1      13.302  -3.218  15.224  1.00  0.00     0.041 C 
ATOM      4  O   UNL     1      14.171  -3.028  14.333  1.00  0.00    -0.550 OA
ATOM      5  O   UNL     1      11.964  -2.974  14.944  1.00  0.00    -0.550 OA
ENDBRANCH   2   3
ENDBRANCH   1   2
BRANCH   1   6
ATOM      6  C   UNL     1      15.594  -2.510  17.836  1.00  0.00     0.000 C 
BRANCH   6   7
ATOM      7  C   UNL     1      16.895  -2.858  18.575  1.00  0.00    -0.003 C 
ATOM      8  C   UNL     1      18.030  -3.241  17.627  1.00  0.00     0.004 C 
ENDBRANCH   6   7
ENDBRANCH   1   6
TORSDOF 4
ENDMDL
MODEL 4
REMARK VINA RESULT:    -4.002     10.947     11.905
REMARK INTER + INTRA:          -5.009
REMARK INTER:                  -4.868
REMARK INTRA:                  -0.141
REMARK UNBOUND:                -0.071
REMARK SMILES CCCCCC(=O)[O-]
REMARK SMILES IDX 4 1 5 2 6 3 7 4 8 5 3 6 2 7 1 8
REMARK H PARENT
REMARK Flexibility Score: inf
ROOT
ATOM      1  C   UNL     1      17.029  -2.884  18.175  1.00  0.00     0.006 C 
ENDROOT
BRANCH   1   2
ATOM      2  C   UNL     1      17.686  -3.850  17.183  1.00  0.00     0.053 C 
BRANCH   2   3
ATOM      3  C   UNL     1      18.658  -3.122  16.309  1.00  0.00     0.041 C 
ATOM      4  O   UNL     1      18.331  -2.784  15.141  1.00  0.00    -0.550 OA
ATOM      5  O   UNL     1      19.943  -2.859  16.768  1.00  0.00    -0.550 OA
ENDBRANCH   2   3
ENDBRANCH   1   2
BRANCH   1   6
ATOM      6  C   UNL     1      15.544  -2.679  17.840  1.00  0.00     0.000 C 
BRANCH   6   7
ATOM      7  C   UNL     1      15.074  -3.566  16.677  1.00  0.00    -0.003 C 
ATOM      8  C   UNL     1      13.552  -3.616  16.550  1.00  0.00     0.004 C 
ENDBRANCH   6   7
ENDBRANCH   1   6
TORSDOF 4
ENDMDL
MODEL 5
REMARK VINA RESULT:    -3.985      9.931     10.622
REMARK INTER + INTRA:          -4.988
REMARK INTER:                  -4.940
REMARK INTRA:                  -0.048
REMARK UNBOUND:                -0.071
REMARK SMILES CCCCCC(=O)[O-]
REMARK SMILES IDX 4 1 5 2 6 3 7 4 8 5 3 6 2 7 1 8
REMARK H PARENT
REMARK Flexibility Score: inf
ROOT
ATOM      1  C   UNL     1      15.196  -3.422  16.539  1.00  0.00     0.006 C 
ENDROOT
BRANCH   1   2
ATOM      2  C   UNL     1      15.638  -2.667  17.797  1.00  0.00     0.053 C 
BRANCH   2   3
ATOM      3  C   UNL     1      17.110  -2.828  18.014  1.00  0.00     0.041 C 
ATOM      4  O   UNL     1      17.597  -2.717  19.169  1.00  0.00    -0.550 OA
ATOM      5  O   UNL     1      17.951  -3.054  16.931  1.00  0.00    -0.550 OA
ENDBRANCH   2   3
ENDBRANCH   1   2
BRANCH   1   6
ATOM      6  C   UNL     1      13.664  -3.462  16.434  1.00  0.00     0.000 C 
BRANCH   6   7
ATOM      7  C   UNL     1      13.165  -3.248  14.996  1.00  0.00    -0.003 C 
ATOM      8  C   UNL     1      11.657  -3.018  14.922  1.00  0.00     0.004 C 
ENDBRANCH   6   7
ENDBRANCH   1   6
TORSDOF 4
ENDMDL
MODEL 6
REMARK VINA RESULT:    -3.945     12.887     13.665
REMARK INTER + INTRA:          -4.938
REMARK INTER:                  -4.867
REMARK INTRA:                  -0.071
REMARK UNBOUND:                -0.071
REMARK SMILES CCCCCC(=O)[O-]
REMARK SMILES IDX 4 1 5 2 6 3 7 4 8 5 3 6 2 7 1 8
REMARK H PARENT
REMARK Flexibility Score: inf
ROOT
ATOM      1  C   UNL     1      15.733  -5.566  11.014  1.00  0.00     0.006 C 
ENDROOT
BRANCH   1   2
ATOM      2  C   UNL     1      17.209  -5.838  11.319  1.00  0.00     0.053 C 
BRANCH   2   3
ATOM      3  C   UNL     1      17.665  -5.008  12.478  1.00  0.00     0.041 C 
ATOM      4  O   UNL     1      16.894  -4.800  13.451  1.00  0.00    -0.550 OA
ATOM      5  O   UNL     1      18.926  -4.425  12.461  1.00  0.00    -0.550 OA
ENDBRANCH   2   3
ENDBRANCH   1   2
BRANCH   1   6
ATOM      6  C   UNL     1      15.488  -5.505   9.499  1.00  0.00     0.000 C 
BRANCH   6   7
ATOM      7  C   UNL     1      14.043  -5.862   9.118  1.00  0.00    -0.003 C 
ATOM      8  C   UNL     1      13.013  -5.236  10.057  1.00  0.00     0.004 C 
ENDBRANCH   6   7
ENDBRANCH   1   6
TORSDOF 4
ENDMDL
MODEL 7
REMARK VINA RESULT:    -3.860     10.330     11.393
REMARK INTER + INTRA:          -4.833
REMARK INTER:                  -4.676
REMARK INTRA:                  -0.157
REMARK UNBOUND:                -0.071
REMARK SMILES CCCCCC(=O)[O-]
REMARK SMILES IDX 4 1 5 2 6 3 7 4 8 5 3 6 2 7 1 8
REMARK H PARENT
REMARK Flexibility Score: inf
ROOT
ATOM      1  C   UNL     1      14.379  -3.388  16.810  1.00  0.00     0.006 C 
ENDROOT
BRANCH   1   2
ATOM      2  C   UNL     1      15.077  -4.570  16.129  1.00  0.00     0.053 C 
BRANCH   2   3
ATOM      3  C   UNL     1      15.017  -4.425  14.640  1.00  0.00     0.041 C 
ATOM      4  O   UNL     1      14.180  -5.087  13.972  1.00  0.00    -0.550 OA
ATOM      5  O   UNL     1      15.919  -3.596  13.987  1.00  0.00    -0.550 OA
ENDBRANCH   2   3
ENDBRANCH   1   2
BRANCH   1   6
ATOM      6  C   UNL     1      15.343  -2.651  17.752  1.00  0.00     0.000 C 
BRANCH   6   7
ATOM      7  C   UNL     1      16.810  -3.048  17.524  1.00  0.00    -0.003 C 
ATOM      8  C   UNL     1      17.647  -2.974  18.800  1.00  0.00     0.004 C 
ENDBRANCH   6   7
ENDBRANCH   1   6
TORSDOF 4
ENDMDL
MODEL 8
REMARK VINA RESULT:    -3.841      9.841     10.901
REMARK INTER + INTRA:          -4.811
REMARK INTER:                  -4.694
REMARK INTRA:                  -0.117
REMARK UNBOUND:                -0.071
REMARK SMILES CCCCCC(=O)[O-]
REMARK SMILES IDX 4 1 5 2 6 3 7 4 8 5 3 6 2 7 1 8
REMARK H PARENT
REMARK Flexibility Score: inf
ROOT
ATOM      1  C   UNL     1      14.515  -3.586  16.821  1.00  0.00     0.006 C 
ENDROOT
BRANCH   1   2
ATOM      2  C   UNL     1      15.437  -4.202  15.763  1.00  0.00     0.053 C 
BRANCH   2   3
ATOM      3  C   UNL     1      15.579  -5.675  15.987  1.00  0.00     0.041 C 
ATOM      4  O   UNL     1      14.569  -6.425  15.927  1.00  0.00    -0.550 OA
ATOM      5  O   UNL     1      16.819  -6.212  16.308  1.00  0.00    -0.550 OA
ENDBRANCH   2   3
ENDBRANCH   1   2
BRANCH   1   6
ATOM      6  C   UNL     1      15.300  -2.659  17.761  1.00  0.00     0.000 C 
BRANCH   6   7
ATOM      7  C   UNL     1      16.820  -2.766  17.561  1.00  0.00    -0.003 C 
ATOM      8  C   UNL     1      17.573  -2.997  18.870  1.00  0.00     0.004 C 
ENDBRANCH   6   7
ENDBRANCH   1   6
TORSDOF 4
ENDMDL
MODEL 9
REMARK VINA RESULT:    -3.834     15.764     16.519
REMARK INTER + INTRA:          -4.801
REMARK INTER:                  -4.726
REMARK INTRA:                  -0.076
REMARK UNBOUND:                -0.071
REMARK SMILES CCCCCC(=O)[O-]
REMARK SMILES IDX 4 1 5 2 6 3 7 4 8 5 3 6 2 7 1 8
REMARK H PARENT
REMARK Flexibility Score: inf
ROOT
ATOM      1  C   UNL     1      21.661 -15.028  11.824  1.00  0.00     0.006 C 
ENDROOT
BRANCH   1   2
ATOM      2  C   UNL     1      22.020 -15.405  13.265  1.00  0.00     0.053 C 
BRANCH   2   3
ATOM      3  C   UNL     1      22.197 -14.176  14.100  1.00  0.00     0.041 C 
ATOM      4  O   UNL     1      21.242 -13.370  14.253  1.00  0.00    -0.550 OA
ATOM      5  O   UNL     1      23.433 -13.895  14.669  1.00  0.00    -0.550 OA
ENDBRANCH   2   3
ENDBRANCH   1   2
BRANCH   1   6
ATOM      6  C   UNL     1      20.196 -15.373  11.515  1.00  0.00     0.000 C 
BRANCH   6   7
ATOM      7  C   UNL     1      19.765 -14.917  10.113  1.00  0.00    -0.003 C 
ATOM      8  C   UNL     1      18.684 -13.839  10.148  1.00  0.00     0.004 C 
ENDBRANCH   6   7
ENDBRANCH   1   6
TORSDOF 4
ENDMDL
