MODEL 1
REMARK VINA RESULT:    -4.439      0.000      0.000
REMARK INTER + INTRA:         -12.051
REMARK INTER:                 -10.148
REMARK INTRA:                  -1.904
REMARK UNBOUND:                -1.904
REMARK SMILES CCCCCCCCCCCCCCCCCCCCCCCC(=O)[O-]
REMARK SMILES IDX 13 1 14 2 15 3 16 4 17 5 18 6 19 7 20 8 21 9 22 10 23 11
REMARK SMILES IDX 24 12 25 13 26 14 12 15 11 16 10 17 9 18 8 19 7 20 6 21 5 22
REMARK SMILES IDX 4 23 3 24 2 25 1 26
REMARK H PARENT
REMARK Flexibility Score: inf
ROOT
ATOM      1  C   UNL     1     -13.366 -13.100  -4.835  1.00  0.00     0.000 C 
ENDROOT
BRANCH   1   2
ATOM      2  C   UNL     1     -12.329 -13.999  -4.130  1.00  0.00     0.000 C 
BRANCH   2   3
ATOM      3  C   UNL     1     -10.955 -13.324  -3.982  1.00  0.00     0.000 C 
BRANCH   3   4
ATOM      4  C   UNL     1     -10.565 -13.205  -2.499  1.00  0.00     0.000 C 
BRANCH   4   5
ATOM      5  C   UNL     1      -9.084 -12.852  -2.291  1.00  0.00     0.000 C 
BRANCH   5   6
ATOM      6  C   UNL     1      -8.226 -13.118  -3.540  1.00  0.00     0.000 C 
BRANCH   6   7
ATOM      7  C   UNL     1      -6.907 -12.328  -3.526  1.00  0.00     0.000 C 
BRANCH   7   8
ATOM      8  C   UNL     1      -5.875 -12.874  -4.529  1.00  0.00     0.000 C 
BRANCH   8   9
ATOM      9  C   UNL     1      -5.665 -11.918  -5.719  1.00  0.00     0.000 C 
BRANCH   9  10
ATOM     10  C   UNL     1      -5.553 -12.629  -7.083  1.00  0.00     0.006 C 
BRANCH  10  11
ATOM     11  C   UNL     1      -6.863 -13.275  -7.570  1.00  0.00     0.053 C 
BRANCH  11  12
ATOM     12  C   UNL     1      -7.910 -12.261  -7.933  1.00  0.00     0.041 C 
ATOM     13  O   UNL     1      -7.774 -11.557  -8.968  1.00  0.00    -0.550 OA
ATOM     14  O   UNL     1      -9.071 -12.147  -7.175  1.00  0.00    -0.550 OA
ENDBRANCH  11  12
ENDBRANCH  10  11
ENDBRANCH   9  10
ENDBRANCH   8   9
ENDBRANCH   7   8
ENDBRANCH   6   7
ENDBRANCH   5   6
ENDBRANCH   4   5
ENDBRANCH   3   4
ENDBRANCH   2   3
ENDBRANCH   1   2
BRANCH   1  15
ATOM     15  C   UNL     1     -13.181 -11.597  -4.556  1.00  0.00     0.000 C 
BRANCH  15  16
ATOM     16  C   UNL     1     -14.055 -11.021  -3.423  1.00  0.00     0.000 C 
BRANCH  16  17
ATOM     17  C   UNL     1     -14.927 -12.041  -2.654  1.00  0.00     0.000 C 
BRANCH  17  18
ATOM     18  C   UNL     1     -14.353 -12.507  -1.296  1.00  0.00    -0.000 C 
BRANCH  18  19
ATOM     19  C   UNL     1     -13.320 -11.545  -0.681  1.00  0.00    -0.000 C 
BRANCH  19  20
ATOM     20  C   UNL     1     -12.819 -12.000   0.700  1.00  0.00    -0.000 C 
BRANCH  20  21
ATOM     21  C   UNL     1     -13.658 -11.424   1.863  1.00  0.00    -0.000 C 
BRANCH  21  22
ATOM     22  C   UNL     1     -12.913 -11.386   3.213  1.00  0.00    -0.000 C 
BRANCH  22  23
ATOM     23  C   UNL     1     -13.087 -10.085   4.019  1.00  0.00    -0.000 C 
BRANCH  23  24
ATOM     24  C   UNL     1     -12.020  -9.843   5.106  1.00  0.00    -0.000 C 
BRANCH  24  25
ATOM     25  C   UNL     1     -12.391 -10.358   6.508  1.00  0.00    -0.003 C 
ATOM     26  C   UNL     1     -11.884  -9.451   7.631  1.00  0.00     0.004 C 
ENDBRANCH  24  25
ENDBRANCH  23  24
ENDBRANCH  22  23
ENDBRANCH  21  22
ENDBRANCH  20  21
ENDBRANCH  19  20
ENDBRANCH  18  19
ENDBRANCH  17  18
ENDBRANCH  16  17
ENDBRANCH  15  16
ENDBRANCH   1  15
TORSDOF 22
ENDMDL
MODEL 2
REMARK VINA RESULT:    -4.411      4.805     10.767
REMARK INTER + INTRA:         -11.987
REMARK INTER:                  -9.993
REMARK INTRA:                  -1.994
REMARK UNBOUND:                -1.904
REMARK SMILES CCCCCCCCCCCCCCCCCCCCCCCC(=O)[O-]
REMARK SMILES IDX 13 1 14 2 15 3 16 4 17 5 18 6 19 7 20 8 21 9 22 10 23 11
REMARK SMILES IDX 24 12 25 13 26 14 12 15 11 16 10 17 9 18 8 19 7 20 6 21 5 22
REMARK SMILES IDX 4 23 3 24 2 25 1 26
REMARK H PARENT
REMARK Flexibility Score: inf
ROOT
ATOM      1  C   UNL     1     -12.758 -11.942  -0.243  1.00  0.00     0.000 C 
ENDROOT
BRANCH   1   2
ATOM      2  C   UNL     1     -13.266 -11.499   1.145  1.00  0.00     0.000 C 
BRANCH   2   3
ATOM      3  C   UNL     1     -13.684 -12.682   2.034  1.00  0.00     0.000 C 
BRANCH   3   4
ATOM      4  C   UNL     1     -12.504 -13.156   2.898  1.00  0.00     0.000 C 
BRANCH   4   5
ATOM      5  C   UNL     1     -12.618 -12.723   4.368  1.00  0.00     0.000 C 
BRANCH   5   6
ATOM      6  C   UNL     1     -11.349 -12.023   4.885  1.00  0.00     0.000 C 
BRANCH   6   7
ATOM      7  C   UNL     1     -11.477 -10.491   4.872  1.00  0.00     0.000 C 
BRANCH   7   8
ATOM      8  C   UNL     1     -12.940 -10.017   4.803  1.00  0.00     0.000 C 
BRANCH   8   9
ATOM      9  C   UNL     1     -13.476  -9.597   6.186  1.00  0.00     0.000 C 
BRANCH   9  10
ATOM     10  C   UNL     1     -12.380  -9.416   7.256  1.00  0.00     0.006 C 
BRANCH  10  11
ATOM     11  C   UNL     1     -12.641 -10.181   8.566  1.00  0.00     0.053 C 
BRANCH  11  12
ATOM     12  C   UNL     1     -12.153 -11.600   8.516  1.00  0.00     0.041 C 
ATOM     13  O   UNL     1     -10.955 -11.865   8.800  1.00  0.00    -0.550 OA
ATOM     14  O   UNL     1     -13.035 -12.637   8.232  1.00  0.00    -0.550 OA
ENDBRANCH  11  12
ENDBRANCH  10  11
ENDBRANCH   9  10
ENDBRANCH   8   9
ENDBRANCH   7   8
ENDBRANCH   6   7
ENDBRANCH   5   6
ENDBRANCH   4   5
ENDBRANCH   3   4
ENDBRANCH   2   3
ENDBRANCH   1   2
BRANCH   1  15
ATOM     15  C   UNL     1     -13.881 -12.186  -1.269  1.00  0.00     0.000 C 
BRANCH  15  16
ATOM     16  C   UNL     1     -14.009 -11.120  -2.376  1.00  0.00     0.000 C 
BRANCH  16  17
ATOM     17  C   UNL     1     -13.535 -11.545  -3.785  1.00  0.00     0.000 C 
BRANCH  17  18
ATOM     18  C   UNL     1     -12.838 -12.923  -3.859  1.00  0.00    -0.000 C 
BRANCH  18  19
ATOM     19  C   UNL     1     -11.302 -12.852  -3.940  1.00  0.00    -0.000 C 
BRANCH  19  20
ATOM     20  C   UNL     1     -10.602 -13.568  -2.772  1.00  0.00    -0.000 C 
BRANCH  20  21
ATOM     21  C   UNL     1      -9.208 -12.982  -2.456  1.00  0.00    -0.000 C 
BRANCH  21  22
ATOM     22  C   UNL     1      -8.092 -13.483  -3.396  1.00  0.00    -0.000 C 
BRANCH  22  23
ATOM     23  C   UNL     1      -6.925 -12.500  -3.607  1.00  0.00    -0.000 C 
BRANCH  23  24
ATOM     24  C   UNL     1      -5.756 -13.046  -4.453  1.00  0.00    -0.000 C 
BRANCH  24  25
ATOM     25  C   UNL     1      -5.460 -12.256  -5.740  1.00  0.00    -0.003 C 
ATOM     26  C   UNL     1      -6.650 -12.210  -6.700  1.00  0.00     0.004 C 
ENDBRANCH  24  25
ENDBRANCH  23  24
ENDBRANCH  22  23
ENDBRANCH  21  22
ENDBRANCH  20  21
ENDBRANCH  19  20
ENDBRANCH  18  19
ENDBRANCH  17  18
ENDBRANCH  16  17
ENDBRANCH  15  16
ENDBRANCH   1  15
TORSDOF 22
ENDMDL
MODEL 3
REMARK VINA RESULT:    -4.272      3.948     10.327
REMARK INTER + INTRA:         -11.670
REMARK INTER:                  -9.252
REMARK INTRA:                  -2.417
REMARK UNBOUND:                -1.904
REMARK SMILES CCCCCCCCCCCCCCCCCCCCCCCC(=O)[O-]
REMARK SMILES IDX 13 1 14 2 15 3 16 4 17 5 18 6 19 7 20 8 21 9 22 10 23 11
REMARK SMILES IDX 24 12 25 13 26 14 12 15 11 16 10 17 9 18 8 19 7 20 6 21 5 22
REMARK SMILES IDX 4 23 3 24 2 25 1 26
REMARK H PARENT
REMARK Flexibility Score: inf
ROOT
ATOM      1  C   UNL     1      -9.134 -12.995  -2.399  1.00  0.00     0.000 C 
ENDROOT
BRANCH   1   2
ATOM      2  C   UNL     1     -10.267 -14.025  -2.206  1.00  0.00     0.000 C 
BRANCH   2   3
ATOM      3  C   UNL     1     -11.060 -13.805  -0.907  1.00  0.00     0.000 C 
BRANCH   3   4
ATOM      4  C   UNL     1     -12.102 -12.690  -1.088  1.00  0.00     0.000 C 
BRANCH   4   5
ATOM      5  C   UNL     1     -13.544 -13.165  -0.846  1.00  0.00     0.000 C 
BRANCH   5   6
ATOM      6  C   UNL     1     -14.098 -12.718   0.518  1.00  0.00     0.000 C 
BRANCH   6   7
ATOM      7  C   UNL     1     -13.312 -11.538   1.113  1.00  0.00     0.000 C 
BRANCH   7   8
ATOM      8  C   UNL     1     -12.893 -11.779   2.574  1.00  0.00     0.000 C 
BRANCH   8   9
ATOM      9  C   UNL     1     -13.863 -11.113   3.570  1.00  0.00     0.000 C 
BRANCH   9  10
ATOM     10  C   UNL     1     -13.330  -9.802   4.183  1.00  0.00     0.006 C 
BRANCH  10  11
ATOM     11  C   UNL     1     -13.103  -9.860   5.704  1.00  0.00     0.053 C 
BRANCH  11  12
ATOM     12  C   UNL     1     -11.725 -10.335   6.067  1.00  0.00     0.041 C 
ATOM     13  O   UNL     1     -11.476 -10.707   7.244  1.00  0.00    -0.550 OA
ATOM     14  O   UNL     1     -10.739 -10.441   5.092  1.00  0.00    -0.550 OA
ENDBRANCH  11  12
ENDBRANCH  10  11
ENDBRANCH   9  10
ENDBRANCH   8   9
ENDBRANCH   7   8
ENDBRANCH   6   7
ENDBRANCH   5   6
ENDBRANCH   4   5
ENDBRANCH   3   4
ENDBRANCH   2   3
ENDBRANCH   1   2
BRANCH   1  15
ATOM     15  C   UNL     1      -8.102 -13.396  -3.469  1.00  0.00     0.000 C 
BRANCH  15  16
ATOM     16  C   UNL     1      -6.833 -12.520  -3.526  1.00  0.00     0.000 C 
BRANCH  16  17
ATOM     17  C   UNL     1      -5.808 -12.882  -4.625  1.00  0.00     0.000 C 
BRANCH  17  18
ATOM     18  C   UNL     1      -5.773 -11.923  -5.837  1.00  0.00    -0.000 C 
BRANCH  18  19
ATOM     19  C   UNL     1      -6.039 -12.604  -7.192  1.00  0.00    -0.000 C 
BRANCH  19  20
ATOM     20  C   UNL     1      -6.919 -13.860  -7.073  1.00  0.00    -0.000 C 
BRANCH  20  21
ATOM     21  C   UNL     1      -8.299 -13.692  -7.748  1.00  0.00    -0.000 C 
BRANCH  21  22
ATOM     22  C   UNL     1      -9.200 -12.637  -7.075  1.00  0.00    -0.000 C 
BRANCH  22  23
ATOM     23  C   UNL     1     -10.386 -13.206  -6.272  1.00  0.00    -0.000 C 
BRANCH  23  24
ATOM     24  C   UNL     1     -11.621 -12.286  -6.193  1.00  0.00    -0.000 C 
BRANCH  24  25
ATOM     25  C   UNL     1     -12.320 -12.252  -4.822  1.00  0.00    -0.003 C 
ATOM     26  C   UNL     1     -13.209 -13.472  -4.575  1.00  0.00     0.004 C 
ENDBRANCH  24  25
ENDBRANCH  23  24
ENDBRANCH  22  23
ENDBRANCH  21  22
ENDBRANCH  20  21
ENDBRANCH  19  20
ENDBRANCH  18  19
ENDBRANCH  17  18
ENDBRANCH  16  17
ENDBRANCH  15  16
ENDBRANCH   1  15
TORSDOF 22
ENDMDL
MODEL 4
REMARK VINA RESULT:    -4.140      1.439      3.405
REMARK INTER + INTRA:         -11.368
REMARK INTER:                  -9.573
REMARK INTRA:                  -1.794
REMARK UNBOUND:                -1.904
REMARK SMILES CCCCCCCCCCCCCCCCCCCCCCCC(=O)[O-]
REMARK SMILES IDX 13 1 14 2 15 3 16 4 17 5 18 6 19 7 20 8 21 9 22 10 23 11
REMARK SMILES IDX 24 12 25 13 26 14 12 15 11 16 10 17 9 18 8 19 7 20 6 21 5 22
REMARK SMILES IDX 4 23 3 24 2 25 1 26
REMARK H PARENT
REMARK Flexibility Score: inf
ROOT
ATOM      1  C   UNL     1      -9.009 -12.672  -2.421  1.00  0.00     0.000 C 
ENDROOT
BRANCH   1   2
ATOM      2  C   UNL     1      -8.207 -13.436  -3.495  1.00  0.00     0.000 C 
BRANCH   2   3
ATOM      3  C   UNL     1      -6.825 -12.817  -3.763  1.00  0.00     0.000 C 
BRANCH   3   4
ATOM      4  C   UNL     1      -5.811 -13.902  -4.160  1.00  0.00     0.000 C 
BRANCH   4   5
ATOM      5  C   UNL     1      -4.836 -13.444  -5.257  1.00  0.00     0.000 C 
BRANCH   5   6
ATOM      6  C   UNL     1      -5.442 -12.381  -6.188  1.00  0.00     0.000 C 
BRANCH   6   7
ATOM      7  C   UNL     1      -5.246 -12.722  -7.675  1.00  0.00     0.000 C 
BRANCH   7   8
ATOM      8  C   UNL     1      -6.547 -13.186  -8.355  1.00  0.00     0.000 C 
BRANCH   8   9
ATOM      9  C   UNL     1      -7.789 -12.882  -7.494  1.00  0.00     0.000 C 
BRANCH   9  10
ATOM     10  C   UNL     1      -8.656 -11.724  -8.029  1.00  0.00     0.006 C 
BRANCH  10  11
ATOM     11  C   UNL     1     -10.100 -12.124  -8.380  1.00  0.00     0.053 C 
BRANCH  11  12
ATOM     12  C   UNL     1     -11.064 -11.859  -7.260  1.00  0.00     0.041 C 
ATOM     13  O   UNL     1     -12.154 -11.271  -7.491  1.00  0.00    -0.550 OA
ATOM     14  O   UNL     1     -10.797 -12.326  -5.977  1.00  0.00    -0.550 OA
ENDBRANCH  11  12
ENDBRANCH  10  11
ENDBRANCH   9  10
ENDBRANCH   8   9
ENDBRANCH   7   8
ENDBRANCH   6   7
ENDBRANCH   5   6
ENDBRANCH   4   5
ENDBRANCH   3   4
ENDBRANCH   2   3
ENDBRANCH   1   2
BRANCH   1  15
ATOM     15  C   UNL     1     -10.093 -13.521  -1.731  1.00  0.00     0.000 C 
BRANCH  15  16
ATOM     16  C   UNL     1     -11.257 -13.972  -2.637  1.00  0.00     0.000 C 
BRANCH  16  17
ATOM     17  C   UNL     1     -12.313 -12.894  -2.973  1.00  0.00     0.000 C 
BRANCH  17  18
ATOM     18  C   UNL     1     -13.775 -13.279  -2.650  1.00  0.00    -0.000 C 
BRANCH  18  19
ATOM     19  C   UNL     1     -14.241 -12.869  -1.241  1.00  0.00    -0.000 C 
BRANCH  19  20
ATOM     20  C   UNL     1     -13.509 -11.628  -0.701  1.00  0.00    -0.000 C 
BRANCH  20  21
ATOM     21  C   UNL     1     -12.789 -11.892   0.640  1.00  0.00    -0.000 C 
BRANCH  21  22
ATOM     22  C   UNL     1     -13.577 -11.417   1.877  1.00  0.00    -0.000 C 
BRANCH  22  23
ATOM     23  C   UNL     1     -12.808 -11.490   3.211  1.00  0.00    -0.000 C 
BRANCH  23  24
ATOM     24  C   UNL     1     -12.821 -10.192   4.043  1.00  0.00    -0.000 C 
BRANCH  24  25
ATOM     25  C   UNL     1     -11.596  -9.992   4.954  1.00  0.00    -0.003 C 
ATOM     26  C   UNL     1     -11.911 -10.211   6.435  1.00  0.00     0.004 C 
ENDBRANCH  24  25
ENDBRANCH  23  24
ENDBRANCH  22  23
ENDBRANCH  21  22
ENDBRANCH  20  21
ENDBRANCH  19  20
ENDBRANCH  18  19
ENDBRANCH  17  18
ENDBRANCH  16  17
ENDBRANCH  15  16
ENDBRANCH   1  15
TORSDOF 22
ENDMDL
MODEL 5
REMARK VINA RESULT:    -4.126      1.519      2.621
REMARK INTER + INTRA:         -11.337
REMARK INTER:                  -9.571
REMARK INTRA:                  -1.765
REMARK UNBOUND:                -1.904
REMARK SMILES CCCCCCCCCCCCCCCCCCCCCCCC(=O)[O-]
REMARK SMILES IDX 13 1 14 2 15 3 16 4 17 5 18 6 19 7 20 8 21 9 22 10 23 11
REMARK SMILES IDX 24 12 25 13 26 14 12 15 11 16 10 17 9 18 8 19 7 20 6 21 5 22
REMARK SMILES IDX 4 23 3 24 2 25 1 26
REMARK H PARENT
REMARK Flexibility Score: inf
ROOT
ATOM      1  C   UNL     1      -9.930 -13.221  -2.015  1.00  0.00     0.000 C 
ENDROOT
BRANCH   1   2
ATOM      2  C   UNL     1     -10.287 -13.347  -3.511  1.00  0.00     0.000 C 
BRANCH   2   3
ATOM      3  C   UNL     1      -9.071 -13.681  -4.390  1.00  0.00     0.000 C 
BRANCH   3   4
ATOM      4  C   UNL     1      -7.800 -13.811  -3.535  1.00  0.00     0.000 C 
BRANCH   4   5
ATOM      5  C   UNL     1      -6.741 -12.745  -3.860  1.00  0.00     0.000 C 
BRANCH   5   6
ATOM      6  C   UNL     1      -5.539 -13.315  -4.631  1.00  0.00     0.000 C 
BRANCH   6   7
ATOM      7  C   UNL     1      -5.225 -12.513  -5.906  1.00  0.00     0.000 C 
BRANCH   7   8
ATOM      8  C   UNL     1      -6.485 -12.179  -6.723  1.00  0.00     0.000 C 
BRANCH   8   9
ATOM      9  C   UNL     1      -7.026 -13.409  -7.479  1.00  0.00     0.000 C 
BRANCH   9  10
ATOM     10  C   UNL     1      -8.354 -13.155  -8.222  1.00  0.00     0.006 C 
BRANCH  10  11
ATOM     11  C   UNL     1      -8.766 -11.673  -8.294  1.00  0.00     0.053 C 
BRANCH  11  12
ATOM     12  C   UNL     1     -10.228 -11.464  -8.024  1.00  0.00     0.041 C 
ATOM     13  O   UNL     1     -10.969 -10.969  -8.914  1.00  0.00    -0.550 OA
ATOM     14  O   UNL     1     -10.789 -11.884  -6.822  1.00  0.00    -0.550 OA
ENDBRANCH  11  12
ENDBRANCH  10  11
ENDBRANCH   9  10
ENDBRANCH   8   9
ENDBRANCH   7   8
ENDBRANCH   6   7
ENDBRANCH   5   6
ENDBRANCH   4   5
ENDBRANCH   3   4
ENDBRANCH   2   3
ENDBRANCH   1   2
BRANCH   1  15
ATOM     15  C   UNL     1     -11.153 -13.060  -1.093  1.00  0.00     0.000 C 
BRANCH  15  16
ATOM     16  C   UNL     1     -12.508 -12.901  -1.813  1.00  0.00     0.000 C 
BRANCH  16  17
ATOM     17  C   UNL     1     -13.500 -11.900  -1.178  1.00  0.00     0.000 C 
BRANCH  17  18
ATOM     18  C   UNL     1     -13.198 -11.511   0.287  1.00  0.00    -0.000 C 
BRANCH  18  19
ATOM     19  C   UNL     1     -14.033 -12.277   1.330  1.00  0.00    -0.000 C 
BRANCH  19  20
ATOM     20  C   UNL     1     -14.135 -11.542   2.678  1.00  0.00    -0.000 C 
BRANCH  20  21
ATOM     21  C   UNL     1     -12.756 -11.155   3.258  1.00  0.00    -0.000 C 
BRANCH  21  22
ATOM     22  C   UNL     1     -12.824 -10.100   4.380  1.00  0.00    -0.000 C 
BRANCH  22  23
ATOM     23  C   UNL     1     -11.582 -10.032   5.289  1.00  0.00    -0.000 C 
BRANCH  23  24
ATOM     24  C   UNL     1     -11.882  -9.960   6.800  1.00  0.00    -0.000 C 
BRANCH  24  25
ATOM     25  C   UNL     1     -13.290  -9.454   7.160  1.00  0.00    -0.003 C 
ATOM     26  C   UNL     1     -14.047 -10.404   8.090  1.00  0.00     0.004 C 
ENDBRANCH  24  25
ENDBRANCH  23  24
ENDBRANCH  22  23
ENDBRANCH  21  22
ENDBRANCH  20  21
ENDBRANCH  19  20
ENDBRANCH  18  19
ENDBRANCH  17  18
ENDBRANCH  16  17
ENDBRANCH  15  16
ENDBRANCH   1  15
TORSDOF 22
ENDMDL
MODEL 6
REMARK VINA RESULT:    -4.074      2.324      5.011
REMARK INTER + INTRA:         -11.218
REMARK INTER:                  -9.013
REMARK INTRA:                  -2.205
REMARK UNBOUND:                -1.904
REMARK SMILES CCCCCCCCCCCCCCCCCCCCCCCC(=O)[O-]
REMARK SMILES IDX 13 1 14 2 15 3 16 4 17 5 18 6 19 7 20 8 21 9 22 10 23 11
REMARK SMILES IDX 24 12 25 13 26 14 12 15 11 16 10 17 9 18 8 19 7 20 6 21 5 22
REMARK SMILES IDX 4 23 3 24 2 25 1 26
REMARK H PARENT
REMARK Flexibility Score: inf
ROOT
ATOM      1  C   UNL     1      -7.301 -14.026  -3.868  1.00  0.00     0.000 C 
ENDROOT
BRANCH   1   2
ATOM      2  C   UNL     1      -6.452 -12.740  -3.964  1.00  0.00     0.000 C 
BRANCH   2   3
ATOM      3  C   UNL     1      -5.569 -12.699  -5.221  1.00  0.00     0.000 C 
BRANCH   3   4
ATOM      4  C   UNL     1      -6.260 -11.910  -6.346  1.00  0.00     0.000 C 
BRANCH   4   5
ATOM      5  C   UNL     1      -7.255 -12.757  -7.155  1.00  0.00     0.000 C 
BRANCH   5   6
ATOM      6  C   UNL     1      -8.353 -11.911  -7.822  1.00  0.00     0.000 C 
BRANCH   6   7
ATOM      7  C   UNL     1      -9.468 -12.775  -8.436  1.00  0.00     0.000 C 
BRANCH   7   8
ATOM      8  C   UNL     1     -10.855 -12.460  -7.849  1.00  0.00     0.000 C 
BRANCH   8   9
ATOM      9  C   UNL     1     -11.052 -13.099  -6.460  1.00  0.00     0.000 C 
BRANCH   9  10
ATOM     10  C   UNL     1     -11.646 -12.141  -5.407  1.00  0.00     0.006 C 
BRANCH  10  11
ATOM     11  C   UNL     1     -12.900 -12.681  -4.695  1.00  0.00     0.053 C 
BRANCH  11  12
ATOM     12  C   UNL     1     -13.971 -11.641  -4.538  1.00  0.00     0.041 C 
ATOM     13  O   UNL     1     -14.946 -11.615  -5.334  1.00  0.00    -0.550 OA
ATOM     14  O   UNL     1     -13.935 -10.750  -3.470  1.00  0.00    -0.550 OA
ENDBRANCH  11  12
ENDBRANCH  10  11
ENDBRANCH   9  10
ENDBRANCH   8   9
ENDBRANCH   7   8
ENDBRANCH   6   7
ENDBRANCH   5   6
ENDBRANCH   4   5
ENDBRANCH   3   4
ENDBRANCH   2   3
ENDBRANCH   1   2
BRANCH   1  15
ATOM     15  C   UNL     1      -8.798 -13.767  -3.617  1.00  0.00     0.000 C 
BRANCH  15  16
ATOM     16  C   UNL     1      -9.125 -12.955  -2.346  1.00  0.00     0.000 C 
BRANCH  16  17
ATOM     17  C   UNL     1     -10.595 -13.002  -1.871  1.00  0.00     0.000 C 
BRANCH  17  18
ATOM     18  C   UNL     1     -10.897 -14.039  -0.764  1.00  0.00    -0.000 C 
BRANCH  18  19
ATOM     19  C   UNL     1     -12.282 -13.881  -0.109  1.00  0.00    -0.000 C 
BRANCH  19  20
ATOM     20  C   UNL     1     -13.111 -12.737  -0.719  1.00  0.00    -0.000 C 
BRANCH  20  21
ATOM     21  C   UNL     1     -13.206 -11.504   0.207  1.00  0.00    -0.000 C 
BRANCH  21  22
ATOM     22  C   UNL     1     -13.011 -11.828   1.702  1.00  0.00    -0.000 C 
BRANCH  22  23
ATOM     23  C   UNL     1     -14.216 -11.501   2.605  1.00  0.00    -0.000 C 
BRANCH  23  24
ATOM     24  C   UNL     1     -13.856 -11.049   4.035  1.00  0.00    -0.000 C 
BRANCH  24  25
ATOM     25  C   UNL     1     -12.760  -9.971   4.120  1.00  0.00    -0.003 C 
ATOM     26  C   UNL     1     -11.527 -10.434   4.897  1.00  0.00     0.004 C 
ENDBRANCH  24  25
ENDBRANCH  23  24
ENDBRANCH  22  23
ENDBRANCH  21  22
ENDBRANCH  20  21
ENDBRANCH  19  20
ENDBRANCH  18  19
ENDBRANCH  17  18
ENDBRANCH  16  17
ENDBRANCH  15  16
ENDBRANCH   1  15
TORSDOF 22
ENDMDL
MODEL 7
REMARK VINA RESULT:    -4.032      4.402     10.036
REMARK INTER + INTRA:         -11.121
REMARK INTER:                  -9.478
REMARK INTRA:                  -1.642
REMARK UNBOUND:                -1.904
REMARK SMILES CCCCCCCCCCCCCCCCCCCCCCCC(=O)[O-]
REMARK SMILES IDX 13 1 14 2 15 3 16 4 17 5 18 6 19 7 20 8 21 9 22 10 23 11
REMARK SMILES IDX 24 12 25 13 26 14 12 15 11 16 10 17 9 18 8 19 7 20 6 21 5 22
REMARK SMILES IDX 4 23 3 24 2 25 1 26
REMARK H PARENT
REMARK Flexibility Score: inf
ROOT
ATOM      1  C   UNL     1     -13.022 -13.475  -5.069  1.00  0.00     0.000 C 
ENDROOT
BRANCH   1   2
ATOM      2  C   UNL     1     -12.702 -12.306  -4.114  1.00  0.00     0.000 C 
BRANCH   2   3
ATOM      3  C   UNL     1     -13.893 -11.354  -3.915  1.00  0.00     0.000 C 
BRANCH   3   4
ATOM      4  C   UNL     1     -14.403 -11.417  -2.466  1.00  0.00     0.000 C 
BRANCH   4   5
ATOM      5  C   UNL     1     -13.298 -11.748  -1.450  1.00  0.00     0.000 C 
BRANCH   5   6
ATOM      6  C   UNL     1     -13.851 -12.305  -0.127  1.00  0.00     0.000 C 
BRANCH   6   7
ATOM      7  C   UNL     1     -12.977 -11.927   1.080  1.00  0.00     0.000 C 
BRANCH   7   8
ATOM      8  C   UNL     1     -13.805 -11.442   2.284  1.00  0.00     0.000 C 
BRANCH   8   9
ATOM      9  C   UNL     1     -12.979 -11.429   3.585  1.00  0.00     0.000 C 
BRANCH   9  10
ATOM     10  C   UNL     1     -12.703 -10.017   4.140  1.00  0.00     0.006 C 
BRANCH  10  11
ATOM     11  C   UNL     1     -11.515  -9.940   5.116  1.00  0.00     0.053 C 
BRANCH  11  12
ATOM     12  C   UNL     1     -11.899 -10.283   6.526  1.00  0.00     0.041 C 
ATOM     13  O   UNL     1     -12.668  -9.524   7.173  1.00  0.00    -0.550 OA
ATOM     14  O   UNL     1     -11.473 -11.477   7.100  1.00  0.00    -0.550 OA
ENDBRANCH  11  12
ENDBRANCH  10  11
ENDBRANCH   9  10
ENDBRANCH   8   9
ENDBRANCH   7   8
ENDBRANCH   6   7
ENDBRANCH   5   6
ENDBRANCH   4   5
ENDBRANCH   3   4
ENDBRANCH   2   3
ENDBRANCH   1   2
BRANCH   1  15
ATOM     15  C   UNL     1     -12.862 -13.125  -6.560  1.00  0.00     0.000 C 
BRANCH  15  16
ATOM     16  C   UNL     1     -12.030 -11.860  -6.857  1.00  0.00     0.000 C 
BRANCH  16  17
ATOM     17  C   UNL     1     -10.703 -12.084  -7.617  1.00  0.00     0.000 C 
BRANCH  17  18
ATOM     18  C   UNL     1      -9.644 -12.922  -6.864  1.00  0.00    -0.000 C 
BRANCH  18  19
ATOM     19  C   UNL     1      -8.375 -13.223  -7.683  1.00  0.00    -0.000 C 
BRANCH  19  20
ATOM     20  C   UNL     1      -7.280 -12.156  -7.514  1.00  0.00    -0.000 C 
BRANCH  20  21
ATOM     21  C   UNL     1      -5.862 -12.761  -7.411  1.00  0.00    -0.000 C 
BRANCH  21  22
ATOM     22  C   UNL     1      -5.190 -12.550  -6.039  1.00  0.00    -0.000 C 
BRANCH  22  23
ATOM     23  C   UNL     1      -6.110 -11.986  -4.940  1.00  0.00    -0.000 C 
BRANCH  23  24
ATOM     24  C   UNL     1      -6.432 -12.964  -3.791  1.00  0.00    -0.000 C 
BRANCH  24  25
ATOM     25  C   UNL     1      -7.866 -13.521  -3.794  1.00  0.00    -0.003 C 
ATOM     26  C   UNL     1      -8.738 -12.928  -2.685  1.00  0.00     0.004 C 
ENDBRANCH  24  25
ENDBRANCH  23  24
ENDBRANCH  22  23
ENDBRANCH  21  22
ENDBRANCH  20  21
ENDBRANCH  19  20
ENDBRANCH  18  19
ENDBRANCH  17  18
ENDBRANCH  16  17
ENDBRANCH  15  16
ENDBRANCH   1  15
TORSDOF 22
ENDMDL
MODEL 8
REMARK VINA RESULT:    -3.965      6.204     12.045
REMARK INTER + INTRA:         -10.968
REMARK INTER:                  -7.510
REMARK INTRA:                  -3.458
REMARK UNBOUND:                -1.904
REMARK SMILES CCCCCCCCCCCCCCCCCCCCCCCC(=O)[O-]
REMARK SMILES IDX 13 1 14 2 15 3 16 4 17 5 18 6 19 7 20 8 21 9 22 10 23 11
REMARK SMILES IDX 24 12 25 13 26 14 12 15 11 16 10 17 9 18 8 19 7 20 6 21 5 22
REMARK SMILES IDX 4 23 3 24 2 25 1 26
REMARK H PARENT
REMARK Flexibility Score: inf
ROOT
ATOM      1  C   UNL     1     -11.635 -10.984   4.414  1.00  0.00     0.000 C 
ENDROOT
BRANCH   1   2
ATOM      2  C   UNL     1     -12.452  -9.953   5.221  1.00  0.00     0.000 C 
BRANCH   2   3
ATOM      3  C   UNL     1     -13.825  -9.657   4.596  1.00  0.00     0.000 C 
BRANCH   3   4
ATOM      4  C   UNL     1     -14.933  -9.727   5.660  1.00  0.00     0.000 C 
BRANCH   4   5
ATOM      5  C   UNL     1     -14.436 -10.251   7.017  1.00  0.00     0.000 C 
BRANCH   5   6
ATOM      6  C   UNL     1     -14.747  -9.290   8.177  1.00  0.00     0.000 C 
BRANCH   6   7
ATOM      7  C   UNL     1     -13.757  -8.114   8.248  1.00  0.00     0.000 C 
BRANCH   7   8
ATOM      8  C   UNL     1     -13.176  -7.910   9.658  1.00  0.00     0.000 C 
BRANCH   8   9
ATOM      9  C   UNL     1     -13.291  -9.183  10.520  1.00  0.00     0.000 C 
BRANCH   9  10
ATOM     10  C   UNL     1     -11.953  -9.656  11.122  1.00  0.00     0.006 C 
BRANCH  10  11
ATOM     11  C   UNL     1     -11.530 -11.072  10.691  1.00  0.00     0.053 C 
BRANCH  11  12
ATOM     12  C   UNL     1     -11.564 -11.261   9.202  1.00  0.00     0.041 C 
ATOM     13  O   UNL     1     -10.943 -10.462   8.451  1.00  0.00    -0.550 OA
ATOM     14  O   UNL     1     -12.215 -12.358   8.647  1.00  0.00    -0.550 OA
ENDBRANCH  11  12
ENDBRANCH  10  11
ENDBRANCH   9  10
ENDBRANCH   8   9
ENDBRANCH   7   8
ENDBRANCH   6   7
ENDBRANCH   5   6
ENDBRANCH   4   5
ENDBRANCH   3   4
ENDBRANCH   2   3
ENDBRANCH   1   2
BRANCH   1  15
ATOM     15  C   UNL     1     -11.302 -12.267   5.198  1.00  0.00     0.000 C 
BRANCH  15  16
ATOM     16  C   UNL     1     -12.120 -13.515   4.802  1.00  0.00     0.000 C 
BRANCH  16  17
ATOM     17  C   UNL     1     -13.601 -13.523   5.245  1.00  0.00     0.000 C 
BRANCH  17  18
ATOM     18  C   UNL     1     -14.634 -13.452   4.096  1.00  0.00    -0.000 C 
BRANCH  18  19
ATOM     19  C   UNL     1     -14.012 -13.364   2.690  1.00  0.00    -0.000 C 
BRANCH  19  20
ATOM     20  C   UNL     1     -14.395 -12.077   1.941  1.00  0.00    -0.000 C 
BRANCH  20  21
ATOM     21  C   UNL     1     -13.251 -11.533   1.056  1.00  0.00    -0.000 C 
BRANCH  21  22
ATOM     22  C   UNL     1     -12.540 -12.617   0.220  1.00  0.00    -0.000 C 
BRANCH  22  23
ATOM     23  C   UNL     1     -12.812 -12.558  -1.295  1.00  0.00    -0.000 C 
BRANCH  23  24
ATOM     24  C   UNL     1     -14.133 -11.870  -1.695  1.00  0.00    -0.000 C 
BRANCH  24  25
ATOM     25  C   UNL     1     -14.014 -10.844  -2.836  1.00  0.00    -0.003 C 
ATOM     26  C   UNL     1     -13.629 -11.480  -4.173  1.00  0.00     0.004 C 
ENDBRANCH  24  25
ENDBRANCH  23  24
ENDBRANCH  22  23
ENDBRANCH  21  22
ENDBRANCH  20  21
ENDBRANCH  19  20
ENDBRANCH  18  19
ENDBRANCH  17  18
ENDBRANCH  16  17
ENDBRANCH  15  16
ENDBRANCH   1  15
TORSDOF 22
ENDMDL
MODEL 9
REMARK VINA RESULT:    -3.924      1.822      3.137
REMARK INTER + INTRA:         -10.874
REMARK INTER:                  -9.627
REMARK INTRA:                  -1.247
REMARK UNBOUND:                -1.904
REMARK SMILES CCCCCCCCCCCCCCCCCCCCCCCC(=O)[O-]
REMARK SMILES IDX 13 1 14 2 15 3 16 4 17 5 18 6 19 7 20 8 21 9 22 10 23 11
REMARK SMILES IDX 24 12 25 13 26 14 12 15 11 16 10 17 9 18 8 19 7 20 6 21 5 22
REMARK SMILES IDX 4 23 3 24 2 25 1 26
REMARK H PARENT
REMARK Flexibility Score: inf
ROOT
ATOM      1  C   UNL     1     -13.720 -11.918  -4.617  1.00  0.00     0.000 C 
ENDROOT
BRANCH   1   2
ATOM      2  C   UNL     1     -12.268 -11.871  -5.138  1.00  0.00     0.000 C 
BRANCH   2   3
ATOM      3  C   UNL     1     -12.107 -12.528  -6.518  1.00  0.00     0.000 C 
BRANCH   3   4
ATOM      4  C   UNL     1     -11.669 -11.492  -7.566  1.00  0.00     0.000 C 
BRANCH   4   5
ATOM      5  C   UNL     1     -10.524 -11.988  -8.465  1.00  0.00     0.000 C 
BRANCH   5   6
ATOM      6  C   UNL     1      -9.143 -11.498  -7.996  1.00  0.00     0.000 C 
BRANCH   6   7
ATOM      7  C   UNL     1      -8.185 -12.659  -7.679  1.00  0.00     0.000 C 
BRANCH   7   8
ATOM      8  C   UNL     1      -6.749 -12.395  -8.165  1.00  0.00     0.000 C 
BRANCH   8   9
ATOM      9  C   UNL     1      -5.697 -12.910  -7.163  1.00  0.00     0.000 C 
BRANCH   9  10
ATOM     10  C   UNL     1      -5.644 -12.114  -5.844  1.00  0.00     0.006 C 
BRANCH  10  11
ATOM     11  C   UNL     1      -5.678 -12.987  -4.576  1.00  0.00     0.053 C 
BRANCH  11  12
ATOM     12  C   UNL     1      -6.982 -12.887  -3.838  1.00  0.00     0.041 C 
ATOM     13  O   UNL     1      -7.801 -13.843  -3.872  1.00  0.00    -0.550 OA
ATOM     14  O   UNL     1      -7.261 -11.774  -3.051  1.00  0.00    -0.550 OA
ENDBRANCH  11  12
ENDBRANCH  10  11
ENDBRANCH   9  10
ENDBRANCH   8   9
ENDBRANCH   7   8
ENDBRANCH   6   7
ENDBRANCH   5   6
ENDBRANCH   4   5
ENDBRANCH   3   4
ENDBRANCH   2   3
ENDBRANCH   1   2
BRANCH   1  15
ATOM     15  C   UNL     1     -14.004 -10.926  -3.473  1.00  0.00     0.000 C 
BRANCH  15  16
ATOM     16  C   UNL     1     -14.078 -11.547  -2.062  1.00  0.00     0.000 C 
BRANCH  16  17
ATOM     17  C   UNL     1     -12.812 -12.294  -1.582  1.00  0.00     0.000 C 
BRANCH  17  18
ATOM     18  C   UNL     1     -12.802 -12.679  -0.085  1.00  0.00    -0.000 C 
BRANCH  18  19
ATOM     19  C   UNL     1     -13.230 -11.545   0.864  1.00  0.00    -0.000 C 
BRANCH  19  20
ATOM     20  C   UNL     1     -14.251 -11.997   1.923  1.00  0.00    -0.000 C 
BRANCH  20  21
ATOM     21  C   UNL     1     -13.645 -12.083   3.342  1.00  0.00    -0.000 C 
BRANCH  21  22
ATOM     22  C   UNL     1     -12.889 -10.812   3.777  1.00  0.00    -0.000 C 
BRANCH  22  23
ATOM     23  C   UNL     1     -13.762  -9.721   4.425  1.00  0.00    -0.000 C 
BRANCH  23  24
ATOM     24  C   UNL     1     -13.759  -9.713   5.967  1.00  0.00    -0.000 C 
BRANCH  24  25
ATOM     25  C   UNL     1     -12.396 -10.011   6.617  1.00  0.00    -0.003 C 
ATOM     26  C   UNL     1     -12.057  -9.052   7.759  1.00  0.00     0.004 C 
ENDBRANCH  24  25
ENDBRANCH  23  24
ENDBRANCH  22  23
ENDBRANCH  21  22
ENDBRANCH  20  21
ENDBRANCH  19  20
ENDBRANCH  18  19
ENDBRANCH  17  18
ENDBRANCH  16  17
ENDBRANCH  15  16
ENDBRANCH   1  15
TORSDOF 22
ENDMDL
