MODEL 1
REMARK VINA RESULT:    -4.283      0.000      0.000
REMARK INTER + INTRA:          -8.346
REMARK INTER:                  -6.536
REMARK INTRA:                  -1.810
REMARK UNBOUND:                -1.810
REMARK SMILES OC[C@H]1O[C@@H](O[C@]2(CO)O[C@H](CO)[C@H](O)[C@H]2O)[C@@H](O)[C@H](O)[C@H]1O
REMARK SMILES IDX 6 1 5 2 3 3 22 4 4 5 20 6 18 7 2 8 1 9 23 11 21 13 19 15
REMARK SMILES IDX 7 17 16 18 10 19 14 20 11 21 8 22 9 23 17 25 15 27 12 29
REMARK SMILES IDX 13 30
REMARK H PARENT 1 10 23 12 21 14 19 16 9 24 17 26 15 28 13 31
REMARK Flexibility Score: inf
ROOT
ATOM      1  O   UNL     1      17.886   5.743 -19.408  1.00  0.00    -0.313 OA
ENDROOT
BRANCH   1   2
ATOM      2  C   UNL     1      18.724   4.641 -19.098  1.00  0.00     0.285 C 
ATOM      3  C   UNL     1      18.567   2.298 -19.368  1.00  0.00     0.178 C 
ATOM      4  C   UNL     1      17.546   2.087 -18.217  1.00  0.00     0.177 C 
ATOM      5  O   UNL     1      18.365   3.564 -19.966  1.00  0.00    -0.341 OA
ATOM      6  C   UNL     1      17.389   3.367 -17.359  1.00  0.00     0.179 C 
ATOM      7  C   UNL     1      18.574   4.319 -17.579  1.00  0.00     0.202 C 
BRANCH   3   8
ATOM      8  C   UNL     1      18.459   1.197 -20.434  1.00  0.00     0.191 C 
BRANCH   8   9
ATOM      9  O   UNL     1      17.457   1.526 -21.359  1.00  0.00    -0.394 OA
ATOM     10  H   UNL     1      17.246   2.485 -21.206  1.00  0.00     0.210 HD
ENDBRANCH   8   9
ENDBRANCH   3   8
BRANCH   4  11
ATOM     11  O   UNL     1      16.280   1.735 -18.731  1.00  0.00    -0.387 OA
ATOM     12  H   UNL     1      15.688   1.549 -17.954  1.00  0.00     0.211 HD
ENDBRANCH   4  11
BRANCH   6  13
ATOM     13  O   UNL     1      17.305   3.007 -16.004  1.00  0.00    -0.387 OA
ATOM     14  H   UNL     1      17.547   2.049 -15.938  1.00  0.00     0.211 HD
ENDBRANCH   6  13
BRANCH   7  15
ATOM     15  O   UNL     1      18.387   5.508 -16.851  1.00  0.00    -0.385 OA
ATOM     16  H   UNL     1      17.985   6.177 -17.467  1.00  0.00     0.211 HD
ENDBRANCH   7  15
ENDBRANCH   1   2
BRANCH   1  17
ATOM     17  C   UNL     1      18.569   6.862 -19.976  1.00  0.00     0.224 C 
ATOM     18  C   UNL     1      20.057   6.834 -19.579  1.00  0.00     0.208 C 
ATOM     19  O   UNL     1      18.500   6.879 -21.398  1.00  0.00    -0.337 OA
ATOM     20  C   UNL     1      20.712   7.545 -20.728  1.00  0.00     0.180 C 
ATOM     21  C   UNL     1      19.782   7.215 -21.907  1.00  0.00     0.179 C 
BRANCH  17  22
ATOM     22  C   UNL     1      17.849   8.133 -19.471  1.00  0.00     0.225 C 
BRANCH  22  23
ATOM     23  O   UNL     1      17.606   8.042 -18.091  1.00  0.00    -0.391 OA
ATOM     24  H   UNL     1      17.074   8.842 -17.830  1.00  0.00     0.210 HD
ENDBRANCH  22  23
ENDBRANCH  17  22
BRANCH  18  25
ATOM     25  O   UNL     1      20.319   7.500 -18.371  1.00  0.00    -0.385 OA
ATOM     26  H   UNL     1      20.558   8.435 -18.605  1.00  0.00     0.211 HD
ENDBRANCH  18  25
BRANCH  20  27
ATOM     27  O   UNL     1      22.034   7.104 -20.906  1.00  0.00    -0.387 OA
ATOM     28  H   UNL     1      22.602   7.915 -20.888  1.00  0.00     0.211 HD
ENDBRANCH  20  27
BRANCH  21  29
ATOM     29  C   UNL     1      20.295   6.065 -22.791  1.00  0.00     0.191 C 
BRANCH  29  30
ATOM     30  O   UNL     1      20.335   4.879 -22.044  1.00  0.00    -0.394 OA
ATOM     31  H   UNL     1      19.651   4.975 -21.332  1.00  0.00     0.210 HD
ENDBRANCH  29  30
ENDBRANCH  21  29
ENDBRANCH   1  17
TORSDOF 13
ENDMDL
MODEL 2
REMARK VINA RESULT:    -4.179     10.806     12.906
REMARK INTER + INTRA:          -8.189
REMARK INTER:                  -6.748
REMARK INTRA:                  -1.440
REMARK UNBOUND:                -1.810
REMARK SMILES OC[C@H]1O[C@@H](O[C@]2(CO)O[C@H](CO)[C@H](O)[C@H]2O)[C@@H](O)[C@H](O)[C@H]1O
REMARK SMILES IDX 6 1 5 2 3 3 22 4 4 5 20 6 18 7 2 8 1 9 23 11 21 13 19 15
REMARK SMILES IDX 7 17 16 18 10 19 14 20 11 21 8 22 9 23 17 25 15 27 12 29
REMARK SMILES IDX 13 30
REMARK H PARENT 1 10 23 12 21 14 19 16 9 24 17 26 15 28 13 31
REMARK Flexibility Score: inf
ROOT
ATOM      1  O   UNL     1       8.441  12.162 -18.550  1.00  0.00    -0.313 OA
ENDROOT
BRANCH   1   2
ATOM      2  C   UNL     1       7.437  11.161 -18.610  1.00  0.00     0.285 C 
ATOM      3  C   UNL     1       5.344  10.961 -19.690  1.00  0.00     0.178 C 
ATOM      4  C   UNL     1       4.593  11.925 -18.731  1.00  0.00     0.177 C 
ATOM      5  O   UNL     1       6.695  11.361 -19.814  1.00  0.00    -0.341 OA
ATOM      6  C   UNL     1       5.450  12.265 -17.486  1.00  0.00     0.179 C 
ATOM      7  C   UNL     1       6.582  11.243 -17.308  1.00  0.00     0.202 C 
BRANCH   3   8
ATOM      8  C   UNL     1       4.686  10.912 -21.077  1.00  0.00     0.191 C 
BRANCH   8   9
ATOM      9  O   UNL     1       5.316   9.938 -21.868  1.00  0.00    -0.394 OA
ATOM     10  H   UNL     1       4.894  10.000 -22.766  1.00  0.00     0.210 HD
ENDBRANCH   8   9
ENDBRANCH   3   8
BRANCH   4  11
ATOM     11  O   UNL     1       4.262  13.127 -19.389  1.00  0.00    -0.387 OA
ATOM     12  H   UNL     1       4.564  13.875 -18.806  1.00  0.00     0.211 HD
ENDBRANCH   4  11
BRANCH   6  13
ATOM     13  O   UNL     1       4.626  12.277 -16.347  1.00  0.00    -0.387 OA
ATOM     14  H   UNL     1       4.768  13.143 -15.890  1.00  0.00     0.211 HD
ENDBRANCH   6  13
BRANCH   7  15
ATOM     15  O   UNL     1       7.396  11.600 -16.218  1.00  0.00    -0.385 OA
ATOM     16  H   UNL     1       6.842  11.536 -15.395  1.00  0.00     0.211 HD
ENDBRANCH   7  15
ENDBRANCH   1   2
BRANCH   1  17
ATOM     17  C   UNL     1       9.705  11.761 -19.082  1.00  0.00     0.224 C 
ATOM     18  C   UNL     1      10.091  10.370 -18.545  1.00  0.00     0.208 C 
ATOM     19  O   UNL     1       9.701  11.690 -20.504  1.00  0.00    -0.337 OA
ATOM     20  C   UNL     1      10.955   9.825 -19.646  1.00  0.00     0.180 C 
ATOM     21  C   UNL     1      10.379  10.507 -20.898  1.00  0.00     0.179 C 
BRANCH  17  22
ATOM     22  C   UNL     1      10.727  12.849 -18.684  1.00  0.00     0.225 C 
BRANCH  22  23
ATOM     23  O   UNL     1      10.069  14.056 -18.395  1.00  0.00    -0.391 OA
ATOM     24  H   UNL     1      10.654  14.571 -17.775  1.00  0.00     0.210 HD
ENDBRANCH  22  23
ENDBRANCH  17  22
BRANCH  18  25
ATOM     25  O   UNL     1      10.805  10.421 -17.336  1.00  0.00    -0.385 OA
ATOM     26  H   UNL     1      11.274  11.297 -17.318  1.00  0.00     0.211 HD
ENDBRANCH  18  25
BRANCH  20  27
ATOM     27  O   UNL     1      10.897   8.421 -19.685  1.00  0.00    -0.387 OA
ATOM     28  H   UNL     1      11.832   8.103 -19.610  1.00  0.00     0.211 HD
ENDBRANCH  20  27
BRANCH  21  29
ATOM     29  C   UNL     1       9.416   9.612 -21.697  1.00  0.00     0.191 C 
BRANCH  29  30
ATOM     30  O   UNL     1       8.247  10.328 -21.997  1.00  0.00    -0.394 OA
ATOM     31  H   UNL     1       7.633   9.686 -22.438  1.00  0.00     0.210 HD
ENDBRANCH  29  30
ENDBRANCH  21  29
ENDBRANCH   1  17
TORSDOF 13
ENDMDL
MODEL 3
REMARK VINA RESULT:    -4.179     10.600     13.532
REMARK INTER + INTRA:          -8.188
REMARK INTER:                  -6.566
REMARK INTRA:                  -1.622
REMARK UNBOUND:                -1.810
REMARK SMILES OC[C@H]1O[C@@H](O[C@]2(CO)O[C@H](CO)[C@H](O)[C@H]2O)[C@@H](O)[C@H](O)[C@H]1O
REMARK SMILES IDX 6 1 5 2 3 3 22 4 4 5 20 6 18 7 2 8 1 9 23 11 21 13 19 15
REMARK SMILES IDX 7 17 16 18 10 19 14 20 11 21 8 22 9 23 17 25 15 27 12 29
REMARK SMILES IDX 13 30
REMARK H PARENT 1 10 23 12 21 14 19 16 9 24 17 26 15 28 13 31
REMARK Flexibility Score: inf
ROOT
ATOM      1  O   UNL     1       8.633  10.791 -18.866  1.00  0.00    -0.313 OA
ENDROOT
BRANCH   1   2
ATOM      2  C   UNL     1       9.153  12.077 -18.566  1.00  0.00     0.285 C 
ATOM      3  C   UNL     1       9.920  13.907 -19.850  1.00  0.00     0.178 C 
ATOM      4  C   UNL     1      11.268  13.248 -20.252  1.00  0.00     0.177 C 
ATOM      5  O   UNL     1       8.923  12.915 -19.701  1.00  0.00    -0.341 OA
ATOM      6  C   UNL     1      11.532  11.958 -19.436  1.00  0.00     0.179 C 
ATOM      7  C   UNL     1      10.655  11.922 -18.176  1.00  0.00     0.202 C 
BRANCH   3   8
ATOM      8  C   UNL     1       9.465  14.949 -20.883  1.00  0.00     0.191 C 
BRANCH   8   9
ATOM      9  O   UNL     1       8.497  14.388 -21.731  1.00  0.00    -0.394 OA
ATOM     10  H   UNL     1       8.941  14.269 -22.612  1.00  0.00     0.210 HD
ENDBRANCH   8   9
ENDBRANCH   3   8
BRANCH   4  11
ATOM     11  O   UNL     1      11.273  12.919 -21.624  1.00  0.00    -0.387 OA
ATOM     12  H   UNL     1      10.340  12.687 -21.874  1.00  0.00     0.211 HD
ENDBRANCH   4  11
BRANCH   6  13
ATOM     13  O   UNL     1      12.890  11.907 -19.080  1.00  0.00    -0.387 OA
ATOM     14  H   UNL     1      13.400  12.358 -19.799  1.00  0.00     0.211 HD
ENDBRANCH   6  13
BRANCH   7  15
ATOM     15  O   UNL     1      10.850  10.715 -17.479  1.00  0.00    -0.385 OA
ATOM     16  H   UNL     1      10.707  10.900 -16.513  1.00  0.00     0.211 HD
ENDBRANCH   7  15
ENDBRANCH   1   2
BRANCH   1  17
ATOM     17  C   UNL     1       7.291  10.580 -18.424  1.00  0.00     0.224 C 
ATOM     18  C   UNL     1       6.845  11.737 -17.510  1.00  0.00     0.208 C 
ATOM     19  O   UNL     1       6.366  10.499 -19.503  1.00  0.00    -0.337 OA
ATOM     20  C   UNL     1       5.358  11.762 -17.721  1.00  0.00     0.180 C 
ATOM     21  C   UNL     1       5.211  11.251 -19.165  1.00  0.00     0.179 C 
BRANCH  17  22
ATOM     22  C   UNL     1       7.265   9.215 -17.699  1.00  0.00     0.225 C 
BRANCH  22  23
ATOM     23  O   UNL     1       8.565   8.696 -17.587  1.00  0.00    -0.391 OA
ATOM     24  H   UNL     1       8.531   7.745 -17.880  1.00  0.00     0.210 HD
ENDBRANCH  22  23
ENDBRANCH  17  22
BRANCH  18  25
ATOM     25  O   UNL     1       7.147  11.521 -16.156  1.00  0.00    -0.385 OA
ATOM     26  H   UNL     1       6.342  11.112 -15.743  1.00  0.00     0.211 HD
ENDBRANCH  18  25
BRANCH  20  27
ATOM     27  O   UNL     1       4.840  13.052 -17.519  1.00  0.00    -0.387 OA
ATOM     28  H   UNL     1       5.376  13.455 -16.790  1.00  0.00     0.211 HD
ENDBRANCH  20  27
BRANCH  21  29
ATOM     29  C   UNL     1       5.017  12.376 -20.197  1.00  0.00     0.191 C 
BRANCH  29  30
ATOM     30  O   UNL     1       6.161  13.187 -20.230  1.00  0.00    -0.394 OA
ATOM     31  H   UNL     1       6.938  12.576 -20.144  1.00  0.00     0.210 HD
ENDBRANCH  29  30
ENDBRANCH  21  29
ENDBRANCH   1  17
TORSDOF 13
ENDMDL
MODEL 4
REMARK VINA RESULT:    -4.170      9.077     12.271
REMARK INTER + INTRA:          -8.174
REMARK INTER:                  -6.635
REMARK INTRA:                  -1.539
REMARK UNBOUND:                -1.810
REMARK SMILES OC[C@H]1O[C@@H](O[C@]2(CO)O[C@H](CO)[C@H](O)[C@H]2O)[C@@H](O)[C@H](O)[C@H]1O
REMARK SMILES IDX 6 1 5 2 3 3 22 4 4 5 20 6 18 7 2 8 1 9 23 11 21 13 19 15
REMARK SMILES IDX 7 17 16 18 10 19 14 20 11 21 8 22 9 23 17 25 15 27 12 29
REMARK SMILES IDX 13 30
REMARK H PARENT 1 10 23 12 21 14 19 16 9 24 17 26 15 28 13 31
REMARK Flexibility Score: inf
ROOT
ATOM      1  O   UNL     1      10.315  11.981 -18.275  1.00  0.00    -0.313 OA
ENDROOT
BRANCH   1   2
ATOM      2  C   UNL     1      11.019  12.470 -19.406  1.00  0.00     0.285 C 
ATOM      3  C   UNL     1      13.271  12.414 -20.120  1.00  0.00     0.178 C 
ATOM      4  C   UNL     1      13.770  13.484 -19.111  1.00  0.00     0.177 C 
ATOM      5  O   UNL     1      12.201  11.681 -19.556  1.00  0.00    -0.341 OA
ATOM      6  C   UNL     1      12.586  14.197 -18.412  1.00  0.00     0.179 C 
ATOM      7  C   UNL     1      11.284  13.993 -19.201  1.00  0.00     0.202 C 
BRANCH   3   8
ATOM      8  C   UNL     1      14.396  11.455 -20.536  1.00  0.00     0.191 C 
BRANCH   8   9
ATOM      9  O   UNL     1      15.587  12.172 -20.729  1.00  0.00    -0.394 OA
ATOM     10  H   UNL     1      15.999  11.801 -21.554  1.00  0.00     0.210 HD
ENDBRANCH   8   9
ENDBRANCH   3   8
BRANCH   4  11
ATOM     11  O   UNL     1      14.586  12.896 -18.123  1.00  0.00    -0.387 OA
ATOM     12  H   UNL     1      15.531  13.056 -18.387  1.00  0.00     0.211 HD
ENDBRANCH   4  11
BRANCH   6  13
ATOM     13  O   UNL     1      12.873  15.569 -18.302  1.00  0.00    -0.387 OA
ATOM     14  H   UNL     1      13.020  15.763 -17.343  1.00  0.00     0.211 HD
ENDBRANCH   6  13
BRANCH   7  15
ATOM     15  O   UNL     1      10.203  14.583 -18.521  1.00  0.00    -0.385 OA
ATOM     16  H   UNL     1       9.458  13.925 -18.514  1.00  0.00     0.211 HD
ENDBRANCH   7  15
ENDBRANCH   1   2
BRANCH   1  17
ATOM     17  C   UNL     1       9.105  11.288 -18.587  1.00  0.00     0.224 C 
ATOM     18  C   UNL     1       8.009  11.644 -17.564  1.00  0.00     0.208 C 
ATOM     19  O   UNL     1       8.610  11.611 -19.882  1.00  0.00    -0.337 OA
ATOM     20  C   UNL     1       6.750  11.466 -18.364  1.00  0.00     0.180 C 
ATOM     21  C   UNL     1       7.206  11.799 -19.794  1.00  0.00     0.179 C 
BRANCH  17  22
ATOM     22  C   UNL     1       9.438   9.779 -18.590  1.00  0.00     0.225 C 
BRANCH  22  23
ATOM     23  O   UNL     1      10.630   9.539 -17.887  1.00  0.00    -0.391 OA
ATOM     24  H   UNL     1      11.303  10.197 -18.212  1.00  0.00     0.210 HD
ENDBRANCH  22  23
ENDBRANCH  17  22
BRANCH  18  25
ATOM     25  O   UNL     1       8.005  10.801 -16.442  1.00  0.00    -0.385 OA
ATOM     26  H   UNL     1       8.175  11.376 -15.650  1.00  0.00     0.211 HD
ENDBRANCH  18  25
BRANCH  20  27
ATOM     27  O   UNL     1       5.726  12.301 -17.885  1.00  0.00    -0.387 OA
ATOM     28  H   UNL     1       6.174  13.056 -17.428  1.00  0.00     0.211 HD
ENDBRANCH  20  27
BRANCH  21  29
ATOM     29  C   UNL     1       6.857  13.232 -20.233  1.00  0.00     0.191 C 
BRANCH  29  30
ATOM     30  O   UNL     1       8.026  13.902 -20.624  1.00  0.00    -0.394 OA
ATOM     31  H   UNL     1       8.261  14.510 -19.877  1.00  0.00     0.210 HD
ENDBRANCH  29  30
ENDBRANCH  21  29
ENDBRANCH   1  17
TORSDOF 13
ENDMDL
MODEL 5
REMARK VINA RESULT:    -4.100      1.745      5.906
REMARK INTER + INTRA:          -8.068
REMARK INTER:                  -6.568
REMARK INTRA:                  -1.499
REMARK UNBOUND:                -1.810
REMARK SMILES OC[C@H]1O[C@@H](O[C@]2(CO)O[C@H](CO)[C@H](O)[C@H]2O)[C@@H](O)[C@H](O)[C@H]1O
REMARK SMILES IDX 6 1 5 2 3 3 22 4 4 5 20 6 18 7 2 8 1 9 23 11 21 13 19 15
REMARK SMILES IDX 7 17 16 18 10 19 14 20 11 21 8 22 9 23 17 25 15 27 12 29
REMARK SMILES IDX 13 30
REMARK H PARENT 1 10 23 12 21 14 19 16 9 24 17 26 15 28 13 31
REMARK Flexibility Score: inf
ROOT
ATOM      1  O   UNL     1      19.366   3.658 -18.467  1.00  0.00    -0.313 OA
ENDROOT
BRANCH   1   2
ATOM      2  C   UNL     1      18.662   4.544 -19.324  1.00  0.00     0.285 C 
ATOM      3  C   UNL     1      19.177   5.689 -21.326  1.00  0.00     0.178 C 
ATOM      4  C   UNL     1      20.081   6.757 -20.654  1.00  0.00     0.177 C 
ATOM      5  O   UNL     1      19.264   4.468 -20.617  1.00  0.00    -0.341 OA
ATOM      6  C   UNL     1      19.958   6.712 -19.111  1.00  0.00     0.179 C 
ATOM      7  C   UNL     1      18.684   5.968 -18.688  1.00  0.00     0.202 C 
BRANCH   3   8
ATOM      8  C   UNL     1      19.558   5.463 -22.797  1.00  0.00     0.191 C 
BRANCH   8   9
ATOM      9  O   UNL     1      20.501   4.428 -22.892  1.00  0.00    -0.394 OA
ATOM     10  H   UNL     1      20.167   3.817 -23.601  1.00  0.00     0.210 HD
ENDBRANCH   8   9
ENDBRANCH   3   8
BRANCH   4  11
ATOM     11  O   UNL     1      21.433   6.557 -21.002  1.00  0.00    -0.387 OA
ATOM     12  H   UNL     1      21.878   7.447 -20.980  1.00  0.00     0.211 HD
ENDBRANCH   4  11
BRANCH   6  13
ATOM     13  O   UNL     1      19.938   8.025 -18.611  1.00  0.00    -0.387 OA
ATOM     14  H   UNL     1      20.672   8.521 -19.054  1.00  0.00     0.211 HD
ENDBRANCH   6  13
BRANCH   7  15
ATOM     15  O   UNL     1      18.617   5.870 -17.286  1.00  0.00    -0.385 OA
ATOM     16  H   UNL     1      18.602   6.794 -16.921  1.00  0.00     0.211 HD
ENDBRANCH   7  15
ENDBRANCH   1   2
BRANCH   1  17
ATOM     17  C   UNL     1      18.597   2.546 -18.006  1.00  0.00     0.224 C 
ATOM     18  C   UNL     1      19.401   1.736 -16.972  1.00  0.00     0.208 C 
ATOM     19  O   UNL     1      17.377   2.945 -17.390  1.00  0.00    -0.337 OA
ATOM     20  C   UNL     1      18.319   1.131 -16.123  1.00  0.00     0.180 C 
ATOM     21  C   UNL     1      17.193   2.174 -16.213  1.00  0.00     0.179 C 
BRANCH  17  22
ATOM     22  C   UNL     1      18.226   1.709 -19.251  1.00  0.00     0.225 C 
BRANCH  22  23
ATOM     23  O   UNL     1      19.368   1.455 -20.028  1.00  0.00    -0.391 OA
ATOM     24  H   UNL     1      19.081   0.898 -20.802  1.00  0.00     0.210 HD
ENDBRANCH  22  23
ENDBRANCH  17  22
BRANCH  18  25
ATOM     25  O   UNL     1      20.194   0.732 -17.551  1.00  0.00    -0.385 OA
ATOM     26  H   UNL     1      20.556   1.105 -18.398  1.00  0.00     0.211 HD
ENDBRANCH  18  25
BRANCH  20  27
ATOM     27  O   UNL     1      18.776   0.897 -14.815  1.00  0.00    -0.387 OA
ATOM     28  H   UNL     1      18.127   1.339 -14.212  1.00  0.00     0.211 HD
ENDBRANCH  20  27
BRANCH  21  29
ATOM     29  C   UNL     1      17.128   3.114 -14.996  1.00  0.00     0.191 C 
BRANCH  29  30
ATOM     30  O   UNL     1      17.249   4.445 -15.422  1.00  0.00    -0.394 OA
ATOM     31  H   UNL     1      17.735   4.418 -16.286  1.00  0.00     0.210 HD
ENDBRANCH  29  30
ENDBRANCH  21  29
ENDBRANCH   1  17
TORSDOF 13
ENDMDL
MODEL 6
REMARK VINA RESULT:    -3.957      9.029     11.179
REMARK INTER + INTRA:          -7.849
REMARK INTER:                  -6.275
REMARK INTRA:                  -1.574
REMARK UNBOUND:                -1.810
REMARK SMILES OC[C@H]1O[C@@H](O[C@]2(CO)O[C@H](CO)[C@H](O)[C@H]2O)[C@@H](O)[C@H](O)[C@H]1O
REMARK SMILES IDX 6 1 5 2 3 3 22 4 4 5 20 6 18 7 2 8 1 9 23 11 21 13 19 15
REMARK SMILES IDX 7 17 16 18 10 19 14 20 11 21 8 22 9 23 17 25 15 27 12 29
REMARK SMILES IDX 13 30
REMARK H PARENT 1 10 23 12 21 14 19 16 9 24 17 26 15 28 13 31
REMARK Flexibility Score: inf
ROOT
ATOM      1  O   UNL     1      10.412  12.136 -18.696  1.00  0.00    -0.313 OA
ENDROOT
BRANCH   1   2
ATOM      2  C   UNL     1       9.446  11.425 -19.456  1.00  0.00     0.285 C 
ATOM      3  C   UNL     1       7.087  11.291 -19.447  1.00  0.00     0.178 C 
ATOM      4  C   UNL     1       6.995  10.419 -18.165  1.00  0.00     0.177 C 
ATOM      5  O   UNL     1       8.213  12.143 -19.372  1.00  0.00    -0.341 OA
ATOM      6  C   UNL     1       8.386   9.880 -17.748  1.00  0.00     0.179 C 
ATOM      7  C   UNL     1       9.376   9.962 -18.920  1.00  0.00     0.202 C 
BRANCH   3   8
ATOM      8  C   UNL     1       5.816  12.128 -19.658  1.00  0.00     0.191 C 
BRANCH   8   9
ATOM      9  O   UNL     1       4.681  11.344 -19.402  1.00  0.00    -0.394 OA
ATOM     10  H   UNL     1       4.964  10.400 -19.535  1.00  0.00     0.210 HD
ENDBRANCH   8   9
ENDBRANCH   3   8
BRANCH   4  11
ATOM     11  O   UNL     1       6.464  11.164 -17.092  1.00  0.00    -0.387 OA
ATOM     12  H   UNL     1       6.534  12.125 -17.337  1.00  0.00     0.211 HD
ENDBRANCH   4  11
BRANCH   6  13
ATOM     13  O   UNL     1       8.255   8.547 -17.321  1.00  0.00    -0.387 OA
ATOM     14  H   UNL     1       8.830   7.992 -17.905  1.00  0.00     0.211 HD
ENDBRANCH   6  13
BRANCH   7  15
ATOM     15  O   UNL     1      10.653   9.537 -18.511  1.00  0.00    -0.385 OA
ATOM     16  H   UNL     1      11.170  10.345 -18.250  1.00  0.00     0.211 HD
ENDBRANCH   7  15
ENDBRANCH   1   2
BRANCH   1  17
ATOM     17  C   UNL     1      11.406  12.800 -19.478  1.00  0.00     0.224 C 
ATOM     18  C   UNL     1      12.810  12.490 -18.927  1.00  0.00     0.208 C 
ATOM     19  O   UNL     1      11.379  12.403 -20.845  1.00  0.00    -0.337 OA
ATOM     20  C   UNL     1      13.673  12.613 -20.151  1.00  0.00     0.180 C 
ATOM     21  C   UNL     1      12.715  12.208 -21.284  1.00  0.00     0.179 C 
BRANCH  17  22
ATOM     22  C   UNL     1      11.077  14.310 -19.436  1.00  0.00     0.225 C 
BRANCH  22  23
ATOM     23  O   UNL     1      10.476  14.646 -18.212  1.00  0.00    -0.391 OA
ATOM     24  H   UNL     1       9.933  13.863 -17.924  1.00  0.00     0.210 HD
ENDBRANCH  22  23
ENDBRANCH  17  22
BRANCH  18  25
ATOM     25  O   UNL     1      13.228  13.392 -17.936  1.00  0.00    -0.385 OA
ATOM     26  H   UNL     1      12.485  14.039 -17.805  1.00  0.00     0.211 HD
ENDBRANCH  18  25
BRANCH  20  27
ATOM     27  O   UNL     1      14.812  11.797 -20.050  1.00  0.00    -0.387 OA
ATOM     28  H   UNL     1      14.502  10.868 -20.198  1.00  0.00     0.211 HD
ENDBRANCH  20  27
BRANCH  21  29
ATOM     29  C   UNL     1      12.890  10.750 -21.744  1.00  0.00     0.191 C 
BRANCH  29  30
ATOM     30  O   UNL     1      12.551   9.882 -20.696  1.00  0.00    -0.394 OA
ATOM     31  H   UNL     1      12.157  10.447 -19.983  1.00  0.00     0.210 HD
ENDBRANCH  29  30
ENDBRANCH  21  29
ENDBRANCH   1  17
TORSDOF 13
ENDMDL
MODEL 7
REMARK VINA RESULT:    -3.946      9.645     12.958
REMARK INTER + INTRA:          -7.832
REMARK INTER:                  -6.292
REMARK INTRA:                  -1.540
REMARK UNBOUND:                -1.810
REMARK SMILES OC[C@H]1O[C@@H](O[C@]2(CO)O[C@H](CO)[C@H](O)[C@H]2O)[C@@H](O)[C@H](O)[C@H]1O
REMARK SMILES IDX 6 1 5 2 3 3 22 4 4 5 20 6 18 7 2 8 1 9 23 11 21 13 19 15
REMARK SMILES IDX 7 17 16 18 10 19 14 20 11 21 8 22 9 23 17 25 15 27 12 29
REMARK SMILES IDX 13 30
REMARK H PARENT 1 10 23 12 21 14 19 16 9 24 17 26 15 28 13 31
REMARK Flexibility Score: inf
ROOT
ATOM      1  O   UNL     1       9.802  12.530 -18.843  1.00  0.00    -0.313 OA
ENDROOT
BRANCH   1   2
ATOM      2  C   UNL     1      10.805  12.541 -19.847  1.00  0.00     0.285 C 
ATOM      3  C   UNL     1      13.012  13.373 -19.991  1.00  0.00     0.178 C 
ATOM      4  C   UNL     1      12.598  14.864 -20.123  1.00  0.00     0.177 C 
ATOM      5  O   UNL     1      12.070  12.678 -19.197  1.00  0.00    -0.341 OA
ATOM      6  C   UNL     1      11.075  15.007 -20.371  1.00  0.00     0.179 C 
ATOM      7  C   UNL     1      10.476  13.680 -20.860  1.00  0.00     0.202 C 
BRANCH   3   8
ATOM      8  C   UNL     1      14.414  13.223 -19.382  1.00  0.00     0.191 C 
BRANCH   8   9
ATOM      9  O   UNL     1      14.322  13.160 -17.983  1.00  0.00    -0.394 OA
ATOM     10  H   UNL     1      13.355  13.054 -17.776  1.00  0.00     0.210 HD
ENDBRANCH   8   9
ENDBRANCH   3   8
BRANCH   4  11
ATOM     11  O   UNL     1      12.930  15.580 -18.955  1.00  0.00    -0.387 OA
ATOM     12  H   UNL     1      13.498  14.985 -18.396  1.00  0.00     0.211 HD
ENDBRANCH   4  11
BRANCH   6  13
ATOM     13  O   UNL     1      10.856  16.016 -21.324  1.00  0.00    -0.387 OA
ATOM     14  H   UNL     1      10.523  16.812 -20.839  1.00  0.00     0.211 HD
ENDBRANCH   6  13
BRANCH   7  15
ATOM     15  O   UNL     1       9.082  13.801 -21.014  1.00  0.00    -0.385 OA
ATOM     16  H   UNL     1       8.677  13.772 -20.107  1.00  0.00     0.211 HD
ENDBRANCH   7  15
ENDBRANCH   1   2
BRANCH   1  17
ATOM     17  C   UNL     1       8.990  11.354 -18.833  1.00  0.00     0.224 C 
ATOM     18  C   UNL     1       7.788  11.547 -17.889  1.00  0.00     0.208 C 
ATOM     19  O   UNL     1       8.481  11.032 -20.122  1.00  0.00    -0.337 OA
ATOM     20  C   UNL     1       6.752  10.644 -18.496  1.00  0.00     0.180 C 
ATOM     21  C   UNL     1       7.116  10.665 -19.990  1.00  0.00     0.179 C 
BRANCH  17  22
ATOM     22  C   UNL     1       9.899  10.183 -18.396  1.00  0.00     0.225 C 
BRANCH  22  23
ATOM     23  O   UNL     1      10.758  10.589 -17.362  1.00  0.00    -0.391 OA
ATOM     24  H   UNL     1      10.734  11.584 -17.332  1.00  0.00     0.210 HD
ENDBRANCH  22  23
ENDBRANCH  17  22
BRANCH  18  25
ATOM     25  O   UNL     1       8.058  11.168 -16.564  1.00  0.00    -0.385 OA
ATOM     26  H   UNL     1       7.234  10.737 -16.215  1.00  0.00     0.211 HD
ENDBRANCH  18  25
BRANCH  20  27
ATOM     27  O   UNL     1       5.454  11.108 -18.220  1.00  0.00    -0.387 OA
ATOM     28  H   UNL     1       5.100  11.464 -19.073  1.00  0.00     0.211 HD
ENDBRANCH  20  27
BRANCH  21  29
ATOM     29  C   UNL     1       6.248  11.626 -20.820  1.00  0.00     0.191 C 
BRANCH  29  30
ATOM     30  O   UNL     1       6.451  12.943 -20.380  1.00  0.00    -0.394 OA
ATOM     31  H   UNL     1       5.574  13.262 -20.046  1.00  0.00     0.210 HD
ENDBRANCH  29  30
ENDBRANCH  21  29
ENDBRANCH   1  17
TORSDOF 13
ENDMDL
MODEL 8
REMARK VINA RESULT:    -3.869     10.247     12.167
REMARK INTER + INTRA:          -7.716
REMARK INTER:                  -5.774
REMARK INTRA:                  -1.942
REMARK UNBOUND:                -1.810
REMARK SMILES OC[C@H]1O[C@@H](O[C@]2(CO)O[C@H](CO)[C@H](O)[C@H]2O)[C@@H](O)[C@H](O)[C@H]1O
REMARK SMILES IDX 6 1 5 2 3 3 22 4 4 5 20 6 18 7 2 8 1 9 23 11 21 13 19 15
REMARK SMILES IDX 7 17 16 18 10 19 14 20 11 21 8 22 9 23 17 25 15 27 12 29
REMARK SMILES IDX 13 30
REMARK H PARENT 1 10 23 12 21 14 19 16 9 24 17 26 15 28 13 31
REMARK Flexibility Score: inf
ROOT
ATOM      1  O   UNL     1      10.594  13.025 -18.569  1.00  0.00    -0.313 OA
ENDROOT
BRANCH   1   2
ATOM      2  C   UNL     1       9.890  12.054 -19.329  1.00  0.00     0.285 C 
ATOM      3  C   UNL     1       7.618  11.674 -19.854  1.00  0.00     0.178 C 
ATOM      4  C   UNL     1       7.233  11.130 -18.452  1.00  0.00     0.177 C 
ATOM      5  O   UNL     1       8.648  12.635 -19.733  1.00  0.00    -0.341 OA
ATOM      6  C   UNL     1       8.489  10.858 -17.587  1.00  0.00     0.179 C 
ATOM      7  C   UNL     1       9.745  10.763 -18.466  1.00  0.00     0.202 C 
BRANCH   3   8
ATOM      8  C   UNL     1       6.411  12.295 -20.574  1.00  0.00     0.191 C 
BRANCH   8   9
ATOM      9  O   UNL     1       6.346  13.669 -20.297  1.00  0.00    -0.394 OA
ATOM     10  H   UNL     1       6.462  14.131 -21.169  1.00  0.00     0.210 HD
ENDBRANCH   8   9
ENDBRANCH   3   8
BRANCH   4  11
ATOM     11  O   UNL     1       6.410  12.048 -17.768  1.00  0.00    -0.387 OA
ATOM     12  H   UNL     1       6.050  12.681 -18.445  1.00  0.00     0.211 HD
ENDBRANCH   4  11
BRANCH   6  13
ATOM     13  O   UNL     1       8.309   9.660 -16.874  1.00  0.00    -0.387 OA
ATOM     14  H   UNL     1       8.571   9.834 -15.936  1.00  0.00     0.211 HD
ENDBRANCH   6  13
BRANCH   7  15
ATOM     15  O   UNL     1      10.889  10.587 -17.666  1.00  0.00    -0.385 OA
ATOM     16  H   UNL     1      11.600  10.195 -18.241  1.00  0.00     0.211 HD
ENDBRANCH   7  15
ENDBRANCH   1   2
BRANCH   1  17
ATOM     17  C   UNL     1      11.471  13.852 -19.336  1.00  0.00     0.224 C 
ATOM     18  C   UNL     1      11.854  13.145 -20.650  1.00  0.00     0.208 C 
ATOM     19  O   UNL     1      10.884  15.104 -19.674  1.00  0.00    -0.337 OA
ATOM     20  C   UNL     1      12.121  14.299 -21.573  1.00  0.00     0.180 C 
ATOM     21  C   UNL     1      11.184  15.392 -21.031  1.00  0.00     0.179 C 
BRANCH  17  22
ATOM     22  C   UNL     1      12.700  14.150 -18.448  1.00  0.00     0.225 C 
BRANCH  22  23
ATOM     23  O   UNL     1      13.115  12.986 -17.780  1.00  0.00    -0.391 OA
ATOM     24  H   UNL     1      13.142  13.196 -16.808  1.00  0.00     0.210 HD
ENDBRANCH  22  23
ENDBRANCH  17  22
BRANCH  18  25
ATOM     25  O   UNL     1      12.995  12.335 -20.530  1.00  0.00    -0.385 OA
ATOM     26  H   UNL     1      12.985  11.709 -21.302  1.00  0.00     0.211 HD
ENDBRANCH  18  25
BRANCH  20  27
ATOM     27  O   UNL     1      11.868  13.946 -22.909  1.00  0.00    -0.387 OA
ATOM     28  H   UNL     1      11.435  14.732 -23.328  1.00  0.00     0.211 HD
ENDBRANCH  20  27
BRANCH  21  29
ATOM     29  C   UNL     1       9.871  15.524 -21.823  1.00  0.00     0.191 C 
BRANCH  29  30
ATOM     30  O   UNL     1       8.786  15.203 -20.994  1.00  0.00    -0.394 OA
ATOM     31  H   UNL     1       8.551  16.035 -20.509  1.00  0.00     0.210 HD
ENDBRANCH  29  30
ENDBRANCH  21  29
ENDBRANCH   1  17
TORSDOF 13
ENDMDL
