MODEL 1
REMARK VINA RESULT:    -6.940      0.000      0.000
REMARK INTER + INTRA:          -7.590
REMARK INTER:                  -7.549
REMARK INTRA:                  -0.041
REMARK UNBOUND:                -0.041
REMARK SMILES C[C@H]1[C@@H](C)CC[C@@]2(C(=O)[O-])CC[C@@]3(C)C(=CC[C@@H]4[C@@]5(C)CC[C@H](O)C(C)(C)[C@H]5CC[C@@]43C)[C@@H]12
REMARK SMILES IDX 7 1 6 2 11 3 33 4 5 5 12 6 15 7 2 8 3 9 13 10 16 11 1 12
REMARK SMILES IDX 4 13 14 14 31 15 17 16 18 17 30 18 32 19 19 20 29 21 28 22
REMARK SMILES IDX 21 23 20 24 25 25 22 26 23 27 26 28 27 29 8 30 9 31 10 32
REMARK SMILES IDX 24 33
REMARK H PARENT 24 34
REMARK Flexibility Score: inf
ROOT
ATOM      1  C   UNL     1      72.540  46.343   7.954  1.00  0.00     0.017 C 
ATOM      2  C   UNL     1      73.001  47.568   8.806  1.00  0.00     0.014 C 
ATOM      3  C   UNL     1      72.110  45.194   8.927  1.00  0.00     0.014 C 
ATOM      4  C   UNL     1      71.369  46.794   6.988  1.00  0.00     0.030 C 
ATOM      5  C   UNL     1      73.435  48.779   7.964  1.00  0.00     0.004 C 
ATOM      6  C   UNL     1      70.741  44.594   8.593  1.00  0.00     0.013 C 
ATOM      7  C   UNL     1      70.001  46.843   7.723  1.00  0.00    -0.063 C 
ATOM      8  C   UNL     1      71.845  48.037   6.144  1.00  0.00    -0.003 C 
ATOM      9  C   UNL     1      72.334  49.244   6.992  1.00  0.00    -0.011 C 
ATOM     10  C   UNL     1      69.593  45.668   8.651  1.00  0.00    -0.006 C 
ATOM     11  C   UNL     1      69.031  47.708   7.362  1.00  0.00    -0.027 C 
ATOM     12  C   UNL     1      70.985  48.409   4.913  1.00  0.00     0.008 C 
ATOM     13  C   UNL     1      71.236  50.024   7.736  1.00  0.00     0.008 C 
ATOM     14  C   UNL     1      69.515  46.161  10.125  1.00  0.00     0.017 C 
ATOM     15  C   UNL     1      68.159  45.086   8.173  1.00  0.00    -0.020 C 
ATOM     16  C   UNL     1      67.687  47.689   8.003  1.00  0.00     0.032 C 
ATOM     17  C   UNL     1      67.053  46.268   8.017  1.00  0.00     0.006 C 
ATOM     18  C   UNL     1      67.687  43.891   9.084  1.00  0.00     0.008 C 
ATOM     19  C   UNL     1      68.368  44.459   6.746  1.00  0.00     0.012 C 
ATOM     20  C   UNL     1      65.666  46.242   8.847  1.00  0.00    -0.025 C 
ATOM     21  C   UNL     1      66.564  44.173  10.060  1.00  0.00     0.005 C 
ATOM     22  C   UNL     1      65.321  44.824   9.433  1.00  0.00     0.003 C 
ATOM     23  C   UNL     1      64.495  46.737   7.918  1.00  0.00     0.010 C 
ATOM     24  C   UNL     1      65.680  47.243  10.058  1.00  0.00     0.012 C 
ATOM     25  C   UNL     1      64.333  43.929   8.571  1.00  0.00    -0.006 C 
ATOM     26  C   UNL     1      63.117  46.260   8.381  1.00  0.00     0.033 C 
ATOM     27  C   UNL     1      62.970  44.718   8.381  1.00  0.00     0.120 C 
ATOM     28  C   UNL     1      64.881  43.540   7.173  1.00  0.00     0.014 C 
ATOM     29  C   UNL     1      64.049  42.589   9.303  1.00  0.00     0.014 C 
ENDROOT
BRANCH   1  30
ATOM     30  C   UNL     1      73.722  45.806   7.145  1.00  0.00     0.048 C 
ATOM     31  O   UNL     1      73.563  45.428   5.953  1.00  0.00    -0.550 OA
ATOM     32  O   UNL     1      74.961  45.609   7.746  1.00  0.00    -0.550 OA
ENDBRANCH   1  30
BRANCH  27  33
ATOM     33  O   UNL     1      62.047  44.371   9.388  1.00  0.00    -0.393 OA
ATOM     34  H   UNL     1      61.438  45.146   9.507  1.00  0.00     0.210 HD
ENDBRANCH  27  33
TORSDOF 2
ENDMDL
MODEL 2
REMARK VINA RESULT:    -6.520      3.934      5.534
REMARK INTER + INTRA:          -7.133
REMARK INTER:                  -7.052
REMARK INTRA:                  -0.082
REMARK UNBOUND:                -0.041
REMARK SMILES C[C@H]1[C@@H](C)CC[C@@]2(C(=O)[O-])CC[C@@]3(C)C(=CC[C@@H]4[C@@]5(C)CC[C@H](O)C(C)(C)[C@H]5CC[C@@]43C)[C@@H]12
REMARK SMILES IDX 7 1 6 2 11 3 33 4 5 5 12 6 15 7 2 8 3 9 13 10 16 11 1 12
REMARK SMILES IDX 4 13 14 14 31 15 17 16 18 17 30 18 32 19 19 20 29 21 28 22
REMARK SMILES IDX 21 23 20 24 25 25 22 26 23 27 26 28 27 29 8 30 9 31 10 32
REMARK SMILES IDX 24 33
REMARK H PARENT 24 34
REMARK Flexibility Score: inf
ROOT
ATOM      1  C   UNL     1      73.399  46.735   6.192  1.00  0.00     0.017 C 
ATOM      2  C   UNL     1      74.055  47.377   7.455  1.00  0.00     0.014 C 
ATOM      3  C   UNL     1      74.220  45.461   5.799  1.00  0.00     0.014 C 
ATOM      4  C   UNL     1      71.881  46.410   6.505  1.00  0.00     0.030 C 
ATOM      5  C   UNL     1      73.328  48.636   7.958  1.00  0.00     0.004 C 
ATOM      6  C   UNL     1      73.350  44.221   5.575  1.00  0.00     0.013 C 
ATOM      7  C   UNL     1      71.728  45.084   7.303  1.00  0.00    -0.063 C 
ATOM      8  C   UNL     1      71.167  47.717   7.020  1.00  0.00    -0.003 C 
ATOM      9  C   UNL     1      71.839  48.375   8.257  1.00  0.00    -0.011 C 
ATOM     10  C   UNL     1      72.530  43.833   6.861  1.00  0.00    -0.006 C 
ATOM     11  C   UNL     1      70.712  44.892   8.169  1.00  0.00    -0.027 C 
ATOM     12  C   UNL     1      69.621  47.696   7.051  1.00  0.00     0.008 C 
ATOM     13  C   UNL     1      71.671  47.619   9.587  1.00  0.00     0.008 C 
ATOM     14  C   UNL     1      73.568  43.456   7.957  1.00  0.00     0.017 C 
ATOM     15  C   UNL     1      71.503  42.605   6.608  1.00  0.00    -0.020 C 
ATOM     16  C   UNL     1      70.511  43.588   8.861  1.00  0.00     0.032 C 
ATOM     17  C   UNL     1      70.509  42.384   7.875  1.00  0.00     0.006 C 
ATOM     18  C   UNL     1      72.263  41.299   6.162  1.00  0.00     0.008 C 
ATOM     19  C   UNL     1      70.605  43.000   5.380  1.00  0.00     0.012 C 
ATOM     20  C   UNL     1      70.439  40.971   8.659  1.00  0.00    -0.025 C 
ATOM     21  C   UNL     1      72.383  40.190   7.186  1.00  0.00     0.005 C 
ATOM     22  C   UNL     1      71.054  39.778   7.840  1.00  0.00     0.003 C 
ATOM     23  C   UNL     1      68.941  40.654   9.025  1.00  0.00     0.010 C 
ATOM     24  C   UNL     1      71.197  41.018  10.034  1.00  0.00     0.012 C 
ATOM     25  C   UNL     1      70.030  38.890   7.015  1.00  0.00    -0.006 C 
ATOM     26  C   UNL     1      68.683  39.165   9.264  1.00  0.00     0.033 C 
ATOM     27  C   UNL     1      68.960  38.287   8.017  1.00  0.00     0.120 C 
ATOM     28  C   UNL     1      69.283  39.657   5.893  1.00  0.00     0.014 C 
ATOM     29  C   UNL     1      70.779  37.727   6.308  1.00  0.00     0.014 C 
ENDROOT
BRANCH   1  30
ATOM     30  C   UNL     1      73.505  47.700   5.010  1.00  0.00     0.048 C 
ATOM     31  O   UNL     1      72.619  47.713   4.113  1.00  0.00    -0.550 OA
ATOM     32  O   UNL     1      74.637  48.490   4.839  1.00  0.00    -0.550 OA
ENDBRANCH   1  30
BRANCH  27  33
ATOM     33  O   UNL     1      69.357  37.011   8.465  1.00  0.00    -0.393 OA
ATOM     34  H   UNL     1      70.015  37.149   9.196  1.00  0.00     0.210 HD
ENDBRANCH  27  33
TORSDOF 2
ENDMDL
MODEL 3
REMARK VINA RESULT:    -6.383      3.744      5.879
REMARK INTER + INTRA:          -6.984
REMARK INTER:                  -7.105
REMARK INTRA:                   0.122
REMARK UNBOUND:                -0.041
REMARK SMILES C[C@H]1[C@@H](C)CC[C@@]2(C(=O)[O-])CC[C@@]3(C)C(=CC[C@@H]4[C@@]5(C)CC[C@H](O)C(C)(C)[C@H]5CC[C@@]43C)[C@@H]12
REMARK SMILES IDX 7 1 6 2 11 3 33 4 5 5 12 6 15 7 2 8 3 9 13 10 16 11 1 12
REMARK SMILES IDX 4 13 14 14 31 15 17 16 18 17 30 18 32 19 19 20 29 21 28 22
REMARK SMILES IDX 21 23 20 24 25 25 22 26 23 27 26 28 27 29 8 30 9 31 10 32
REMARK SMILES IDX 24 33
REMARK H PARENT 24 34
REMARK Flexibility Score: inf
ROOT
ATOM      1  C   UNL     1      72.601  47.578   8.551  1.00  0.00     0.017 C 
ATOM      2  C   UNL     1      72.167  47.885  10.020  1.00  0.00     0.014 C 
ATOM      3  C   UNL     1      73.784  46.554   8.587  1.00  0.00     0.014 C 
ATOM      4  C   UNL     1      71.351  47.039   7.743  1.00  0.00     0.030 C 
ATOM      5  C   UNL     1      70.992  48.871  10.125  1.00  0.00     0.004 C 
ATOM      6  C   UNL     1      73.581  45.357   7.653  1.00  0.00     0.013 C 
ATOM      7  C   UNL     1      71.092  45.531   8.019  1.00  0.00    -0.063 C 
ATOM      8  C   UNL     1      70.166  48.070   7.873  1.00  0.00    -0.003 C 
ATOM      9  C   UNL     1      69.756  48.400   9.336  1.00  0.00    -0.011 C 
ATOM     10  C   UNL     1      72.285  44.540   8.009  1.00  0.00    -0.006 C 
ATOM     11  C   UNL     1      69.852  45.004   7.970  1.00  0.00    -0.027 C 
ATOM     12  C   UNL     1      68.987  47.900   6.887  1.00  0.00     0.008 C 
ATOM     13  C   UNL     1      69.017  47.279  10.089  1.00  0.00     0.008 C 
ATOM     14  C   UNL     1      72.501  43.958   9.436  1.00  0.00     0.017 C 
ATOM     15  C   UNL     1      71.979  43.350   6.954  1.00  0.00    -0.020 C 
ATOM     16  C   UNL     1      69.616  43.543   8.139  1.00  0.00     0.032 C 
ATOM     17  C   UNL     1      70.519  42.681   7.210  1.00  0.00     0.006 C 
ATOM     18  C   UNL     1      73.156  42.304   6.904  1.00  0.00     0.008 C 
ATOM     19  C   UNL     1      71.944  44.000   5.523  1.00  0.00     0.012 C 
ATOM     20  C   UNL     1      70.355  41.102   7.516  1.00  0.00    -0.025 C 
ATOM     21  C   UNL     1      72.911  40.962   7.560  1.00  0.00     0.005 C 
ATOM     22  C   UNL     1      71.619  40.258   7.114  1.00  0.00     0.003 C 
ATOM     23  C   UNL     1      69.084  40.557   6.761  1.00  0.00     0.010 C 
ATOM     24  C   UNL     1      70.082  40.817   9.037  1.00  0.00     0.012 C 
ATOM     25  C   UNL     1      71.574  39.558   5.691  1.00  0.00    -0.006 C 
ATOM     26  C   UNL     1      69.128  39.045   6.527  1.00  0.00     0.033 C 
ATOM     27  C   UNL     1      70.315  38.595   5.640  1.00  0.00     0.120 C 
ATOM     28  C   UNL     1      71.493  40.545   4.498  1.00  0.00     0.014 C 
ATOM     29  C   UNL     1      72.865  38.723   5.464  1.00  0.00     0.014 C 
ENDROOT
BRANCH   1  30
ATOM     30  C   UNL     1      73.149  48.850   7.902  1.00  0.00     0.048 C 
ATOM     31  O   UNL     1      73.623  48.819   6.734  1.00  0.00    -0.550 OA
ATOM     32  O   UNL     1      73.247  50.032   8.628  1.00  0.00    -0.550 OA
ENDBRANCH   1  30
BRANCH  27  33
ATOM     33  O   UNL     1      70.671  37.286   6.023  1.00  0.00    -0.393 OA
ATOM     34  H   UNL     1      69.954  36.952   6.624  1.00  0.00     0.210 HD
ENDBRANCH  27  33
TORSDOF 2
ENDMDL
MODEL 4
REMARK VINA RESULT:    -6.324      4.204      7.968
REMARK INTER + INTRA:          -6.920
REMARK INTER:                  -6.854
REMARK INTRA:                  -0.066
REMARK UNBOUND:                -0.041
REMARK SMILES C[C@H]1[C@@H](C)CC[C@@]2(C(=O)[O-])CC[C@@]3(C)C(=CC[C@@H]4[C@@]5(C)CC[C@H](O)C(C)(C)[C@H]5CC[C@@]43C)[C@@H]12
REMARK SMILES IDX 7 1 6 2 11 3 33 4 5 5 12 6 15 7 2 8 3 9 13 10 16 11 1 12
REMARK SMILES IDX 4 13 14 14 31 15 17 16 18 17 30 18 32 19 19 20 29 21 28 22
REMARK SMILES IDX 21 23 20 24 25 25 22 26 23 27 26 28 27 29 8 30 9 31 10 32
REMARK SMILES IDX 24 33
REMARK H PARENT 24 34
REMARK Flexibility Score: inf
ROOT
ATOM      1  C   UNL     1      70.287  39.712   6.468  1.00  0.00     0.017 C 
ATOM      2  C   UNL     1      70.546  38.816   7.720  1.00  0.00     0.014 C 
ATOM      3  C   UNL     1      69.135  40.717   6.807  1.00  0.00     0.014 C 
ATOM      4  C   UNL     1      71.633  40.442   6.065  1.00  0.00     0.030 C 
ATOM      5  C   UNL     1      71.675  37.790   7.525  1.00  0.00     0.004 C 
ATOM      6  C   UNL     1      69.472  42.170   6.459  1.00  0.00     0.013 C 
ATOM      7  C   UNL     1      71.899  41.692   6.950  1.00  0.00    -0.063 C 
ATOM      8  C   UNL     1      72.769  39.365   5.876  1.00  0.00    -0.003 C 
ATOM      9  C   UNL     1      73.004  38.451   7.110  1.00  0.00    -0.011 C 
ATOM     10  C   UNL     1      70.741  42.685   7.233  1.00  0.00    -0.006 C 
ATOM     11  C   UNL     1      73.151  42.108   7.232  1.00  0.00    -0.027 C 
ATOM     12  C   UNL     1      74.055  39.833   5.155  1.00  0.00     0.008 C 
ATOM     13  C   UNL     1      73.683  39.124   8.317  1.00  0.00     0.008 C 
ATOM     14  C   UNL     1      70.383  42.661   8.747  1.00  0.00     0.017 C 
ATOM     15  C   UNL     1      71.196  44.173   6.783  1.00  0.00    -0.020 C 
ATOM     16  C   UNL     1      73.405  43.359   7.999  1.00  0.00     0.032 C 
ATOM     17  C   UNL     1      72.634  44.581   7.420  1.00  0.00     0.006 C 
ATOM     18  C   UNL     1      70.059  45.230   7.052  1.00  0.00     0.008 C 
ATOM     19  C   UNL     1      71.373  44.148   5.221  1.00  0.00     0.012 C 
ATOM     20  C   UNL     1      72.805  45.891   8.352  1.00  0.00    -0.025 C 
ATOM     21  C   UNL     1      70.264  46.178   8.215  1.00  0.00     0.005 C 
ATOM     22  C   UNL     1      71.617  46.910   8.212  1.00  0.00     0.003 C 
ATOM     23  C   UNL     1      74.166  46.603   8.002  1.00  0.00     0.010 C 
ATOM     24  C   UNL     1      72.914  45.525   9.876  1.00  0.00     0.012 C 
ATOM     25  C   UNL     1      71.839  48.116   7.205  1.00  0.00    -0.006 C 
ATOM     26  C   UNL     1      74.189  48.081   8.397  1.00  0.00     0.033 C 
ATOM     27  C   UNL     1      73.120  48.929   7.663  1.00  0.00     0.120 C 
ATOM     28  C   UNL     1      72.026  47.684   5.727  1.00  0.00     0.014 C 
ATOM     29  C   UNL     1      70.604  49.059   7.218  1.00  0.00     0.014 C 
ENDROOT
BRANCH   1  30
ATOM     30  C   UNL     1      69.781  38.847   5.312  1.00  0.00     0.048 C 
ATOM     31  O   UNL     1      69.831  39.272   4.126  1.00  0.00    -0.550 OA
ATOM     32  O   UNL     1      69.148  37.634   5.559  1.00  0.00    -0.550 OA
ENDBRANCH   1  30
BRANCH  27  33
ATOM     33  O   UNL     1      72.759  49.997   8.508  1.00  0.00    -0.393 OA
ATOM     34  H   UNL     1      72.048  50.512   8.043  1.00  0.00     0.210 HD
ENDBRANCH  27  33
TORSDOF 2
ENDMDL
MODEL 5
REMARK VINA RESULT:    -6.285      3.765      6.449
REMARK INTER + INTRA:          -6.877
REMARK INTER:                  -6.796
REMARK INTRA:                  -0.082
REMARK UNBOUND:                -0.041
REMARK SMILES C[C@H]1[C@@H](C)CC[C@@]2(C(=O)[O-])CC[C@@]3(C)C(=CC[C@@H]4[C@@]5(C)CC[C@H](O)C(C)(C)[C@H]5CC[C@@]43C)[C@@H]12
REMARK SMILES IDX 7 1 6 2 11 3 33 4 5 5 12 6 15 7 2 8 3 9 13 10 16 11 1 12
REMARK SMILES IDX 4 13 14 14 31 15 17 16 18 17 30 18 32 19 19 20 29 21 28 22
REMARK SMILES IDX 21 23 20 24 25 25 22 26 23 27 26 28 27 29 8 30 9 31 10 32
REMARK SMILES IDX 24 33
REMARK H PARENT 24 34
REMARK Flexibility Score: inf
ROOT
ATOM      1  C   UNL     1      69.647  47.796   8.179  1.00  0.00     0.017 C 
ATOM      2  C   UNL     1      69.046  48.402   6.872  1.00  0.00     0.014 C 
ATOM      3  C   UNL     1      68.668  46.697   8.713  1.00  0.00     0.014 C 
ATOM      4  C   UNL     1      71.092  47.227   7.870  1.00  0.00     0.030 C 
ATOM      5  C   UNL     1      69.926  49.488   6.231  1.00  0.00     0.004 C 
ATOM      6  C   UNL     1      69.361  45.372   9.042  1.00  0.00     0.013 C 
ATOM      7  C   UNL     1      71.030  45.823   7.205  1.00  0.00    -0.063 C 
ATOM      8  C   UNL     1      71.966  48.362   7.213  1.00  0.00    -0.003 C 
ATOM      9  C   UNL     1      71.351  48.988   5.930  1.00  0.00    -0.011 C 
ATOM     10  C   UNL     1      70.074  44.748   7.786  1.00  0.00    -0.006 C 
ATOM     11  C   UNL     1      71.978  45.404   6.342  1.00  0.00    -0.027 C 
ATOM     12  C   UNL     1      73.492  48.116   7.153  1.00  0.00     0.008 C 
ATOM     13  C   UNL     1      71.366  48.092   4.679  1.00  0.00     0.008 C 
ATOM     14  C   UNL     1      68.957  44.421   6.753  1.00  0.00     0.017 C 
ATOM     15  C   UNL     1      70.925  43.416   8.139  1.00  0.00    -0.020 C 
ATOM     16  C   UNL     1      71.969  44.025   5.780  1.00  0.00     0.032 C 
ATOM     17  C   UNL     1      71.835  42.933   6.881  1.00  0.00     0.006 C 
ATOM     18  C   UNL     1      70.005  42.281   8.728  1.00  0.00     0.008 C 
ATOM     19  C   UNL     1      71.911  43.793   9.304  1.00  0.00     0.012 C 
ATOM     20  C   UNL     1      71.678  41.456   6.241  1.00  0.00    -0.025 C 
ATOM     21  C   UNL     1      69.695  41.108   7.823  1.00  0.00     0.005 C 
ATOM     22  C   UNL     1      70.929  40.448   7.186  1.00  0.00     0.003 C 
ATOM     23  C   UNL     1      73.103  40.894   5.878  1.00  0.00     0.010 C 
ATOM     24  C   UNL     1      70.888  41.479   4.883  1.00  0.00     0.012 C 
ATOM     25  C   UNL     1      71.844  39.506   8.076  1.00  0.00    -0.006 C 
ATOM     26  C   UNL     1      73.140  39.366   5.785  1.00  0.00     0.033 C 
ATOM     27  C   UNL     1      72.784  38.661   7.118  1.00  0.00     0.120 C 
ATOM     28  C   UNL     1      72.730  40.261   9.101  1.00  0.00     0.014 C 
ATOM     29  C   UNL     1      70.963  38.536   8.910  1.00  0.00     0.014 C 
ENDROOT
BRANCH   1  30
ATOM     30  C   UNL     1      69.718  48.875   9.260  1.00  0.00     0.048 C 
ATOM     31  O   UNL     1      70.642  48.861  10.119  1.00  0.00    -0.550 OA
ATOM     32  O   UNL     1      68.702  49.815   9.392  1.00  0.00    -0.550 OA
ENDBRANCH   1  30
BRANCH  27  33
ATOM     33  O   UNL     1      72.196  37.419   6.807  1.00  0.00    -0.393 OA
ATOM     34  H   UNL     1      71.211  37.544   6.843  1.00  0.00     0.210 HD
ENDBRANCH  27  33
TORSDOF 2
ENDMDL
MODEL 6
REMARK VINA RESULT:    -6.263      3.912      7.373
REMARK INTER + INTRA:          -6.854
REMARK INTER:                  -6.766
REMARK INTRA:                  -0.088
REMARK UNBOUND:                -0.041
REMARK SMILES C[C@H]1[C@@H](C)CC[C@@]2(C(=O)[O-])CC[C@@]3(C)C(=CC[C@@H]4[C@@]5(C)CC[C@H](O)C(C)(C)[C@H]5CC[C@@]43C)[C@@H]12
REMARK SMILES IDX 7 1 6 2 11 3 33 4 5 5 12 6 15 7 2 8 3 9 13 10 16 11 1 12
REMARK SMILES IDX 4 13 14 14 31 15 17 16 18 17 30 18 32 19 19 20 29 21 28 22
REMARK SMILES IDX 21 23 20 24 25 25 22 26 23 27 26 28 27 29 8 30 9 31 10 32
REMARK SMILES IDX 24 33
REMARK H PARENT 24 34
REMARK Flexibility Score: inf
ROOT
ATOM      1  C   UNL     1      73.139  40.648   5.355  1.00  0.00     0.017 C 
ATOM      2  C   UNL     1      71.947  40.079   4.522  1.00  0.00     0.014 C 
ATOM      3  C   UNL     1      73.652  41.953   4.660  1.00  0.00     0.014 C 
ATOM      4  C   UNL     1      72.660  40.896   6.843  1.00  0.00     0.030 C 
ATOM      5  C   UNL     1      71.335  38.797   5.111  1.00  0.00     0.004 C 
ATOM      6  C   UNL     1      73.801  43.136   5.622  1.00  0.00     0.013 C 
ATOM      7  C   UNL     1      71.878  42.233   6.982  1.00  0.00    -0.063 C 
ATOM      8  C   UNL     1      72.036  39.566   7.416  1.00  0.00    -0.003 C 
ATOM      9  C   UNL     1      70.871  38.983   6.568  1.00  0.00    -0.011 C 
ATOM     10  C   UNL     1      72.438  43.515   6.310  1.00  0.00    -0.006 C 
ATOM     11  C   UNL     1      70.904  42.393   7.901  1.00  0.00    -0.027 C 
ATOM     12  C   UNL     1      71.827  39.502   8.946  1.00  0.00     0.008 C 
ATOM     13  C   UNL     1      69.548  39.766   6.628  1.00  0.00     0.008 C 
ATOM     14  C   UNL     1      71.478  43.980   5.178  1.00  0.00     0.017 C 
ATOM     15  C   UNL     1      72.596  44.675   7.430  1.00  0.00    -0.020 C 
ATOM     16  C   UNL     1      70.223  43.703   8.098  1.00  0.00     0.032 C 
ATOM     17  C   UNL     1      71.228  44.877   8.284  1.00  0.00     0.006 C 
ATOM     18  C   UNL     1      73.156  46.008   6.805  1.00  0.00     0.008 C 
ATOM     19  C   UNL     1      73.704  44.196   8.437  1.00  0.00     0.012 C 
ATOM     20  C   UNL     1      70.473  46.305   8.346  1.00  0.00    -0.025 C 
ATOM     21  C   UNL     1      72.178  47.151   6.634  1.00  0.00     0.005 C 
ATOM     22  C   UNL     1      71.382  47.506   7.900  1.00  0.00     0.003 C 
ATOM     23  C   UNL     1      69.942  46.548   9.809  1.00  0.00     0.010 C 
ATOM     24  C   UNL     1      69.193  46.340   7.434  1.00  0.00     0.012 C 
ATOM     25  C   UNL     1      72.103  48.312   9.062  1.00  0.00    -0.006 C 
ATOM     26  C   UNL     1      69.708  48.027  10.125  1.00  0.00     0.033 C 
ATOM     27  C   UNL     1      70.997  48.883  10.045  1.00  0.00     0.120 C 
ATOM     28  C   UNL     1      73.114  47.473   9.887  1.00  0.00     0.014 C 
ATOM     29  C   UNL     1      72.918  49.494   8.469  1.00  0.00     0.014 C 
ENDROOT
BRANCH   1  30
ATOM     30  C   UNL     1      74.304  39.656   5.328  1.00  0.00     0.048 C 
ATOM     31  O   UNL     1      75.125  39.608   6.283  1.00  0.00    -0.550 OA
ATOM     32  O   UNL     1      74.549  38.881   4.200  1.00  0.00    -0.550 OA
ENDBRANCH   1  30
BRANCH  27  33
ATOM     33  O   UNL     1      70.626  50.191   9.674  1.00  0.00    -0.393 OA
ATOM     34  H   UNL     1      70.359  50.666  10.505  1.00  0.00     0.210 HD
ENDBRANCH  27  33
TORSDOF 2
ENDMDL
MODEL 7
REMARK VINA RESULT:    -5.952      4.269      7.409
REMARK INTER + INTRA:          -6.515
REMARK INTER:                  -7.075
REMARK INTRA:                   0.560
REMARK UNBOUND:                -0.041
REMARK SMILES C[C@H]1[C@@H](C)CC[C@@]2(C(=O)[O-])CC[C@@]3(C)C(=CC[C@@H]4[C@@]5(C)CC[C@H](O)C(C)(C)[C@H]5CC[C@@]43C)[C@@H]12
REMARK SMILES IDX 7 1 6 2 11 3 33 4 5 5 12 6 15 7 2 8 3 9 13 10 16 11 1 12
REMARK SMILES IDX 4 13 14 14 31 15 17 16 18 17 30 18 32 19 19 20 29 21 28 22
REMARK SMILES IDX 21 23 20 24 25 25 22 26 23 27 26 28 27 29 8 30 9 31 10 32
REMARK SMILES IDX 24 33
REMARK H PARENT 24 34
REMARK Flexibility Score: inf
ROOT
ATOM      1  C   UNL     1      72.114  47.793   6.443  1.00  0.00     0.017 C 
ATOM      2  C   UNL     1      73.268  48.502   7.222  1.00  0.00     0.014 C 
ATOM      3  C   UNL     1      72.694  47.224   5.105  1.00  0.00     0.014 C 
ATOM      4  C   UNL     1      71.483  46.669   7.362  1.00  0.00     0.030 C 
ATOM      5  C   UNL     1      72.833  49.092   8.573  1.00  0.00     0.004 C 
ATOM      6  C   UNL     1      72.330  45.758   4.859  1.00  0.00     0.013 C 
ATOM      7  C   UNL     1      72.336  45.369   7.351  1.00  0.00    -0.063 C 
ATOM      8  C   UNL     1      71.051  47.305   8.737  1.00  0.00    -0.003 C 
ATOM      9  C   UNL     1      72.192  48.038   9.497  1.00  0.00    -0.011 C 
ATOM     10  C   UNL     1      72.862  44.815   6.001  1.00  0.00    -0.006 C 
ATOM     11  C   UNL     1      72.387  44.544   8.418  1.00  0.00    -0.027 C 
ATOM     12  C   UNL     1      70.112  46.459   9.629  1.00  0.00     0.008 C 
ATOM     13  C   UNL     1      73.266  47.130  10.122  1.00  0.00     0.008 C 
ATOM     14  C   UNL     1      74.416  44.900   5.964  1.00  0.00     0.017 C 
ATOM     15  C   UNL     1      72.376  43.279   5.831  1.00  0.00    -0.020 C 
ATOM     16  C   UNL     1      73.126  43.252   8.373  1.00  0.00     0.032 C 
ATOM     17  C   UNL     1      72.739  42.386   7.140  1.00  0.00     0.006 C 
ATOM     18  C   UNL     1      72.886  42.658   4.477  1.00  0.00     0.008 C 
ATOM     19  C   UNL     1      70.808  43.303   5.708  1.00  0.00     0.012 C 
ATOM     20  C   UNL     1      73.658  41.060   7.030  1.00  0.00    -0.025 C 
ATOM     21  C   UNL     1      74.015  41.652   4.564  1.00  0.00     0.005 C 
ATOM     22  C   UNL     1      73.776  40.508   5.563  1.00  0.00     0.003 C 
ATOM     23  C   UNL     1      73.075  39.945   7.977  1.00  0.00     0.010 C 
ATOM     24  C   UNL     1      75.122  41.309   7.541  1.00  0.00     0.012 C 
ATOM     25  C   UNL     1      72.779  39.338   5.169  1.00  0.00    -0.006 C 
ATOM     26  C   UNL     1      73.500  38.531   7.572  1.00  0.00     0.033 C 
ATOM     27  C   UNL     1      73.007  38.122   6.162  1.00  0.00     0.120 C 
ATOM     28  C   UNL     1      71.280  39.737   5.210  1.00  0.00     0.014 C 
ATOM     29  C   UNL     1      73.053  38.867   3.714  1.00  0.00     0.014 C 
ENDROOT
BRANCH   1  30
ATOM     30  C   UNL     1      71.052  48.822   6.053  1.00  0.00     0.048 C 
ATOM     31  O   UNL     1      70.620  48.878   4.869  1.00  0.00    -0.550 OA
ATOM     32  O   UNL     1      70.635  49.791   6.959  1.00  0.00    -0.550 OA
ENDBRANCH   1  30
BRANCH  27  33
ATOM     33  O   UNL     1      73.936  37.207   5.627  1.00  0.00    -0.393 OA
ATOM     34  H   UNL     1      74.367  36.746   6.393  1.00  0.00     0.210 HD
ENDBRANCH  27  33
TORSDOF 2
ENDMDL
MODEL 8
REMARK VINA RESULT:    -5.770      4.192      7.589
REMARK INTER + INTRA:          -6.318
REMARK INTER:                  -6.237
REMARK INTRA:                  -0.081
REMARK UNBOUND:                -0.041
REMARK SMILES C[C@H]1[C@@H](C)CC[C@@]2(C(=O)[O-])CC[C@@]3(C)C(=CC[C@@H]4[C@@]5(C)CC[C@H](O)C(C)(C)[C@H]5CC[C@@]43C)[C@@H]12
REMARK SMILES IDX 7 1 6 2 11 3 33 4 5 5 12 6 15 7 2 8 3 9 13 10 16 11 1 12
REMARK SMILES IDX 4 13 14 14 31 15 17 16 18 17 30 18 32 19 19 20 29 21 28 22
REMARK SMILES IDX 21 23 20 24 25 25 22 26 23 27 26 28 27 29 8 30 9 31 10 32
REMARK SMILES IDX 24 33
REMARK H PARENT 24 34
REMARK Flexibility Score: inf
ROOT
ATOM      1  C   UNL     1      72.010  39.789   7.897  1.00  0.00     0.017 C 
ATOM      2  C   UNL     1      72.397  39.247   6.484  1.00  0.00     0.014 C 
ATOM      3  C   UNL     1      73.259  40.503   8.514  1.00  0.00     0.014 C 
ATOM      4  C   UNL     1      70.762  40.753   7.758  1.00  0.00     0.030 C 
ATOM      5  C   UNL     1      71.245  38.534   5.757  1.00  0.00     0.004 C 
ATOM      6  C   UNL     1      72.952  41.900   9.062  1.00  0.00     0.013 C 
ATOM      7  C   UNL     1      71.181  42.175   7.287  1.00  0.00    -0.063 C 
ATOM      8  C   UNL     1      69.602  39.995   7.007  1.00  0.00    -0.003 C 
ATOM      9  C   UNL     1      69.997  39.427   5.615  1.00  0.00    -0.011 C 
ATOM     10  C   UNL     1      72.403  42.866   7.949  1.00  0.00    -0.006 C 
ATOM     11  C   UNL     1      70.360  42.949   6.549  1.00  0.00    -0.027 C 
ATOM     12  C   UNL     1      68.197  40.636   7.076  1.00  0.00     0.008 C 
ATOM     13  C   UNL     1      70.193  40.471   4.501  1.00  0.00     0.008 C 
ATOM     14  C   UNL     1      73.542  43.039   6.904  1.00  0.00     0.017 C 
ATOM     15  C   UNL     1      71.947  44.307   8.532  1.00  0.00    -0.020 C 
ATOM     16  C   UNL     1      70.723  44.346   6.181  1.00  0.00     0.032 C 
ATOM     17  C   UNL     1      71.169  45.190   7.410  1.00  0.00     0.006 C 
ATOM     18  C   UNL     1      73.150  45.062   9.212  1.00  0.00     0.008 C 
ATOM     19  C   UNL     1      70.923  44.032   9.693  1.00  0.00     0.012 C 
ATOM     20  C   UNL     1      71.700  46.652   6.968  1.00  0.00    -0.025 C 
ATOM     21  C   UNL     1      73.740  46.235   8.458  1.00  0.00     0.005 C 
ATOM     22  C   UNL     1      72.712  47.279   7.994  1.00  0.00     0.003 C 
ATOM     23  C   UNL     1      70.468  47.614   6.774  1.00  0.00     0.010 C 
ATOM     24  C   UNL     1      72.423  46.625   5.574  1.00  0.00     0.012 C 
ATOM     25  C   UNL     1      72.102  48.286   9.058  1.00  0.00    -0.006 C 
ATOM     26  C   UNL     1      70.838  49.095   6.892  1.00  0.00     0.033 C 
ATOM     27  C   UNL     1      71.400  49.478   8.284  1.00  0.00     0.120 C 
ATOM     28  C   UNL     1      71.071  47.645  10.024  1.00  0.00     0.014 C 
ATOM     29  C   UNL     1      73.230  48.859   9.961  1.00  0.00     0.014 C 
ENDROOT
BRANCH   1  30
ATOM     30  C   UNL     1      71.679  38.617   8.823  1.00  0.00     0.048 C 
ATOM     31  O   UNL     1      70.821  38.749   9.738  1.00  0.00    -0.550 OA
ATOM     32  O   UNL     1      72.403  37.432   8.755  1.00  0.00    -0.550 OA
ENDBRANCH   1  30
BRANCH  27  33
ATOM     33  O   UNL     1      72.291  50.556   8.109  1.00  0.00    -0.393 OA
ATOM     34  H   UNL     1      72.322  50.756   7.137  1.00  0.00     0.210 HD
ENDBRANCH  27  33
TORSDOF 2
ENDMDL
