MODEL 1
REMARK VINA RESULT:    -3.777      0.000      0.000
REMARK INTER + INTRA:          -4.991
REMARK INTER:                  -5.323
REMARK INTRA:                   0.332
REMARK UNBOUND:                 0.332
REMARK SMILES CC1=CCC(=C(C)C)C(=O)CC(C)=CCC1
REMARK SMILES IDX 12 1 14 2 13 3 15 4 16 5 2 6 1 7 3 8 11 10 9 11 10 12 5 13
REMARK SMILES IDX 6 14 7 15 8 16 4 17
REMARK H PARENT
REMARK Flexibility Score: 60.00
ROOT
ATOM      1  C   UNL     1     -14.061  14.503 -30.139  1.00  0.00    -0.070 C 
ATOM      2  C   UNL     1     -13.554  15.024 -28.991  1.00  0.00    -0.027 C 
ATOM      3  C   UNL     1     -14.806  15.445 -31.054  1.00  0.00     0.039 C 
ENDROOT
BRANCH   2   4
ATOM      4  C   UNL     1     -12.693  14.297 -27.987  1.00  0.00     0.032 C 
BRANCH   4   5
ATOM      5  C   UNL     1     -13.384  14.093 -26.631  1.00  0.00     0.034 C 
BRANCH   5   6
ATOM      6  C   UNL     1     -13.881  12.667 -26.506  1.00  0.00    -0.077 C 
ATOM      7  C   UNL     1     -12.980  11.650 -25.854  1.00  0.00     0.039 C 
ATOM      8  C   UNL     1     -15.060  12.240 -27.017  1.00  0.00    -0.023 CG0
ATOM      9  G   UNL     1     -16.095  13.110 -27.689  1.00  0.00     0.000 G0
ENDBRANCH   5   6
ENDBRANCH   4   5
ENDBRANCH   2   4
BRANCH   1  10
ATOM     10  C   UNL     1     -13.995  13.028 -30.519  1.00  0.00     0.111 C 
BRANCH  10  11
ATOM     11  C   UNL     1     -15.093  12.189 -29.915  1.00  0.00     0.163 C 
ATOM     12  O   UNL     1     -15.034  10.940 -30.085  1.00  0.00    -0.294 OA
BRANCH  11  13
ATOM     13  C   UNL     1     -16.261  12.784 -29.185  1.00  0.00    -0.002 C 
ATOM     14  C   UNL     1     -17.458  12.981 -29.820  1.00  0.00    -0.069 C 
ATOM     15  C   UNL     1     -17.617  12.750 -31.307  1.00  0.00     0.039 C 
ATOM     16  C   UNL     1     -18.678  13.488 -29.082  1.00  0.00     0.039 C 
BRANCH  13  17
ATOM     17  C   UNL     1     -16.107  13.115 -27.701  1.00  0.00     0.066 CG0
ATOM     18  G   UNL     1     -15.062  12.256 -27.029  1.00  0.00     0.000 G0
ENDBRANCH  13  17
ENDBRANCH  11  13
ENDBRANCH  10  11
ENDBRANCH   1  10
TORSDOF 0
ENDMDL
MODEL 2
REMARK VINA RESULT:    -3.725      2.315      4.027
REMARK INTER + INTRA:          -4.917
REMARK INTER:                  -5.091
REMARK INTRA:                   0.174
REMARK UNBOUND:                 0.332
REMARK SMILES CC1=CCC(=C(C)C)C(=O)CC(C)=CCC1
REMARK SMILES IDX 12 1 14 2 13 3 15 4 16 5 2 6 1 7 3 8 11 10 9 11 10 12 5 13
REMARK SMILES IDX 6 14 7 15 8 16 4 17
REMARK H PARENT
REMARK Flexibility Score: 60.00
ROOT
ATOM      1  C   UNL     1     -12.386  13.961 -28.257  1.00  0.00    -0.070 C 
ATOM      2  C   UNL     1     -11.634  14.926 -28.848  1.00  0.00    -0.027 C 
ATOM      3  C   UNL     1     -13.010  14.292 -26.922  1.00  0.00     0.039 C 
ENDROOT
BRANCH   2   4
ATOM      4  C   UNL     1     -11.004  14.851 -30.218  1.00  0.00     0.032 C 
BRANCH   4   5
ATOM      5  C   UNL     1     -11.757  15.669 -31.276  1.00  0.00     0.034 C 
BRANCH   5   6
ATOM      6  C   UNL     1     -12.509  14.746 -32.214  1.00  0.00    -0.077 C 
ATOM      7  C   UNL     1     -11.835  14.321 -33.493  1.00  0.00     0.039 C 
ATOM      8  C   UNL     1     -13.785  14.346 -32.003  1.00  0.00    -0.023 CG0
ATOM      9  G   UNL     1     -14.615  14.658 -30.780  1.00  0.00     0.000 G0
ENDBRANCH   5   6
ENDBRANCH   4   5
ENDBRANCH   2   4
BRANCH   1  10
ATOM     10  C   UNL     1     -12.571  12.552 -28.810  1.00  0.00     0.111 C 
BRANCH  10  11
ATOM     11  C   UNL     1     -13.724  12.418 -29.773  1.00  0.00     0.163 C 
ATOM     12  O   UNL     1     -13.718  11.428 -30.556  1.00  0.00    -0.294 OA
BRANCH  11  13
ATOM     13  C   UNL     1     -14.824  13.433 -29.869  1.00  0.00    -0.002 C 
ATOM     14  C   UNL     1     -15.967  13.301 -29.125  1.00  0.00    -0.069 C 
ATOM     15  C   UNL     1     -16.236  12.065 -28.295  1.00  0.00     0.039 C 
ATOM     16  C   UNL     1     -17.048  14.359 -29.130  1.00  0.00     0.039 C 
BRANCH  13  17
ATOM     17  C   UNL     1     -14.622  14.651 -30.770  1.00  0.00     0.066 CG0
ATOM     18  G   UNL     1     -13.791  14.327 -31.989  1.00  0.00     0.000 G0
ENDBRANCH  13  17
ENDBRANCH  11  13
ENDBRANCH  10  11
ENDBRANCH   1  10
TORSDOF 0
ENDMDL
MODEL 3
REMARK VINA RESULT:    -3.713      1.895      4.154
REMARK INTER + INTRA:          -4.901
REMARK INTER:                  -5.346
REMARK INTRA:                   0.445
REMARK UNBOUND:                 0.332
REMARK SMILES CC1=CCC(=C(C)C)C(=O)CC(C)=CCC1
REMARK SMILES IDX 12 1 14 2 13 3 15 4 16 5 2 6 1 7 3 8 11 10 9 11 10 12 5 13
REMARK SMILES IDX 6 14 7 15 8 16 4 17
REMARK H PARENT
REMARK Flexibility Score: 60.00
ROOT
ATOM      1  C   UNL     1     -13.363  13.429 -27.881  1.00  0.00    -0.070 C 
ATOM      2  C   UNL     1     -14.634  13.077 -27.554  1.00  0.00    -0.027 C 
ATOM      3  C   UNL     1     -12.805  14.676 -27.237  1.00  0.00     0.039 C 
ENDROOT
BRANCH   2   4
ATOM      4  C   UNL     1     -15.352  11.824 -27.995  1.00  0.00     0.032 C 
BRANCH   4   5
ATOM      5  C   UNL     1     -16.425  12.085 -29.062  1.00  0.00     0.034 C 
BRANCH   5   6
ATOM      6  C   UNL     1     -16.642  13.575 -29.234  1.00  0.00    -0.077 C 
ATOM      7  C   UNL     1     -17.539  14.285 -28.253  1.00  0.00     0.039 C 
ATOM      8  C   UNL     1     -16.137  14.288 -30.268  1.00  0.00    -0.023 CG0
ATOM      9  G   UNL     1     -15.211  13.756 -31.336  1.00  0.00     0.000 G0
ENDBRANCH   5   6
ENDBRANCH   4   5
ENDBRANCH   2   4
BRANCH   1  10
ATOM     10  C   UNL     1     -12.502  12.700 -28.907  1.00  0.00     0.111 C 
BRANCH  10  11
ATOM     11  C   UNL     1     -13.106  12.644 -30.287  1.00  0.00     0.163 C 
ATOM     12  O   UNL     1     -13.034  11.550 -30.912  1.00  0.00    -0.294 OA
BRANCH  11  13
ATOM     13  C   UNL     1     -13.725  13.838 -30.951  1.00  0.00    -0.002 C 
ATOM     14  C   UNL     1     -12.976  14.949 -31.234  1.00  0.00    -0.069 C 
ATOM     15  C   UNL     1     -11.544  15.084 -30.764  1.00  0.00     0.039 C 
ATOM     16  C   UNL     1     -13.551  16.127 -31.989  1.00  0.00     0.039 C 
BRANCH  13  17
ATOM     17  C   UNL     1     -15.197  13.771 -31.358  1.00  0.00     0.066 CG0
ATOM     18  G   UNL     1     -16.114  14.277 -30.270  1.00  0.00     0.000 G0
ENDBRANCH  13  17
ENDBRANCH  11  13
ENDBRANCH  10  11
ENDBRANCH   1  10
TORSDOF 0
ENDMDL
MODEL 4
REMARK VINA RESULT:    -3.661      1.921      3.951
REMARK INTER + INTRA:          -4.828
REMARK INTER:                  -5.032
REMARK INTRA:                   0.204
REMARK UNBOUND:                 0.332
REMARK SMILES CC1=CCC(=C(C)C)C(=O)CC(C)=CCC1
REMARK SMILES IDX 12 1 14 2 13 3 15 4 16 5 2 6 1 7 3 8 11 10 9 11 10 12 5 13
REMARK SMILES IDX 6 14 7 15 8 16 4 17
REMARK H PARENT
REMARK Flexibility Score: 60.00
ROOT
ATOM      1  C   UNL     1     -17.403  13.116 -30.062  1.00  0.00    -0.070 C 
ATOM      2  C   UNL     1     -17.339  12.162 -29.097  1.00  0.00    -0.027 C 
ATOM      3  C   UNL     1     -18.554  13.038 -31.036  1.00  0.00     0.039 C 
ENDROOT
BRANCH   2   4
ATOM      4  C   UNL     1     -16.341  12.103 -27.966  1.00  0.00     0.032 C 
BRANCH   4   5
ATOM      5  C   UNL     1     -15.061  11.336 -28.325  1.00  0.00     0.034 C 
BRANCH   5   6
ATOM      6  C   UNL     1     -13.839  12.159 -27.970  1.00  0.00    -0.077 C 
ATOM      7  C   UNL     1     -13.532  12.391 -26.512  1.00  0.00     0.039 C 
ATOM      8  C   UNL     1     -13.053  12.762 -28.891  1.00  0.00    -0.023 CG0
ATOM      9  G   UNL     1     -13.195  12.635 -30.390  1.00  0.00     0.000 G0
ENDBRANCH   5   6
ENDBRANCH   4   5
ENDBRANCH   2   4
BRANCH   1  10
ATOM     10  C   UNL     1     -16.352  14.202 -30.272  1.00  0.00     0.111 C 
BRANCH  10  11
ATOM     11  C   UNL     1     -15.308  13.855 -31.302  1.00  0.00     0.163 C 
ATOM     12  O   UNL     1     -15.710  13.476 -32.436  1.00  0.00    -0.294 OA
BRANCH  11  13
ATOM     13  C   UNL     1     -13.837  13.887 -31.010  1.00  0.00    -0.002 C 
ATOM     14  C   UNL     1     -13.099  15.017 -31.247  1.00  0.00    -0.069 C 
ATOM     15  C   UNL     1     -13.693  16.221 -31.945  1.00  0.00     0.039 C 
ATOM     16  C   UNL     1     -11.637  15.108 -30.872  1.00  0.00     0.039 C 
BRANCH  13  17
ATOM     17  C   UNL     1     -13.185  12.653 -30.388  1.00  0.00     0.066 CG0
ATOM     18  G   UNL     1     -13.053  12.771 -28.888  1.00  0.00     0.000 G0
ENDBRANCH  13  17
ENDBRANCH  11  13
ENDBRANCH  10  11
ENDBRANCH   1  10
TORSDOF 0
ENDMDL
MODEL 5
REMARK VINA RESULT:    -3.612      1.669      4.310
REMARK INTER + INTRA:          -4.758
REMARK INTER:                  -5.458
REMARK INTRA:                   0.700
REMARK UNBOUND:                 0.332
REMARK SMILES CC1=CCC(=C(C)C)C(=O)CC(C)=CCC1
REMARK SMILES IDX 12 1 14 2 13 3 15 4 16 5 2 6 1 7 3 8 11 10 9 11 10 12 5 13
REMARK SMILES IDX 6 14 7 15 8 16 4 17
REMARK H PARENT
REMARK Flexibility Score: 60.00
ROOT
ATOM      1  C   UNL     1     -16.141  13.310 -31.578  1.00  0.00    -0.070 C 
ATOM      2  C   UNL     1     -16.949  12.240 -31.355  1.00  0.00    -0.027 C 
ATOM      3  C   UNL     1     -16.521  14.239 -32.705  1.00  0.00     0.039 C 
ENDROOT
BRANCH   2   4
ATOM      4  C   UNL     1     -16.819  11.245 -30.227  1.00  0.00     0.032 C 
BRANCH   4   5
ATOM      5  C   UNL     1     -17.954  11.344 -29.198  1.00  0.00     0.034 C 
BRANCH   5   6
ATOM      6  C   UNL     1     -18.252  12.797 -28.885  1.00  0.00    -0.077 C 
ATOM      7  C   UNL     1     -19.509  13.407 -29.449  1.00  0.00     0.039 C 
ATOM      8  C   UNL     1     -17.410  13.598 -28.190  1.00  0.00    -0.023 CG0
ATOM      9  G   UNL     1     -16.118  13.164 -27.539  1.00  0.00     0.000 G0
ENDBRANCH   5   6
ENDBRANCH   4   5
ENDBRANCH   2   4
BRANCH   1  10
ATOM     10  C   UNL     1     -14.845  13.584 -30.822  1.00  0.00     0.111 C 
BRANCH  10  11
ATOM     11  C   UNL     1     -15.028  14.400 -29.568  1.00  0.00     0.163 C 
ATOM     12  O   UNL     1     -15.262  15.633 -29.702  1.00  0.00    -0.294 OA
BRANCH  11  13
ATOM     13  C   UNL     1     -14.884  13.818 -28.192  1.00  0.00    -0.002 C 
ATOM     14  C   UNL     1     -13.696  13.906 -27.515  1.00  0.00    -0.069 C 
ATOM     15  C   UNL     1     -12.446  14.454 -28.170  1.00  0.00     0.039 C 
ATOM     16  C   UNL     1     -13.552  13.415 -26.092  1.00  0.00     0.039 C 
BRANCH  13  17
ATOM     17  C   UNL     1     -16.104  13.175 -27.536  1.00  0.00     0.066 CG0
ATOM     18  G   UNL     1     -17.396  13.591 -28.200  1.00  0.00     0.000 G0
ENDBRANCH  13  17
ENDBRANCH  11  13
ENDBRANCH  10  11
ENDBRANCH   1  10
TORSDOF 0
ENDMDL
MODEL 6
REMARK VINA RESULT:    -3.603      1.281      3.897
REMARK INTER + INTRA:          -4.746
REMARK INTER:                  -5.249
REMARK INTRA:                   0.502
REMARK UNBOUND:                 0.332
REMARK SMILES CC1=CCC(=C(C)C)C(=O)CC(C)=CCC1
REMARK SMILES IDX 12 1 14 2 13 3 15 4 16 5 2 6 1 7 3 8 11 10 9 11 10 12 5 13
REMARK SMILES IDX 6 14 7 15 8 16 4 17
REMARK H PARENT
REMARK Flexibility Score: 60.00
ROOT
ATOM      1  C   UNL     1     -15.026  14.656 -31.040  1.00  0.00    -0.070 C 
ATOM      2  C   UNL     1     -16.254  14.115 -31.251  1.00  0.00    -0.027 C 
ATOM      3  C   UNL     1     -14.976  16.087 -30.560  1.00  0.00     0.039 C 
ENDROOT
BRANCH   2   4
ATOM      4  C   UNL     1     -16.543  12.682 -31.630  1.00  0.00     0.032 C 
BRANCH   4   5
ATOM      5  C   UNL     1     -16.989  11.819 -30.441  1.00  0.00     0.034 C 
BRANCH   5   6
ATOM      6  C   UNL     1     -17.113  12.670 -29.193  1.00  0.00    -0.077 C 
ATOM      7  C   UNL     1     -18.377  13.468 -28.994  1.00  0.00     0.039 C 
ATOM      8  C   UNL     1     -16.119  12.813 -28.286  1.00  0.00    -0.023 CG0
ATOM      9  G   UNL     1     -14.794  12.088 -28.309  1.00  0.00     0.000 G0
ENDBRANCH   5   6
ENDBRANCH   4   5
ENDBRANCH   2   4
BRANCH   1  10
ATOM     10  C   UNL     1     -13.708  13.946 -31.329  1.00  0.00     0.111 C 
BRANCH  10  11
ATOM     11  C   UNL     1     -13.393  12.824 -30.373  1.00  0.00     0.163 C 
ATOM     12  O   UNL     1     -12.936  11.753 -30.860  1.00  0.00    -0.294 OA
BRANCH  11  13
ATOM     13  C   UNL     1     -13.657  12.915 -28.899  1.00  0.00    -0.002 C 
ATOM     14  C   UNL     1     -12.935  13.772 -28.110  1.00  0.00    -0.069 C 
ATOM     15  C   UNL     1     -11.755  14.548 -28.652  1.00  0.00     0.039 C 
ATOM     16  C   UNL     1     -13.245  13.954 -26.641  1.00  0.00     0.039 C 
BRANCH  13  17
ATOM     17  C   UNL     1     -14.784  12.075 -28.301  1.00  0.00     0.066 CG0
ATOM     18  G   UNL     1     -16.103  12.811 -28.294  1.00  0.00     0.000 G0
ENDBRANCH  13  17
ENDBRANCH  11  13
ENDBRANCH  10  11
ENDBRANCH   1  10
TORSDOF 0
ENDMDL
MODEL 7
REMARK VINA RESULT:    -3.591      1.832      2.113
REMARK INTER + INTRA:          -4.729
REMARK INTER:                  -5.452
REMARK INTRA:                   0.723
REMARK UNBOUND:                 0.332
REMARK SMILES CC1=CCC(=C(C)C)C(=O)CC(C)=CCC1
REMARK SMILES IDX 12 1 14 2 13 3 15 4 16 5 2 6 1 7 3 8 11 10 9 11 10 12 5 13
REMARK SMILES IDX 6 14 7 15 8 16 4 17
REMARK H PARENT
REMARK Flexibility Score: 60.00
ROOT
ATOM      1  C   UNL     1     -12.744  14.372 -30.518  1.00  0.00    -0.070 C 
ATOM      2  C   UNL     1     -12.099  14.517 -29.331  1.00  0.00    -0.027 C 
ATOM      3  C   UNL     1     -12.162  13.389 -31.505  1.00  0.00     0.039 C 
ENDROOT
BRANCH   2   4
ATOM      4  C   UNL     1     -12.556  15.360 -28.166  1.00  0.00     0.032 C 
BRANCH   4   5
ATOM      5  C   UNL     1     -13.023  14.530 -26.962  1.00  0.00     0.034 C 
BRANCH   5   6
ATOM      6  C   UNL     1     -13.151  13.070 -27.351  1.00  0.00    -0.077 C 
ATOM      7  C   UNL     1     -11.950  12.176 -27.177  1.00  0.00     0.039 C 
ATOM      8  C   UNL     1     -14.261  12.543 -27.919  1.00  0.00    -0.023 CG0
ATOM      9  G   UNL     1     -15.560  13.276 -28.159  1.00  0.00     0.000 G0
ENDBRANCH   5   6
ENDBRANCH   4   5
ENDBRANCH   2   4
BRANCH   1  10
ATOM     10  C   UNL     1     -13.959  15.189 -30.945  1.00  0.00     0.111 C 
BRANCH  10  11
ATOM     11  C   UNL     1     -15.143  15.055 -30.022  1.00  0.00     0.163 C 
ATOM     12  O   UNL     1     -15.629  16.115 -29.538  1.00  0.00    -0.294 OA
BRANCH  11  13
ATOM     13  C   UNL     1     -15.715  13.727 -29.621  1.00  0.00    -0.002 C 
ATOM     14  C   UNL     1     -16.302  12.908 -30.549  1.00  0.00    -0.069 C 
ATOM     15  C   UNL     1     -16.534  13.359 -31.974  1.00  0.00     0.039 C 
ATOM     16  C   UNL     1     -16.798  11.525 -30.190  1.00  0.00     0.039 C 
BRANCH  13  17
ATOM     17  C   UNL     1     -15.579  13.279 -28.166  1.00  0.00     0.066 CG0
ATOM     18  G   UNL     1     -14.288  12.534 -27.916  1.00  0.00     0.000 G0
ENDBRANCH  13  17
ENDBRANCH  11  13
ENDBRANCH  10  11
ENDBRANCH   1  10
TORSDOF 0
ENDMDL
MODEL 8
REMARK VINA RESULT:    -3.558      2.320      4.872
REMARK INTER + INTRA:          -4.683
REMARK INTER:                  -5.330
REMARK INTRA:                   0.648
REMARK UNBOUND:                 0.332
REMARK SMILES CC1=CCC(=C(C)C)C(=O)CC(C)=CCC1
REMARK SMILES IDX 12 1 14 2 13 3 15 4 16 5 2 6 1 7 3 8 11 10 9 11 10 12 5 13
REMARK SMILES IDX 6 14 7 15 8 16 4 17
REMARK H PARENT
REMARK Flexibility Score: 60.00
ROOT
ATOM      1  C   UNL     1     -14.358  12.203 -28.927  1.00  0.00    -0.070 C 
ATOM      2  C   UNL     1     -15.482  11.550 -29.322  1.00  0.00    -0.027 C 
ATOM      3  C   UNL     1     -13.040  11.690 -29.455  1.00  0.00     0.039 C 
ENDROOT
BRANCH   2   4
ATOM      4  C   UNL     1     -16.903  11.948 -29.002  1.00  0.00     0.032 C 
BRANCH   4   5
ATOM      5  C   UNL     1     -17.274  13.343 -29.527  1.00  0.00     0.034 C 
BRANCH   5   6
ATOM      6  C   UNL     1     -16.803  13.506 -30.959  1.00  0.00    -0.077 C 
ATOM      7  C   UNL     1     -17.340  12.560 -32.001  1.00  0.00     0.039 C 
ATOM      8  C   UNL     1     -15.866  14.407 -31.337  1.00  0.00    -0.023 CG0
ATOM      9  G   UNL     1     -15.227  15.442 -30.441  1.00  0.00     0.000 G0
ENDBRANCH   5   6
ENDBRANCH   4   5
ENDBRANCH   2   4
BRANCH   1  10
ATOM     10  C   UNL     1     -14.336  13.359 -27.932  1.00  0.00     0.111 C 
BRANCH  10  11
ATOM     11  C   UNL     1     -13.729  14.626 -28.477  1.00  0.00     0.163 C 
ATOM     12  O   UNL     1     -13.135  15.386 -27.663  1.00  0.00    -0.294 OA
BRANCH  11  13
ATOM     13  C   UNL     1     -13.855  15.034 -29.916  1.00  0.00    -0.002 C 
ATOM     14  C   UNL     1     -12.773  14.990 -30.754  1.00  0.00    -0.069 C 
ATOM     15  C   UNL     1     -11.384  14.675 -30.244  1.00  0.00     0.039 C 
ATOM     16  C   UNL     1     -12.895  15.303 -32.229  1.00  0.00     0.039 C 
BRANCH  13  17
ATOM     17  C   UNL     1     -15.229  15.447 -30.443  1.00  0.00     0.066 CG0
ATOM     18  G   UNL     1     -15.844  14.386 -31.325  1.00  0.00     0.000 G0
ENDBRANCH  13  17
ENDBRANCH  11  13
ENDBRANCH  10  11
ENDBRANCH   1  10
TORSDOF 0
ENDMDL
MODEL 9
REMARK VINA RESULT:    -3.533      2.565      4.595
REMARK INTER + INTRA:          -4.648
REMARK INTER:                  -5.094
REMARK INTRA:                   0.447
REMARK UNBOUND:                 0.332
REMARK SMILES CC1=CCC(=C(C)C)C(=O)CC(C)=CCC1
REMARK SMILES IDX 12 1 14 2 13 3 15 4 16 5 2 6 1 7 3 8 11 10 9 11 10 12 5 13
REMARK SMILES IDX 6 14 7 15 8 16 4 17
REMARK H PARENT
REMARK Flexibility Score: 60.00
ROOT
ATOM      1  C   UNL     1     -15.100  14.951 -30.712  1.00  0.00    -0.070 C 
ATOM      2  C   UNL     1     -14.393  16.003 -31.203  1.00  0.00    -0.027 C 
ATOM      3  C   UNL     1     -16.099  15.241 -29.618  1.00  0.00     0.039 C 
ENDROOT
BRANCH   2   4
ATOM      4  C   UNL     1     -13.422  15.962 -32.358  1.00  0.00     0.032 C 
BRANCH   4   5
ATOM      5  C   UNL     1     -11.953  15.966 -31.915  1.00  0.00     0.034 C 
BRANCH   5   6
ATOM      6  C   UNL     1     -11.375  14.567 -32.006  1.00  0.00    -0.077 C 
ATOM      7  C   UNL     1     -10.886  14.081 -33.346  1.00  0.00     0.039 C 
ATOM      8  C   UNL     1     -11.345  13.703 -30.964  1.00  0.00    -0.023 CG0
ATOM      9  G   UNL     1     -11.776  14.013 -29.550  1.00  0.00     0.000 G0
ENDBRANCH   5   6
ENDBRANCH   4   5
ENDBRANCH   2   4
BRANCH   1  10
ATOM     10  C   UNL     1     -14.891  13.500 -31.133  1.00  0.00     0.111 C 
BRANCH  10  11
ATOM     11  C   UNL     1     -13.914  12.744 -30.269  1.00  0.00     0.163 C 
ATOM     12  O   UNL     1     -13.815  11.499 -30.450  1.00  0.00    -0.294 OA
BRANCH  11  13
ATOM     13  C   UNL     1     -13.116  13.401 -29.181  1.00  0.00    -0.002 C 
ATOM     14  C   UNL     1     -13.569  13.412 -27.888  1.00  0.00    -0.069 C 
ATOM     15  C   UNL     1     -14.946  12.902 -27.524  1.00  0.00     0.039 C 
ATOM     16  C   UNL     1     -12.740  13.981 -26.758  1.00  0.00     0.039 C 
BRANCH  13  17
ATOM     17  C   UNL     1     -11.758  14.008 -29.532  1.00  0.00     0.066 CG0
ATOM     18  G   UNL     1     -11.349  13.709 -30.955  1.00  0.00     0.000 G0
ENDBRANCH  13  17
ENDBRANCH  11  13
ENDBRANCH  10  11
ENDBRANCH   1  10
TORSDOF 0
ENDMDL
