MODEL 1
REMARK VINA RESULT:    -4.386      0.000      0.000
REMARK INTER + INTRA:          -5.323
REMARK INTER:                  -5.027
REMARK INTRA:                  -0.296
REMARK UNBOUND:                -0.296
REMARK SMILES COc1ccc(C(C)=O)c(O)c1
REMARK SMILES IDX 6 1 10 2 12 3 3 4 4 5 5 6 7 7 8 8 9 9 11 10 2 12 1 13
REMARK H PARENT 11 11
REMARK Flexibility Score: inf
ROOT
ATOM      1  C   UNL     1      11.800 -11.625 -27.375  1.00  0.00     0.059 A 
ATOM      2  C   UNL     1      10.969 -12.748 -27.612  1.00  0.00     0.130 A 
ATOM      3  C   UNL     1      10.783 -13.700 -26.602  1.00  0.00     0.093 A 
ATOM      4  C   UNL     1      11.384 -13.540 -25.340  1.00  0.00     0.122 A 
ATOM      5  C   UNL     1      12.178 -12.416 -25.103  1.00  0.00     0.047 A 
ATOM      6  C   UNL     1      12.385 -11.468 -26.106  1.00  0.00     0.019 A 
ENDROOT
BRANCH   1   7
ATOM      7  C   UNL     1      12.099 -10.632 -28.433  1.00  0.00     0.163 C 
ATOM      8  C   UNL     1      12.751  -9.324 -28.107  1.00  0.00     0.093 C 
ATOM      9  O   UNL     1      11.881 -10.917 -29.643  1.00  0.00    -0.294 OA
ENDBRANCH   1   7
BRANCH   2  10
ATOM     10  O   UNL     1      10.292 -12.936 -28.818  1.00  0.00    -0.507 OA
ATOM     11  H   UNL     1      10.747 -12.913 -29.721  1.00  0.00     0.293 HD
ENDBRANCH   2  10
BRANCH   4  12
ATOM     12  O   UNL     1      11.215 -14.469 -24.302  1.00  0.00    -0.497 OA
ATOM     13  C   UNL     1      10.146 -14.440 -23.363  1.00  0.00     0.278 C 
ENDBRANCH   4  12
TORSDOF 3
ENDMDL
MODEL 2
REMARK VINA RESULT:    -4.358      1.445      4.550
REMARK INTER + INTRA:          -5.291
REMARK INTER:                  -4.952
REMARK INTRA:                  -0.339
REMARK UNBOUND:                -0.296
REMARK SMILES COc1ccc(C(C)=O)c(O)c1
REMARK SMILES IDX 6 1 10 2 12 3 3 4 4 5 5 6 7 7 8 8 9 9 11 10 2 12 1 13
REMARK H PARENT 11 11
REMARK Flexibility Score: inf
ROOT
ATOM      1  C   UNL     1      11.870 -12.421 -26.898  1.00  0.00     0.059 A 
ATOM      2  C   UNL     1      11.301 -11.744 -28.005  1.00  0.00     0.130 A 
ATOM      3  C   UNL     1      11.876 -10.552 -28.462  1.00  0.00     0.093 A 
ATOM      4  C   UNL     1      13.034 -10.032 -27.857  1.00  0.00     0.122 A 
ATOM      5  C   UNL     1      13.608 -10.719 -26.784  1.00  0.00     0.047 A 
ATOM      6  C   UNL     1      13.035 -11.899 -26.308  1.00  0.00     0.019 A 
ENDROOT
BRANCH   1   7
ATOM      7  C   UNL     1      11.254 -13.639 -26.320  1.00  0.00     0.163 C 
ATOM      8  C   UNL     1      11.004 -13.757 -24.848  1.00  0.00     0.093 C 
ATOM      9  O   UNL     1      10.855 -14.563 -27.080  1.00  0.00    -0.294 OA
ENDBRANCH   1   7
BRANCH   2  10
ATOM     10  O   UNL     1      10.190 -12.238 -28.692  1.00  0.00    -0.507 OA
ATOM     11  H   UNL     1       9.445 -11.650 -29.042  1.00  0.00     0.293 HD
ENDBRANCH   2  10
BRANCH   4  12
ATOM     12  O   UNL     1      13.642  -8.845 -28.291  1.00  0.00    -0.497 OA
ATOM     13  C   UNL     1      13.018  -7.566 -28.269  1.00  0.00     0.278 C 
ENDBRANCH   4  12
TORSDOF 3
ENDMDL
MODEL 3
REMARK VINA RESULT:    -4.323      1.552      1.976
REMARK INTER + INTRA:          -5.250
REMARK INTER:                  -4.909
REMARK INTRA:                  -0.341
REMARK UNBOUND:                -0.296
REMARK SMILES COc1ccc(C(C)=O)c(O)c1
REMARK SMILES IDX 6 1 10 2 12 3 3 4 4 5 5 6 7 7 8 8 9 9 11 10 2 12 1 13
REMARK H PARENT 11 11
REMARK Flexibility Score: inf
ROOT
ATOM      1  C   UNL     1      11.937 -11.730 -27.355  1.00  0.00     0.059 A 
ATOM      2  C   UNL     1      11.331 -11.275 -26.159  1.00  0.00     0.130 A 
ATOM      3  C   UNL     1      11.127 -12.168 -25.099  1.00  0.00     0.093 A 
ATOM      4  C   UNL     1      11.548 -13.506 -25.193  1.00  0.00     0.122 A 
ATOM      5  C   UNL     1      12.172 -13.942 -26.364  1.00  0.00     0.047 A 
ATOM      6  C   UNL     1      12.365 -13.067 -27.434  1.00  0.00     0.019 A 
ENDROOT
BRANCH   1   7
ATOM      7  C   UNL     1      12.099 -10.852 -28.537  1.00  0.00     0.163 C 
ATOM      8  C   UNL     1      11.658 -11.295 -29.899  1.00  0.00     0.093 C 
ATOM      9  O   UNL     1      12.539  -9.678 -28.394  1.00  0.00    -0.294 OA
ENDBRANCH   1   7
BRANCH   2  10
ATOM     10  O   UNL     1      10.947  -9.945 -25.974  1.00  0.00    -0.507 OA
ATOM     11  H   UNL     1      10.935  -9.490 -25.071  1.00  0.00     0.293 HD
ENDBRANCH   2  10
BRANCH   4  12
ATOM     12  O   UNL     1      11.368 -14.427 -24.150  1.00  0.00    -0.497 OA
ATOM     13  C   UNL     1      10.201 -14.507 -23.339  1.00  0.00     0.278 C 
ENDBRANCH   4  12
TORSDOF 3
ENDMDL
MODEL 4
REMARK VINA RESULT:    -3.838      1.960      2.012
REMARK INTER + INTRA:          -4.695
REMARK INTER:                  -4.357
REMARK INTRA:                  -0.338
REMARK UNBOUND:                -0.296
REMARK SMILES COc1ccc(C(C)=O)c(O)c1
REMARK SMILES IDX 6 1 10 2 12 3 3 4 4 5 5 6 7 7 8 8 9 9 11 10 2 12 1 13
REMARK H PARENT 11 11
REMARK Flexibility Score: inf
ROOT
ATOM      1  C   UNL     1      12.731 -11.636 -26.457  1.00  0.00     0.059 A 
ATOM      2  C   UNL     1      13.107 -12.991 -26.631  1.00  0.00     0.130 A 
ATOM      3  C   UNL     1      12.441 -13.994 -25.916  1.00  0.00     0.093 A 
ATOM      4  C   UNL     1      11.379 -13.679 -25.049  1.00  0.00     0.122 A 
ATOM      5  C   UNL     1      10.995 -12.344 -24.904  1.00  0.00     0.047 A 
ATOM      6  C   UNL     1      11.661 -11.332 -25.597  1.00  0.00     0.019 A 
ENDROOT
BRANCH   1   7
ATOM      7  C   UNL     1      13.457 -10.528 -27.122  1.00  0.00     0.163 C 
ATOM      8  C   UNL     1      12.719  -9.438 -27.837  1.00  0.00     0.093 C 
ATOM      9  O   UNL     1      14.711 -10.448 -27.023  1.00  0.00    -0.294 OA
ENDBRANCH   1   7
BRANCH   2  10
ATOM     10  O   UNL     1      14.108 -13.380 -27.523  1.00  0.00    -0.507 OA
ATOM     11  H   UNL     1      14.873 -13.990 -27.269  1.00  0.00     0.293 HD
ENDBRANCH   2  10
BRANCH   4  12
ATOM     12  O   UNL     1      10.685 -14.656 -24.322  1.00  0.00    -0.497 OA
ATOM     13  C   UNL     1      10.073 -14.435 -23.056  1.00  0.00     0.278 C 
ENDBRANCH   4  12
TORSDOF 3
ENDMDL
MODEL 5
REMARK VINA RESULT:    -3.836      2.038      4.913
REMARK INTER + INTRA:          -4.692
REMARK INTER:                  -4.369
REMARK INTRA:                  -0.323
REMARK UNBOUND:                -0.296
REMARK SMILES COc1ccc(C(C)=O)c(O)c1
REMARK SMILES IDX 6 1 10 2 12 3 3 4 4 5 5 6 7 7 8 8 9 9 11 10 2 12 1 13
REMARK H PARENT 11 11
REMARK Flexibility Score: inf
ROOT
ATOM      1  C   UNL     1      12.250 -12.594 -26.340  1.00  0.00     0.059 A 
ATOM      2  C   UNL     1      11.742 -11.470 -25.643  1.00  0.00     0.130 A 
ATOM      3  C   UNL     1      11.691 -10.222 -26.279  1.00  0.00     0.093 A 
ATOM      4  C   UNL     1      12.107 -10.076 -27.614  1.00  0.00     0.122 A 
ATOM      5  C   UNL     1      12.580 -11.195 -28.305  1.00  0.00     0.047 A 
ATOM      6  C   UNL     1      12.652 -12.440 -27.678  1.00  0.00     0.019 A 
ENDROOT
BRANCH   1   7
ATOM      7  C   UNL     1      12.405 -13.916 -25.689  1.00  0.00     0.163 C 
ATOM      8  C   UNL     1      13.588 -14.788 -25.978  1.00  0.00     0.093 C 
ATOM      9  O   UNL     1      11.576 -14.289 -24.815  1.00  0.00    -0.294 OA
ENDBRANCH   1   7
BRANCH   2  10
ATOM     10  O   UNL     1      11.252 -11.557 -24.338  1.00  0.00    -0.507 OA
ATOM     11  H   UNL     1      11.648 -12.166 -23.635  1.00  0.00     0.293 HD
ENDBRANCH   2  10
BRANCH   4  12
ATOM     12  O   UNL     1      12.065  -8.846 -28.286  1.00  0.00    -0.497 OA
ATOM     13  C   UNL     1      13.115  -7.886 -28.275  1.00  0.00     0.278 C 
ENDBRANCH   4  12
TORSDOF 3
ENDMDL
MODEL 6
REMARK VINA RESULT:    -3.785      2.078      4.969
REMARK INTER + INTRA:          -4.634
REMARK INTER:                  -4.339
REMARK INTRA:                  -0.294
REMARK UNBOUND:                -0.296
REMARK SMILES COc1ccc(C(C)=O)c(O)c1
REMARK SMILES IDX 6 1 10 2 12 3 3 4 4 5 5 6 7 7 8 8 9 9 11 10 2 12 1 13
REMARK H PARENT 11 11
REMARK Flexibility Score: inf
ROOT
ATOM      1  C   UNL     1      12.431 -12.295 -26.183  1.00  0.00     0.059 A 
ATOM      2  C   UNL     1      13.579 -11.892 -26.909  1.00  0.00     0.130 A 
ATOM      3  C   UNL     1      13.600 -10.643 -27.541  1.00  0.00     0.093 A 
ATOM      4  C   UNL     1      12.506  -9.764 -27.438  1.00  0.00     0.122 A 
ATOM      5  C   UNL     1      11.389 -10.155 -26.697  1.00  0.00     0.047 A 
ATOM      6  C   UNL     1      11.348 -11.404 -26.076  1.00  0.00     0.019 A 
ENDROOT
BRANCH   1   7
ATOM      7  C   UNL     1      12.322 -13.638 -25.568  1.00  0.00     0.163 C 
ATOM      8  C   UNL     1      11.228 -13.959 -24.596  1.00  0.00     0.093 C 
ATOM      9  O   UNL     1      13.109 -14.558 -25.921  1.00  0.00    -0.294 OA
ENDBRANCH   1   7
BRANCH   2  10
ATOM     10  O   UNL     1      14.724 -12.687 -26.998  1.00  0.00    -0.507 OA
ATOM     11  H   UNL     1      14.974 -13.212 -27.826  1.00  0.00     0.293 HD
ENDBRANCH   2  10
BRANCH   4  12
ATOM     12  O   UNL     1      12.493  -8.503 -28.051  1.00  0.00    -0.497 OA
ATOM     13  C   UNL     1      13.659  -7.761 -28.391  1.00  0.00     0.278 C 
ENDBRANCH   4  12
TORSDOF 3
ENDMDL
MODEL 7
REMARK VINA RESULT:    -2.815      1.230      1.290
REMARK INTER + INTRA:          -3.522
REMARK INTER:                  -3.376
REMARK INTRA:                  -0.146
REMARK UNBOUND:                -0.296
REMARK SMILES COc1ccc(C(C)=O)c(O)c1
REMARK SMILES IDX 6 1 10 2 12 3 3 4 4 5 5 6 7 7 8 8 9 9 11 10 2 12 1 13
REMARK H PARENT 11 11
REMARK Flexibility Score: inf
ROOT
ATOM      1  C   UNL     1      12.396 -11.256 -26.798  1.00  0.00     0.059 A 
ATOM      2  C   UNL     1      11.687 -12.225 -27.550  1.00  0.00     0.130 A 
ATOM      3  C   UNL     1      11.068 -13.297 -26.896  1.00  0.00     0.093 A 
ATOM      4  C   UNL     1      11.111 -13.408 -25.494  1.00  0.00     0.122 A 
ATOM      5  C   UNL     1      11.786 -12.434 -24.756  1.00  0.00     0.047 A 
ATOM      6  C   UNL     1      12.422 -11.369 -25.397  1.00  0.00     0.019 A 
ENDROOT
BRANCH   1   7
ATOM      7  C   UNL     1      13.140 -10.150 -27.445  1.00  0.00     0.163 C 
ATOM      8  C   UNL     1      12.429  -8.942 -27.972  1.00  0.00     0.093 C 
ATOM      9  O   UNL     1      14.400 -10.178 -27.485  1.00  0.00    -0.294 OA
ENDBRANCH   1   7
BRANCH   2  10
ATOM     10  O   UNL     1      11.551 -12.141 -28.937  1.00  0.00    -0.507 OA
ATOM     11  H   UNL     1      10.675 -11.931 -29.399  1.00  0.00     0.293 HD
ENDBRANCH   2  10
BRANCH   4  12
ATOM     12  O   UNL     1      10.498 -14.463 -24.803  1.00  0.00    -0.497 OA
ATOM     13  C   UNL     1      10.290 -14.490 -23.395  1.00  0.00     0.278 C 
ENDBRANCH   4  12
TORSDOF 3
ENDMDL
MODEL 8
REMARK VINA RESULT:    -2.573      2.618      4.051
REMARK INTER + INTRA:          -3.245
REMARK INTER:                  -2.933
REMARK INTRA:                  -0.311
REMARK UNBOUND:                -0.296
REMARK SMILES COc1ccc(C(C)=O)c(O)c1
REMARK SMILES IDX 6 1 10 2 12 3 3 4 4 5 5 6 7 7 8 8 9 9 11 10 2 12 1 13
REMARK H PARENT 11 11
REMARK Flexibility Score: inf
ROOT
ATOM      1  C   UNL     1      11.787 -12.982 -27.713  1.00  0.00     0.059 A 
ATOM      2  C   UNL     1      12.909 -13.705 -27.236  1.00  0.00     0.130 A 
ATOM      3  C   UNL     1      14.006 -13.016 -26.705  1.00  0.00     0.093 A 
ATOM      4  C   UNL     1      13.998 -11.612 -26.607  1.00  0.00     0.122 A 
ATOM      5  C   UNL     1      12.877 -10.907 -27.051  1.00  0.00     0.047 A 
ATOM      6  C   UNL     1      11.784 -11.581 -27.598  1.00  0.00     0.019 A 
ENDROOT
BRANCH   1   7
ATOM      7  C   UNL     1      10.637 -13.654 -28.361  1.00  0.00     0.163 C 
ATOM      8  C   UNL     1       9.850 -12.975 -29.439  1.00  0.00     0.093 C 
ATOM      9  O   UNL     1      10.358 -14.848 -28.066  1.00  0.00    -0.294 OA
ENDBRANCH   1   7
BRANCH   2  10
ATOM     10  O   UNL     1      12.957 -15.100 -27.245  1.00  0.00    -0.507 OA
ATOM     11  H   UNL     1      12.821 -15.657 -28.078  1.00  0.00     0.293 HD
ENDBRANCH   2  10
BRANCH   4  12
ATOM     12  O   UNL     1      15.074 -10.888 -26.074  1.00  0.00    -0.497 OA
ATOM     13  C   UNL     1      16.441 -11.265 -26.205  1.00  0.00     0.278 C 
ENDBRANCH   4  12
TORSDOF 3
ENDMDL
MODEL 9
REMARK VINA RESULT:    -2.517      2.552      4.102
REMARK INTER + INTRA:          -3.180
REMARK INTER:                  -2.840
REMARK INTRA:                  -0.341
REMARK UNBOUND:                -0.296
REMARK SMILES COc1ccc(C(C)=O)c(O)c1
REMARK SMILES IDX 6 1 10 2 12 3 3 4 4 5 5 6 7 7 8 8 9 9 11 10 2 12 1 13
REMARK H PARENT 11 11
REMARK Flexibility Score: inf
ROOT
ATOM      1  C   UNL     1      13.216 -12.220 -27.343  1.00  0.00     0.059 A 
ATOM      2  C   UNL     1      12.532 -11.205 -28.056  1.00  0.00     0.130 A 
ATOM      3  C   UNL     1      11.329 -11.504 -28.710  1.00  0.00     0.093 A 
ATOM      4  C   UNL     1      10.772 -12.794 -28.640  1.00  0.00     0.122 A 
ATOM      5  C   UNL     1      11.436 -13.782 -27.911  1.00  0.00     0.047 A 
ATOM      6  C   UNL     1      12.644 -13.502 -27.269  1.00  0.00     0.019 A 
ENDROOT
BRANCH   1   7
ATOM      7  C   UNL     1      14.532 -11.981 -26.706  1.00  0.00     0.163 C 
ATOM      8  C   UNL     1      15.693 -12.893 -26.959  1.00  0.00     0.093 C 
ATOM      9  O   UNL     1      14.712 -10.951 -26.001  1.00  0.00    -0.294 OA
ENDBRANCH   1   7
BRANCH   2  10
ATOM     10  O   UNL     1      12.995  -9.889 -28.113  1.00  0.00    -0.507 OA
ATOM     11  H   UNL     1      13.262  -9.358 -27.295  1.00  0.00     0.293 HD
ENDBRANCH   2  10
BRANCH   4  12
ATOM     12  O   UNL     1       9.567 -13.128 -29.275  1.00  0.00    -0.497 OA
ATOM     13  C   UNL     1       9.277 -12.864 -30.643  1.00  0.00     0.278 C 
ENDBRANCH   4  12
TORSDOF 3
ENDMDL
