MODEL 1
REMARK VINA RESULT:    -3.694      0.000      0.000
REMARK INTER + INTRA:          -5.300
REMARK INTER:                  -4.773
REMARK INTRA:                  -0.527
REMARK UNBOUND:                -0.527
REMARK SMILES C=CC(=O)CCCCC
REMARK SMILES IDX 6 1 7 2 8 3 9 4 5 5 3 6 4 7 2 8 1 9
REMARK H PARENT
REMARK Flexibility Score: inf
ROOT
ATOM      1  C   UNL     1      14.918 -29.710  23.300  1.00  0.00     0.008 C 
ENDROOT
BRANCH   1   2
ATOM      2  C   UNL     1      13.992 -28.497  23.482  1.00  0.00     0.000 C 
BRANCH   2   3
ATOM      3  C   UNL     1      12.723 -28.836  24.279  1.00  0.00    -0.003 C 
ATOM      4  C   UNL     1      11.471 -28.381  23.536  1.00  0.00     0.004 C 
ENDBRANCH   2   3
ENDBRANCH   1   2
BRANCH   1   5
ATOM      5  C   UNL     1      14.259 -31.027  23.729  1.00  0.00     0.080 C 
BRANCH   5   6
ATOM      6  C   UNL     1      14.094 -31.940  22.550  1.00  0.00     0.155 C 
ATOM      7  O   UNL     1      14.587 -33.100  22.594  1.00  0.00    -0.295 OA
BRANCH   6   8
ATOM      8  C   UNL     1      13.399 -31.463  21.338  1.00  0.00     0.039 C 
ATOM      9  C   UNL     1      12.110 -31.127  21.339  1.00  0.00     0.012 C 
ENDBRANCH   6   8
ENDBRANCH   5   6
ENDBRANCH   1   5
TORSDOF 5
ENDMDL
MODEL 2
REMARK VINA RESULT:    -3.631      1.324      2.552
REMARK INTER + INTRA:          -5.220
REMARK INTER:                  -4.783
REMARK INTRA:                  -0.437
REMARK UNBOUND:                -0.527
REMARK SMILES C=CC(=O)CCCCC
REMARK SMILES IDX 6 1 7 2 8 3 9 4 5 5 3 6 4 7 2 8 1 9
REMARK H PARENT
REMARK Flexibility Score: inf
ROOT
ATOM      1  C   UNL     1      13.505 -30.794  21.632  1.00  0.00     0.008 C 
ENDROOT
BRANCH   1   2
ATOM      2  C   UNL     1      12.009 -30.643  21.945  1.00  0.00     0.000 C 
BRANCH   2   3
ATOM      3  C   UNL     1      11.705 -29.397  22.791  1.00  0.00    -0.003 C 
ATOM      4  C   UNL     1      12.756 -29.202  23.880  1.00  0.00     0.004 C 
ENDBRANCH   2   3
ENDBRANCH   1   2
BRANCH   1   5
ATOM      5  C   UNL     1      13.866 -32.199  21.132  1.00  0.00     0.080 C 
BRANCH   5   6
ATOM      6  C   UNL     1      14.601 -32.961  22.195  1.00  0.00     0.155 C 
ATOM      7  O   UNL     1      15.067 -34.102  21.926  1.00  0.00    -0.295 OA
BRANCH   6   8
ATOM      8  C   UNL     1      14.735 -32.395  23.552  1.00  0.00     0.039 C 
ATOM      9  C   UNL     1      13.989 -32.809  24.574  1.00  0.00     0.012 C 
ENDBRANCH   6   8
ENDBRANCH   5   6
ENDBRANCH   1   5
TORSDOF 5
ENDMDL
MODEL 3
REMARK VINA RESULT:    -3.607      1.252      1.592
REMARK INTER + INTRA:          -5.189
REMARK INTER:                  -4.714
REMARK INTRA:                  -0.475
REMARK UNBOUND:                -0.527
REMARK SMILES C=CC(=O)CCCCC
REMARK SMILES IDX 6 1 7 2 8 3 9 4 5 5 3 6 4 7 2 8 1 9
REMARK H PARENT
REMARK Flexibility Score: inf
ROOT
ATOM      1  C   UNL     1      13.981 -28.959  23.300  1.00  0.00     0.008 C 
ENDROOT
BRANCH   1   2
ATOM      2  C   UNL     1      12.735 -29.038  24.195  1.00  0.00     0.000 C 
BRANCH   2   3
ATOM      3  C   UNL     1      11.494 -28.417  23.538  1.00  0.00    -0.003 C 
ATOM      4  C   UNL     1      10.957 -29.311  22.425  1.00  0.00     0.004 C 
ENDBRANCH   2   3
ENDBRANCH   1   2
BRANCH   1   5
ATOM      5  C   UNL     1      14.897 -30.180  23.450  1.00  0.00     0.080 C 
BRANCH   5   6
ATOM      6  C   UNL     1      15.200 -30.778  22.107  1.00  0.00     0.155 C 
ATOM      7  O   UNL     1      16.350 -31.245  21.885  1.00  0.00    -0.295 OA
BRANCH   6   8
ATOM      8  C   UNL     1      14.172 -30.774  21.048  1.00  0.00     0.039 C 
ATOM      9  C   UNL     1      13.341 -31.798  20.857  1.00  0.00     0.012 C 
ENDBRANCH   6   8
ENDBRANCH   5   6
ENDBRANCH   1   5
TORSDOF 5
ENDMDL
MODEL 4
REMARK VINA RESULT:    -3.547      1.599      2.486
REMARK INTER + INTRA:          -5.111
REMARK INTER:                  -4.674
REMARK INTRA:                  -0.437
REMARK UNBOUND:                -0.527
REMARK SMILES C=CC(=O)CCCCC
REMARK SMILES IDX 6 1 7 2 8 3 9 4 5 5 3 6 4 7 2 8 1 9
REMARK H PARENT
REMARK Flexibility Score: inf
ROOT
ATOM      1  C   UNL     1      14.770 -30.622  21.637  1.00  0.00     0.008 C 
ENDROOT
BRANCH   1   2
ATOM      2  C   UNL     1      14.810 -29.933  23.009  1.00  0.00     0.000 C 
BRANCH   2   3
ATOM      3  C   UNL     1      13.532 -30.170  23.827  1.00  0.00    -0.003 C 
ATOM      4  C   UNL     1      12.770 -28.867  24.047  1.00  0.00     0.004 C 
ENDBRANCH   2   3
ENDBRANCH   1   2
BRANCH   1   5
ATOM      5  C   UNL     1      13.817 -31.824  21.605  1.00  0.00     0.080 C 
BRANCH   5   6
ATOM      6  C   UNL     1      14.580 -33.094  21.371  1.00  0.00     0.155 C 
ATOM      7  O   UNL     1      14.556 -33.628  20.229  1.00  0.00    -0.295 OA
BRANCH   6   8
ATOM      8  C   UNL     1      15.314 -33.731  22.483  1.00  0.00     0.039 C 
ATOM      9  C   UNL     1      14.925 -33.619  23.751  1.00  0.00     0.012 C 
ENDBRANCH   6   8
ENDBRANCH   5   6
ENDBRANCH   1   5
TORSDOF 5
ENDMDL
MODEL 5
REMARK VINA RESULT:    -3.517      3.285      4.438
REMARK INTER + INTRA:          -5.072
REMARK INTER:                  -4.991
REMARK INTRA:                  -0.081
REMARK UNBOUND:                -0.527
REMARK SMILES C=CC(=O)CCCCC
REMARK SMILES IDX 6 1 7 2 8 3 9 4 5 5 3 6 4 7 2 8 1 9
REMARK H PARENT
REMARK Flexibility Score: inf
ROOT
ATOM      1  C   UNL     1      14.331 -32.829  21.358  1.00  0.00     0.008 C 
ENDROOT
BRANCH   1   2
ATOM      2  C   UNL     1      13.370 -31.743  20.850  1.00  0.00     0.000 C 
BRANCH   2   3
ATOM      3  C   UNL     1      12.705 -30.962  21.993  1.00  0.00    -0.003 C 
ATOM      4  C   UNL     1      11.269 -30.586  21.639  1.00  0.00     0.004 C 
ENDBRANCH   2   3
ENDBRANCH   1   2
BRANCH   1   5
ATOM      5  C   UNL     1      14.835 -33.745  20.235  1.00  0.00     0.080 C 
BRANCH   5   6
ATOM      6  C   UNL     1      15.737 -34.808  20.790  1.00  0.00     0.155 C 
ATOM      7  O   UNL     1      16.102 -34.741  21.995  1.00  0.00    -0.295 OA
BRANCH   6   8
ATOM      8  C   UNL     1      16.224 -35.894  19.916  1.00  0.00     0.039 C 
ATOM      9  C   UNL     1      17.303 -36.617  20.209  1.00  0.00     0.012 C 
ENDBRANCH   6   8
ENDBRANCH   5   6
ENDBRANCH   1   5
TORSDOF 5
ENDMDL
MODEL 6
REMARK VINA RESULT:    -3.513      1.677      4.156
REMARK INTER + INTRA:          -5.067
REMARK INTER:                  -4.838
REMARK INTRA:                  -0.229
REMARK UNBOUND:                -0.527
REMARK SMILES C=CC(=O)CCCCC
REMARK SMILES IDX 6 1 7 2 8 3 9 4 5 5 3 6 4 7 2 8 1 9
REMARK H PARENT
REMARK Flexibility Score: inf
ROOT
ATOM      1  C   UNL     1      14.189 -31.314  21.583  1.00  0.00     0.008 C 
ENDROOT
BRANCH   1   2
ATOM      2  C   UNL     1      13.979 -32.629  20.816  1.00  0.00     0.000 C 
BRANCH   2   3
ATOM      3  C   UNL     1      14.956 -33.731  21.254  1.00  0.00    -0.003 C 
ATOM      4  C   UNL     1      15.189 -33.690  22.761  1.00  0.00     0.004 C 
ENDBRANCH   2   3
ENDBRANCH   1   2
BRANCH   1   5
ATOM      5  C   UNL     1      12.877 -30.722  22.112  1.00  0.00     0.080 C 
BRANCH   5   6
ATOM      6  C   UNL     1      13.068 -30.178  23.498  1.00  0.00     0.155 C 
ATOM      7  O   UNL     1      13.693 -30.866  24.350  1.00  0.00    -0.295 OA
BRANCH   6   8
ATOM      8  C   UNL     1      12.488 -28.871  23.865  1.00  0.00     0.039 C 
ATOM      9  C   UNL     1      11.314 -28.454  23.395  1.00  0.00     0.012 C 
ENDBRANCH   6   8
ENDBRANCH   5   6
ENDBRANCH   1   5
TORSDOF 5
ENDMDL
MODEL 7
REMARK VINA RESULT:    -3.497      1.639      3.131
REMARK INTER + INTRA:          -5.047
REMARK INTER:                  -4.478
REMARK INTRA:                  -0.569
REMARK UNBOUND:                -0.527
REMARK SMILES C=CC(=O)CCCCC
REMARK SMILES IDX 6 1 7 2 8 3 9 4 5 5 3 6 4 7 2 8 1 9
REMARK H PARENT
REMARK Flexibility Score: inf
ROOT
ATOM      1  C   UNL     1      14.919 -31.543  23.095  1.00  0.00     0.008 C 
ENDROOT
BRANCH   1   2
ATOM      2  C   UNL     1      16.001 -30.496  23.402  1.00  0.00     0.000 C 
BRANCH   2   3
ATOM      3  C   UNL     1      16.164 -29.466  22.274  1.00  0.00    -0.003 C 
ATOM      4  C   UNL     1      15.814 -28.062  22.756  1.00  0.00     0.004 C 
ENDBRANCH   2   3
ENDBRANCH   1   2
BRANCH   1   5
ATOM      5  C   UNL     1      13.579 -31.226  23.772  1.00  0.00     0.080 C 
BRANCH   5   6
ATOM      6  C   UNL     1      12.680 -30.479  22.833  1.00  0.00     0.155 C 
ATOM      7  O   UNL     1      12.411 -30.979  21.706  1.00  0.00    -0.295 OA
BRANCH   6   8
ATOM      8  C   UNL     1      12.154 -29.153  23.212  1.00  0.00     0.039 C 
ATOM      9  C   UNL     1      12.564 -28.508  24.302  1.00  0.00     0.012 C 
ENDBRANCH   6   8
ENDBRANCH   5   6
ENDBRANCH   1   5
TORSDOF 5
ENDMDL
MODEL 8
REMARK VINA RESULT:    -3.497      2.153      3.080
REMARK INTER + INTRA:          -5.046
REMARK INTER:                  -4.856
REMARK INTRA:                  -0.190
REMARK UNBOUND:                -0.527
REMARK SMILES C=CC(=O)CCCCC
REMARK SMILES IDX 6 1 7 2 8 3 9 4 5 5 3 6 4 7 2 8 1 9
REMARK H PARENT
REMARK Flexibility Score: inf
ROOT
ATOM      1  C   UNL     1      13.688 -30.997  21.250  1.00  0.00     0.008 C 
ENDROOT
BRANCH   1   2
ATOM      2  C   UNL     1      12.751 -30.877  22.462  1.00  0.00     0.000 C 
BRANCH   2   3
ATOM      3  C   UNL     1      13.486 -30.434  23.736  1.00  0.00    -0.003 C 
ATOM      4  C   UNL     1      12.884 -29.150  24.299  1.00  0.00     0.004 C 
ENDBRANCH   2   3
ENDBRANCH   1   2
BRANCH   1   5
ATOM      5  C   UNL     1      13.835 -32.442  20.756  1.00  0.00     0.080 C 
BRANCH   5   6
ATOM      6  C   UNL     1      15.154 -33.013  21.187  1.00  0.00     0.155 C 
ATOM      7  O   UNL     1      16.096 -32.230  21.491  1.00  0.00    -0.295 OA
BRANCH   6   8
ATOM      8  C   UNL     1      15.354 -34.475  21.209  1.00  0.00     0.039 C 
ATOM      9  C   UNL     1      15.729 -35.160  20.130  1.00  0.00     0.012 C 
ENDBRANCH   6   8
ENDBRANCH   5   6
ENDBRANCH   1   5
TORSDOF 5
ENDMDL
MODEL 9
REMARK VINA RESULT:    -3.469      1.806      2.999
REMARK INTER + INTRA:          -5.010
REMARK INTER:                  -4.422
REMARK INTRA:                  -0.588
REMARK UNBOUND:                -0.527
REMARK SMILES C=CC(=O)CCCCC
REMARK SMILES IDX 6 1 7 2 8 3 9 4 5 5 3 6 4 7 2 8 1 9
REMARK H PARENT
REMARK Flexibility Score: inf
ROOT
ATOM      1  C   UNL     1      14.213 -31.528  22.741  1.00  0.00     0.008 C 
ENDROOT
BRANCH   1   2
ATOM      2  C   UNL     1      13.484 -30.747  23.845  1.00  0.00     0.000 C 
BRANCH   2   3
ATOM      3  C   UNL     1      12.520 -29.691  23.285  1.00  0.00    -0.003 C 
ATOM      4  C   UNL     1      12.461 -28.465  24.192  1.00  0.00     0.004 C 
ENDBRANCH   2   3
ENDBRANCH   1   2
BRANCH   1   5
ATOM      5  C   UNL     1      14.470 -30.681  21.488  1.00  0.00     0.080 C 
BRANCH   5   6
ATOM      6  C   UNL     1      15.769 -29.940  21.613  1.00  0.00     0.155 C 
ATOM      7  O   UNL     1      16.854 -30.579  21.533  1.00  0.00    -0.295 OA
BRANCH   6   8
ATOM      8  C   UNL     1      15.769 -28.487  21.870  1.00  0.00     0.039 C 
ATOM      9  C   UNL     1      15.980 -27.976  23.082  1.00  0.00     0.012 C 
ENDBRANCH   6   8
ENDBRANCH   5   6
ENDBRANCH   1   5
TORSDOF 5
ENDMDL
