MODEL 1
REMARK VINA RESULT:    -6.455      0.000      0.000
REMARK INTER + INTRA:          -8.012
REMARK INTER:                  -7.399
REMARK INTRA:                  -0.613
REMARK UNBOUND:                -0.613
REMARK SMILES C=C(C)[C@H]1CC[C@]2(C(=O)[O-])CC[C@@]3(C)[C@H](CC[C@@H]4[C@@]5(C)CC[C@@H](O)C(C)(C)[C@@H]5CC[C@@]43C)[C@H]12
REMARK SMILES IDX 7 1 6 2 33 3 11 4 5 5 15 6 4 7 12 8 16 9 13 10 17 11 31 12
REMARK SMILES IDX 14 13 18 14 30 15 32 16 19 17 29 18 21 19 20 20 28 21 22 22
REMARK SMILES IDX 25 23 23 24 26 25 27 26 8 27 9 28 10 29 2 30 3 31 1 32 24 33
REMARK H PARENT 24 34
REMARK Flexibility Score: inf
ROOT
ATOM      1  C   UNL     1      14.353  -2.762  32.621  1.00  0.00     0.014 C 
ATOM      2  C   UNL     1      14.163  -3.054  34.120  1.00  0.00     0.014 C 
ATOM      3  C   UNL     1      13.625  -1.400  32.433  1.00  0.00     0.012 C 
ATOM      4  C   UNL     1      15.864  -2.794  32.211  1.00  0.00     0.014 C 
ATOM      5  C   UNL     1      12.791  -2.488  34.492  1.00  0.00     0.009 C 
ATOM      6  C   UNL     1      14.553  -0.139  32.642  1.00  0.00     0.000 C 
ATOM      7  C   UNL     1      12.414  -1.444  33.419  1.00  0.00     0.018 C 
ATOM      8  C   UNL     1      16.651  -1.467  32.234  1.00  0.00     0.008 C 
ATOM      9  C   UNL     1      14.940   0.137  34.119  1.00  0.00     0.005 C 
ATOM     10  C   UNL     1      15.853  -0.189  31.774  1.00  0.00    -0.024 C 
ATOM     11  C   UNL     1      15.381   1.564  34.286  1.00  0.00     0.005 C 
ATOM     12  C   UNL     1      16.718   1.211  31.915  1.00  0.00    -0.024 C 
ATOM     13  C   UNL     1      15.474  -0.453  30.276  1.00  0.00     0.012 C 
ATOM     14  C   UNL     1      16.452   2.069  33.267  1.00  0.00     0.002 C 
ATOM     15  C   UNL     1      16.473   2.162  30.686  1.00  0.00     0.008 C 
ATOM     16  C   UNL     1      18.245   0.859  31.841  1.00  0.00     0.012 C 
ATOM     17  C   UNL     1      16.305   3.658  33.085  1.00  0.00    -0.026 C 
ATOM     18  C   UNL     1      17.253   3.496  30.696  1.00  0.00     0.005 C 
ATOM     19  C   UNL     1      16.543   4.326  34.483  1.00  0.00     0.010 C 
ATOM     20  C   UNL     1      14.879   4.050  32.554  1.00  0.00     0.012 C 
ATOM     21  C   UNL     1      17.417   4.142  32.096  1.00  0.00     0.003 C 
ATOM     22  C   UNL     1      16.770   5.840  34.438  1.00  0.00     0.033 C 
ATOM     23  C   UNL     1      17.718   5.700  32.062  1.00  0.00    -0.006 C 
ATOM     24  C   UNL     1      17.940   6.216  33.520  1.00  0.00     0.120 C 
ATOM     25  C   UNL     1      16.613   6.564  31.391  1.00  0.00     0.014 C 
ATOM     26  C   UNL     1      19.017   5.950  31.250  1.00  0.00     0.014 C 
ENDROOT
BRANCH   1  27
ATOM     27  C   UNL     1      13.639  -3.835  31.796  1.00  0.00     0.048 C 
ATOM     28  O   UNL     1      13.506  -3.685  30.551  1.00  0.00    -0.550 OA
ATOM     29  O   UNL     1      13.113  -4.983  32.385  1.00  0.00    -0.550 OA
ENDBRANCH   1  27
BRANCH   7  30
ATOM     30  C   UNL     1      11.013  -1.727  32.857  1.00  0.00    -0.077 C 
ATOM     31  C   UNL     1      10.714  -1.261  31.453  1.00  0.00     0.039 C 
ATOM     32  C   UNL     1      10.012  -2.322  33.532  1.00  0.00     0.008 C 
ENDBRANCH   7  30
BRANCH  24  33
ATOM     33  O   UNL     1      19.125   5.686  34.068  1.00  0.00    -0.393 OA
ATOM     34  H   UNL     1      19.672   6.451  34.389  1.00  0.00     0.210 HD
ENDBRANCH  24  33
TORSDOF 3
ENDMDL
MODEL 2
REMARK VINA RESULT:    -6.129      1.783      3.376
REMARK INTER + INTRA:          -7.638
REMARK INTER:                  -7.037
REMARK INTRA:                  -0.601
REMARK UNBOUND:                -0.613
REMARK SMILES C=C(C)[C@H]1CC[C@]2(C(=O)[O-])CC[C@@]3(C)[C@H](CC[C@@H]4[C@@]5(C)CC[C@@H](O)C(C)(C)[C@@H]5CC[C@@]43C)[C@H]12
REMARK SMILES IDX 7 1 6 2 33 3 11 4 5 5 15 6 4 7 12 8 16 9 13 10 17 11 31 12
REMARK SMILES IDX 14 13 18 14 30 15 32 16 19 17 29 18 21 19 20 20 28 21 22 22
REMARK SMILES IDX 25 23 23 24 26 25 27 26 8 27 9 28 10 29 2 30 3 31 1 32 24 33
REMARK H PARENT 24 34
REMARK Flexibility Score: inf
ROOT
ATOM      1  C   UNL     1      14.406  -3.456  33.043  1.00  0.00     0.014 C 
ATOM      2  C   UNL     1      13.012  -3.277  32.418  1.00  0.00     0.014 C 
ATOM      3  C   UNL     1      15.324  -2.627  32.100  1.00  0.00     0.012 C 
ATOM      4  C   UNL     1      14.422  -3.041  34.553  1.00  0.00     0.014 C 
ATOM      5  C   UNL     1      13.232  -3.192  30.906  1.00  0.00     0.009 C 
ATOM      6  C   UNL     1      15.491  -1.116  32.528  1.00  0.00     0.000 C 
ATOM      7  C   UNL     1      14.706  -2.799  30.675  1.00  0.00     0.018 C 
ATOM      8  C   UNL     1      14.811  -1.590  34.904  1.00  0.00     0.008 C 
ATOM      9  C   UNL     1      14.239  -0.234  32.279  1.00  0.00     0.005 C 
ATOM     10  C   UNL     1      15.945  -0.951  34.015  1.00  0.00    -0.024 C 
ATOM     11  C   UNL     1      14.622   1.219  32.242  1.00  0.00     0.005 C 
ATOM     12  C   UNL     1      16.246   0.633  34.375  1.00  0.00    -0.024 C 
ATOM     13  C   UNL     1      17.219  -1.827  34.276  1.00  0.00     0.012 C 
ATOM     14  C   UNL     1      15.499   1.722  33.431  1.00  0.00     0.002 C 
ATOM     15  C   UNL     1      17.788   0.944  34.341  1.00  0.00     0.008 C 
ATOM     16  C   UNL     1      15.825   0.891  35.864  1.00  0.00     0.012 C 
ATOM     17  C   UNL     1      16.385   2.972  32.948  1.00  0.00    -0.026 C 
ATOM     18  C   UNL     1      18.194   2.394  34.689  1.00  0.00     0.005 C 
ATOM     19  C   UNL     1      15.406   4.107  32.491  1.00  0.00     0.010 C 
ATOM     20  C   UNL     1      17.330   2.583  31.754  1.00  0.00     0.012 C 
ATOM     21  C   UNL     1      17.218   3.483  34.170  1.00  0.00     0.003 C 
ATOM     22  C   UNL     1      16.058   5.482  32.313  1.00  0.00     0.033 C 
ATOM     23  C   UNL     1      17.864   4.927  34.044  1.00  0.00    -0.006 C 
ATOM     24  C   UNL     1      16.770   5.945  33.591  1.00  0.00     0.120 C 
ATOM     25  C   UNL     1      19.067   5.021  33.064  1.00  0.00     0.014 C 
ATOM     26  C   UNL     1      18.400   5.368  35.432  1.00  0.00     0.014 C 
ENDROOT
BRANCH   1  27
ATOM     27  C   UNL     1      14.811  -4.930  32.977  1.00  0.00     0.048 C 
ATOM     28  O   UNL     1      16.027  -5.251  33.064  1.00  0.00    -0.550 OA
ATOM     29  O   UNL     1      13.869  -5.942  32.808  1.00  0.00    -0.550 OA
ENDBRANCH   1  27
BRANCH   7  30
ATOM     30  C   UNL     1      15.377  -3.769  29.690  1.00  0.00    -0.077 C 
ATOM     31  C   UNL     1      16.548  -3.254  28.889  1.00  0.00     0.039 C 
ATOM     32  C   UNL     1      14.978  -5.031  29.453  1.00  0.00     0.008 C 
ENDBRANCH   7  30
BRANCH  24  33
ATOM     33  O   UNL     1      15.803   6.129  34.599  1.00  0.00    -0.393 OA
ATOM     34  H   UNL     1      16.287   6.324  35.444  1.00  0.00     0.210 HD
ENDBRANCH  24  33
TORSDOF 3
ENDMDL
MODEL 3
REMARK VINA RESULT:    -5.795      1.071      1.218
REMARK INTER + INTRA:          -7.255
REMARK INTER:                  -6.615
REMARK INTRA:                  -0.640
REMARK UNBOUND:                -0.613
REMARK SMILES C=C(C)[C@H]1CC[C@]2(C(=O)[O-])CC[C@@]3(C)[C@H](CC[C@@H]4[C@@]5(C)CC[C@@H](O)C(C)(C)[C@@H]5CC[C@@]43C)[C@H]12
REMARK SMILES IDX 7 1 6 2 33 3 11 4 5 5 15 6 4 7 12 8 16 9 13 10 17 11 31 12
REMARK SMILES IDX 14 13 18 14 30 15 32 16 19 17 29 18 21 19 20 20 28 21 22 22
REMARK SMILES IDX 25 23 23 24 26 25 27 26 8 27 9 28 10 29 2 30 3 31 1 32 24 33
REMARK H PARENT 24 34
REMARK Flexibility Score: inf
ROOT
ATOM      1  C   UNL     1      15.381  -1.925  32.552  1.00  0.00     0.014 C 
ATOM      2  C   UNL     1      15.303  -2.320  34.037  1.00  0.00     0.014 C 
ATOM      3  C   UNL     1      14.480  -0.659  32.478  1.00  0.00     0.012 C 
ATOM      4  C   UNL     1      16.861  -1.742  32.077  1.00  0.00     0.014 C 
ATOM      5  C   UNL     1      13.892  -1.955  34.501  1.00  0.00     0.009 C 
ATOM      6  C   UNL     1      15.252   0.697  32.723  1.00  0.00     0.000 C 
ATOM      7  C   UNL     1      13.335  -0.911  33.511  1.00  0.00     0.018 C 
ATOM      8  C   UNL     1      17.477  -0.328  32.147  1.00  0.00     0.008 C 
ATOM      9  C   UNL     1      15.674   0.939  34.197  1.00  0.00     0.005 C 
ATOM     10  C   UNL     1      16.503   0.861  31.799  1.00  0.00    -0.024 C 
ATOM     11  C   UNL     1      15.942   2.400  34.431  1.00  0.00     0.005 C 
ATOM     12  C   UNL     1      17.192   2.350  31.988  1.00  0.00    -0.024 C 
ATOM     13  C   UNL     1      16.085   0.633  30.306  1.00  0.00     0.012 C 
ATOM     14  C   UNL     1      16.888   3.092  33.400  1.00  0.00     0.002 C 
ATOM     15  C   UNL     1      16.769   3.327  30.830  1.00  0.00     0.008 C 
ATOM     16  C   UNL     1      18.746   2.200  31.828  1.00  0.00     0.012 C 
ATOM     17  C   UNL     1      16.536   4.657  33.320  1.00  0.00    -0.026 C 
ATOM     18  C   UNL     1      17.376   4.748  30.887  1.00  0.00     0.005 C 
ATOM     19  C   UNL     1      16.757   5.273  34.744  1.00  0.00     0.010 C 
ATOM     20  C   UNL     1      15.047   4.892  32.874  1.00  0.00     0.012 C 
ATOM     21  C   UNL     1      17.528   5.332  32.316  1.00  0.00     0.003 C 
ATOM     22  C   UNL     1      16.791   6.804  34.782  1.00  0.00     0.033 C 
ATOM     23  C   UNL     1      17.629   6.915  32.363  1.00  0.00    -0.006 C 
ATOM     24  C   UNL     1      17.857   7.375  33.838  1.00  0.00     0.120 C 
ATOM     25  C   UNL     1      16.393   7.666  31.793  1.00  0.00     0.014 C 
ATOM     26  C   UNL     1      18.844   7.372  31.513  1.00  0.00     0.014 C 
ENDROOT
BRANCH   1  27
ATOM     27  C   UNL     1      14.766  -3.034  31.695  1.00  0.00     0.048 C 
ATOM     28  O   UNL     1      14.478  -2.808  30.489  1.00  0.00    -0.550 OA
ATOM     29  O   UNL     1      14.500  -4.299  32.215  1.00  0.00    -0.550 OA
ENDBRANCH   1  27
BRANCH   7  30
ATOM     30  C   UNL     1      11.953  -1.340  32.993  1.00  0.00    -0.077 C 
ATOM     31  C   UNL     1      11.543  -0.868  31.619  1.00  0.00     0.039 C 
ATOM     32  C   UNL     1      11.058  -2.069  33.683  1.00  0.00     0.008 C 
ENDBRANCH   7  30
BRANCH  24  33
ATOM     33  O   UNL     1      19.125   6.972  34.302  1.00  0.00    -0.393 OA
ATOM     34  H   UNL     1      19.033   6.048  34.656  1.00  0.00     0.210 HD
ENDBRANCH  24  33
TORSDOF 3
ENDMDL
MODEL 4
REMARK VINA RESULT:    -5.727      3.187      4.815
REMARK INTER + INTRA:          -7.177
REMARK INTER:                  -6.640
REMARK INTRA:                  -0.536
REMARK UNBOUND:                -0.613
REMARK SMILES C=C(C)[C@H]1CC[C@]2(C(=O)[O-])CC[C@@]3(C)[C@H](CC[C@@H]4[C@@]5(C)CC[C@@H](O)C(C)(C)[C@@H]5CC[C@@]43C)[C@H]12
REMARK SMILES IDX 7 1 6 2 33 3 11 4 5 5 15 6 4 7 12 8 16 9 13 10 17 11 31 12
REMARK SMILES IDX 14 13 18 14 30 15 32 16 19 17 29 18 21 19 20 20 28 21 22 22
REMARK SMILES IDX 25 23 23 24 26 25 27 26 8 27 9 28 10 29 2 30 3 31 1 32 24 33
REMARK H PARENT 24 34
REMARK Flexibility Score: inf
ROOT
ATOM      1  C   UNL     1      17.605  -2.697  27.135  1.00  0.00     0.014 C 
ATOM      2  C   UNL     1      18.683  -3.577  27.792  1.00  0.00     0.014 C 
ATOM      3  C   UNL     1      16.595  -2.453  28.294  1.00  0.00     0.012 C 
ATOM      4  C   UNL     1      18.222  -1.414  26.484  1.00  0.00     0.014 C 
ATOM      5  C   UNL     1      17.951  -4.458  28.807  1.00  0.00     0.009 C 
ATOM      6  C   UNL     1      16.904  -1.168  29.159  1.00  0.00     0.000 C 
ATOM      7  C   UNL     1      16.606  -3.774  29.128  1.00  0.00     0.018 C 
ATOM      8  C   UNL     1      18.289  -0.127  27.333  1.00  0.00     0.008 C 
ATOM      9  C   UNL     1      18.131  -1.305  30.099  1.00  0.00     0.005 C 
ATOM     10  C   UNL     1      17.064   0.124  28.293  1.00  0.00    -0.024 C 
ATOM     11  C   UNL     1      18.064  -0.282  31.199  1.00  0.00     0.005 C 
ATOM     12  C   UNL     1      17.241   1.462  29.245  1.00  0.00    -0.024 C 
ATOM     13  C   UNL     1      15.823   0.281  27.349  1.00  0.00     0.012 C 
ATOM     14  C   UNL     1      17.799   1.188  30.745  1.00  0.00     0.002 C 
ATOM     15  C   UNL     1      15.890   2.257  29.372  1.00  0.00     0.008 C 
ATOM     16  C   UNL     1      18.217   2.457  28.525  1.00  0.00     0.012 C 
ATOM     17  C   UNL     1      17.071   1.989  31.933  1.00  0.00    -0.026 C 
ATOM     18  C   UNL     1      15.940   3.547  30.222  1.00  0.00     0.005 C 
ATOM     19  C   UNL     1      18.025   1.978  33.176  1.00  0.00     0.010 C 
ATOM     20  C   UNL     1      15.699   1.325  32.320  1.00  0.00     0.012 C 
ATOM     21  C   UNL     1      16.859   3.468  31.468  1.00  0.00     0.003 C 
ATOM     22  C   UNL     1      17.646   2.966  34.282  1.00  0.00     0.033 C 
ATOM     23  C   UNL     1      16.518   4.531  32.596  1.00  0.00    -0.006 C 
ATOM     24  C   UNL     1      17.555   4.405  33.757  1.00  0.00     0.120 C 
ATOM     25  C   UNL     1      15.087   4.414  33.192  1.00  0.00     0.014 C 
ATOM     26  C   UNL     1      16.624   5.959  31.998  1.00  0.00     0.014 C 
ENDROOT
BRANCH   1  27
ATOM     27  C   UNL     1      16.914  -3.482  26.019  1.00  0.00     0.048 C 
ATOM     28  O   UNL     1      15.794  -3.101  25.584  1.00  0.00    -0.550 OA
ATOM     29  O   UNL     1      17.484  -4.627  25.467  1.00  0.00    -0.550 OA
ENDBRANCH   1  27
BRANCH   7  30
ATOM     30  C   UNL     1      15.442  -4.764  28.961  1.00  0.00    -0.077 C 
ATOM     31  C   UNL     1      14.254  -4.608  29.879  1.00  0.00     0.039 C 
ATOM     32  C   UNL     1      15.413  -5.787  28.089  1.00  0.00     0.008 C 
ENDBRANCH   7  30
BRANCH  24  33
ATOM     33  O   UNL     1      18.838   4.806  33.334  1.00  0.00    -0.393 OA
ATOM     34  H   UNL     1      19.300   4.002  32.978  1.00  0.00     0.210 HD
ENDBRANCH  24  33
TORSDOF 3
ENDMDL
MODEL 5
REMARK VINA RESULT:    -5.509      3.807      9.045
REMARK INTER + INTRA:          -6.927
REMARK INTER:                  -6.294
REMARK INTRA:                  -0.633
REMARK UNBOUND:                -0.613
REMARK SMILES C=C(C)[C@H]1CC[C@]2(C(=O)[O-])CC[C@@]3(C)[C@H](CC[C@@H]4[C@@]5(C)CC[C@@H](O)C(C)(C)[C@@H]5CC[C@@]43C)[C@H]12
REMARK SMILES IDX 7 1 6 2 33 3 11 4 5 5 15 6 4 7 12 8 16 9 13 10 17 11 31 12
REMARK SMILES IDX 14 13 18 14 30 15 32 16 19 17 29 18 21 19 20 20 28 21 22 22
REMARK SMILES IDX 25 23 23 24 26 25 27 26 8 27 9 28 10 29 2 30 3 31 1 32 24 33
REMARK H PARENT 24 34
REMARK Flexibility Score: inf
ROOT
ATOM      1  C   UNL     1      17.562   7.839  33.198  1.00  0.00     0.014 C 
ATOM      2  C   UNL     1      18.935   8.418  32.815  1.00  0.00     0.014 C 
ATOM      3  C   UNL     1      16.910   7.536  31.818  1.00  0.00     0.012 C 
ATOM      4  C   UNL     1      17.698   6.623  34.175  1.00  0.00     0.014 C 
ATOM      5  C   UNL     1      18.721   9.194  31.514  1.00  0.00     0.009 C 
ATOM      6  C   UNL     1      17.202   6.082  31.274  1.00  0.00     0.000 C 
ATOM      7  C   UNL     1      17.423   8.665  30.868  1.00  0.00     0.018 C 
ATOM      8  C   UNL     1      17.758   5.206  33.566  1.00  0.00     0.008 C 
ATOM      9  C   UNL     1      18.654   5.864  30.769  1.00  0.00     0.005 C 
ATOM     10  C   UNL     1      16.846   4.963  32.305  1.00  0.00    -0.024 C 
ATOM     11  C   UNL     1      18.714   4.677  29.848  1.00  0.00     0.005 C 
ATOM     12  C   UNL     1      17.030   3.461  31.642  1.00  0.00    -0.024 C 
ATOM     13  C   UNL     1      15.376   5.164  32.811  1.00  0.00     0.012 C 
ATOM     14  C   UNL     1      18.046   3.370  30.379  1.00  0.00     0.002 C 
ATOM     15  C   UNL     1      15.648   2.861  31.192  1.00  0.00     0.008 C 
ATOM     16  C   UNL     1      17.537   2.485  32.761  1.00  0.00     0.012 C 
ATOM     17  C   UNL     1      17.557   2.479  29.135  1.00  0.00    -0.026 C 
ATOM     18  C   UNL     1      15.692   1.442  30.578  1.00  0.00     0.005 C 
ATOM     19  C   UNL     1      18.818   2.122  28.275  1.00  0.00     0.010 C 
ATOM     20  C   UNL     1      16.517   3.251  28.245  1.00  0.00     0.012 C 
ATOM     21  C   UNL     1      16.934   1.157  29.694  1.00  0.00     0.003 C 
ATOM     22  C   UNL     1      18.595   1.012  27.243  1.00  0.00     0.033 C 
ATOM     23  C   UNL     1      16.739  -0.035  28.665  1.00  0.00    -0.006 C 
ATOM     24  C   UNL     1      18.075  -0.276  27.893  1.00  0.00     0.120 C 
ATOM     25  C   UNL     1      15.598   0.176  27.630  1.00  0.00     0.014 C 
ATOM     26  C   UNL     1      16.383  -1.328  29.445  1.00  0.00     0.014 C 
ENDROOT
BRANCH   1  27
ATOM     27  C   UNL     1      16.741   8.909  33.922  1.00  0.00     0.048 C 
ATOM     28  O   UNL     1      17.301   9.678  34.749  1.00  0.00    -0.550 OA
ATOM     29  O   UNL     1      15.373   9.055  33.702  1.00  0.00    -0.550 OA
ENDBRANCH   1  27
BRANCH   7  30
ATOM     30  C   UNL     1      16.478   9.826  30.522  1.00  0.00    -0.077 C 
ATOM     31  C   UNL     1      16.766  11.171  31.143  1.00  0.00     0.039 C 
ATOM     32  C   UNL     1      15.386   9.731  29.742  1.00  0.00     0.008 C 
ENDBRANCH   7  30
BRANCH  24  33
ATOM     33  O   UNL     1      19.072  -0.775  28.754  1.00  0.00    -0.393 OA
ATOM     34  H   UNL     1      19.370  -1.651  28.390  1.00  0.00     0.210 HD
ENDBRANCH  24  33
TORSDOF 3
ENDMDL
MODEL 6
REMARK VINA RESULT:    -5.490      2.583      9.232
REMARK INTER + INTRA:          -6.905
REMARK INTER:                  -6.321
REMARK INTRA:                  -0.585
REMARK UNBOUND:                -0.613
REMARK SMILES C=C(C)[C@H]1CC[C@]2(C(=O)[O-])CC[C@@]3(C)[C@H](CC[C@@H]4[C@@]5(C)CC[C@@H](O)C(C)(C)[C@@H]5CC[C@@]43C)[C@H]12
REMARK SMILES IDX 7 1 6 2 33 3 11 4 5 5 15 6 4 7 12 8 16 9 13 10 17 11 31 12
REMARK SMILES IDX 14 13 18 14 30 15 32 16 19 17 29 18 21 19 20 20 28 21 22 22
REMARK SMILES IDX 25 23 23 24 26 25 27 26 8 27 9 28 10 29 2 30 3 31 1 32 24 33
REMARK H PARENT 24 34
REMARK Flexibility Score: inf
ROOT
ATOM      1  C   UNL     1      17.944   8.484  32.173  1.00  0.00     0.014 C 
ATOM      2  C   UNL     1      19.125   8.686  31.208  1.00  0.00     0.014 C 
ATOM      3  C   UNL     1      16.843   7.873  31.258  1.00  0.00     0.012 C 
ATOM      4  C   UNL     1      18.352   7.628  33.418  1.00  0.00     0.014 C 
ATOM      5  C   UNL     1      18.511   9.041  29.853  1.00  0.00     0.009 C 
ATOM      6  C   UNL     1      16.863   6.295  31.191  1.00  0.00     0.000 C 
ATOM      7  C   UNL     1      17.047   8.552  29.866  1.00  0.00     0.018 C 
ATOM      8  C   UNL     1      18.135   6.101  33.354  1.00  0.00     0.008 C 
ATOM      9  C   UNL     1      18.040   5.701  30.372  1.00  0.00     0.005 C 
ATOM     10  C   UNL     1      16.834   5.625  32.603  1.00  0.00    -0.024 C 
ATOM     11  C   UNL     1      17.726   4.293  29.951  1.00  0.00     0.005 C 
ATOM     12  C   UNL     1      16.710   3.983  32.482  1.00  0.00    -0.024 C 
ATOM     13  C   UNL     1      15.639   6.207  33.435  1.00  0.00     0.012 C 
ATOM     14  C   UNL     1      17.223   3.341  31.082  1.00  0.00     0.002 C 
ATOM     15  C   UNL     1      15.231   3.501  32.718  1.00  0.00     0.008 C 
ATOM     16  C   UNL     1      17.526   3.336  33.656  1.00  0.00     0.012 C 
ATOM     17  C   UNL     1      16.296   2.196  30.441  1.00  0.00    -0.026 C 
ATOM     18  C   UNL     1      14.998   1.974  32.655  1.00  0.00     0.005 C 
ATOM     19  C   UNL     1      17.165   1.392  29.414  1.00  0.00     0.010 C 
ATOM     20  C   UNL     1      15.049   2.808  29.705  1.00  0.00     0.012 C 
ATOM     21  C   UNL     1      15.845   1.232  31.588  1.00  0.00     0.003 C 
ATOM     22  C   UNL     1      16.551   0.066  28.956  1.00  0.00     0.033 C 
ATOM     23  C   UNL     1      15.253  -0.174  31.152  1.00  0.00    -0.006 C 
ATOM     24  C   UNL     1      16.229  -0.854  30.140  1.00  0.00     0.120 C 
ATOM     25  C   UNL     1      13.836  -0.117  30.515  1.00  0.00     0.014 C 
ATOM     26  C   UNL     1      15.130  -1.084  32.402  1.00  0.00     0.014 C 
ENDROOT
BRANCH   1  27
ATOM     27  C   UNL     1      17.471   9.842  32.695  1.00  0.00     0.048 C 
ATOM     28  O   UNL     1      16.341   9.945  33.245  1.00  0.00    -0.550 OA
ATOM     29  O   UNL     1      18.253  10.988  32.570  1.00  0.00    -0.550 OA
ENDBRANCH   1  27
BRANCH   7  30
ATOM     30  C   UNL     1      16.094   9.682  29.447  1.00  0.00    -0.077 C 
ATOM     31  C   UNL     1      16.493  10.531  28.265  1.00  0.00     0.039 C 
ATOM     32  C   UNL     1      14.951  10.005  30.077  1.00  0.00     0.008 C 
ENDBRANCH   7  30
BRANCH  24  33
ATOM     33  O   UNL     1      17.438  -1.212  30.768  1.00  0.00    -0.393 OA
ATOM     34  H   UNL     1      17.228  -1.437  31.713  1.00  0.00     0.210 HD
ENDBRANCH  24  33
TORSDOF 3
ENDMDL
MODEL 7
REMARK VINA RESULT:    -5.422      1.924      3.007
REMARK INTER + INTRA:          -6.827
REMARK INTER:                  -6.221
REMARK INTRA:                  -0.606
REMARK UNBOUND:                -0.613
REMARK SMILES C=C(C)[C@H]1CC[C@]2(C(=O)[O-])CC[C@@]3(C)[C@H](CC[C@@H]4[C@@]5(C)CC[C@@H](O)C(C)(C)[C@@H]5CC[C@@]43C)[C@H]12
REMARK SMILES IDX 7 1 6 2 33 3 11 4 5 5 15 6 4 7 12 8 16 9 13 10 17 11 31 12
REMARK SMILES IDX 14 13 18 14 30 15 32 16 19 17 29 18 21 19 20 20 28 21 22 22
REMARK SMILES IDX 25 23 23 24 26 25 27 26 8 27 9 28 10 29 2 30 3 31 1 32 24 33
REMARK H PARENT 24 34
REMARK Flexibility Score: inf
ROOT
ATOM      1  C   UNL     1      15.710  -3.123  30.489  1.00  0.00     0.014 C 
ATOM      2  C   UNL     1      17.061  -3.828  30.699  1.00  0.00     0.014 C 
ATOM      3  C   UNL     1      15.422  -2.492  31.882  1.00  0.00     0.012 C 
ATOM      4  C   UNL     1      15.757  -2.127  29.282  1.00  0.00     0.014 C 
ATOM      5  C   UNL     1      17.059  -4.328  32.145  1.00  0.00     0.009 C 
ATOM      6  C   UNL     1      15.988  -1.028  32.055  1.00  0.00     0.000 C 
ATOM      7  C   UNL     1      16.006  -3.505  32.917  1.00  0.00     0.018 C 
ATOM      8  C   UNL     1      16.110  -0.652  29.570  1.00  0.00     0.008 C 
ATOM      9  C   UNL     1      17.531  -0.948  32.206  1.00  0.00     0.005 C 
ATOM     10  C   UNL     1      15.536  -0.061  30.913  1.00  0.00    -0.024 C 
ATOM     11  C   UNL     1      17.928   0.356  32.840  1.00  0.00     0.005 C 
ATOM     12  C   UNL     1      16.030   1.487  31.211  1.00  0.00    -0.024 C 
ATOM     13  C   UNL     1      13.977  -0.121  30.760  1.00  0.00     0.012 C 
ATOM     14  C   UNL     1      17.306   1.639  32.202  1.00  0.00     0.002 C 
ATOM     15  C   UNL     1      14.859   2.358  31.799  1.00  0.00     0.008 C 
ATOM     16  C   UNL     1      16.377   2.169  29.842  1.00  0.00     0.012 C 
ATOM     17  C   UNL     1      17.211   2.794  33.315  1.00  0.00    -0.026 C 
ATOM     18  C   UNL     1      15.197   3.837  32.094  1.00  0.00     0.005 C 
ATOM     19  C   UNL     1      18.665   3.098  33.817  1.00  0.00     0.010 C 
ATOM     20  C   UNL     1      16.319   2.352  34.531  1.00  0.00     0.012 C 
ATOM     21  C   UNL     1      16.630   4.079  32.638  1.00  0.00     0.003 C 
ATOM     22  C   UNL     1      18.804   4.389  34.629  1.00  0.00     0.033 C 
ATOM     23  C   UNL     1      16.804   5.445  33.425  1.00  0.00    -0.006 C 
ATOM     24  C   UNL     1      18.297   5.610  33.851  1.00  0.00     0.120 C 
ATOM     25  C   UNL     1      15.908   5.590  34.687  1.00  0.00     0.014 C 
ATOM     26  C   UNL     1      16.427   6.624  32.489  1.00  0.00     0.014 C 
ENDROOT
BRANCH   1  27
ATOM     27  C   UNL     1      14.633  -4.164  30.173  1.00  0.00     0.048 C 
ATOM     28  O   UNL     1      14.927  -5.185  29.494  1.00  0.00    -0.550 OA
ATOM     29  O   UNL     1      13.318  -4.013  30.607  1.00  0.00    -0.550 OA
ENDBRANCH   1  27
BRANCH   7  30
ATOM     30  C   UNL     1      15.040  -4.433  33.670  1.00  0.00    -0.077 C 
ATOM     31  C   UNL     1      14.354  -3.883  34.897  1.00  0.00     0.039 C 
ATOM     32  C   UNL     1      14.787  -5.714  33.348  1.00  0.00     0.008 C 
ENDBRANCH   7  30
BRANCH  24  33
ATOM     33  O   UNL     1      19.125   5.797  32.726  1.00  0.00    -0.393 OA
ATOM     34  H   UNL     1      18.840   5.144  32.034  1.00  0.00     0.210 HD
ENDBRANCH  24  33
TORSDOF 3
ENDMDL
MODEL 8
REMARK VINA RESULT:    -5.404      3.014      8.421
REMARK INTER + INTRA:          -6.807
REMARK INTER:                  -6.169
REMARK INTRA:                  -0.638
REMARK UNBOUND:                -0.613
REMARK SMILES C=C(C)[C@H]1CC[C@]2(C(=O)[O-])CC[C@@]3(C)[C@H](CC[C@@H]4[C@@]5(C)CC[C@@H](O)C(C)(C)[C@@H]5CC[C@@]43C)[C@H]12
REMARK SMILES IDX 7 1 6 2 33 3 11 4 5 5 15 6 4 7 12 8 16 9 13 10 17 11 31 12
REMARK SMILES IDX 14 13 18 14 30 15 32 16 19 17 29 18 21 19 20 20 28 21 22 22
REMARK SMILES IDX 25 23 23 24 26 25 27 26 8 27 9 28 10 29 2 30 3 31 1 32 24 33
REMARK H PARENT 24 34
REMARK Flexibility Score: inf
ROOT
ATOM      1  C   UNL     1      16.513   3.253  30.805  1.00  0.00     0.014 C 
ATOM      2  C   UNL     1      15.225   3.355  31.641  1.00  0.00     0.014 C 
ATOM      3  C   UNL     1      17.241   2.027  31.427  1.00  0.00     0.012 C 
ATOM      4  C   UNL     1      16.204   3.162  29.273  1.00  0.00     0.014 C 
ATOM      5  C   UNL     1      15.601   2.910  33.056  1.00  0.00     0.009 C 
ATOM      6  C   UNL     1      16.872   0.648  30.751  1.00  0.00     0.000 C 
ATOM      7  C   UNL     1      16.896   2.078  32.951  1.00  0.00     0.018 C 
ATOM      8  C   UNL     1      16.073   1.760  28.640  1.00  0.00     0.008 C 
ATOM      9  C   UNL     1      15.450   0.125  31.089  1.00  0.00     0.005 C 
ATOM     10  C   UNL     1      17.056   0.662  29.199  1.00  0.00    -0.024 C 
ATOM     11  C   UNL     1      15.363  -1.354  30.834  1.00  0.00     0.005 C 
ATOM     12  C   UNL     1      16.800  -0.836  28.554  1.00  0.00    -0.024 C 
ATOM     13  C   UNL     1      18.495   1.175  28.846  1.00  0.00     0.012 C 
ATOM     14  C   UNL     1      15.879  -1.836  29.441  1.00  0.00     0.002 C 
ATOM     15  C   UNL     1      18.158  -1.571  28.257  1.00  0.00     0.008 C 
ATOM     16  C   UNL     1      16.131  -0.661  27.145  1.00  0.00     0.012 C 
ATOM     17  C   UNL     1      16.386  -3.356  29.558  1.00  0.00    -0.026 C 
ATOM     18  C   UNL     1      18.044  -2.977  27.624  1.00  0.00     0.005 C 
ATOM     19  C   UNL     1      15.169  -4.235  30.010  1.00  0.00     0.010 C 
ATOM     20  C   UNL     1      17.550  -3.497  30.604  1.00  0.00     0.012 C 
ATOM     21  C   UNL     1      16.853  -3.826  28.141  1.00  0.00     0.003 C 
ATOM     22  C   UNL     1      15.377  -5.744  29.854  1.00  0.00     0.033 C 
ATOM     23  C   UNL     1      17.027  -5.389  27.926  1.00  0.00    -0.006 C 
ATOM     24  C   UNL     1      15.738  -6.124  28.412  1.00  0.00     0.120 C 
ATOM     25  C   UNL     1      18.257  -6.013  28.643  1.00  0.00     0.014 C 
ATOM     26  C   UNL     1      17.215  -5.676  26.413  1.00  0.00     0.014 C 
ENDROOT
BRANCH   1  27
ATOM     27  C   UNL     1      17.362   4.508  31.020  1.00  0.00     0.048 C 
ATOM     28  O   UNL     1      18.590   4.491  30.733  1.00  0.00    -0.550 OA
ATOM     29  O   UNL     1      16.819   5.680  31.540  1.00  0.00    -0.550 OA
ENDBRANCH   1  27
BRANCH   7  30
ATOM     30  C   UNL     1      17.957   2.601  33.932  1.00  0.00    -0.077 C 
ATOM     31  C   UNL     1      19.125   1.697  34.247  1.00  0.00     0.039 C 
ATOM     32  C   UNL     1      17.909   3.785  34.567  1.00  0.00     0.008 C 
ENDBRANCH   7  30
BRANCH  24  33
ATOM     33  O   UNL     1      14.641  -5.821  27.583  1.00  0.00    -0.393 OA
ATOM     34  H   UNL     1      14.983  -5.284  26.820  1.00  0.00     0.210 HD
ENDBRANCH  24  33
TORSDOF 3
ENDMDL
MODEL 9
REMARK VINA RESULT:    -4.897      2.868      8.096
REMARK INTER + INTRA:          -6.226
REMARK INTER:                  -6.025
REMARK INTRA:                  -0.200
REMARK UNBOUND:                -0.613
REMARK SMILES C=C(C)[C@H]1CC[C@]2(C(=O)[O-])CC[C@@]3(C)[C@H](CC[C@@H]4[C@@]5(C)CC[C@@H](O)C(C)(C)[C@@H]5CC[C@@]43C)[C@H]12
REMARK SMILES IDX 7 1 6 2 33 3 11 4 5 5 15 6 4 7 12 8 16 9 13 10 17 11 31 12
REMARK SMILES IDX 14 13 18 14 30 15 32 16 19 17 29 18 21 19 20 20 28 21 22 22
REMARK SMILES IDX 25 23 23 24 26 25 27 26 8 27 9 28 10 29 2 30 3 31 1 32 24 33
REMARK H PARENT 24 34
REMARK Flexibility Score: inf
ROOT
ATOM      1  C   UNL     1      16.974   4.111  33.482  1.00  0.00     0.014 C 
ATOM      2  C   UNL     1      18.462   4.354  33.792  1.00  0.00     0.014 C 
ATOM      3  C   UNL     1      16.944   4.051  31.927  1.00  0.00     0.012 C 
ATOM      4  C   UNL     1      16.426   2.848  34.227  1.00  0.00     0.014 C 
ATOM      5  C   UNL     1      18.995   5.228  32.654  1.00  0.00     0.009 C 
ATOM      6  C   UNL     1      17.150   2.602  31.334  1.00  0.00     0.000 C 
ATOM      7  C   UNL     1      18.032   5.069  31.458  1.00  0.00     0.018 C 
ATOM      8  C   UNL     1      16.464   1.493  33.487  1.00  0.00     0.008 C 
ATOM      9  C   UNL     1      18.600   2.061  31.444  1.00  0.00     0.005 C 
ATOM     10  C   UNL     1      16.165   1.550  31.941  1.00  0.00    -0.024 C 
ATOM     11  C   UNL     1      18.820   0.947  30.459  1.00  0.00     0.005 C 
ATOM     12  C   UNL     1      16.318   0.087  31.190  1.00  0.00    -0.024 C 
ATOM     13  C   UNL     1      14.694   2.078  31.822  1.00  0.00     0.012 C 
ATOM     14  C   UNL     1      17.742  -0.183  30.459  1.00  0.00     0.002 C 
ATOM     15  C   UNL     1      15.182  -0.131  30.124  1.00  0.00     0.008 C 
ATOM     16  C   UNL     1      16.081  -1.043  32.253  1.00  0.00     0.012 C 
ATOM     17  C   UNL     1      17.679  -0.859  29.003  1.00  0.00    -0.026 C 
ATOM     18  C   UNL     1      15.207  -1.482  29.373  1.00  0.00     0.005 C 
ATOM     19  C   UNL     1      19.090  -1.467  28.694  1.00  0.00     0.010 C 
ATOM     20  C   UNL     1      17.308   0.192  27.895  1.00  0.00     0.012 C 
ATOM     21  C   UNL     1      16.626  -2.016  29.046  1.00  0.00     0.003 C 
ATOM     22  C   UNL     1      19.125  -2.432  27.505  1.00  0.00     0.033 C 
ATOM     23  C   UNL     1      16.668  -3.066  27.857  1.00  0.00    -0.006 C 
ATOM     24  C   UNL     1      18.129  -3.586  27.677  1.00  0.00     0.120 C 
ATOM     25  C   UNL     1      16.159  -2.526  26.491  1.00  0.00     0.014 C 
ATOM     26  C   UNL     1      15.758  -4.272  28.212  1.00  0.00     0.014 C 
ENDROOT
BRANCH   1  27
ATOM     27  C   UNL     1      16.150   5.308  33.958  1.00  0.00     0.048 C 
ATOM     28  O   UNL     1      14.991   5.495  33.499  1.00  0.00    -0.550 OA
ATOM     29  O   UNL     1      16.649   6.219  34.887  1.00  0.00    -0.550 OA
ENDBRANCH   1  27
BRANCH   7  30
ATOM     30  C   UNL     1      17.584   6.443  30.938  1.00  0.00    -0.077 C 
ATOM     31  C   UNL     1      17.906   6.788  29.504  1.00  0.00     0.039 C 
ATOM     32  C   UNL     1      16.963   7.385  31.670  1.00  0.00     0.008 C 
ENDBRANCH   7  30
BRANCH  24  33
ATOM     33  O   UNL     1      18.530  -4.360  28.783  1.00  0.00    -0.393 OA
ATOM     34  H   UNL     1      18.905  -3.738  29.462  1.00  0.00     0.210 HD
ENDBRANCH  24  33
TORSDOF 3
ENDMDL
