MODEL 1
REMARK VINA RESULT:    -3.337      0.000      0.000
REMARK INTER + INTRA:          -3.435
REMARK INTER:                  -3.435
REMARK INTRA:                   0.000
REMARK UNBOUND:                 0.000
REMARK SMILES Oc1ccc2[nH]ccc2c1
REMARK SMILES IDX 3 1 4 2 5 3 9 4 8 5 7 6 6 7 10 8 2 9 1 11
REMARK H PARENT 6 10 1 12
REMARK Flexibility Score: inf
ROOT
ATOM      1  C   UNL     1     124.933 123.997 110.568  1.00  0.00     0.048 A 
ATOM      2  C   UNL     1     125.602 125.217 110.363  1.00  0.00     0.030 A 
ATOM      3  C   UNL     1     124.837 126.328 110.014  1.00  0.00     0.046 A 
ATOM      4  C   UNL     1     123.477 126.250 109.871  1.00  0.00     0.003 A 
ATOM      5  C   UNL     1     123.025 127.504 109.524  1.00  0.00     0.028 A 
ATOM      6  C   UNL     1     124.166 128.299 109.475  1.00  0.00     0.083 A 
ATOM      7  N   UNL     1     125.270 127.577 109.775  1.00  0.00    -0.361 N 
ATOM      8  C   UNL     1     122.784 125.057 110.066  1.00  0.00     0.056 A 
ATOM      9  C   UNL     1     123.526 123.914 110.421  1.00  0.00     0.116 A 
ATOM     10  H   UNL     1     126.255 127.922 109.812  1.00  0.00     0.166 HD
ENDROOT
BRANCH   9  11
ATOM     11  O   UNL     1     122.864 122.705 110.624  1.00  0.00    -0.508 OA
ATOM     12  H   UNL     1     123.268 121.825 110.327  1.00  0.00     0.293 HD
ENDBRANCH   9  11
TORSDOF 1
ENDMDL
MODEL 2
REMARK VINA RESULT:    -3.323      2.177      3.285
REMARK INTER + INTRA:          -3.420
REMARK INTER:                  -3.420
REMARK INTRA:                   0.000
REMARK UNBOUND:                 0.000
REMARK SMILES Oc1ccc2[nH]ccc2c1
REMARK SMILES IDX 3 1 4 2 5 3 9 4 8 5 7 6 6 7 10 8 2 9 1 11
REMARK H PARENT 6 10 1 12
REMARK Flexibility Score: inf
ROOT
ATOM      1  C   UNL     1     125.001 125.127 110.628  1.00  0.00     0.048 A 
ATOM      2  C   UNL     1     123.768 125.764 110.400  1.00  0.00     0.030 A 
ATOM      3  C   UNL     1     122.697 124.977 109.982  1.00  0.00     0.046 A 
ATOM      4  C   UNL     1     122.826 123.626 109.796  1.00  0.00     0.003 A 
ATOM      5  C   UNL     1     121.601 123.147 109.386  1.00  0.00     0.028 A 
ATOM      6  C   UNL     1     120.770 124.263 109.345  1.00  0.00     0.083 A 
ATOM      7  N   UNL     1     121.444 125.378 109.711  1.00  0.00    -0.361 N 
ATOM      8  C   UNL     1     124.032 122.965 110.012  1.00  0.00     0.056 A 
ATOM      9  C   UNL     1     125.137 123.729 110.436  1.00  0.00     0.116 A 
ATOM     10  H   UNL     1     121.065 126.350 109.768  1.00  0.00     0.166 HD
ENDROOT
BRANCH   9  11
ATOM     11  O   UNL     1     126.359 123.100 110.662  1.00  0.00    -0.508 OA
ATOM     12  H   UNL     1     126.468 122.405 111.391  1.00  0.00     0.293 HD
ENDBRANCH   9  11
TORSDOF 1
ENDMDL
MODEL 3
REMARK VINA RESULT:    -3.322      2.941      4.573
REMARK INTER + INTRA:          -3.419
REMARK INTER:                  -3.419
REMARK INTRA:                   0.000
REMARK UNBOUND:                 0.000
REMARK SMILES Oc1ccc2[nH]ccc2c1
REMARK SMILES IDX 3 1 4 2 5 3 9 4 8 5 7 6 6 7 10 8 2 9 1 11
REMARK H PARENT 6 10 1 12
REMARK Flexibility Score: inf
ROOT
ATOM      1  C   UNL     1     124.013 125.260 110.637  1.00  0.00     0.048 A 
ATOM      2  C   UNL     1     123.297 124.077 110.383  1.00  0.00     0.030 A 
ATOM      3  C   UNL     1     124.015 122.957 109.969  1.00  0.00     0.046 A 
ATOM      4  C   UNL     1     125.375 122.992 109.811  1.00  0.00     0.003 A 
ATOM      5  C   UNL     1     125.775 121.740 109.397  1.00  0.00     0.028 A 
ATOM      6  C   UNL     1     124.604 120.991 109.326  1.00  0.00     0.083 A 
ATOM      7  N   UNL     1     123.532 121.738 109.676  1.00  0.00    -0.361 N 
ATOM      8  C   UNL     1     126.114 124.147 110.053  1.00  0.00     0.056 A 
ATOM      9  C   UNL     1     125.421 125.298 110.473  1.00  0.00     0.116 A 
ATOM     10  H   UNL     1     122.535 121.428 109.710  1.00  0.00     0.166 HD
ENDROOT
BRANCH   9  11
ATOM     11  O   UNL     1     126.130 126.471 110.726  1.00  0.00    -0.508 OA
ATOM     12  H   UNL     1     126.812 126.827 110.068  1.00  0.00     0.293 HD
ENDBRANCH   9  11
TORSDOF 1
ENDMDL
MODEL 4
REMARK VINA RESULT:    -3.289      2.200      3.275
REMARK INTER + INTRA:          -3.385
REMARK INTER:                  -3.385
REMARK INTRA:                   0.000
REMARK UNBOUND:                 0.000
REMARK SMILES Oc1ccc2[nH]ccc2c1
REMARK SMILES IDX 3 1 4 2 5 3 9 4 8 5 7 6 6 7 10 8 2 9 1 11
REMARK H PARENT 6 10 1 12
REMARK Flexibility Score: inf
ROOT
ATOM      1  C   UNL     1     124.061 124.072 110.624  1.00  0.00     0.048 A 
ATOM      2  C   UNL     1     125.294 123.454 110.350  1.00  0.00     0.030 A 
ATOM      3  C   UNL     1     126.358 124.266 109.964  1.00  0.00     0.046 A 
ATOM      4  C   UNL     1     126.223 125.624 109.851  1.00  0.00     0.003 A 
ATOM      5  C   UNL     1     127.442 126.129 109.454  1.00  0.00     0.028 A 
ATOM      6  C   UNL     1     128.276 125.020 109.347  1.00  0.00     0.083 A 
ATOM      7  N   UNL     1     127.609 123.884 109.659  1.00  0.00    -0.361 N 
ATOM      8  C   UNL     1     125.016 126.268 110.114  1.00  0.00     0.056 A 
ATOM      9  C   UNL     1     123.919 125.477 110.507  1.00  0.00     0.116 A 
ATOM     10  H   UNL     1     127.992 122.913 109.661  1.00  0.00     0.166 HD
ENDROOT
BRANCH   9  11
ATOM     11  O   UNL     1     122.697 126.089 110.779  1.00  0.00    -0.508 OA
ATOM     12  H   UNL     1     122.635 127.080 110.977  1.00  0.00     0.293 HD
ENDBRANCH   9  11
TORSDOF 1
ENDMDL
MODEL 5
REMARK VINA RESULT:    -3.261      2.617      3.611
REMARK INTER + INTRA:          -3.357
REMARK INTER:                  -3.357
REMARK INTRA:                   0.000
REMARK UNBOUND:                 0.000
REMARK SMILES Oc1ccc2[nH]ccc2c1
REMARK SMILES IDX 3 1 4 2 5 3 9 4 8 5 7 6 6 7 10 8 2 9 1 11
REMARK H PARENT 6 10 1 12
REMARK Flexibility Score: inf
ROOT
ATOM      1  C   UNL     1     125.386 125.262 110.600  1.00  0.00     0.048 A 
ATOM      2  C   UNL     1     124.795 123.991 110.723  1.00  0.00     0.030 A 
ATOM      3  C   UNL     1     123.492 123.831 110.258  1.00  0.00     0.046 A 
ATOM      4  C   UNL     1     122.796 124.868 109.695  1.00  0.00     0.003 A 
ATOM      5  C   UNL     1     121.553 124.388 109.344  1.00  0.00     0.028 A 
ATOM      6  C   UNL     1     121.562 123.048 109.721  1.00  0.00     0.083 A 
ATOM      7  N   UNL     1     122.749 122.712 110.278  1.00  0.00    -0.361 N 
ATOM      8  C   UNL     1     123.350 126.138 109.558  1.00  0.00     0.056 A 
ATOM      9  C   UNL     1     124.666 126.336 110.018  1.00  0.00     0.116 A 
ATOM     10  H   UNL     1     123.026 121.776 110.648  1.00  0.00     0.166 HD
ENDROOT
BRANCH   9  11
ATOM     11  O   UNL     1     125.252 127.595 109.896  1.00  0.00    -0.508 OA
ATOM     12  H   UNL     1     125.602 127.930 109.007  1.00  0.00     0.293 HD
ENDBRANCH   9  11
TORSDOF 1
ENDMDL
MODEL 6
REMARK VINA RESULT:    -3.250      2.387      3.862
REMARK INTER + INTRA:          -3.345
REMARK INTER:                  -3.345
REMARK INTRA:                   0.000
REMARK UNBOUND:                 0.000
REMARK SMILES Oc1ccc2[nH]ccc2c1
REMARK SMILES IDX 3 1 4 2 5 3 9 4 8 5 7 6 6 7 10 8 2 9 1 11
REMARK H PARENT 6 10 1 12
REMARK Flexibility Score: inf
ROOT
ATOM      1  C   UNL     1     123.960 125.370 110.703  1.00  0.00     0.048 A 
ATOM      2  C   UNL     1     125.225 124.767 110.819  1.00  0.00     0.030 A 
ATOM      3  C   UNL     1     125.394 123.498 110.270  1.00  0.00     0.046 A 
ATOM      4  C   UNL     1     124.370 122.846 109.634  1.00  0.00     0.003 A 
ATOM      5  C   UNL     1     124.856 121.628 109.211  1.00  0.00     0.028 A 
ATOM      6  C   UNL     1     126.185 121.605 109.623  1.00  0.00     0.083 A 
ATOM      7  N   UNL     1     126.509 122.749 110.270  1.00  0.00    -0.361 N 
ATOM      8  C   UNL     1     123.106 123.415 109.502  1.00  0.00     0.056 A 
ATOM      9  C   UNL     1     122.899 124.697 110.045  1.00  0.00     0.116 A 
ATOM     10  H   UNL     1     127.436 122.995 110.682  1.00  0.00     0.166 HD
ENDROOT
BRANCH   9  11
ATOM     11  O   UNL     1     121.647 125.296 109.930  1.00  0.00    -0.508 OA
ATOM     12  H   UNL     1     120.946 124.938 109.292  1.00  0.00     0.293 HD
ENDBRANCH   9  11
TORSDOF 1
ENDMDL
MODEL 7
REMARK VINA RESULT:    -3.234      2.239      3.568
REMARK INTER + INTRA:          -3.328
REMARK INTER:                  -3.328
REMARK INTRA:                   0.000
REMARK UNBOUND:                 0.000
REMARK SMILES Oc1ccc2[nH]ccc2c1
REMARK SMILES IDX 3 1 4 2 5 3 9 4 8 5 7 6 6 7 10 8 2 9 1 11
REMARK H PARENT 6 10 1 12
REMARK Flexibility Score: inf
ROOT
ATOM      1  C   UNL     1     123.296 129.071 109.242  1.00  0.00     0.048 A 
ATOM      2  C   UNL     1     124.666 128.751 109.240  1.00  0.00     0.030 A 
ATOM      3  C   UNL     1     125.032 127.450 109.579  1.00  0.00     0.046 A 
ATOM      4  C   UNL     1     124.098 126.502 109.905  1.00  0.00     0.003 A 
ATOM      5  C   UNL     1     124.775 125.336 110.187  1.00  0.00     0.028 A 
ATOM      6  C   UNL     1     126.121 125.646 110.010  1.00  0.00     0.083 A 
ATOM      7  N   UNL     1     126.272 126.939 109.639  1.00  0.00    -0.361 N 
ATOM      8  C   UNL     1     122.735 126.785 109.918  1.00  0.00     0.056 A 
ATOM      9  C   UNL     1     122.329 128.091 109.580  1.00  0.00     0.116 A 
ATOM     10  H   UNL     1     127.170 127.433 109.440  1.00  0.00     0.166 HD
ENDROOT
BRANCH   9  11
ATOM     11  O   UNL     1     120.973 128.408 109.581  1.00  0.00    -0.508 OA
ATOM     12  H   UNL     1     120.606 129.163 109.014  1.00  0.00     0.293 HD
ENDBRANCH   9  11
TORSDOF 1
ENDMDL
MODEL 8
REMARK VINA RESULT:    -3.214      3.650      4.839
REMARK INTER + INTRA:          -3.308
REMARK INTER:                  -3.308
REMARK INTRA:                   0.000
REMARK UNBOUND:                 0.000
REMARK SMILES Oc1ccc2[nH]ccc2c1
REMARK SMILES IDX 3 1 4 2 5 3 9 4 8 5 7 6 6 7 10 8 2 9 1 11
REMARK H PARENT 6 10 1 12
REMARK Flexibility Score: inf
ROOT
ATOM      1  C   UNL     1     129.048 125.876 109.165  1.00  0.00     0.048 A 
ATOM      2  C   UNL     1     128.720 124.510 109.225  1.00  0.00     0.030 A 
ATOM      3  C   UNL     1     127.406 124.170 109.541  1.00  0.00     0.046 A 
ATOM      4  C   UNL     1     126.454 125.124 109.786  1.00  0.00     0.003 A 
ATOM      5  C   UNL     1     125.275 124.468 110.065  1.00  0.00     0.028 A 
ATOM      6  C   UNL     1     125.582 123.114 109.971  1.00  0.00     0.083 A 
ATOM      7  N   UNL     1     126.885 122.937 109.650  1.00  0.00    -0.361 N 
ATOM      8  C   UNL     1     126.746 126.485 109.734  1.00  0.00     0.056 A 
ATOM      9  C   UNL     1     128.064 126.865 109.418  1.00  0.00     0.116 A 
ATOM     10  H   UNL     1     127.380 122.027 109.517  1.00  0.00     0.166 HD
ENDROOT
BRANCH   9  11
ATOM     11  O   UNL     1     128.390 128.218 109.357  1.00  0.00    -0.508 OA
ATOM     12  H   UNL     1     128.611 128.669 108.478  1.00  0.00     0.293 HD
ENDBRANCH   9  11
TORSDOF 1
ENDMDL
MODEL 9
REMARK VINA RESULT:    -3.203      2.591      3.716
REMARK INTER + INTRA:          -3.296
REMARK INTER:                  -3.296
REMARK INTRA:                   0.000
REMARK UNBOUND:                 0.000
REMARK SMILES Oc1ccc2[nH]ccc2c1
REMARK SMILES IDX 3 1 4 2 5 3 9 4 8 5 7 6 6 7 10 8 2 9 1 11
REMARK H PARENT 6 10 1 12
REMARK Flexibility Score: inf
ROOT
ATOM      1  C   UNL     1     119.797 123.227 108.860  1.00  0.00     0.048 A 
ATOM      2  C   UNL     1     120.038 124.613 108.857  1.00  0.00     0.030 A 
ATOM      3  C   UNL     1     121.288 125.057 109.284  1.00  0.00     0.046 A 
ATOM      4  C   UNL     1     122.260 124.185 109.695  1.00  0.00     0.003 A 
ATOM      5  C   UNL     1     123.362 124.932 110.049  1.00  0.00     0.028 A 
ATOM      6  C   UNL     1     122.991 126.254 109.826  1.00  0.00     0.083 A 
ATOM      7  N   UNL     1     121.723 126.326 109.359  1.00  0.00    -0.361 N 
ATOM      8  C   UNL     1     122.055 122.807 109.711  1.00  0.00     0.056 A 
ATOM      9  C   UNL     1     120.803 122.323 109.286  1.00  0.00     0.116 A 
ATOM     10  H   UNL     1     121.194 127.191 109.109  1.00  0.00     0.166 HD
ENDROOT
BRANCH   9  11
ATOM     11  O   UNL     1     120.563 120.950 109.288  1.00  0.00    -0.508 OA
ATOM     12  H   UNL     1     119.702 120.564 108.921  1.00  0.00     0.293 HD
ENDBRANCH   9  11
TORSDOF 1
ENDMDL
