MODEL 1
REMARK VINA RESULT:    -4.111      0.000      0.000
REMARK INTER + INTRA:          -7.199
REMARK INTER:                  -6.274
REMARK INTRA:                  -0.925
REMARK UNBOUND:                -0.925
REMARK SMILES CCCCCCCCCC=CC(=O)[O-]
REMARK SMILES IDX 7 1 8 2 9 3 10 4 11 5 12 6 13 7 14 8 6 9 5 10 4 11 3 12 2 13
REMARK SMILES IDX 1 14
REMARK H PARENT
REMARK Flexibility Score: inf
ROOT
ATOM      1  C   UNL     1      11.964  36.774  18.875  1.00  0.00     0.000 C 
ENDROOT
BRANCH   1   2
ATOM      2  C   UNL     1      13.368  36.176  19.050  1.00  0.00     0.004 C 
BRANCH   2   3
ATOM      3  C   UNL     1      13.688  35.866  20.520  1.00  0.00     0.027 C 
BRANCH   3   4
ATOM      4  C   UNL     1      13.953  34.404  20.752  1.00  0.00    -0.025 C 
ATOM      5  C   UNL     1      15.169  33.877  20.575  1.00  0.00     0.020 C 
BRANCH   5   6
ATOM      6  C   UNL     1      15.449  32.449  20.790  1.00  0.00     0.064 C 
ATOM      7  O   UNL     1      15.114  31.873  21.860  1.00  0.00    -0.545 OA
ATOM      8  O   UNL     1      16.094  31.722  19.798  1.00  0.00    -0.545 OA
ENDBRANCH   5   6
ENDBRANCH   3   4
ENDBRANCH   2   3
ENDBRANCH   1   2
BRANCH   1   9
ATOM      9  C   UNL     1      10.888  35.684  18.959  1.00  0.00     0.000 C 
BRANCH   9  10
ATOM     10  C   UNL     1       9.615  36.220  19.630  1.00  0.00     0.000 C 
BRANCH  10  11
ATOM     11  C   UNL     1       9.464  35.743  21.083  1.00  0.00    -0.000 C 
BRANCH  11  12
ATOM     12  C   UNL     1      10.329  36.547  22.064  1.00  0.00    -0.000 C 
BRANCH  12  13
ATOM     13  C   UNL     1      11.090  35.617  23.016  1.00  0.00    -0.003 C 
ATOM     14  C   UNL     1      10.975  36.092  24.461  1.00  0.00     0.004 C 
ENDBRANCH  12  13
ENDBRANCH  11  12
ENDBRANCH  10  11
ENDBRANCH   9  10
ENDBRANCH   1   9
TORSDOF 9
ENDMDL
MODEL 2
REMARK VINA RESULT:    -4.077      3.104      6.205
REMARK INTER + INTRA:          -7.147
REMARK INTER:                  -6.577
REMARK INTRA:                  -0.571
REMARK UNBOUND:                -0.925
REMARK SMILES CCCCCCCCCC=CC(=O)[O-]
REMARK SMILES IDX 7 1 8 2 9 3 10 4 11 5 12 6 13 7 14 8 6 9 5 10 4 11 3 12 2 13
REMARK SMILES IDX 1 14
REMARK H PARENT
REMARK Flexibility Score: inf
ROOT
ATOM      1  C   UNL     1      14.688  33.783  19.107  1.00  0.00     0.000 C 
ENDROOT
BRANCH   1   2
ATOM      2  C   UNL     1      13.402  34.620  19.043  1.00  0.00     0.004 C 
BRANCH   2   3
ATOM      3  C   UNL     1      13.525  35.932  19.832  1.00  0.00     0.027 C 
BRANCH   3   4
ATOM      4  C   UNL     1      12.307  36.214  20.668  1.00  0.00    -0.025 C 
ATOM      5  C   UNL     1      12.199  35.760  21.921  1.00  0.00     0.020 C 
BRANCH   5   6
ATOM      6  C   UNL     1      11.014  36.019  22.754  1.00  0.00     0.064 C 
ATOM      7  O   UNL     1       9.989  36.574  22.274  1.00  0.00    -0.545 OA
ATOM      8  O   UNL     1      11.024  35.646  24.092  1.00  0.00    -0.545 OA
ENDBRANCH   5   6
ENDBRANCH   3   4
ENDBRANCH   2   3
ENDBRANCH   1   2
BRANCH   1   9
ATOM      9  C   UNL     1      15.282  33.793  20.521  1.00  0.00     0.000 C 
BRANCH   9  10
ATOM     10  C   UNL     1      15.832  32.409  20.896  1.00  0.00     0.000 C 
BRANCH  10  11
ATOM     11  C   UNL     1      17.368  32.374  20.941  1.00  0.00    -0.000 C 
BRANCH  11  12
ATOM     12  C   UNL     1      17.908  31.677  22.198  1.00  0.00    -0.000 C 
BRANCH  12  13
ATOM     13  C   UNL     1      16.770  31.049  23.010  1.00  0.00    -0.003 C 
ATOM     14  C   UNL     1      17.197  30.789  24.451  1.00  0.00     0.004 C 
ENDBRANCH  12  13
ENDBRANCH  11  12
ENDBRANCH  10  11
ENDBRANCH   9  10
ENDBRANCH   1   9
TORSDOF 9
ENDMDL
MODEL 3
REMARK VINA RESULT:    -4.060      1.319      1.937
REMARK INTER + INTRA:          -7.121
REMARK INTER:                  -6.339
REMARK INTRA:                  -0.782
REMARK UNBOUND:                -0.925
REMARK SMILES CCCCCCCCCC=CC(=O)[O-]
REMARK SMILES IDX 7 1 8 2 9 3 10 4 11 5 12 6 13 7 14 8 6 9 5 10 4 11 3 12 2 13
REMARK SMILES IDX 1 14
REMARK H PARENT
REMARK Flexibility Score: inf
ROOT
ATOM      1  C   UNL     1      13.704  35.875  20.131  1.00  0.00     0.000 C 
ENDROOT
BRANCH   1   2
ATOM      2  C   UNL     1      14.265  34.478  19.824  1.00  0.00     0.004 C 
BRANCH   2   3
ATOM      3  C   UNL     1      14.003  33.485  20.967  1.00  0.00     0.027 C 
BRANCH   3   4
ATOM      4  C   UNL     1      15.195  32.614  21.253  1.00  0.00    -0.025 C 
ATOM      5  C   UNL     1      16.392  32.868  20.715  1.00  0.00     0.020 C 
BRANCH   5   6
ATOM      6  C   UNL     1      17.569  32.025  20.976  1.00  0.00     0.064 C 
ATOM      7  O   UNL     1      18.034  31.898  22.141  1.00  0.00    -0.545 OA
ATOM      8  O   UNL     1      18.180  31.358  19.922  1.00  0.00    -0.545 OA
ENDBRANCH   5   6
ENDBRANCH   3   4
ENDBRANCH   2   3
ENDBRANCH   1   2
BRANCH   1   9
ATOM      9  C   UNL     1      12.867  36.401  18.958  1.00  0.00     0.000 C 
BRANCH   9  10
ATOM     10  C   UNL     1      11.490  36.882  19.437  1.00  0.00     0.000 C 
BRANCH  10  11
ATOM     11  C   UNL     1      10.711  35.793  20.190  1.00  0.00    -0.000 C 
BRANCH  11  12
ATOM     12  C   UNL     1      10.332  36.213  21.618  1.00  0.00    -0.000 C 
BRANCH  12  13
ATOM     13  C   UNL     1      11.070  35.360  22.655  1.00  0.00    -0.003 C 
ATOM     14  C   UNL     1      11.158  36.077  23.999  1.00  0.00     0.004 C 
ENDBRANCH  12  13
ENDBRANCH  11  12
ENDBRANCH  10  11
ENDBRANCH   9  10
ENDBRANCH   1   9
TORSDOF 9
ENDMDL
MODEL 4
REMARK VINA RESULT:    -4.020      2.177      3.574
REMARK INTER + INTRA:          -7.060
REMARK INTER:                  -6.594
REMARK INTRA:                  -0.466
REMARK UNBOUND:                -0.925
REMARK SMILES CCCCCCCCCC=CC(=O)[O-]
REMARK SMILES IDX 7 1 8 2 9 3 10 4 11 5 12 6 13 7 14 8 6 9 5 10 4 11 3 12 2 13
REMARK SMILES IDX 1 14
REMARK H PARENT
REMARK Flexibility Score: inf
ROOT
ATOM      1  C   UNL     1      14.555  34.264  20.721  1.00  0.00     0.000 C 
ENDROOT
BRANCH   1   2
ATOM      2  C   UNL     1      15.563  33.129  20.489  1.00  0.00     0.004 C 
BRANCH   2   3
ATOM      3  C   UNL     1      15.050  31.781  21.019  1.00  0.00     0.027 C 
BRANCH   3   4
ATOM      4  C   UNL     1      15.565  31.475  22.399  1.00  0.00    -0.025 C 
ATOM      5  C   UNL     1      16.870  31.306  22.637  1.00  0.00     0.020 C 
BRANCH   5   6
ATOM      6  C   UNL     1      17.393  31.000  23.977  1.00  0.00     0.064 C 
ATOM      7  O   UNL     1      18.519  31.428  24.350  1.00  0.00    -0.545 OA
ATOM      8  O   UNL     1      16.636  30.225  24.846  1.00  0.00    -0.545 OA
ENDBRANCH   5   6
ENDBRANCH   3   4
ENDBRANCH   2   3
ENDBRANCH   1   2
BRANCH   1   9
ATOM      9  C   UNL     1      14.010  34.797  19.390  1.00  0.00     0.000 C 
BRANCH   9  10
ATOM     10  C   UNL     1      13.172  36.065  19.609  1.00  0.00     0.000 C 
BRANCH  10  11
ATOM     11  C   UNL     1      12.491  36.096  20.986  1.00  0.00    -0.000 C 
BRANCH  11  12
ATOM     12  C   UNL     1      10.963  35.983  20.895  1.00  0.00    -0.000 C 
BRANCH  12  13
ATOM     13  C   UNL     1      10.304  36.360  22.227  1.00  0.00    -0.003 C 
ATOM     14  C   UNL     1      11.130  35.866  23.410  1.00  0.00     0.004 C 
ENDBRANCH  12  13
ENDBRANCH  11  12
ENDBRANCH  10  11
ENDBRANCH   9  10
ENDBRANCH   1   9
TORSDOF 9
ENDMDL
MODEL 5
REMARK VINA RESULT:    -3.901     18.694     20.159
REMARK INTER + INTRA:          -6.879
REMARK INTER:                  -5.807
REMARK INTRA:                  -1.073
REMARK UNBOUND:                -0.925
REMARK SMILES CCCCCCCCCC=CC(=O)[O-]
REMARK SMILES IDX 7 1 8 2 9 3 10 4 11 5 12 6 13 7 14 8 6 9 5 10 4 11 3 12 2 13
REMARK SMILES IDX 1 14
REMARK H PARENT
REMARK Flexibility Score: inf
ROOT
ATOM      1  C   UNL     1       9.306  48.611  32.034  1.00  0.00     0.000 C 
ENDROOT
BRANCH   1   2
ATOM      2  C   UNL     1       8.765  48.890  33.444  1.00  0.00     0.004 C 
BRANCH   2   3
ATOM      3  C   UNL     1       7.740  47.836  33.890  1.00  0.00     0.027 C 
BRANCH   3   4
ATOM      4  C   UNL     1       7.051  48.214  35.172  1.00  0.00    -0.025 C 
ATOM      5  C   UNL     1       5.886  48.871  35.174  1.00  0.00     0.020 C 
BRANCH   5   6
ATOM      6  C   UNL     1       5.200  49.256  36.416  1.00  0.00     0.064 C 
ATOM      7  O   UNL     1       4.081  49.837  36.389  1.00  0.00    -0.545 OA
ATOM      8  O   UNL     1       5.793  48.975  37.640  1.00  0.00    -0.545 OA
ENDBRANCH   5   6
ENDBRANCH   3   4
ENDBRANCH   2   3
ENDBRANCH   1   2
BRANCH   1   9
ATOM      9  C   UNL     1       9.537  49.918  31.265  1.00  0.00     0.000 C 
BRANCH   9  10
ATOM     10  C   UNL     1       8.693  49.958  29.983  1.00  0.00     0.000 C 
BRANCH  10  11
ATOM     11  C   UNL     1       7.183  50.001  30.269  1.00  0.00    -0.000 C 
BRANCH  11  12
ATOM     12  C   UNL     1       6.423  48.835  29.620  1.00  0.00    -0.000 C 
BRANCH  12  13
ATOM     13  C   UNL     1       5.978  47.815  30.674  1.00  0.00    -0.003 C 
ATOM     14  C   UNL     1       4.905  48.398  31.588  1.00  0.00     0.004 C 
ENDBRANCH  12  13
ENDBRANCH  11  12
ENDBRANCH  10  11
ENDBRANCH   9  10
ENDBRANCH   1   9
TORSDOF 9
ENDMDL
MODEL 6
REMARK VINA RESULT:    -3.900      3.559      6.121
REMARK INTER + INTRA:          -6.877
REMARK INTER:                  -6.304
REMARK INTRA:                  -0.573
REMARK UNBOUND:                -0.925
REMARK SMILES CCCCCCCCCC=CC(=O)[O-]
REMARK SMILES IDX 7 1 8 2 9 3 10 4 11 5 12 6 13 7 14 8 6 9 5 10 4 11 3 12 2 13
REMARK SMILES IDX 1 14
REMARK H PARENT
REMARK Flexibility Score: inf
ROOT
ATOM      1  C   UNL     1      12.162  35.637  21.771  1.00  0.00     0.000 C 
ENDROOT
BRANCH   1   2
ATOM      2  C   UNL     1      10.763  36.154  22.141  1.00  0.00     0.004 C 
BRANCH   2   3
ATOM      3  C   UNL     1       9.851  36.287  20.912  1.00  0.00     0.027 C 
BRANCH   3   4
ATOM      4  C   UNL     1       9.150  35.000  20.577  1.00  0.00    -0.025 C 
ATOM      5  C   UNL     1       7.842  34.967  20.301  1.00  0.00     0.020 C 
BRANCH   5   6
ATOM      6  C   UNL     1       7.135  33.718  19.978  1.00  0.00     0.064 C 
ATOM      7  O   UNL     1       7.483  33.008  18.996  1.00  0.00    -0.545 OA
ATOM      8  O   UNL     1       6.066  33.313  20.766  1.00  0.00    -0.545 OA
ENDBRANCH   5   6
ENDBRANCH   3   4
ENDBRANCH   2   3
ENDBRANCH   1   2
BRANCH   1   9
ATOM      9  C   UNL     1      12.614  36.197  20.416  1.00  0.00     0.000 C 
BRANCH   9  10
ATOM     10  C   UNL     1      13.701  35.310  19.791  1.00  0.00     0.000 C 
BRANCH  10  11
ATOM     11  C   UNL     1      14.363  34.374  20.815  1.00  0.00    -0.000 C 
BRANCH  11  12
ATOM     12  C   UNL     1      15.386  33.424  20.175  1.00  0.00    -0.000 C 
BRANCH  12  13
ATOM     13  C   UNL     1      15.749  32.283  21.132  1.00  0.00    -0.003 C 
ATOM     14  C   UNL     1      14.520  31.780  21.884  1.00  0.00     0.004 C 
ENDBRANCH  12  13
ENDBRANCH  11  12
ENDBRANCH  10  11
ENDBRANCH   9  10
ENDBRANCH   1   9
TORSDOF 9
ENDMDL
MODEL 7
REMARK VINA RESULT:    -3.870      1.539      2.833
REMARK INTER + INTRA:          -6.832
REMARK INTER:                  -5.767
REMARK INTRA:                  -1.065
REMARK UNBOUND:                -0.925
REMARK SMILES CCCCCCCCCC=CC(=O)[O-]
REMARK SMILES IDX 7 1 8 2 9 3 10 4 11 5 12 6 13 7 14 8 6 9 5 10 4 11 3 12 2 13
REMARK SMILES IDX 1 14
REMARK H PARENT
REMARK Flexibility Score: inf
ROOT
ATOM      1  C   UNL     1      12.367  36.203  20.376  1.00  0.00     0.000 C 
ENDROOT
BRANCH   1   2
ATOM      2  C   UNL     1      13.839  35.821  20.159  1.00  0.00     0.004 C 
BRANCH   2   3
ATOM      3  C   UNL     1      13.992  34.394  19.610  1.00  0.00     0.027 C 
BRANCH   3   4
ATOM      4  C   UNL     1      14.413  33.414  20.671  1.00  0.00    -0.025 C 
ATOM      5  C   UNL     1      13.612  32.417  21.059  1.00  0.00     0.020 C 
BRANCH   5   6
ATOM      6  C   UNL     1      14.001  31.452  22.099  1.00  0.00     0.064 C 
ATOM      7  O   UNL     1      13.169  30.630  22.570  1.00  0.00    -0.545 OA
ATOM      8  O   UNL     1      15.307  31.447  22.573  1.00  0.00    -0.545 OA
ENDBRANCH   5   6
ENDBRANCH   3   4
ENDBRANCH   2   3
ENDBRANCH   1   2
BRANCH   1   9
ATOM      9  C   UNL     1      11.996  36.140  21.863  1.00  0.00     0.000 C 
BRANCH   9  10
ATOM     10  C   UNL     1      10.647  35.434  22.062  1.00  0.00     0.000 C 
BRANCH  10  11
ATOM     11  C   UNL     1      10.120  34.787  20.772  1.00  0.00    -0.000 C 
BRANCH  11  12
ATOM     12  C   UNL     1       8.733  35.310  20.370  1.00  0.00    -0.000 C 
BRANCH  12  13
ATOM     13  C   UNL     1       8.793  36.052  19.030  1.00  0.00    -0.003 C 
ATOM     14  C   UNL     1       9.157  37.520  19.228  1.00  0.00     0.004 C 
ENDBRANCH  12  13
ENDBRANCH  11  12
ENDBRANCH  10  11
ENDBRANCH   9  10
ENDBRANCH   1   9
TORSDOF 9
ENDMDL
MODEL 8
REMARK VINA RESULT:    -3.786      1.484      2.655
REMARK INTER + INTRA:          -6.702
REMARK INTER:                  -5.580
REMARK INTRA:                  -1.122
REMARK UNBOUND:                -0.925
REMARK SMILES CCCCCCCCCC=CC(=O)[O-]
REMARK SMILES IDX 7 1 8 2 9 3 10 4 11 5 12 6 13 7 14 8 6 9 5 10 4 11 3 12 2 13
REMARK SMILES IDX 1 14
REMARK H PARENT
REMARK Flexibility Score: inf
ROOT
ATOM      1  C   UNL     1      12.117  35.571  21.774  1.00  0.00     0.000 C 
ENDROOT
BRANCH   1   2
ATOM      2  C   UNL     1      12.611  36.256  20.490  1.00  0.00     0.004 C 
BRANCH   2   3
ATOM      3  C   UNL     1      13.709  35.444  19.786  1.00  0.00     0.027 C 
BRANCH   3   4
ATOM      4  C   UNL     1      14.426  34.514  20.726  1.00  0.00    -0.025 C 
ATOM      5  C   UNL     1      15.257  33.568  20.275  1.00  0.00     0.020 C 
BRANCH   5   6
ATOM      6  C   UNL     1      15.962  32.644  21.176  1.00  0.00     0.064 C 
ATOM      7  O   UNL     1      15.329  31.901  21.974  1.00  0.00    -0.545 OA
ATOM      8  O   UNL     1      17.350  32.589  21.149  1.00  0.00    -0.545 OA
ENDBRANCH   5   6
ENDBRANCH   3   4
ENDBRANCH   2   3
ENDBRANCH   1   2
BRANCH   1   9
ATOM      9  C   UNL     1      10.600  35.729  21.933  1.00  0.00     0.000 C 
BRANCH   9  10
ATOM     10  C   UNL     1      10.012  36.564  20.787  1.00  0.00     0.000 C 
BRANCH  10  11
ATOM     11  C   UNL     1       9.152  35.729  19.825  1.00  0.00    -0.000 C 
BRANCH  11  12
ATOM     12  C   UNL     1       8.969  34.280  20.299  1.00  0.00    -0.000 C 
BRANCH  12  13
ATOM     13  C   UNL     1       9.436  33.289  19.228  1.00  0.00    -0.003 C 
ATOM     14  C   UNL     1      10.903  32.919  19.418  1.00  0.00     0.004 C 
ENDBRANCH  12  13
ENDBRANCH  11  12
ENDBRANCH  10  11
ENDBRANCH   9  10
ENDBRANCH   1   9
TORSDOF 9
ENDMDL
MODEL 9
REMARK VINA RESULT:    -3.759     18.588     20.239
REMARK INTER + INTRA:          -6.662
REMARK INTER:                  -5.608
REMARK INTRA:                  -1.054
REMARK UNBOUND:                -0.925
REMARK SMILES CCCCCCCCCC=CC(=O)[O-]
REMARK SMILES IDX 7 1 8 2 9 3 10 4 11 5 12 6 13 7 14 8 6 9 5 10 4 11 3 12 2 13
REMARK SMILES IDX 1 14
REMARK H PARENT
REMARK Flexibility Score: inf
ROOT
ATOM      1  C   UNL     1       6.244  47.489  32.400  1.00  0.00     0.000 C 
ENDROOT
BRANCH   1   2
ATOM      2  C   UNL     1       5.832  48.597  33.381  1.00  0.00     0.004 C 
BRANCH   2   3
ATOM      3  C   UNL     1       6.942  48.916  34.395  1.00  0.00     0.027 C 
BRANCH   3   4
ATOM      4  C   UNL     1       6.483  48.747  35.817  1.00  0.00    -0.025 C 
ATOM      5  C   UNL     1       6.997  47.802  36.611  1.00  0.00     0.020 C 
BRANCH   5   6
ATOM      6  C   UNL     1       6.558  47.616  38.002  1.00  0.00     0.064 C 
ATOM      7  O   UNL     1       6.735  46.520  38.601  1.00  0.00    -0.545 OA
ATOM      8  O   UNL     1       5.937  48.664  38.669  1.00  0.00    -0.545 OA
ENDBRANCH   5   6
ENDBRANCH   3   4
ENDBRANCH   2   3
ENDBRANCH   1   2
BRANCH   1   9
ATOM      9  C   UNL     1       5.913  47.882  30.955  1.00  0.00     0.000 C 
BRANCH   9  10
ATOM     10  C   UNL     1       5.737  49.402  30.827  1.00  0.00     0.000 C 
BRANCH  10  11
ATOM     11  C   UNL     1       6.660  50.018  29.763  1.00  0.00    -0.000 C 
BRANCH  11  12
ATOM     12  C   UNL     1       8.112  49.536  29.887  1.00  0.00    -0.000 C 
BRANCH  12  13
ATOM     13  C   UNL     1       8.756  50.060  31.175  1.00  0.00    -0.003 C 
ATOM     14  C   UNL     1       9.660  49.007  31.809  1.00  0.00     0.004 C 
ENDBRANCH  12  13
ENDBRANCH  11  12
ENDBRANCH  10  11
ENDBRANCH   9  10
ENDBRANCH   1   9
TORSDOF 9
ENDMDL
