MODEL 1
REMARK VINA RESULT:    -2.982      0.000      0.000
REMARK INTER + INTRA:          -3.356
REMARK INTER:                  -3.331
REMARK INTRA:                  -0.025
REMARK UNBOUND:                -0.025
REMARK SMILES CCCC(=O)[O-]
REMARK SMILES IDX 3 1 4 2 5 3 6 4 2 5 1 6
REMARK H PARENT
REMARK Flexibility Score: inf
ROOT
ATOM      1  C   UNL     1      33.655  30.526  47.761  1.00  0.00     0.052 C 
ENDROOT
BRANCH   1   2
ATOM      2  C   UNL     1      34.384  31.341  46.737  1.00  0.00     0.041 C 
ATOM      3  O   UNL     1      35.372  32.045  47.072  1.00  0.00    -0.550 OA
ATOM      4  O   UNL     1      33.950  31.349  45.417  1.00  0.00    -0.550 OA
ENDBRANCH   1   2
BRANCH   1   5
ATOM      5  C   UNL     1      33.483  29.070  47.311  1.00  0.00     0.003 C 
ATOM      6  C   UNL     1      32.064  28.777  46.821  1.00  0.00     0.004 C 
ENDBRANCH   1   5
TORSDOF 2
ENDMDL
MODEL 2
REMARK VINA RESULT:    -2.951      1.611      2.064
REMARK INTER + INTRA:          -3.322
REMARK INTER:                  -3.292
REMARK INTRA:                  -0.029
REMARK UNBOUND:                -0.025
REMARK SMILES CCCC(=O)[O-]
REMARK SMILES IDX 3 1 4 2 5 3 6 4 2 5 1 6
REMARK H PARENT
REMARK Flexibility Score: inf
ROOT
ATOM      1  C   UNL     1      33.758  30.543  46.985  1.00  0.00     0.052 C 
ENDROOT
BRANCH   1   2
ATOM      2  C   UNL     1      33.860  31.310  48.267  1.00  0.00     0.041 C 
ATOM      3  O   UNL     1      32.917  31.278  49.102  1.00  0.00    -0.550 OA
ATOM      4  O   UNL     1      34.982  32.087  48.526  1.00  0.00    -0.550 OA
ENDBRANCH   1   2
BRANCH   1   5
ATOM      5  C   UNL     1      33.299  29.098  47.221  1.00  0.00     0.003 C 
ATOM      6  C   UNL     1      32.139  28.700  46.307  1.00  0.00     0.004 C 
ENDBRANCH   1   5
TORSDOF 2
ENDMDL
MODEL 3
REMARK VINA RESULT:    -2.917     11.489     12.165
REMARK INTER + INTRA:          -3.284
REMARK INTER:                  -3.252
REMARK INTRA:                  -0.032
REMARK UNBOUND:                -0.025
REMARK SMILES CCCC(=O)[O-]
REMARK SMILES IDX 3 1 4 2 5 3 6 4 2 5 1 6
REMARK H PARENT
REMARK Flexibility Score: inf
ROOT
ATOM      1  C   UNL     1      28.369  40.744  44.084  1.00  0.00     0.052 C 
ENDROOT
BRANCH   1   2
ATOM      2  C   UNL     1      28.000  41.768  45.113  1.00  0.00     0.041 C 
ATOM      3  O   UNL     1      28.036  41.478  46.338  1.00  0.00    -0.550 OA
ATOM      4  O   UNL     1      27.583  43.033  44.718  1.00  0.00    -0.550 OA
ENDBRANCH   1   2
BRANCH   1   5
ATOM      5  C   UNL     1      29.326  39.687  44.651  1.00  0.00     0.003 C 
ATOM      6  C   UNL     1      30.761  39.877  44.158  1.00  0.00     0.004 C 
ENDBRANCH   1   5
TORSDOF 2
ENDMDL
MODEL 4
REMARK VINA RESULT:    -2.916     11.521     12.229
REMARK INTER + INTRA:          -3.282
REMARK INTER:                  -3.249
REMARK INTRA:                  -0.033
REMARK UNBOUND:                -0.025
REMARK SMILES CCCC(=O)[O-]
REMARK SMILES IDX 3 1 4 2 5 3 6 4 2 5 1 6
REMARK H PARENT
REMARK Flexibility Score: inf
ROOT
ATOM      1  C   UNL     1      28.368  40.828  44.012  1.00  0.00     0.052 C 
ENDROOT
BRANCH   1   2
ATOM      2  C   UNL     1      28.009  41.845  45.052  1.00  0.00     0.041 C 
ATOM      3  O   UNL     1      27.591  42.982  44.709  1.00  0.00    -0.550 OA
ATOM      4  O   UNL     1      28.168  41.548  46.400  1.00  0.00    -0.550 OA
ENDBRANCH   1   2
BRANCH   1   5
ATOM      5  C   UNL     1      29.282  39.734  44.578  1.00  0.00     0.003 C 
ATOM      6  C   UNL     1      30.724  39.868  44.085  1.00  0.00     0.004 C 
ENDBRANCH   1   5
TORSDOF 2
ENDMDL
MODEL 5
REMARK VINA RESULT:    -2.913      9.105      9.609
REMARK INTER + INTRA:          -3.279
REMARK INTER:                  -3.211
REMARK INTRA:                  -0.068
REMARK UNBOUND:                -0.025
REMARK SMILES CCCC(=O)[O-]
REMARK SMILES IDX 3 1 4 2 5 3 6 4 2 5 1 6
REMARK H PARENT
REMARK Flexibility Score: inf
ROOT
ATOM      1  C   UNL     1      29.478  38.425  45.646  1.00  0.00     0.052 C 
ENDROOT
BRANCH   1   2
ATOM      2  C   UNL     1      29.411  39.490  44.595  1.00  0.00     0.041 C 
ATOM      3  O   UNL     1      30.463  39.898  44.037  1.00  0.00    -0.550 OA
ATOM      4  O   UNL     1      28.189  40.056  44.255  1.00  0.00    -0.550 OA
ENDBRANCH   1   2
BRANCH   1   5
ATOM      5  C   UNL     1      28.734  37.154  45.217  1.00  0.00     0.003 C 
ATOM      6  C   UNL     1      29.310  36.548  43.936  1.00  0.00     0.004 C 
ENDBRANCH   1   5
TORSDOF 2
ENDMDL
MODEL 6
REMARK VINA RESULT:    -2.861     14.578     15.206
REMARK INTER + INTRA:          -3.221
REMARK INTER:                  -3.184
REMARK INTRA:                  -0.038
REMARK UNBOUND:                -0.025
REMARK SMILES CCCC(=O)[O-]
REMARK SMILES IDX 3 1 4 2 5 3 6 4 2 5 1 6
REMARK H PARENT
REMARK Flexibility Score: inf
ROOT
ATOM      1  C   UNL     1      19.725  31.671  44.102  1.00  0.00     0.052 C 
ENDROOT
BRANCH   1   2
ATOM      2  C   UNL     1      19.140  33.034  44.314  1.00  0.00     0.041 C 
ATOM      3  O   UNL     1      19.743  34.056  43.892  1.00  0.00    -0.550 OA
ATOM      4  O   UNL     1      17.945  33.178  45.009  1.00  0.00    -0.550 OA
ENDBRANCH   1   2
BRANCH   1   5
ATOM      5  C   UNL     1      18.636  30.614  43.878  1.00  0.00     0.003 C 
ATOM      6  C   UNL     1      18.615  29.558  44.985  1.00  0.00     0.004 C 
ENDBRANCH   1   5
TORSDOF 2
ENDMDL
MODEL 7
REMARK VINA RESULT:    -2.759     20.383     21.195
REMARK INTER + INTRA:          -3.107
REMARK INTER:                  -3.075
REMARK INTRA:                  -0.033
REMARK UNBOUND:                -0.025
REMARK SMILES CCCC(=O)[O-]
REMARK SMILES IDX 3 1 4 2 5 3 6 4 2 5 1 6
REMARK H PARENT
REMARK Flexibility Score: inf
ROOT
ATOM      1  C   UNL     1      29.779  44.147  63.150  1.00  0.00     0.052 C 
ENDROOT
BRANCH   1   2
ATOM      2  C   UNL     1      30.250  43.307  62.002  1.00  0.00     0.041 C 
ATOM      3  O   UNL     1      29.698  43.407  60.875  1.00  0.00    -0.550 OA
ATOM      4  O   UNL     1      31.277  42.390  62.186  1.00  0.00    -0.550 OA
ENDBRANCH   1   2
BRANCH   1   5
ATOM      5  C   UNL     1      29.354  45.548  62.692  1.00  0.00     0.003 C 
ATOM      6  C   UNL     1      27.944  45.911  63.162  1.00  0.00     0.004 C 
ENDBRANCH   1   5
TORSDOF 2
ENDMDL
MODEL 8
REMARK VINA RESULT:    -2.721     13.035     13.713
REMARK INTER + INTRA:          -3.064
REMARK INTER:                  -3.030
REMARK INTRA:                  -0.034
REMARK UNBOUND:                -0.025
REMARK SMILES CCCC(=O)[O-]
REMARK SMILES IDX 3 1 4 2 5 3 6 4 2 5 1 6
REMARK H PARENT
REMARK Flexibility Score: inf
ROOT
ATOM      1  C   UNL     1      27.791  42.709  45.908  1.00  0.00     0.052 C 
ENDROOT
BRANCH   1   2
ATOM      2  C   UNL     1      27.682  41.371  45.245  1.00  0.00     0.041 C 
ATOM      3  O   UNL     1      28.339  41.125  44.200  1.00  0.00    -0.550 OA
ATOM      4  O   UNL     1      26.827  40.405  45.763  1.00  0.00    -0.550 OA
ENDBRANCH   1   2
BRANCH   1   5
ATOM      5  C   UNL     1      26.462  43.474  45.867  1.00  0.00     0.003 C 
ATOM      6  C   UNL     1      25.911  43.758  47.265  1.00  0.00     0.004 C 
ENDBRANCH   1   5
TORSDOF 2
ENDMDL
MODEL 9
REMARK VINA RESULT:    -2.704      9.900     10.666
REMARK INTER + INTRA:          -3.046
REMARK INTER:                  -2.994
REMARK INTRA:                  -0.052
REMARK UNBOUND:                -0.025
REMARK SMILES CCCC(=O)[O-]
REMARK SMILES IDX 3 1 4 2 5 3 6 4 2 5 1 6
REMARK H PARENT
REMARK Flexibility Score: inf
ROOT
ATOM      1  C   UNL     1      29.898  39.901  44.456  1.00  0.00     0.052 C 
ENDROOT
BRANCH   1   2
ATOM      2  C   UNL     1      29.521  38.676  45.232  1.00  0.00     0.041 C 
ATOM      3  O   UNL     1      29.725  38.624  46.473  1.00  0.00    -0.550 OA
ATOM      4  O   UNL     1      28.976  37.578  44.578  1.00  0.00    -0.550 OA
ENDBRANCH   1   2
BRANCH   1   5
ATOM      5  C   UNL     1      28.662  40.684  43.995  1.00  0.00     0.003 C 
ATOM      6  C   UNL     1      28.036  41.500  45.127  1.00  0.00     0.004 C 
ENDBRANCH   1   5
TORSDOF 2
ENDMDL
