MODEL 1
REMARK VINA RESULT:    -5.208      0.000      0.000
REMARK INTER + INTRA:          -6.254
REMARK INTER:                  -6.121
REMARK INTRA:                  -0.132
REMARK UNBOUND:                -0.132
REMARK SMILES O=C([O-])C=Cc1ccc(O)c(O)c1
REMARK SMILES IDX 6 1 13 2 7 3 11 4 8 5 9 6 5 7 4 8 2 9 1 10 3 11 12 12 10 14
REMARK H PARENT 12 13 10 15
REMARK Flexibility Score: inf
ROOT
ATOM      1  C   UNL     1      27.719 -27.618  36.811  1.00  0.00    -0.022 A 
ATOM      2  C   UNL     1      27.792 -28.745  35.977  1.00  0.00     0.058 A 
ATOM      3  C   UNL     1      28.392 -26.442  36.425  1.00  0.00     0.012 A 
ATOM      4  C   UNL     1      28.540 -28.716  34.794  1.00  0.00     0.157 A 
ATOM      5  C   UNL     1      29.139 -26.410  35.243  1.00  0.00     0.051 A 
ATOM      6  C   UNL     1      29.220 -27.544  34.426  1.00  0.00     0.157 A 
ENDROOT
BRANCH   1   7
ATOM      7  C   UNL     1      26.903 -27.700  38.048  1.00  0.00     0.010 C 
ATOM      8  C   UNL     1      26.599 -28.851  38.664  1.00  0.00     0.025 C 
BRANCH   8   9
ATOM      9  C   UNL     1      25.776 -28.886  39.883  1.00  0.00     0.064 C 
ATOM     10  O   UNL     1      25.903 -29.842  40.691  1.00  0.00    -0.545 OA
ATOM     11  O   UNL     1      24.858 -27.878  40.159  1.00  0.00    -0.545 OA
ENDBRANCH   8   9
ENDBRANCH   1   7
BRANCH   4  12
ATOM     12  O   UNL     1      28.594 -29.860  33.999  1.00  0.00    -0.504 OA
ATOM     13  H   UNL     1      29.451 -30.165  33.553  1.00  0.00     0.293 HD
ENDBRANCH   4  12
BRANCH   6  14
ATOM     14  O   UNL     1      29.967 -27.509  33.249  1.00  0.00    -0.504 OA
ATOM     15  H   UNL     1      30.613 -28.250  33.009  1.00  0.00     0.293 HD
ENDBRANCH   6  14
TORSDOF 4
ENDMDL
MODEL 2
REMARK VINA RESULT:    -5.153      2.734      3.098
REMARK INTER + INTRA:          -6.189
REMARK INTER:                  -6.059
REMARK INTRA:                  -0.130
REMARK UNBOUND:                -0.132
REMARK SMILES O=C([O-])C=Cc1ccc(O)c(O)c1
REMARK SMILES IDX 6 1 13 2 7 3 11 4 8 5 9 6 5 7 4 8 2 9 1 10 3 11 12 12 10 14
REMARK H PARENT 12 13 10 15
REMARK Flexibility Score: inf
ROOT
ATOM      1  C   UNL     1      28.629 -25.941  35.922  1.00  0.00    -0.022 A 
ATOM      2  C   UNL     1      28.563 -27.323  36.163  1.00  0.00     0.058 A 
ATOM      3  C   UNL     1      28.939 -25.491  34.624  1.00  0.00     0.012 A 
ATOM      4  C   UNL     1      28.826 -28.242  35.140  1.00  0.00     0.157 A 
ATOM      5  C   UNL     1      29.201 -26.407  33.601  1.00  0.00     0.051 A 
ATOM      6  C   UNL     1      29.149 -27.783  33.853  1.00  0.00     0.157 A 
ENDROOT
BRANCH   1   7
ATOM      7  C   UNL     1      28.331 -25.011  37.040  1.00  0.00     0.010 C 
ATOM      8  C   UNL     1      27.420 -25.258  37.992  1.00  0.00     0.025 C 
BRANCH   8   9
ATOM      9  C   UNL     1      27.149 -24.300  39.075  1.00  0.00     0.064 C 
ATOM     10  O   UNL     1      27.562 -24.545  40.238  1.00  0.00    -0.545 OA
ATOM     11  O   UNL     1      26.442 -23.127  38.835  1.00  0.00    -0.545 OA
ENDBRANCH   8   9
ENDBRANCH   1   7
BRANCH   4  12
ATOM     12  O   UNL     1      28.760 -29.606  35.423  1.00  0.00    -0.504 OA
ATOM     13  H   UNL     1      27.982 -30.015  35.928  1.00  0.00     0.293 HD
ENDBRANCH   4  12
BRANCH   6  14
ATOM     14  O   UNL     1      29.412 -28.694  32.831  1.00  0.00    -0.504 OA
ATOM     15  H   UNL     1      30.280 -28.669  32.309  1.00  0.00     0.293 HD
ENDBRANCH   6  14
TORSDOF 4
ENDMDL
MODEL 3
REMARK VINA RESULT:    -5.119      8.149     10.549
REMARK INTER + INTRA:          -6.149
REMARK INTER:                  -6.014
REMARK INTRA:                  -0.136
REMARK UNBOUND:                -0.132
REMARK SMILES O=C([O-])C=Cc1ccc(O)c(O)c1
REMARK SMILES IDX 6 1 13 2 7 3 11 4 8 5 9 6 5 7 4 8 2 9 1 10 3 11 12 12 10 14
REMARK H PARENT 12 13 10 15
REMARK Flexibility Score: inf
ROOT
ATOM      1  C   UNL     1      25.322 -26.951  27.941  1.00  0.00    -0.022 A 
ATOM      2  C   UNL     1      24.961 -27.802  28.998  1.00  0.00     0.058 A 
ATOM      3  C   UNL     1      26.688 -26.779  27.642  1.00  0.00     0.012 A 
ATOM      4  C   UNL     1      25.938 -28.452  29.761  1.00  0.00     0.157 A 
ATOM      5  C   UNL     1      27.665 -27.428  28.403  1.00  0.00     0.051 A 
ATOM      6  C   UNL     1      27.297 -28.262  29.466  1.00  0.00     0.157 A 
ENDROOT
BRANCH   1   7
ATOM      7  C   UNL     1      24.245 -26.297  27.157  1.00  0.00     0.010 C 
ATOM      8  C   UNL     1      24.240 -26.219  25.819  1.00  0.00     0.025 C 
BRANCH   8   9
ATOM      9  C   UNL     1      23.156 -25.549  25.082  1.00  0.00     0.064 C 
ATOM     10  O   UNL     1      21.976 -25.967  25.199  1.00  0.00    -0.545 OA
ATOM     11  O   UNL     1      23.416 -24.459  24.259  1.00  0.00    -0.545 OA
ENDBRANCH   8   9
ENDBRANCH   1   7
BRANCH   4  12
ATOM     12  O   UNL     1      25.538 -29.281  30.809  1.00  0.00    -0.504 OA
ATOM     13  H   UNL     1      25.735 -30.275  30.815  1.00  0.00     0.293 HD
ENDBRANCH   4  12
BRANCH   6  14
ATOM     14  O   UNL     1      28.275 -28.905  30.223  1.00  0.00    -0.504 OA
ATOM     15  H   UNL     1      28.132 -29.116  31.204  1.00  0.00     0.293 HD
ENDBRANCH   6  14
TORSDOF 4
ENDMDL
MODEL 4
REMARK VINA RESULT:    -5.066      9.880     11.660
REMARK INTER + INTRA:          -6.087
REMARK INTER:                  -5.956
REMARK INTRA:                  -0.131
REMARK UNBOUND:                -0.132
REMARK SMILES O=C([O-])C=Cc1ccc(O)c(O)c1
REMARK SMILES IDX 6 1 13 2 7 3 11 4 8 5 9 6 5 7 4 8 2 9 1 10 3 11 12 12 10 14
REMARK H PARENT 12 13 10 15
REMARK Flexibility Score: inf
ROOT
ATOM      1  C   UNL     1      24.859 -25.945  25.903  1.00  0.00    -0.022 A 
ATOM      2  C   UNL     1      24.550 -26.536  24.667  1.00  0.00     0.058 A 
ATOM      3  C   UNL     1      25.165 -24.571  25.943  1.00  0.00     0.012 A 
ATOM      4  C   UNL     1      24.571 -25.783  23.488  1.00  0.00     0.157 A 
ATOM      5  C   UNL     1      25.185 -23.816  24.767  1.00  0.00     0.051 A 
ATOM      6  C   UNL     1      24.893 -24.416  23.535  1.00  0.00     0.157 A 
ENDROOT
BRANCH   1   7
ATOM      7  C   UNL     1      24.811 -26.788  27.124  1.00  0.00     0.010 C 
ATOM      8  C   UNL     1      25.899 -27.175  27.805  1.00  0.00     0.025 C 
BRANCH   8   9
ATOM      9  C   UNL     1      25.805 -28.021  29.005  1.00  0.00     0.064 C 
ATOM     10  O   UNL     1      24.906 -27.796  29.856  1.00  0.00    -0.545 OA
ATOM     11  O   UNL     1      26.694 -29.070  29.215  1.00  0.00    -0.545 OA
ENDBRANCH   8   9
ENDBRANCH   1   7
BRANCH   4  12
ATOM     12  O   UNL     1      24.269 -26.409  22.279  1.00  0.00    -0.504 OA
ATOM     13  H   UNL     1      24.437 -27.397  22.127  1.00  0.00     0.293 HD
ENDBRANCH   4  12
BRANCH   6  14
ATOM     14  O   UNL     1      24.915 -23.661  22.364  1.00  0.00    -0.504 OA
ATOM     15  H   UNL     1      25.786 -23.372  21.936  1.00  0.00     0.293 HD
ENDBRANCH   6  14
TORSDOF 4
ENDMDL
MODEL 5
REMARK VINA RESULT:    -5.065     12.201     13.626
REMARK INTER + INTRA:          -6.086
REMARK INTER:                  -5.953
REMARK INTRA:                  -0.133
REMARK UNBOUND:                -0.132
REMARK SMILES O=C([O-])C=Cc1ccc(O)c(O)c1
REMARK SMILES IDX 6 1 13 2 7 3 11 4 8 5 9 6 5 7 4 8 2 9 1 10 3 11 12 12 10 14
REMARK H PARENT 12 13 10 15
REMARK Flexibility Score: inf
ROOT
ATOM      1  C   UNL     1      22.710 -23.105  25.597  1.00  0.00    -0.022 A 
ATOM      2  C   UNL     1      22.361 -24.186  26.422  1.00  0.00     0.058 A 
ATOM      3  C   UNL     1      23.416 -23.358  24.405  1.00  0.00     0.012 A 
ATOM      4  C   UNL     1      22.729 -25.494  26.084  1.00  0.00     0.157 A 
ATOM      5  C   UNL     1      23.784 -24.663  24.064  1.00  0.00     0.051 A 
ATOM      6  C   UNL     1      23.447 -25.735  24.901  1.00  0.00     0.157 A 
ENDROOT
BRANCH   1   7
ATOM      7  C   UNL     1      22.285 -21.740  25.998  1.00  0.00     0.010 C 
ATOM      8  C   UNL     1      23.138 -20.734  26.237  1.00  0.00     0.025 C 
BRANCH   8   9
ATOM      9  C   UNL     1      22.672 -19.399  26.644  1.00  0.00     0.064 C 
ATOM     10  O   UNL     1      21.541 -19.273  27.182  1.00  0.00    -0.545 OA
ATOM     11  O   UNL     1      23.462 -18.272  26.445  1.00  0.00    -0.545 OA
ENDBRANCH   8   9
ENDBRANCH   1   7
BRANCH   4  12
ATOM     12  O   UNL     1      22.372 -26.539  26.935  1.00  0.00    -0.504 OA
ATOM     13  H   UNL     1      23.061 -27.160  27.343  1.00  0.00     0.293 HD
ENDBRANCH   4  12
BRANCH   6  14
ATOM     14  O   UNL     1      23.816 -27.035  24.559  1.00  0.00    -0.504 OA
ATOM     15  H   UNL     1      23.761 -27.368  23.604  1.00  0.00     0.293 HD
ENDBRANCH   6  14
TORSDOF 4
ENDMDL
MODEL 6
REMARK VINA RESULT:    -5.061      1.393      1.737
REMARK INTER + INTRA:          -6.081
REMARK INTER:                  -5.951
REMARK INTRA:                  -0.130
REMARK UNBOUND:                -0.132
REMARK SMILES O=C([O-])C=Cc1ccc(O)c(O)c1
REMARK SMILES IDX 6 1 13 2 7 3 11 4 8 5 9 6 5 7 4 8 2 9 1 10 3 11 12 12 10 14
REMARK H PARENT 12 13 10 15
REMARK Flexibility Score: inf
ROOT
ATOM      1  C   UNL     1      27.718 -28.009  35.992  1.00  0.00    -0.022 A 
ATOM      2  C   UNL     1      26.854 -28.768  35.187  1.00  0.00     0.058 A 
ATOM      3  C   UNL     1      28.949 -27.582  35.456  1.00  0.00     0.012 A 
ATOM      4  C   UNL     1      27.214 -29.119  33.881  1.00  0.00     0.157 A 
ATOM      5  C   UNL     1      29.310 -27.931  34.151  1.00  0.00     0.051 A 
ATOM      6  C   UNL     1      28.450 -28.703  33.360  1.00  0.00     0.157 A 
ENDROOT
BRANCH   1   7
ATOM      7  C   UNL     1      27.281 -27.655  37.366  1.00  0.00     0.010 C 
ATOM      8  C   UNL     1      26.933 -28.558  38.293  1.00  0.00     0.025 C 
BRANCH   8   9
ATOM      9  C   UNL     1      26.494 -28.160  39.640  1.00  0.00     0.064 C 
ATOM     10  O   UNL     1      26.656 -26.972  40.021  1.00  0.00    -0.545 OA
ATOM     11  O   UNL     1      25.901 -29.078  40.501  1.00  0.00    -0.545 OA
ENDBRANCH   8   9
ENDBRANCH   1   7
BRANCH   4  12
ATOM     12  O   UNL     1      26.332 -29.883  33.118  1.00  0.00    -0.504 OA
ATOM     13  H   UNL     1      25.345 -29.663  33.055  1.00  0.00     0.293 HD
ENDBRANCH   4  12
BRANCH   6  14
ATOM     14  O   UNL     1      28.815 -29.050  32.060  1.00  0.00    -0.504 OA
ATOM     15  H   UNL     1      28.547 -29.939  31.654  1.00  0.00     0.293 HD
ENDBRANCH   6  14
TORSDOF 4
ENDMDL
MODEL 7
REMARK VINA RESULT:    -5.040      1.446      5.704
REMARK INTER + INTRA:          -6.056
REMARK INTER:                  -5.929
REMARK INTRA:                  -0.127
REMARK UNBOUND:                -0.132
REMARK SMILES O=C([O-])C=Cc1ccc(O)c(O)c1
REMARK SMILES IDX 6 1 13 2 7 3 11 4 8 5 9 6 5 7 4 8 2 9 1 10 3 11 12 12 10 14
REMARK H PARENT 12 13 10 15
REMARK Flexibility Score: inf
ROOT
ATOM      1  C   UNL     1      27.249 -26.977  37.430  1.00  0.00    -0.022 A 
ATOM      2  C   UNL     1      27.057 -28.358  37.598  1.00  0.00     0.058 A 
ATOM      3  C   UNL     1      26.922 -26.110  38.491  1.00  0.00     0.012 A 
ATOM      4  C   UNL     1      26.527 -28.868  38.789  1.00  0.00     0.157 A 
ATOM      5  C   UNL     1      26.393 -26.618  39.681  1.00  0.00     0.051 A 
ATOM      6  C   UNL     1      26.189 -27.995  39.835  1.00  0.00     0.157 A 
ENDROOT
BRANCH   1   7
ATOM      7  C   UNL     1      27.826 -26.491  36.152  1.00  0.00     0.010 C 
ATOM      8  C   UNL     1      29.032 -26.854  35.693  1.00  0.00     0.025 C 
BRANCH   8   9
ATOM      9  C   UNL     1      29.569 -26.337  34.424  1.00  0.00     0.064 C 
ATOM     10  O   UNL     1      30.184 -27.113  33.648  1.00  0.00    -0.545 OA
ATOM     11  O   UNL     1      29.409 -25.002  34.068  1.00  0.00    -0.545 OA
ENDBRANCH   8   9
ENDBRANCH   1   7
BRANCH   4  12
ATOM     12  O   UNL     1      26.342 -30.245  38.912  1.00  0.00    -0.504 OA
ATOM     13  H   UNL     1      25.799 -30.778  38.243  1.00  0.00     0.293 HD
ENDBRANCH   4  12
BRANCH   6  14
ATOM     14  O   UNL     1      25.659 -28.497  41.023  1.00  0.00    -0.504 OA
ATOM     15  H   UNL     1      25.454 -29.483  41.137  1.00  0.00     0.293 HD
ENDBRANCH   6  14
TORSDOF 4
ENDMDL
MODEL 8
REMARK VINA RESULT:    -5.008     12.859     13.878
REMARK INTER + INTRA:          -6.018
REMARK INTER:                  -5.892
REMARK INTRA:                  -0.127
REMARK UNBOUND:                -0.132
REMARK SMILES O=C([O-])C=Cc1ccc(O)c(O)c1
REMARK SMILES IDX 6 1 13 2 7 3 11 4 8 5 9 6 5 7 4 8 2 9 1 10 3 11 12 12 10 14
REMARK H PARENT 12 13 10 15
REMARK Flexibility Score: inf
ROOT
ATOM      1  C   UNL     1      22.714 -23.368  25.422  1.00  0.00    -0.022 A 
ATOM      2  C   UNL     1      23.404 -23.551  24.213  1.00  0.00     0.058 A 
ATOM      3  C   UNL     1      22.433 -24.494  26.221  1.00  0.00     0.012 A 
ATOM      4  C   UNL     1      23.785 -24.829  23.790  1.00  0.00     0.157 A 
ATOM      5  C   UNL     1      22.813 -25.772  25.801  1.00  0.00     0.051 A 
ATOM      6  C   UNL     1      23.486 -25.947  24.586  1.00  0.00     0.157 A 
ENDROOT
BRANCH   1   7
ATOM      7  C   UNL     1      22.344 -21.989  25.828  1.00  0.00     0.010 C 
ATOM      8  C   UNL     1      23.237 -21.034  26.121  1.00  0.00     0.025 C 
BRANCH   8   9
ATOM      9  C   UNL     1      22.824 -19.682  26.531  1.00  0.00     0.064 C 
ATOM     10  O   UNL     1      23.473 -18.684  26.123  1.00  0.00    -0.545 OA
ATOM     11  O   UNL     1      21.726 -19.489  27.362  1.00  0.00    -0.545 OA
ENDBRANCH   8   9
ENDBRANCH   1   7
BRANCH   4  12
ATOM     12  O   UNL     1      24.459 -24.968  22.577  1.00  0.00    -0.504 OA
ATOM     13  H   UNL     1      24.339 -25.781  21.985  1.00  0.00     0.293 HD
ENDBRANCH   4  12
BRANCH   6  14
ATOM     14  O   UNL     1      23.862 -27.223  24.170  1.00  0.00    -0.504 OA
ATOM     15  H   UNL     1      24.582 -27.362  23.471  1.00  0.00     0.293 HD
ENDBRANCH   6  14
TORSDOF 4
ENDMDL
MODEL 9
REMARK VINA RESULT:    -4.935      1.210      2.190
REMARK INTER + INTRA:          -5.933
REMARK INTER:                  -5.791
REMARK INTRA:                  -0.142
REMARK UNBOUND:                -0.132
REMARK SMILES O=C([O-])C=Cc1ccc(O)c(O)c1
REMARK SMILES IDX 6 1 13 2 7 3 11 4 8 5 9 6 5 7 4 8 2 9 1 10 3 11 12 12 10 14
REMARK H PARENT 12 13 10 15
REMARK Flexibility Score: inf
ROOT
ATOM      1  C   UNL     1      27.735 -27.496  36.531  1.00  0.00    -0.022 A 
ATOM      2  C   UNL     1      28.808 -26.848  35.898  1.00  0.00     0.058 A 
ATOM      3  C   UNL     1      27.182 -28.643  35.929  1.00  0.00     0.012 A 
ATOM      4  C   UNL     1      29.309 -27.315  34.678  1.00  0.00     0.157 A 
ATOM      5  C   UNL     1      27.681 -29.112  34.710  1.00  0.00     0.051 A 
ATOM      6  C   UNL     1      28.742 -28.451  34.077  1.00  0.00     0.157 A 
ENDROOT
BRANCH   1   7
ATOM      7  C   UNL     1      27.251 -26.965  37.829  1.00  0.00     0.010 C 
ATOM      8  C   UNL     1      26.733 -27.730  38.801  1.00  0.00     0.025 C 
BRANCH   8   9
ATOM      9  C   UNL     1      26.254 -27.159  40.069  1.00  0.00     0.064 C 
ATOM     10  O   UNL     1      26.628 -26.008  40.413  1.00  0.00    -0.545 OA
ATOM     11  O   UNL     1      25.393 -27.871  40.897  1.00  0.00    -0.545 OA
ENDBRANCH   8   9
ENDBRANCH   1   7
BRANCH   4  12
ATOM     12  O   UNL     1      30.370 -26.638  34.077  1.00  0.00    -0.504 OA
ATOM     13  H   UNL     1      31.264 -27.082  33.905  1.00  0.00     0.293 HD
ENDBRANCH   4  12
BRANCH   6  14
ATOM     14  O   UNL     1      29.235 -28.920  32.861  1.00  0.00    -0.504 OA
ATOM     15  H   UNL     1      29.650 -28.295  32.180  1.00  0.00     0.293 HD
ENDBRANCH   6  14
TORSDOF 4
ENDMDL
