MODEL 1
REMARK VINA RESULT:     9.945      0.000      0.000
REMARK INTER + INTRA:          19.493
REMARK INTER:                  19.247
REMARK INTRA:                   0.245
REMARK UNBOUND:                 0.245
REMARK SMILES CCCCCCCCCCCCCCCCCC(=O)[O-]
REMARK SMILES IDX 10 1 11 2 12 3 13 4 14 5 15 6 16 7 17 8 18 9 19 10 20 11
REMARK SMILES IDX 9 12 8 13 7 14 6 15 5 16 4 17 3 18 2 19 1 20
REMARK H PARENT
REMARK Flexibility Score: inf
ROOT
ATOM      1  C   UNL     1      13.366 -13.691   6.871  1.00  0.00     0.000 C 
ENDROOT
BRANCH   1   2
ATOM      2  C   UNL     1      12.170 -13.480   5.925  1.00  0.00     0.000 C 
BRANCH   2   3
ATOM      3  C   UNL     1      11.805 -14.700   5.062  1.00  0.00     0.000 C 
BRANCH   3   4
ATOM      4  C   UNL     1      10.288 -14.857   4.863  1.00  0.00     0.000 C 
BRANCH   4   5
ATOM      5  C   UNL     1       9.474 -13.855   5.699  1.00  0.00     0.000 C 
BRANCH   5   6
ATOM      6  C   UNL     1       8.961 -12.670   4.861  1.00  0.00     0.000 C 
BRANCH   6   7
ATOM      7  C   UNL     1       9.223 -11.313   5.535  1.00  0.00     0.006 C 
BRANCH   7   8
ATOM      8  C   UNL     1      10.651 -11.187   6.081  1.00  0.00     0.053 C 
BRANCH   8   9
ATOM      9  C   UNL     1      11.480 -10.328   5.179  1.00  0.00     0.041 C 
ATOM     10  O   UNL     1      11.181  -9.118   5.005  1.00  0.00    -0.550 OA
ATOM     11  O   UNL     1      12.555 -10.877   4.490  1.00  0.00    -0.550 OA
ENDBRANCH   8   9
ENDBRANCH   7   8
ENDBRANCH   6   7
ENDBRANCH   5   6
ENDBRANCH   4   5
ENDBRANCH   3   4
ENDBRANCH   2   3
ENDBRANCH   1   2
BRANCH   1  12
ATOM     12  C   UNL     1      14.334 -14.778   6.375  1.00  0.00     0.000 C 
BRANCH  12  13
ATOM     13  C   UNL     1      15.591 -14.905   7.253  1.00  0.00    -0.000 C 
BRANCH  13  14
ATOM     14  C   UNL     1      16.479 -16.129   6.949  1.00  0.00    -0.000 C 
BRANCH  14  15
ATOM     15  C   UNL     1      17.846 -15.767   6.330  1.00  0.00    -0.000 C 
BRANCH  15  16
ATOM     16  C   UNL     1      18.861 -16.918   6.456  1.00  0.00    -0.000 C 
BRANCH  16  17
ATOM     17  C   UNL     1      19.037 -17.696   5.143  1.00  0.00    -0.000 C 
BRANCH  17  18
ATOM     18  C   UNL     1      19.125 -16.769   3.919  1.00  0.00    -0.000 C 
BRANCH  18  19
ATOM     19  C   UNL     1      18.585 -17.462   2.665  1.00  0.00    -0.003 C 
ATOM     20  C   UNL     1      17.442 -16.665   2.042  1.00  0.00     0.004 C 
ENDBRANCH  18  19
ENDBRANCH  17  18
ENDBRANCH  16  17
ENDBRANCH  15  16
ENDBRANCH  14  15
ENDBRANCH  13  14
ENDBRANCH  12  13
ENDBRANCH   1  12
TORSDOF 16
ENDMDL
MODEL 2
REMARK VINA RESULT:    11.139      1.367      2.080
REMARK INTER + INTRA:          21.804
REMARK INTER:                  22.667
REMARK INTRA:                  -0.863
REMARK UNBOUND:                 0.245
REMARK SMILES CCCCCCCCCCCCCCCCCC(=O)[O-]
REMARK SMILES IDX 10 1 11 2 12 3 13 4 14 5 15 6 16 7 17 8 18 9 19 10 20 11
REMARK SMILES IDX 9 12 8 13 7 14 6 15 5 16 4 17 3 18 2 19 1 20
REMARK H PARENT
REMARK Flexibility Score: inf
ROOT
ATOM      1  C   UNL     1      13.228 -13.627   7.180  1.00  0.00     0.000 C 
ENDROOT
BRANCH   1   2
ATOM      2  C   UNL     1      12.705 -13.959   5.771  1.00  0.00     0.000 C 
BRANCH   2   3
ATOM      3  C   UNL     1      11.205 -13.692   5.557  1.00  0.00     0.000 C 
BRANCH   3   4
ATOM      4  C   UNL     1      10.694 -12.486   6.363  1.00  0.00     0.000 C 
BRANCH   4   5
ATOM      5  C   UNL     1       9.917 -11.481   5.496  1.00  0.00     0.000 C 
BRANCH   5   6
ATOM      6  C   UNL     1      10.795 -10.308   5.025  1.00  0.00     0.000 C 
BRANCH   6   7
ATOM      7  C   UNL     1      12.296 -10.639   5.069  1.00  0.00     0.006 C 
BRANCH   7   8
ATOM      8  C   UNL     1      13.134  -9.712   4.180  1.00  0.00     0.053 C 
BRANCH   8   9
ATOM      9  C   UNL     1      13.856 -10.504   3.135  1.00  0.00     0.041 C 
ATOM     10  O   UNL     1      14.951 -10.091   2.671  1.00  0.00    -0.550 OA
ATOM     11  O   UNL     1      13.293 -11.672   2.636  1.00  0.00    -0.550 OA
ENDBRANCH   8   9
ENDBRANCH   7   8
ENDBRANCH   6   7
ENDBRANCH   5   6
ENDBRANCH   4   5
ENDBRANCH   3   4
ENDBRANCH   2   3
ENDBRANCH   1   2
BRANCH   1  12
ATOM     12  C   UNL     1      14.592 -14.272   7.478  1.00  0.00     0.000 C 
BRANCH  12  13
ATOM     13  C   UNL     1      15.031 -15.269   6.392  1.00  0.00    -0.000 C 
BRANCH  13  14
ATOM     14  C   UNL     1      16.153 -16.241   6.812  1.00  0.00    -0.000 C 
BRANCH  14  15
ATOM     15  C   UNL     1      17.575 -15.691   6.569  1.00  0.00    -0.000 C 
BRANCH  15  16
ATOM     16  C   UNL     1      18.657 -16.757   6.820  1.00  0.00    -0.000 C 
BRANCH  16  17
ATOM     17  C   UNL     1      19.045 -17.515   5.541  1.00  0.00    -0.000 C 
BRANCH  17  18
ATOM     18  C   UNL     1      19.123 -16.593   4.313  1.00  0.00    -0.000 C 
BRANCH  18  19
ATOM     19  C   UNL     1      19.052 -17.402   3.014  1.00  0.00    -0.003 C 
ATOM     20  C   UNL     1      18.000 -16.832   2.066  1.00  0.00     0.004 C 
ENDBRANCH  18  19
ENDBRANCH  17  18
ENDBRANCH  16  17
ENDBRANCH  15  16
ENDBRANCH  14  15
ENDBRANCH  13  14
ENDBRANCH  12  13
ENDBRANCH   1  12
TORSDOF 16
ENDMDL
MODEL 3
REMARK VINA RESULT:    11.211      5.925      9.380
REMARK INTER + INTRA:          21.942
REMARK INTER:                  22.694
REMARK INTRA:                  -0.753
REMARK UNBOUND:                 0.245
REMARK SMILES CCCCCCCCCCCCCCCCCC(=O)[O-]
REMARK SMILES IDX 10 1 11 2 12 3 13 4 14 5 15 6 16 7 17 8 18 9 19 10 20 11
REMARK SMILES IDX 9 12 8 13 7 14 6 15 5 16 4 17 3 18 2 19 1 20
REMARK H PARENT
REMARK Flexibility Score: inf
ROOT
ATOM      1  C   UNL     1      15.770  -7.891   2.102  1.00  0.00     0.000 C 
ENDROOT
BRANCH   1   2
ATOM      2  C   UNL     1      16.043  -9.389   1.877  1.00  0.00     0.000 C 
BRANCH   2   3
ATOM      3  C   UNL     1      14.823 -10.306   2.078  1.00  0.00     0.000 C 
BRANCH   3   4
ATOM      4  C   UNL     1      14.273 -10.261   3.514  1.00  0.00     0.000 C 
BRANCH   4   5
ATOM      5  C   UNL     1      12.968 -11.058   3.673  1.00  0.00     0.000 C 
BRANCH   5   6
ATOM      6  C   UNL     1      12.095 -10.533   4.826  1.00  0.00     0.000 C 
BRANCH   6   7
ATOM      7  C   UNL     1      11.693 -11.640   5.815  1.00  0.00     0.006 C 
BRANCH   7   8
ATOM      8  C   UNL     1      10.174 -11.755   5.991  1.00  0.00     0.053 C 
BRANCH   8   9
ATOM      9  C   UNL     1       9.652 -12.945   5.249  1.00  0.00     0.041 C 
ATOM     10  O   UNL     1       8.519 -12.903   4.702  1.00  0.00    -0.550 OA
ATOM     11  O   UNL     1      10.395 -14.118   5.205  1.00  0.00    -0.550 OA
ENDBRANCH   8   9
ENDBRANCH   7   8
ENDBRANCH   6   7
ENDBRANCH   5   6
ENDBRANCH   4   5
ENDBRANCH   3   4
ENDBRANCH   2   3
ENDBRANCH   1   2
BRANCH   1  12
ATOM     12  C   UNL     1      17.035  -7.028   1.966  1.00  0.00     0.000 C 
BRANCH  12  13
ATOM     13  C   UNL     1      17.258  -6.098   3.171  1.00  0.00    -0.000 C 
BRANCH  13  14
ATOM     14  C   UNL     1      16.561  -6.539   4.474  1.00  0.00    -0.000 C 
BRANCH  14  15
ATOM     15  C   UNL     1      17.013  -5.746   5.720  1.00  0.00    -0.000 C 
BRANCH  15  16
ATOM     16  C   UNL     1      15.839  -5.438   6.667  1.00  0.00    -0.000 C 
BRANCH  16  17
ATOM     17  C   UNL     1      15.783  -3.958   7.075  1.00  0.00    -0.000 C 
BRANCH  17  18
ATOM     18  C   UNL     1      14.500  -3.265   6.589  1.00  0.00    -0.000 C 
BRANCH  18  19
ATOM     19  C   UNL     1      14.742  -1.771   6.346  1.00  0.00    -0.003 C 
ATOM     20  C   UNL     1      15.844  -1.236   7.256  1.00  0.00     0.004 C 
ENDBRANCH  18  19
ENDBRANCH  17  18
ENDBRANCH  16  17
ENDBRANCH  15  16
ENDBRANCH  14  15
ENDBRANCH  13  14
ENDBRANCH  12  13
ENDBRANCH   1  12
TORSDOF 16
ENDMDL
MODEL 4
REMARK VINA RESULT:    11.352      2.522      3.383
REMARK INTER + INTRA:          22.215
REMARK INTER:                  23.221
REMARK INTRA:                  -1.005
REMARK UNBOUND:                 0.245
REMARK SMILES CCCCCCCCCCCCCCCCCC(=O)[O-]
REMARK SMILES IDX 10 1 11 2 12 3 13 4 14 5 15 6 16 7 17 8 18 9 19 10 20 11
REMARK SMILES IDX 9 12 8 13 7 14 6 15 5 16 4 17 3 18 2 19 1 20
REMARK H PARENT
REMARK Flexibility Score: inf
ROOT
ATOM      1  C   UNL     1      11.943 -19.974   5.559  1.00  0.00     0.000 C 
ENDROOT
BRANCH   1   2
ATOM      2  C   UNL     1      12.024 -18.599   4.871  1.00  0.00     0.000 C 
BRANCH   2   3
ATOM      3  C   UNL     1      10.897 -17.620   5.247  1.00  0.00     0.000 C 
BRANCH   3   4
ATOM      4  C   UNL     1      11.085 -16.227   4.622  1.00  0.00     0.000 C 
BRANCH   4   5
ATOM      5  C   UNL     1       9.757 -15.472   4.447  1.00  0.00     0.000 C 
BRANCH   5   6
ATOM      6  C   UNL     1       9.504 -14.456   5.574  1.00  0.00     0.000 C 
BRANCH   6   7
ATOM      7  C   UNL     1       9.900 -13.024   5.179  1.00  0.00     0.006 C 
BRANCH   7   8
ATOM      8  C   UNL     1      11.251 -12.598   5.769  1.00  0.00     0.053 C 
BRANCH   8   9
ATOM      9  C   UNL     1      11.576 -11.194   5.367  1.00  0.00     0.041 C 
ATOM     10  O   UNL     1      10.871 -10.237   5.782  1.00  0.00    -0.550 OA
ATOM     11  O   UNL     1      12.626 -10.947   4.491  1.00  0.00    -0.550 OA
ENDBRANCH   8   9
ENDBRANCH   7   8
ENDBRANCH   6   7
ENDBRANCH   5   6
ENDBRANCH   4   5
ENDBRANCH   3   4
ENDBRANCH   2   3
ENDBRANCH   1   2
BRANCH   1  12
ATOM     12  C   UNL     1      12.406 -19.935   7.025  1.00  0.00     0.000 C 
BRANCH  12  13
ATOM     13  C   UNL     1      13.915 -19.673   7.169  1.00  0.00    -0.000 C 
BRANCH  13  14
ATOM     14  C   UNL     1      14.290 -18.265   7.674  1.00  0.00    -0.000 C 
BRANCH  14  15
ATOM     15  C   UNL     1      15.733 -17.842   7.324  1.00  0.00    -0.000 C 
BRANCH  15  16
ATOM     16  C   UNL     1      15.788 -16.438   6.695  1.00  0.00    -0.000 C 
BRANCH  16  17
ATOM     17  C   UNL     1      17.068 -15.674   7.068  1.00  0.00    -0.000 C 
BRANCH  17  18
ATOM     18  C   UNL     1      18.324 -16.555   6.974  1.00  0.00    -0.000 C 
BRANCH  18  19
ATOM     19  C   UNL     1      19.014 -16.385   5.617  1.00  0.00    -0.003 C 
ATOM     20  C   UNL     1      19.122 -17.718   4.881  1.00  0.00     0.004 C 
ENDBRANCH  18  19
ENDBRANCH  17  18
ENDBRANCH  16  17
ENDBRANCH  15  16
ENDBRANCH  14  15
ENDBRANCH  13  14
ENDBRANCH  12  13
ENDBRANCH   1  12
TORSDOF 16
ENDMDL
MODEL 5
REMARK VINA RESULT:    11.911      5.855      9.139
REMARK INTER + INTRA:          23.298
REMARK INTER:                  24.157
REMARK INTRA:                  -0.859
REMARK UNBOUND:                 0.245
REMARK SMILES CCCCCCCCCCCCCCCCCC(=O)[O-]
REMARK SMILES IDX 10 1 11 2 12 3 13 4 14 5 15 6 16 7 17 8 18 9 19 10 20 11
REMARK SMILES IDX 9 12 8 13 7 14 6 15 5 16 4 17 3 18 2 19 1 20
REMARK H PARENT
REMARK Flexibility Score: inf
ROOT
ATOM      1  C   UNL     1      15.685  -8.195   2.153  1.00  0.00     0.000 C 
ENDROOT
BRANCH   1   2
ATOM      2  C   UNL     1      16.984  -7.389   1.969  1.00  0.00     0.000 C 
BRANCH   2   3
ATOM      3  C   UNL     1      17.212  -6.282   3.013  1.00  0.00     0.000 C 
BRANCH   3   4
ATOM      4  C   UNL     1      16.623  -6.631   4.391  1.00  0.00     0.000 C 
BRANCH   4   5
ATOM      5  C   UNL     1      17.065  -5.651   5.490  1.00  0.00     0.000 C 
BRANCH   5   6
ATOM      6  C   UNL     1      16.141  -5.689   6.719  1.00  0.00     0.000 C 
BRANCH   6   7
ATOM      7  C   UNL     1      15.759  -4.285   7.215  1.00  0.00     0.006 C 
BRANCH   7   8
ATOM      8  C   UNL     1      14.727  -3.597   6.312  1.00  0.00     0.053 C 
BRANCH   8   9
ATOM      9  C   UNL     1      14.784  -2.113   6.492  1.00  0.00     0.041 C 
ATOM     10  O   UNL     1      13.881  -1.381   6.008  1.00  0.00    -0.550 OA
ATOM     11  O   UNL     1      15.861  -1.532   7.151  1.00  0.00    -0.550 OA
ENDBRANCH   8   9
ENDBRANCH   7   8
ENDBRANCH   6   7
ENDBRANCH   5   6
ENDBRANCH   4   5
ENDBRANCH   3   4
ENDBRANCH   2   3
ENDBRANCH   1   2
BRANCH   1  12
ATOM     12  C   UNL     1      15.892  -9.708   1.973  1.00  0.00     0.000 C 
BRANCH  12  13
ATOM     13  C   UNL     1      14.645 -10.531   2.339  1.00  0.00    -0.000 C 
BRANCH  13  14
ATOM     14  C   UNL     1      13.958 -10.123   3.658  1.00  0.00    -0.000 C 
BRANCH  14  15
ATOM     15  C   UNL     1      12.828 -11.081   4.093  1.00  0.00    -0.000 C 
BRANCH  15  16
ATOM     16  C   UNL     1      11.869 -10.424   5.102  1.00  0.00    -0.000 C 
BRANCH  16  17
ATOM     17  C   UNL     1      11.176 -11.450   6.012  1.00  0.00    -0.000 C 
BRANCH  17  18
ATOM     18  C   UNL     1       9.753 -11.786   5.539  1.00  0.00    -0.000 C 
BRANCH  18  19
ATOM     19  C   UNL     1       9.595 -13.290   5.298  1.00  0.00    -0.003 C 
ATOM     20  C   UNL     1      10.933 -14.013   5.422  1.00  0.00     0.004 C 
ENDBRANCH  18  19
ENDBRANCH  17  18
ENDBRANCH  16  17
ENDBRANCH  15  16
ENDBRANCH  14  15
ENDBRANCH  13  14
ENDBRANCH  12  13
ENDBRANCH   1  12
TORSDOF 16
ENDMDL
MODEL 6
REMARK VINA RESULT:    11.953      3.791      8.280
REMARK INTER + INTRA:          23.379
REMARK INTER:                  24.203
REMARK INTRA:                  -0.824
REMARK UNBOUND:                 0.245
REMARK SMILES CCCCCCCCCCCCCCCCCC(=O)[O-]
REMARK SMILES IDX 10 1 11 2 12 3 13 4 14 5 15 6 16 7 17 8 18 9 19 10 20 11
REMARK SMILES IDX 9 12 8 13 7 14 6 15 5 16 4 17 3 18 2 19 1 20
REMARK H PARENT
REMARK Flexibility Score: inf
ROOT
ATOM      1  C   UNL     1      11.915 -19.805   5.652  1.00  0.00     0.000 C 
ENDROOT
BRANCH   1   2
ATOM      2  C   UNL     1      12.464 -19.704   7.087  1.00  0.00     0.000 C 
BRANCH   2   3
ATOM      3  C   UNL     1      13.966 -19.385   7.183  1.00  0.00     0.000 C 
BRANCH   3   4
ATOM      4  C   UNL     1      14.247 -17.879   7.330  1.00  0.00     0.000 C 
BRANCH   4   5
ATOM      5  C   UNL     1      15.731 -17.531   7.123  1.00  0.00     0.000 C 
BRANCH   5   6
ATOM      6  C   UNL     1      15.997 -16.018   7.209  1.00  0.00     0.000 C 
BRANCH   6   7
ATOM      7  C   UNL     1      17.311 -15.609   6.522  1.00  0.00     0.006 C 
BRANCH   7   8
ATOM      8  C   UNL     1      18.446 -16.610   6.771  1.00  0.00     0.053 C 
BRANCH   8   9
ATOM      9  C   UNL     1      18.891 -17.225   5.481  1.00  0.00     0.041 C 
ATOM     10  O   UNL     1      19.125 -18.460   5.415  1.00  0.00    -0.550 OA
ATOM     11  O   UNL     1      19.097 -16.425   4.363  1.00  0.00    -0.550 OA
ENDBRANCH   8   9
ENDBRANCH   7   8
ENDBRANCH   6   7
ENDBRANCH   5   6
ENDBRANCH   4   5
ENDBRANCH   3   4
ENDBRANCH   2   3
ENDBRANCH   1   2
BRANCH   1  12
ATOM     12  C   UNL     1      12.021 -18.479   4.879  1.00  0.00     0.000 C 
BRANCH  12  13
ATOM     13  C   UNL     1      10.800 -17.566   5.088  1.00  0.00    -0.000 C 
BRANCH  13  14
ATOM     14  C   UNL     1      11.061 -16.064   4.858  1.00  0.00    -0.000 C 
BRANCH  14  15
ATOM     15  C   UNL     1       9.808 -15.180   5.042  1.00  0.00    -0.000 C 
BRANCH  15  16
ATOM     16  C   UNL     1      10.172 -13.699   5.250  1.00  0.00    -0.000 C 
BRANCH  16  17
ATOM     17  C   UNL     1      11.648 -13.500   5.625  1.00  0.00    -0.000 C 
BRANCH  17  18
ATOM     18  C   UNL     1      12.044 -12.016   5.683  1.00  0.00    -0.000 C 
BRANCH  18  19
ATOM     19  C   UNL     1      10.867 -11.151   6.145  1.00  0.00    -0.003 C 
ATOM     20  C   UNL     1      10.752  -9.881   5.307  1.00  0.00     0.004 C 
ENDBRANCH  18  19
ENDBRANCH  17  18
ENDBRANCH  16  17
ENDBRANCH  15  16
ENDBRANCH  14  15
ENDBRANCH  13  14
ENDBRANCH  12  13
ENDBRANCH   1  12
TORSDOF 16
ENDMDL
MODEL 7
REMARK VINA RESULT:    11.954      2.290      3.326
REMARK INTER + INTRA:          23.381
REMARK INTER:                  22.387
REMARK INTRA:                   0.994
REMARK UNBOUND:                 0.245
REMARK SMILES CCCCCCCCCCCCCCCCCC(=O)[O-]
REMARK SMILES IDX 10 1 11 2 12 3 13 4 14 5 15 6 16 7 17 8 18 9 19 10 20 11
REMARK SMILES IDX 9 12 8 13 7 14 6 15 5 16 4 17 3 18 2 19 1 20
REMARK H PARENT
REMARK Flexibility Score: inf
ROOT
ATOM      1  C   UNL     1      14.299 -13.977   7.375  1.00  0.00     0.000 C 
ENDROOT
BRANCH   1   2
ATOM      2  C   UNL     1      13.101 -13.619   6.477  1.00  0.00     0.000 C 
BRANCH   2   3
ATOM      3  C   UNL     1      12.542 -14.787   5.646  1.00  0.00     0.000 C 
BRANCH   3   4
ATOM      4  C   UNL     1      11.357 -14.372   4.756  1.00  0.00     0.000 C 
BRANCH   4   5
ATOM      5  C   UNL     1      10.071 -14.122   5.561  1.00  0.00     0.000 C 
BRANCH   5   6
ATOM      6  C   UNL     1       9.225 -12.978   4.977  1.00  0.00     0.000 C 
BRANCH   6   7
ATOM      7  C   UNL     1       9.473 -11.637   5.687  1.00  0.00     0.006 C 
BRANCH   7   8
ATOM      8  C   UNL     1      10.934 -11.454   6.117  1.00  0.00     0.053 C 
BRANCH   8   9
ATOM      9  C   UNL     1      11.641 -10.526   5.179  1.00  0.00     0.041 C 
ATOM     10  O   UNL     1      11.320  -9.310   5.129  1.00  0.00    -0.550 OA
ATOM     11  O   UNL     1      12.619 -11.016   4.322  1.00  0.00    -0.550 OA
ENDBRANCH   8   9
ENDBRANCH   7   8
ENDBRANCH   6   7
ENDBRANCH   5   6
ENDBRANCH   4   5
ENDBRANCH   3   4
ENDBRANCH   2   3
ENDBRANCH   1   2
BRANCH   1  12
ATOM     12  C   UNL     1      15.154 -15.119   6.799  1.00  0.00     0.000 C 
BRANCH  12  13
ATOM     13  C   UNL     1      16.662 -14.904   7.015  1.00  0.00    -0.000 C 
BRANCH  13  14
ATOM     14  C   UNL     1      17.549 -16.123   6.690  1.00  0.00    -0.000 C 
BRANCH  14  15
ATOM     15  C   UNL     1      16.949 -17.469   7.149  1.00  0.00    -0.000 C 
BRANCH  15  16
ATOM     16  C   UNL     1      15.410 -17.441   7.163  1.00  0.00    -0.000 C 
BRANCH  16  17
ATOM     17  C   UNL     1      14.799 -18.782   7.598  1.00  0.00    -0.000 C 
BRANCH  17  18
ATOM     18  C   UNL     1      13.336 -18.933   7.151  1.00  0.00    -0.000 C 
BRANCH  18  19
ATOM     19  C   UNL     1      12.967 -20.408   6.970  1.00  0.00    -0.003 C 
ATOM     20  C   UNL     1      11.820 -20.572   5.976  1.00  0.00     0.004 C 
ENDBRANCH  18  19
ENDBRANCH  17  18
ENDBRANCH  16  17
ENDBRANCH  15  16
ENDBRANCH  14  15
ENDBRANCH  13  14
ENDBRANCH  12  13
ENDBRANCH   1  12
TORSDOF 16
ENDMDL
MODEL 8
REMARK VINA RESULT:    12.296      3.376      8.299
REMARK INTER + INTRA:          24.042
REMARK INTER:                  23.179
REMARK INTRA:                   0.863
REMARK UNBOUND:                 0.245
REMARK SMILES CCCCCCCCCCCCCCCCCC(=O)[O-]
REMARK SMILES IDX 10 1 11 2 12 3 13 4 14 5 15 6 16 7 17 8 18 9 19 10 20 11
REMARK SMILES IDX 9 12 8 13 7 14 6 15 5 16 4 17 3 18 2 19 1 20
REMARK H PARENT
REMARK Flexibility Score: inf
ROOT
ATOM      1  C   UNL     1      12.835 -13.653   6.375  1.00  0.00     0.000 C 
ENDROOT
BRANCH   1   2
ATOM      2  C   UNL     1      14.158 -13.902   7.123  1.00  0.00     0.000 C 
BRANCH   2   3
ATOM      3  C   UNL     1      14.874 -15.212   6.750  1.00  0.00     0.000 C 
BRANCH   3   4
ATOM      4  C   UNL     1      16.061 -15.527   7.678  1.00  0.00     0.000 C 
BRANCH   4   5
ATOM      5  C   UNL     1      16.927 -16.686   7.159  1.00  0.00     0.000 C 
BRANCH   5   6
ATOM      6  C   UNL     1      18.421 -16.323   7.101  1.00  0.00     0.000 C 
BRANCH   6   7
ATOM      7  C   UNL     1      19.125 -16.911   5.866  1.00  0.00     0.006 C 
BRANCH   7   8
ATOM      8  C   UNL     1      18.519 -16.417   4.547  1.00  0.00     0.053 C 
BRANCH   8   9
ATOM      9  C   UNL     1      18.762 -17.412   3.456  1.00  0.00     0.041 C 
ATOM     10  O   UNL     1      18.779 -17.042   2.253  1.00  0.00    -0.550 OA
ATOM     11  O   UNL     1      18.920 -18.758   3.765  1.00  0.00    -0.550 OA
ENDBRANCH   8   9
ENDBRANCH   7   8
ENDBRANCH   6   7
ENDBRANCH   5   6
ENDBRANCH   4   5
ENDBRANCH   3   4
ENDBRANCH   2   3
ENDBRANCH   1   2
BRANCH   1  12
ATOM     12  C   UNL     1      12.553 -14.711   5.295  1.00  0.00     0.000 C 
BRANCH  12  13
ATOM     13  C   UNL     1      11.055 -14.848   4.969  1.00  0.00    -0.000 C 
BRANCH  13  14
ATOM     14  C   UNL     1      10.236 -13.548   5.099  1.00  0.00    -0.000 C 
BRANCH  14  15
ATOM     15  C   UNL     1      10.871 -12.505   6.044  1.00  0.00    -0.000 C 
BRANCH  15  16
ATOM     16  C   UNL     1      10.136 -11.154   5.991  1.00  0.00    -0.000 C 
BRANCH  16  17
ATOM     17  C   UNL     1      11.008 -10.029   5.415  1.00  0.00    -0.000 C 
BRANCH  17  18
ATOM     18  C   UNL     1      12.476 -10.453   5.247  1.00  0.00    -0.000 C 
BRANCH  18  19
ATOM     19  C   UNL     1      12.702 -11.125   3.889  1.00  0.00    -0.003 C 
ATOM     20  C   UNL     1      13.910 -10.529   3.172  1.00  0.00     0.004 C 
ENDBRANCH  18  19
ENDBRANCH  17  18
ENDBRANCH  16  17
ENDBRANCH  15  16
ENDBRANCH  14  15
ENDBRANCH  13  14
ENDBRANCH  12  13
ENDBRANCH   1  12
TORSDOF 16
ENDMDL
MODEL 9
REMARK VINA RESULT:    12.730      3.835      5.789
REMARK INTER + INTRA:          24.882
REMARK INTER:                  25.827
REMARK INTRA:                  -0.945
REMARK UNBOUND:                 0.245
REMARK SMILES CCCCCCCCCCCCCCCCCC(=O)[O-]
REMARK SMILES IDX 10 1 11 2 12 3 13 4 14 5 15 6 16 7 17 8 18 9 19 10 20 11
REMARK SMILES IDX 9 12 8 13 7 14 6 15 5 16 4 17 3 18 2 19 1 20
REMARK H PARENT
REMARK Flexibility Score: inf
ROOT
ATOM      1  C   UNL     1      10.234 -11.613   5.875  1.00  0.00     0.000 C 
ENDROOT
BRANCH   1   2
ATOM      2  C   UNL     1       9.319 -12.827   5.630  1.00  0.00     0.000 C 
BRANCH   2   3
ATOM      3  C   UNL     1       9.907 -13.903   4.701  1.00  0.00     0.000 C 
BRANCH   3   4
ATOM      4  C   UNL     1       9.720 -15.329   5.248  1.00  0.00     0.000 C 
BRANCH   4   5
ATOM      5  C   UNL     1      10.583 -16.365   4.508  1.00  0.00     0.000 C 
BRANCH   5   6
ATOM      6  C   UNL     1      10.687 -17.697   5.271  1.00  0.00     0.000 C 
BRANCH   6   7
ATOM      7  C   UNL     1      11.968 -18.476   4.929  1.00  0.00     0.006 C 
BRANCH   7   8
ATOM      8  C   UNL     1      11.859 -19.970   5.256  1.00  0.00     0.053 C 
BRANCH   8   9
ATOM      9  C   UNL     1      12.371 -20.241   6.636  1.00  0.00     0.041 C 
ATOM     10  O   UNL     1      11.780 -21.067   7.380  1.00  0.00    -0.550 OA
ATOM     11  O   UNL     1      13.470 -19.543   7.120  1.00  0.00    -0.550 OA
ENDBRANCH   8   9
ENDBRANCH   7   8
ENDBRANCH   6   7
ENDBRANCH   5   6
ENDBRANCH   4   5
ENDBRANCH   3   4
ENDBRANCH   2   3
ENDBRANCH   1   2
BRANCH   1  12
ATOM     12  C   UNL     1      11.721 -11.932   5.642  1.00  0.00     0.000 C 
BRANCH  12  13
ATOM     13  C   UNL     1      12.305 -12.875   6.708  1.00  0.00    -0.000 C 
BRANCH  13  14
ATOM     14  C   UNL     1      13.271 -13.951   6.171  1.00  0.00    -0.000 C 
BRANCH  14  15
ATOM     15  C   UNL     1      14.422 -14.293   7.142  1.00  0.00    -0.000 C 
BRANCH  15  16
ATOM     16  C   UNL     1      15.027 -15.679   6.855  1.00  0.00    -0.000 C 
BRANCH  16  17
ATOM     17  C   UNL     1      16.505 -15.603   6.441  1.00  0.00    -0.000 C 
BRANCH  17  18
ATOM     18  C   UNL     1      17.411 -16.456   7.344  1.00  0.00    -0.000 C 
BRANCH  18  19
ATOM     19  C   UNL     1      18.738 -16.773   6.648  1.00  0.00    -0.003 C 
ATOM     20  C   UNL     1      18.748 -16.249   5.215  1.00  0.00     0.004 C 
ENDBRANCH  18  19
ENDBRANCH  17  18
ENDBRANCH  16  17
ENDBRANCH  15  16
ENDBRANCH  14  15
ENDBRANCH  13  14
ENDBRANCH  12  13
ENDBRANCH   1  12
TORSDOF 16
ENDMDL
