MODEL 1
REMARK VINA RESULT:    -4.454      0.000      0.000
REMARK INTER + INTRA:          -9.896
REMARK INTER:                  -8.621
REMARK INTRA:                  -1.275
REMARK UNBOUND:                -1.275
REMARK SMILES CCCCCCCCCCCCCCCCCC(=O)[O-]
REMARK SMILES IDX 10 1 11 2 12 3 13 4 14 5 15 6 16 7 17 8 18 9 19 10 20 11
REMARK SMILES IDX 9 12 8 13 7 14 6 15 5 16 4 17 3 18 2 19 1 20
REMARK H PARENT
REMARK Flexibility Score: inf
ROOT
ATOM      1  C   UNL     1      31.371  24.775  68.811  1.00  0.00     0.000 C 
ENDROOT
BRANCH   1   2
ATOM      2  C   UNL     1      31.027  24.809  70.308  1.00  0.00     0.000 C 
BRANCH   2   3
ATOM      3  C   UNL     1      31.627  26.053  70.980  1.00  0.00     0.000 C 
BRANCH   3   4
ATOM      4  C   UNL     1      33.016  25.786  71.582  1.00  0.00     0.000 C 
BRANCH   4   5
ATOM      5  C   UNL     1      34.100  26.709  70.998  1.00  0.00     0.000 C 
BRANCH   5   6
ATOM      6  C   UNL     1      35.069  25.966  70.064  1.00  0.00     0.000 C 
BRANCH   6   7
ATOM      7  C   UNL     1      35.325  24.517  70.514  1.00  0.00     0.006 C 
BRANCH   7   8
ATOM      8  C   UNL     1      36.509  24.412  71.484  1.00  0.00     0.053 C 
BRANCH   8   9
ATOM      9  C   UNL     1      37.799  24.163  70.763  1.00  0.00     0.041 C 
ATOM     10  O   UNL     1      38.842  23.878  71.410  1.00  0.00    -0.550 OA
ATOM     11  O   UNL     1      37.842  24.214  69.376  1.00  0.00    -0.550 OA
ENDBRANCH   8   9
ENDBRANCH   7   8
ENDBRANCH   6   7
ENDBRANCH   5   6
ENDBRANCH   4   5
ENDBRANCH   3   4
ENDBRANCH   2   3
ENDBRANCH   1   2
BRANCH   1  12
ATOM     12  C   UNL     1      32.580  23.875  68.496  1.00  0.00     0.000 C 
BRANCH  12  13
ATOM     13  C   UNL     1      33.327  24.218  67.192  1.00  0.00    -0.000 C 
BRANCH  13  14
ATOM     14  C   UNL     1      32.423  24.542  65.987  1.00  0.00    -0.000 C 
BRANCH  14  15
ATOM     15  C   UNL     1      33.069  24.304  64.608  1.00  0.00    -0.000 C 
BRANCH  15  16
ATOM     16  C   UNL     1      32.708  25.345  63.530  1.00  0.00    -0.000 C 
BRANCH  16  17
ATOM     17  C   UNL     1      31.233  25.783  63.511  1.00  0.00    -0.000 C 
BRANCH  17  18
ATOM     18  C   UNL     1      31.040  27.213  62.977  1.00  0.00    -0.000 C 
BRANCH  18  19
ATOM     19  C   UNL     1      29.558  27.575  62.788  1.00  0.00    -0.003 C 
ATOM     20  C   UNL     1      28.614  26.440  63.187  1.00  0.00     0.004 C 
ENDBRANCH  18  19
ENDBRANCH  17  18
ENDBRANCH  16  17
ENDBRANCH  15  16
ENDBRANCH  14  15
ENDBRANCH  13  14
ENDBRANCH  12  13
ENDBRANCH   1  12
TORSDOF 16
ENDMDL
MODEL 2
REMARK VINA RESULT:    -4.348      3.346      6.385
REMARK INTER + INTRA:          -9.691
REMARK INTER:                  -8.621
REMARK INTRA:                  -1.069
REMARK UNBOUND:                -1.275
REMARK SMILES CCCCCCCCCCCCCCCCCC(=O)[O-]
REMARK SMILES IDX 10 1 11 2 12 3 13 4 14 5 15 6 16 7 17 8 18 9 19 10 20 11
REMARK SMILES IDX 9 12 8 13 7 14 6 15 5 16 4 17 3 18 2 19 1 20
REMARK H PARENT
REMARK Flexibility Score: inf
ROOT
ATOM      1  C   UNL     1      30.902  27.176  63.493  1.00  0.00     0.000 C 
ENDROOT
BRANCH   1   2
ATOM      2  C   UNL     1      32.200  26.394  63.246  1.00  0.00     0.000 C 
BRANCH   2   3
ATOM      3  C   UNL     1      31.995  24.893  63.503  1.00  0.00     0.000 C 
BRANCH   3   4
ATOM      4  C   UNL     1      31.310  24.615  64.851  1.00  0.00     0.000 C 
BRANCH   4   5
ATOM      5  C   UNL     1      32.305  24.598  66.025  1.00  0.00     0.000 C 
BRANCH   5   6
ATOM      6  C   UNL     1      31.605  24.589  67.394  1.00  0.00     0.000 C 
BRANCH   6   7
ATOM      7  C   UNL     1      32.594  24.417  68.560  1.00  0.00     0.006 C 
BRANCH   7   8
ATOM      8  C   UNL     1      31.889  24.419  69.924  1.00  0.00     0.053 C 
BRANCH   8   9
ATOM      9  C   UNL     1      32.225  25.641  70.723  1.00  0.00     0.041 C 
ATOM     10  O   UNL     1      31.312  26.306  71.278  1.00  0.00    -0.550 OA
ATOM     11  O   UNL     1      33.550  26.026  70.880  1.00  0.00    -0.550 OA
ENDBRANCH   8   9
ENDBRANCH   7   8
ENDBRANCH   6   7
ENDBRANCH   5   6
ENDBRANCH   4   5
ENDBRANCH   3   4
ENDBRANCH   2   3
ENDBRANCH   1   2
BRANCH   1  12
ATOM     12  C   UNL     1      29.865  26.982  62.372  1.00  0.00     0.000 C 
BRANCH  12  13
ATOM     13  C   UNL     1      28.625  26.153  62.765  1.00  0.00    -0.000 C 
BRANCH  13  14
ATOM     14  C   UNL     1      28.583  24.726  62.186  1.00  0.00    -0.000 C 
BRANCH  14  15
ATOM     15  C   UNL     1      27.167  24.159  61.963  1.00  0.00    -0.000 C 
BRANCH  15  16
ATOM     16  C   UNL     1      26.018  25.157  62.203  1.00  0.00    -0.000 C 
BRANCH  16  17
ATOM     17  C   UNL     1      24.785  24.965  61.303  1.00  0.00    -0.000 C 
BRANCH  17  18
ATOM     18  C   UNL     1      23.671  24.148  61.979  1.00  0.00    -0.000 C 
BRANCH  18  19
ATOM     19  C   UNL     1      23.788  24.151  63.512  1.00  0.00    -0.003 C 
ATOM     20  C   UNL     1      22.762  25.063  64.184  1.00  0.00     0.004 C 
ENDBRANCH  18  19
ENDBRANCH  17  18
ENDBRANCH  16  17
ENDBRANCH  15  16
ENDBRANCH  14  15
ENDBRANCH  13  14
ENDBRANCH  12  13
ENDBRANCH   1  12
TORSDOF 16
ENDMDL
MODEL 3
REMARK VINA RESULT:    -4.293      3.355      8.145
REMARK INTER + INTRA:          -9.584
REMARK INTER:                  -8.258
REMARK INTRA:                  -1.325
REMARK UNBOUND:                -1.275
REMARK SMILES CCCCCCCCCCCCCCCCCC(=O)[O-]
REMARK SMILES IDX 10 1 11 2 12 3 13 4 14 5 15 6 16 7 17 8 18 9 19 10 20 11
REMARK SMILES IDX 9 12 8 13 7 14 6 15 5 16 4 17 3 18 2 19 1 20
REMARK H PARENT
REMARK Flexibility Score: inf
ROOT
ATOM      1  C   UNL     1      32.797  25.142  71.145  1.00  0.00     0.000 C 
ENDROOT
BRANCH   1   2
ATOM      2  C   UNL     1      31.465  25.616  70.544  1.00  0.00     0.000 C 
BRANCH   2   3
ATOM      3  C   UNL     1      30.896  24.567  69.576  1.00  0.00     0.000 C 
BRANCH   3   4
ATOM      4  C   UNL     1      31.987  23.890  68.732  1.00  0.00     0.000 C 
BRANCH   4   5
ATOM      5  C   UNL     1      32.063  24.454  67.303  1.00  0.00     0.000 C 
BRANCH   5   6
ATOM      6  C   UNL     1      30.785  24.185  66.492  1.00  0.00     0.000 C 
BRANCH   6   7
ATOM      7  C   UNL     1      30.880  24.713  65.049  1.00  0.00     0.006 C 
BRANCH   7   8
ATOM      8  C   UNL     1      32.334  24.857  64.579  1.00  0.00     0.053 C 
BRANCH   8   9
ATOM      9  C   UNL     1      32.436  25.679  63.331  1.00  0.00     0.041 C 
ATOM     10  O   UNL     1      33.303  25.403  62.460  1.00  0.00    -0.550 OA
ATOM     11  O   UNL     1      31.554  26.730  63.115  1.00  0.00    -0.550 OA
ENDBRANCH   8   9
ENDBRANCH   7   8
ENDBRANCH   6   7
ENDBRANCH   5   6
ENDBRANCH   4   5
ENDBRANCH   3   4
ENDBRANCH   2   3
ENDBRANCH   1   2
BRANCH   1  12
ATOM     12  C   UNL     1      33.807  26.288  71.337  1.00  0.00     0.000 C 
BRANCH  12  13
ATOM     13  C   UNL     1      35.184  26.060  70.683  1.00  0.00    -0.000 C 
BRANCH  13  14
ATOM     14  C   UNL     1      35.156  25.275  69.357  1.00  0.00    -0.000 C 
BRANCH  14  15
ATOM     15  C   UNL     1      36.252  24.201  69.215  1.00  0.00    -0.000 C 
BRANCH  15  16
ATOM     16  C   UNL     1      37.110  23.973  70.476  1.00  0.00    -0.000 C 
BRANCH  16  17
ATOM     17  C   UNL     1      38.603  24.311  70.321  1.00  0.00    -0.000 C 
BRANCH  17  18
ATOM     18  C   UNL     1      39.414  24.041  71.600  1.00  0.00    -0.000 C 
BRANCH  18  19
ATOM     19  C   UNL     1      38.767  24.663  72.848  1.00  0.00    -0.003 C 
ATOM     20  C   UNL     1      39.780  25.360  73.757  1.00  0.00     0.004 C 
ENDBRANCH  18  19
ENDBRANCH  17  18
ENDBRANCH  16  17
ENDBRANCH  15  16
ENDBRANCH  14  15
ENDBRANCH  13  14
ENDBRANCH  12  13
ENDBRANCH   1  12
TORSDOF 16
ENDMDL
MODEL 4
REMARK VINA RESULT:    -4.237      5.496      9.862
REMARK INTER + INTRA:          -9.476
REMARK INTER:                  -8.086
REMARK INTRA:                  -1.389
REMARK UNBOUND:                -1.275
REMARK SMILES CCCCCCCCCCCCCCCCCC(=O)[O-]
REMARK SMILES IDX 10 1 11 2 12 3 13 4 14 5 15 6 16 7 17 8 18 9 19 10 20 11
REMARK SMILES IDX 9 12 8 13 7 14 6 15 5 16 4 17 3 18 2 19 1 20
REMARK H PARENT
REMARK Flexibility Score: inf
ROOT
ATOM      1  C   UNL     1      32.694  25.868  63.053  1.00  0.00     0.000 C 
ENDROOT
BRANCH   1   2
ATOM      2  C   UNL     1      31.620  26.844  63.556  1.00  0.00     0.000 C 
BRANCH   2   3
ATOM      3  C   UNL     1      30.686  27.269  62.412  1.00  0.00     0.000 C 
BRANCH   3   4
ATOM      4  C   UNL     1      29.219  27.379  62.859  1.00  0.00     0.000 C 
BRANCH   4   5
ATOM      5  C   UNL     1      28.624  26.020  63.269  1.00  0.00     0.000 C 
BRANCH   5   6
ATOM      6  C   UNL     1      28.620  25.004  62.116  1.00  0.00     0.000 C 
BRANCH   6   7
ATOM      7  C   UNL     1      27.229  24.389  61.877  1.00  0.00     0.006 C 
BRANCH   7   8
ATOM      8  C   UNL     1      26.098  25.306  62.362  1.00  0.00     0.053 C 
BRANCH   8   9
ATOM      9  C   UNL     1      24.853  25.133  61.547  1.00  0.00     0.041 C 
ATOM     10  O   UNL     1      24.072  24.173  61.781  1.00  0.00    -0.550 OA
ATOM     11  O   UNL     1      24.539  26.048  60.551  1.00  0.00    -0.550 OA
ENDBRANCH   8   9
ENDBRANCH   7   8
ENDBRANCH   6   7
ENDBRANCH   5   6
ENDBRANCH   4   5
ENDBRANCH   3   4
ENDBRANCH   2   3
ENDBRANCH   1   2
BRANCH   1  12
ATOM     12  C   UNL     1      32.200  24.410  63.003  1.00  0.00     0.000 C 
BRANCH  12  13
ATOM     13  C   UNL     1      31.608  23.876  64.323  1.00  0.00    -0.000 C 
BRANCH  13  14
ATOM     14  C   UNL     1      32.521  24.024  65.555  1.00  0.00    -0.000 C 
BRANCH  14  15
ATOM     15  C   UNL     1      31.828  24.583  66.813  1.00  0.00    -0.000 C 
BRANCH  15  16
ATOM     16  C   UNL     1      32.573  24.325  68.138  1.00  0.00    -0.000 C 
BRANCH  16  17
ATOM     17  C   UNL     1      34.109  24.342  68.040  1.00  0.00    -0.000 C 
BRANCH  17  18
ATOM     18  C   UNL     1      34.789  24.716  69.368  1.00  0.00    -0.000 C 
BRANCH  18  19
ATOM     19  C   UNL     1      33.843  25.459  70.324  1.00  0.00    -0.003 C 
ATOM     20  C   UNL     1      34.513  26.645  71.020  1.00  0.00     0.004 C 
ENDBRANCH  18  19
ENDBRANCH  17  18
ENDBRANCH  16  17
ENDBRANCH  15  16
ENDBRANCH  14  15
ENDBRANCH  13  14
ENDBRANCH  12  13
ENDBRANCH   1  12
TORSDOF 16
ENDMDL
MODEL 5
REMARK VINA RESULT:    -4.234      2.569      5.680
REMARK INTER + INTRA:          -9.470
REMARK INTER:                  -8.618
REMARK INTRA:                  -0.853
REMARK UNBOUND:                -1.275
REMARK SMILES CCCCCCCCCCCCCCCCCC(=O)[O-]
REMARK SMILES IDX 10 1 11 2 12 3 13 4 14 5 15 6 16 7 17 8 18 9 19 10 20 11
REMARK SMILES IDX 9 12 8 13 7 14 6 15 5 16 4 17 3 18 2 19 1 20
REMARK H PARENT
REMARK Flexibility Score: inf
ROOT
ATOM      1  C   UNL     1      31.954  27.635  62.649  1.00  0.00     0.000 C 
ENDROOT
BRANCH   1   2
ATOM      2  C   UNL     1      32.715  26.306  62.768  1.00  0.00     0.000 C 
BRANCH   2   3
ATOM      3  C   UNL     1      31.950  25.313  63.656  1.00  0.00     0.000 C 
BRANCH   3   4
ATOM      4  C   UNL     1      32.883  24.322  64.371  1.00  0.00     0.000 C 
BRANCH   4   5
ATOM      5  C   UNL     1      32.839  24.471  65.902  1.00  0.00     0.000 C 
BRANCH   5   6
ATOM      6  C   UNL     1      34.122  23.967  66.582  1.00  0.00     0.000 C 
BRANCH   6   7
ATOM      7  C   UNL     1      34.148  24.271  68.091  1.00  0.00     0.006 C 
BRANCH   7   8
ATOM      8  C   UNL     1      35.578  24.330  68.646  1.00  0.00     0.053 C 
BRANCH   8   9
ATOM      9  C   UNL     1      35.612  24.888  70.037  1.00  0.00     0.041 C 
ATOM     10  O   UNL     1      36.528  24.550  70.832  1.00  0.00    -0.550 OA
ATOM     11  O   UNL     1      34.651  25.804  70.443  1.00  0.00    -0.550 OA
ENDBRANCH   8   9
ENDBRANCH   7   8
ENDBRANCH   6   7
ENDBRANCH   5   6
ENDBRANCH   4   5
ENDBRANCH   3   4
ENDBRANCH   2   3
ENDBRANCH   1   2
BRANCH   1  12
ATOM     12  C   UNL     1      30.623  27.633  63.422  1.00  0.00     0.000 C 
BRANCH  12  13
ATOM     13  C   UNL     1      29.366  27.407  62.558  1.00  0.00    -0.000 C 
BRANCH  13  14
ATOM     14  C   UNL     1      28.432  26.283  63.045  1.00  0.00    -0.000 C 
BRANCH  14  15
ATOM     15  C   UNL     1      28.523  24.970  62.243  1.00  0.00    -0.000 C 
BRANCH  15  16
ATOM     16  C   UNL     1      27.171  24.288  61.953  1.00  0.00    -0.000 C 
BRANCH  16  17
ATOM     17  C   UNL     1      25.934  25.188  62.120  1.00  0.00    -0.000 C 
BRANCH  17  18
ATOM     18  C   UNL     1      24.667  24.587  61.489  1.00  0.00    -0.000 C 
BRANCH  18  19
ATOM     19  C   UNL     1      23.711  23.994  62.537  1.00  0.00    -0.003 C 
ATOM     20  C   UNL     1      23.369  24.982  63.653  1.00  0.00     0.004 C 
ENDBRANCH  18  19
ENDBRANCH  17  18
ENDBRANCH  16  17
ENDBRANCH  15  16
ENDBRANCH  14  15
ENDBRANCH  13  14
ENDBRANCH  12  13
ENDBRANCH   1  12
TORSDOF 16
ENDMDL
MODEL 6
REMARK VINA RESULT:    -4.227      5.480      9.917
REMARK INTER + INTRA:          -9.456
REMARK INTER:                  -8.267
REMARK INTRA:                  -1.189
REMARK UNBOUND:                -1.275
REMARK SMILES CCCCCCCCCCCCCCCCCC(=O)[O-]
REMARK SMILES IDX 10 1 11 2 12 3 13 4 14 5 15 6 16 7 17 8 18 9 19 10 20 11
REMARK SMILES IDX 9 12 8 13 7 14 6 15 5 16 4 17 3 18 2 19 1 20
REMARK H PARENT
REMARK Flexibility Score: inf
ROOT
ATOM      1  C   UNL     1      33.100  24.623  65.801  1.00  0.00     0.000 C 
ENDROOT
BRANCH   1   2
ATOM      2  C   UNL     1      32.751  24.880  64.327  1.00  0.00     0.000 C 
BRANCH   2   3
ATOM      3  C   UNL     1      31.239  24.752  64.090  1.00  0.00     0.000 C 
BRANCH   3   4
ATOM      4  C   UNL     1      30.665  25.934  63.292  1.00  0.00     0.000 C 
BRANCH   4   5
ATOM      5  C   UNL     1      29.133  26.031  63.402  1.00  0.00     0.000 C 
BRANCH   5   6
ATOM      6  C   UNL     1      28.409  25.166  62.358  1.00  0.00     0.000 C 
BRANCH   6   7
ATOM      7  C   UNL     1      26.934  25.566  62.181  1.00  0.00     0.006 C 
BRANCH   7   8
ATOM      8  C   UNL     1      26.051  24.372  61.792  1.00  0.00     0.053 C 
BRANCH   8   9
ATOM      9  C   UNL     1      24.638  24.790  61.523  1.00  0.00     0.041 C 
ATOM     10  O   UNL     1      23.679  24.116  61.985  1.00  0.00    -0.550 OA
ATOM     11  O   UNL     1      24.379  25.940  60.788  1.00  0.00    -0.550 OA
ENDBRANCH   8   9
ENDBRANCH   7   8
ENDBRANCH   6   7
ENDBRANCH   5   6
ENDBRANCH   4   5
ENDBRANCH   3   4
ENDBRANCH   2   3
ENDBRANCH   1   2
BRANCH   1  12
ATOM     12  C   UNL     1      31.878  24.206  66.640  1.00  0.00     0.000 C 
BRANCH  12  13
ATOM     13  C   UNL     1      32.176  23.909  68.123  1.00  0.00    -0.000 C 
BRANCH  13  14
ATOM     14  C   UNL     1      31.288  24.665  69.131  1.00  0.00    -0.000 C 
BRANCH  14  15
ATOM     15  C   UNL     1      31.852  24.742  70.563  1.00  0.00    -0.000 C 
BRANCH  15  16
ATOM     16  C   UNL     1      32.281  26.150  71.021  1.00  0.00    -0.000 C 
BRANCH  16  17
ATOM     17  C   UNL     1      33.795  26.424  70.964  1.00  0.00    -0.000 C 
BRANCH  17  18
ATOM     18  C   UNL     1      34.622  25.158  70.681  1.00  0.00    -0.000 C 
BRANCH  18  19
ATOM     19  C   UNL     1      35.380  25.237  69.346  1.00  0.00    -0.003 C 
ATOM     20  C   UNL     1      35.906  23.878  68.882  1.00  0.00     0.004 C 
ENDBRANCH  18  19
ENDBRANCH  17  18
ENDBRANCH  16  17
ENDBRANCH  15  16
ENDBRANCH  14  15
ENDBRANCH  13  14
ENDBRANCH  12  13
ENDBRANCH   1  12
TORSDOF 16
ENDMDL
MODEL 7
REMARK VINA RESULT:    -3.870      2.632      5.034
REMARK INTER + INTRA:          -8.765
REMARK INTER:                  -7.891
REMARK INTRA:                  -0.874
REMARK UNBOUND:                -1.275
REMARK SMILES CCCCCCCCCCCCCCCCCC(=O)[O-]
REMARK SMILES IDX 10 1 11 2 12 3 13 4 14 5 15 6 16 7 17 8 18 9 19 10 20 11
REMARK SMILES IDX 9 12 8 13 7 14 6 15 5 16 4 17 3 18 2 19 1 20
REMARK H PARENT
REMARK Flexibility Score: inf
ROOT
ATOM      1  C   UNL     1      30.768  24.126  64.045  1.00  0.00     0.000 C 
ENDROOT
BRANCH   1   2
ATOM      2  C   UNL     1      30.748  24.340  65.566  1.00  0.00     0.000 C 
BRANCH   2   3
ATOM      3  C   UNL     1      32.158  24.641  66.096  1.00  0.00     0.000 C 
BRANCH   3   4
ATOM      4  C   UNL     1      32.368  24.136  67.532  1.00  0.00     0.000 C 
BRANCH   4   5
ATOM      5  C   UNL     1      31.166  24.437  68.445  1.00  0.00     0.000 C 
BRANCH   5   6
ATOM      6  C   UNL     1      31.527  24.377  69.938  1.00  0.00     0.000 C 
BRANCH   6   7
ATOM      7  C   UNL     1      31.730  25.773  70.553  1.00  0.00     0.006 C 
BRANCH   7   8
ATOM      8  C   UNL     1      32.952  25.827  71.480  1.00  0.00     0.053 C 
BRANCH   8   9
ATOM      9  C   UNL     1      34.201  26.185  70.733  1.00  0.00     0.041 C 
ATOM     10  O   UNL     1      34.628  25.434  69.816  1.00  0.00    -0.550 OA
ATOM     11  O   UNL     1      34.876  27.362  71.029  1.00  0.00    -0.550 OA
ENDBRANCH   8   9
ENDBRANCH   7   8
ENDBRANCH   6   7
ENDBRANCH   5   6
ENDBRANCH   4   5
ENDBRANCH   3   4
ENDBRANCH   2   3
ENDBRANCH   1   2
BRANCH   1  12
ATOM     12  C   UNL     1      31.302  25.348  63.276  1.00  0.00     0.000 C 
BRANCH  12  13
ATOM     13  C   UNL     1      30.316  26.528  63.160  1.00  0.00    -0.000 C 
BRANCH  13  14
ATOM     14  C   UNL     1      28.829  26.153  63.306  1.00  0.00    -0.000 C 
BRANCH  14  15
ATOM     15  C   UNL     1      28.161  25.635  62.018  1.00  0.00    -0.000 C 
BRANCH  15  16
ATOM     16  C   UNL     1      27.642  24.185  62.089  1.00  0.00    -0.000 C 
BRANCH  16  17
ATOM     17  C   UNL     1      26.188  23.986  61.625  1.00  0.00    -0.000 C 
BRANCH  17  18
ATOM     18  C   UNL     1      25.234  25.064  62.168  1.00  0.00    -0.000 C 
BRANCH  18  19
ATOM     19  C   UNL     1      23.868  24.488  62.576  1.00  0.00    -0.003 C 
ATOM     20  C   UNL     1      23.392  24.996  63.937  1.00  0.00     0.004 C 
ENDBRANCH  18  19
ENDBRANCH  17  18
ENDBRANCH  16  17
ENDBRANCH  15  16
ENDBRANCH  14  15
ENDBRANCH  13  14
ENDBRANCH  12  13
ENDBRANCH   1  12
TORSDOF 16
ENDMDL
MODEL 8
REMARK VINA RESULT:    -3.577      1.920      3.221
REMARK INTER + INTRA:          -8.197
REMARK INTER:                  -7.334
REMARK INTRA:                  -0.863
REMARK UNBOUND:                -1.275
REMARK SMILES CCCCCCCCCCCCCCCCCC(=O)[O-]
REMARK SMILES IDX 10 1 11 2 12 3 13 4 14 5 15 6 16 7 17 8 18 9 19 10 20 11
REMARK SMILES IDX 9 12 8 13 7 14 6 15 5 16 4 17 3 18 2 19 1 20
REMARK H PARENT
REMARK Flexibility Score: inf
ROOT
ATOM      1  C   UNL     1      31.600  24.820  66.659  1.00  0.00     0.000 C 
ENDROOT
BRANCH   1   2
ATOM      2  C   UNL     1      31.775  23.876  67.858  1.00  0.00     0.000 C 
BRANCH   2   3
ATOM      3  C   UNL     1      30.580  23.981  68.818  1.00  0.00     0.000 C 
BRANCH   3   4
ATOM      4  C   UNL     1      30.952  24.651  70.150  1.00  0.00     0.000 C 
BRANCH   4   5
ATOM      5  C   UNL     1      32.442  24.485  70.498  1.00  0.00     0.000 C 
BRANCH   5   6
ATOM      6  C   UNL     1      33.045  25.748  71.135  1.00  0.00     0.000 C 
BRANCH   6   7
ATOM      7  C   UNL     1      34.372  26.165  70.475  1.00  0.00     0.006 C 
BRANCH   7   8
ATOM      8  C   UNL     1      35.492  25.149  70.733  1.00  0.00     0.053 C 
BRANCH   8   9
ATOM      9  C   UNL     1      36.112  24.667  69.456  1.00  0.00     0.041 C 
ATOM     10  O   UNL     1      37.335  24.368  69.418  1.00  0.00    -0.550 OA
ATOM     11  O   UNL     1      35.331  24.518  68.317  1.00  0.00    -0.550 OA
ENDBRANCH   8   9
ENDBRANCH   7   8
ENDBRANCH   6   7
ENDBRANCH   5   6
ENDBRANCH   4   5
ENDBRANCH   3   4
ENDBRANCH   2   3
ENDBRANCH   1   2
BRANCH   1  12
ATOM     12  C   UNL     1      32.772  24.744  65.663  1.00  0.00     0.000 C 
BRANCH  12  13
ATOM     13  C   UNL     1      32.377  24.377  64.218  1.00  0.00    -0.000 C 
BRANCH  13  14
ATOM     14  C   UNL     1      31.527  25.432  63.485  1.00  0.00    -0.000 C 
BRANCH  14  15
ATOM     15  C   UNL     1      30.003  25.257  63.636  1.00  0.00    -0.000 C 
BRANCH  15  16
ATOM     16  C   UNL     1      29.298  24.608  62.428  1.00  0.00    -0.000 C 
BRANCH  16  17
ATOM     17  C   UNL     1      27.998  25.301  61.980  1.00  0.00    -0.000 C 
BRANCH  17  18
ATOM     18  C   UNL     1      26.813  24.328  61.861  1.00  0.00    -0.000 C 
BRANCH  18  19
ATOM     19  C   UNL     1      25.519  24.901  62.461  1.00  0.00    -0.003 C 
ATOM     20  C   UNL     1      24.279  24.563  61.632  1.00  0.00     0.004 C 
ENDBRANCH  18  19
ENDBRANCH  17  18
ENDBRANCH  16  17
ENDBRANCH  15  16
ENDBRANCH  14  15
ENDBRANCH  13  14
ENDBRANCH  12  13
ENDBRANCH   1  12
TORSDOF 16
ENDMDL
MODEL 9
REMARK VINA RESULT:    -3.566      4.074      8.110
REMARK INTER + INTRA:          -8.177
REMARK INTER:                  -6.874
REMARK INTRA:                  -1.303
REMARK UNBOUND:                -1.275
REMARK SMILES CCCCCCCCCCCCCCCCCC(=O)[O-]
REMARK SMILES IDX 10 1 11 2 12 3 13 4 14 5 15 6 16 7 17 8 18 9 19 10 20 11
REMARK SMILES IDX 9 12 8 13 7 14 6 15 5 16 4 17 3 18 2 19 1 20
REMARK H PARENT
REMARK Flexibility Score: inf
ROOT
ATOM      1  C   UNL     1      33.742  24.185  67.639  1.00  0.00     0.000 C 
ENDROOT
BRANCH   1   2
ATOM      2  C   UNL     1      33.651  23.969  66.121  1.00  0.00     0.000 C 
BRANCH   2   3
ATOM      3  C   UNL     1      32.186  23.892  65.665  1.00  0.00     0.000 C 
BRANCH   3   4
ATOM      4  C   UNL     1      32.037  24.010  64.139  1.00  0.00     0.000 C 
BRANCH   4   5
ATOM      5  C   UNL     1      33.145  24.868  63.503  1.00  0.00     0.000 C 
BRANCH   5   6
ATOM      6  C   UNL     1      32.596  25.883  62.487  1.00  0.00     0.000 C 
BRANCH   6   7
ATOM      7  C   UNL     1      31.815  27.026  63.159  1.00  0.00     0.006 C 
BRANCH   7   8
ATOM      8  C   UNL     1      30.596  27.459  62.333  1.00  0.00     0.053 C 
BRANCH   8   9
ATOM      9  C   UNL     1      29.341  26.784  62.799  1.00  0.00     0.041 C 
ATOM     10  O   UNL     1      28.510  27.412  63.506  1.00  0.00    -0.550 OA
ATOM     11  O   UNL     1      29.077  25.473  62.427  1.00  0.00    -0.550 OA
ENDBRANCH   8   9
ENDBRANCH   7   8
ENDBRANCH   6   7
ENDBRANCH   5   6
ENDBRANCH   4   5
ENDBRANCH   3   4
ENDBRANCH   2   3
ENDBRANCH   1   2
BRANCH   1  12
ATOM     12  C   UNL     1      35.142  23.878  68.203  1.00  0.00     0.000 C 
BRANCH  12  13
ATOM     13  C   UNL     1      35.579  24.769  69.383  1.00  0.00    -0.000 C 
BRANCH  13  14
ATOM     14  C   UNL     1      34.792  26.085  69.534  1.00  0.00    -0.000 C 
BRANCH  14  15
ATOM     15  C   UNL     1      34.553  26.535  70.989  1.00  0.00    -0.000 C 
BRANCH  15  16
ATOM     16  C   UNL     1      33.504  25.712  71.762  1.00  0.00    -0.000 C 
BRANCH  16  17
ATOM     17  C   UNL     1      32.046  26.168  71.575  1.00  0.00    -0.000 C 
BRANCH  17  18
ATOM     18  C   UNL     1      31.501  25.867  70.168  1.00  0.00    -0.000 C 
BRANCH  18  19
ATOM     19  C   UNL     1      30.934  24.443  70.050  1.00  0.00    -0.003 C 
ATOM     20  C   UNL     1      30.471  23.876  71.392  1.00  0.00     0.004 C 
ENDBRANCH  18  19
ENDBRANCH  17  18
ENDBRANCH  16  17
ENDBRANCH  15  16
ENDBRANCH  14  15
ENDBRANCH  13  14
ENDBRANCH  12  13
ENDBRANCH   1  12
TORSDOF 16
ENDMDL
