MODEL 1
REMARK VINA RESULT:    -3.616      0.000      0.000
REMARK INTER + INTRA:          -8.599
REMARK INTER:                  -6.788
REMARK INTRA:                  -1.811
REMARK UNBOUND:                -1.811
REMARK SMILES O=C([O-])CCCCCCCCCCCCCCC(=O)[O-]
REMARK SMILES IDX 10 1 9 2 8 3 7 4 6 5 5 6 4 7 2 8 1 9 3 10 11 11 12 12 13 13
REMARK SMILES IDX 14 14 15 15 16 16 17 17 18 18 19 19 20 20
REMARK H PARENT
REMARK Flexibility Score: inf
ROOT
ATOM      1  C   UNL     1     -19.936  32.709  23.424  1.00  0.00     0.000 C 
ENDROOT
BRANCH   1   2
ATOM      2  C   UNL     1     -21.142  31.878  23.883  1.00  0.00     0.000 C 
BRANCH   2   3
ATOM      3  C   UNL     1     -22.391  32.224  23.063  1.00  0.00     0.000 C 
BRANCH   3   4
ATOM      4  C   UNL     1     -22.044  32.416  21.582  1.00  0.00     0.000 C 
BRANCH   4   5
ATOM      5  C   UNL     1     -23.297  32.738  20.759  1.00  0.00     0.000 C 
BRANCH   5   6
ATOM      6  C   UNL     1     -23.308  34.208  20.326  1.00  0.00     0.006 C 
BRANCH   6   7
ATOM      7  C   UNL     1     -21.959  34.876  20.612  1.00  0.00     0.053 C 
BRANCH   7   8
ATOM      8  C   UNL     1     -22.118  35.963  21.627  1.00  0.00     0.041 C 
ATOM      9  O   UNL     1     -21.856  35.741  22.838  1.00  0.00    -0.550 OA
ATOM     10  O   UNL     1     -22.602  37.208  21.243  1.00  0.00    -0.550 OA
ENDBRANCH   7   8
ENDBRANCH   6   7
ENDBRANCH   5   6
ENDBRANCH   4   5
ENDBRANCH   3   4
ENDBRANCH   2   3
ENDBRANCH   1   2
BRANCH   1  11
ATOM     11  C   UNL     1     -18.591  32.008  23.691  1.00  0.00     0.000 C 
BRANCH  11  12
ATOM     12  C   UNL     1     -18.697  30.509  24.035  1.00  0.00     0.000 C 
BRANCH  12  13
ATOM     13  C   UNL     1     -17.623  29.610  23.390  1.00  0.00     0.000 C 
BRANCH  13  14
ATOM     14  C   UNL     1     -17.989  29.063  21.998  1.00  0.00     0.000 C 
BRANCH  14  15
ATOM     15  C   UNL     1     -19.500  29.121  21.716  1.00  0.00     0.000 C 
BRANCH  15  16
ATOM     16  C   UNL     1     -19.822  29.780  20.366  1.00  0.00     0.006 C 
BRANCH  16  17
ATOM     17  C   UNL     1     -20.336  28.775  19.328  1.00  0.00     0.053 C 
BRANCH  17  18
ATOM     18  C   UNL     1     -21.772  28.444  19.587  1.00  0.00     0.041 C 
ATOM     19  O   UNL     1     -22.592  29.357  19.868  1.00  0.00    -0.550 OA
ATOM     20  O   UNL     1     -22.195  27.121  19.569  1.00  0.00    -0.550 OA
ENDBRANCH  17  18
ENDBRANCH  16  17
ENDBRANCH  15  16
ENDBRANCH  14  15
ENDBRANCH  13  14
ENDBRANCH  12  13
ENDBRANCH  11  12
ENDBRANCH   1  11
TORSDOF 15
ENDMDL
MODEL 2
REMARK VINA RESULT:    -3.551      1.360      5.458
REMARK INTER + INTRA:          -8.476
REMARK INTER:                  -7.022
REMARK INTRA:                  -1.454
REMARK UNBOUND:                -1.811
REMARK SMILES O=C([O-])CCCCCCCCCCCCCCC(=O)[O-]
REMARK SMILES IDX 10 1 9 2 8 3 7 4 6 5 5 6 4 7 2 8 1 9 3 10 11 11 12 12 13 13
REMARK SMILES IDX 14 14 15 15 16 16 17 17 18 18 19 19 20 20
REMARK H PARENT
REMARK Flexibility Score: inf
ROOT
ATOM      1  C   UNL     1     -18.104  28.685  22.165  1.00  0.00     0.000 C 
ENDROOT
BRANCH   1   2
ATOM      2  C   UNL     1     -19.567  28.931  21.773  1.00  0.00     0.000 C 
BRANCH   2   3
ATOM      3  C   UNL     1     -19.660  29.708  20.454  1.00  0.00     0.000 C 
BRANCH   3   4
ATOM      4  C   UNL     1     -20.272  28.843  19.346  1.00  0.00     0.000 C 
BRANCH   4   5
ATOM      5  C   UNL     1     -20.949  27.597  19.930  1.00  0.00     0.000 C 
BRANCH   5   6
ATOM      6  C   UNL     1     -22.473  27.683  19.792  1.00  0.00     0.006 C 
BRANCH   6   7
ATOM      7  C   UNL     1     -22.902  29.063  19.283  1.00  0.00     0.053 C 
BRANCH   7   8
ATOM      8  C   UNL     1     -23.511  29.863  20.391  1.00  0.00     0.041 C 
ATOM      9  O   UNL     1     -23.579  31.117  20.304  1.00  0.00    -0.550 OA
ATOM     10  O   UNL     1     -23.961  29.227  21.542  1.00  0.00    -0.550 OA
ENDBRANCH   7   8
ENDBRANCH   6   7
ENDBRANCH   5   6
ENDBRANCH   4   5
ENDBRANCH   3   4
ENDBRANCH   2   3
ENDBRANCH   1   2
BRANCH   1  11
ATOM     11  C   UNL     1     -17.623  29.615  23.294  1.00  0.00     0.000 C 
BRANCH  11  12
ATOM     12  C   UNL     1     -18.725  30.481  23.936  1.00  0.00     0.000 C 
BRANCH  12  13
ATOM     13  C   UNL     1     -18.364  31.968  24.125  1.00  0.00     0.000 C 
BRANCH  13  14
ATOM     14  C   UNL     1     -19.260  32.954  23.354  1.00  0.00     0.000 C 
BRANCH  14  15
ATOM     15  C   UNL     1     -20.693  32.430  23.163  1.00  0.00     0.000 C 
BRANCH  15  16
ATOM     16  C   UNL     1     -21.439  33.153  22.031  1.00  0.00     0.006 C 
BRANCH  16  17
ATOM     17  C   UNL     1     -21.536  34.666  22.261  1.00  0.00     0.053 C 
BRANCH  17  18
ATOM     18  C   UNL     1     -22.106  35.343  21.055  1.00  0.00     0.041 C 
ATOM     19  O   UNL     1     -22.578  36.507  21.145  1.00  0.00    -0.550 OA
ATOM     20  O   UNL     1     -22.164  34.669  19.842  1.00  0.00    -0.550 OA
ENDBRANCH  17  18
ENDBRANCH  16  17
ENDBRANCH  15  16
ENDBRANCH  14  15
ENDBRANCH  13  14
ENDBRANCH  12  13
ENDBRANCH  11  12
ENDBRANCH   1  11
TORSDOF 15
ENDMDL
MODEL 3
REMARK VINA RESULT:    -3.480      6.552     10.432
REMARK INTER + INTRA:          -8.343
REMARK INTER:                  -7.707
REMARK INTRA:                  -0.636
REMARK UNBOUND:                -1.811
REMARK SMILES O=C([O-])CCCCCCCCCCCCCCC(=O)[O-]
REMARK SMILES IDX 10 1 9 2 8 3 7 4 6 5 5 6 4 7 2 8 1 9 3 10 11 11 12 12 13 13
REMARK SMILES IDX 14 14 15 15 16 16 17 17 18 18 19 19 20 20
REMARK H PARENT
REMARK Flexibility Score: inf
ROOT
ATOM      1  C   UNL     1     -19.168  23.721  16.400  1.00  0.00     0.000 C 
ENDROOT
BRANCH   1   2
ATOM      2  C   UNL     1     -20.253  23.592  15.321  1.00  0.00     0.000 C 
BRANCH   2   3
ATOM      3  C   UNL     1     -19.816  24.273  14.018  1.00  0.00     0.000 C 
BRANCH   3   4
ATOM      4  C   UNL     1     -20.456  23.596  12.801  1.00  0.00     0.000 C 
BRANCH   4   5
ATOM      5  C   UNL     1     -21.985  23.700  12.852  1.00  0.00     0.000 C 
BRANCH   5   6
ATOM      6  C   UNL     1     -22.606  23.351  11.495  1.00  0.00     0.006 C 
BRANCH   6   7
ATOM      7  C   UNL     1     -23.449  24.513  10.961  1.00  0.00     0.053 C 
BRANCH   7   8
ATOM      8  C   UNL     1     -22.583  25.504  10.250  1.00  0.00     0.041 C 
ATOM      9  O   UNL     1     -21.519  25.129   9.691  1.00  0.00    -0.550 OA
ATOM     10  O   UNL     1     -22.927  26.851  10.244  1.00  0.00    -0.550 OA
ENDBRANCH   7   8
ENDBRANCH   6   7
ENDBRANCH   5   6
ENDBRANCH   4   5
ENDBRANCH   3   4
ENDBRANCH   2   3
ENDBRANCH   1   2
BRANCH   1  11
ATOM     11  C   UNL     1     -19.628  23.203  17.774  1.00  0.00     0.000 C 
BRANCH  11  12
ATOM     12  C   UNL     1     -18.574  23.309  18.894  1.00  0.00     0.000 C 
BRANCH  12  13
ATOM     13  C   UNL     1     -18.907  24.314  20.016  1.00  0.00     0.000 C 
BRANCH  13  14
ATOM     14  C   UNL     1     -20.018  25.322  19.672  1.00  0.00     0.000 C 
BRANCH  14  15
ATOM     15  C   UNL     1     -19.871  26.649  20.436  1.00  0.00     0.000 C 
BRANCH  15  16
ATOM     16  C   UNL     1     -20.533  27.827  19.704  1.00  0.00     0.006 C 
BRANCH  16  17
ATOM     17  C   UNL     1     -19.857  29.168  20.013  1.00  0.00     0.053 C 
BRANCH  17  18
ATOM     18  C   UNL     1     -20.718  29.991  20.919  1.00  0.00     0.041 C 
ATOM     19  O   UNL     1     -20.196  30.693  21.824  1.00  0.00    -0.550 OA
ATOM     20  O   UNL     1     -22.101  29.941  20.797  1.00  0.00    -0.550 OA
ENDBRANCH  17  18
ENDBRANCH  16  17
ENDBRANCH  15  16
ENDBRANCH  14  15
ENDBRANCH  13  14
ENDBRANCH  12  13
ENDBRANCH  11  12
ENDBRANCH   1  11
TORSDOF 15
ENDMDL
MODEL 4
REMARK VINA RESULT:    -3.403      2.337      7.066
REMARK INTER + INTRA:          -8.199
REMARK INTER:                  -5.647
REMARK INTRA:                  -2.551
REMARK UNBOUND:                -1.811
REMARK SMILES O=C([O-])CCCCCCCCCCCCCCC(=O)[O-]
REMARK SMILES IDX 10 1 9 2 8 3 7 4 6 5 5 6 4 7 2 8 1 9 3 10 11 11 12 12 13 13
REMARK SMILES IDX 14 14 15 15 16 16 17 17 18 18 19 19 20 20
REMARK H PARENT
REMARK Flexibility Score: inf
ROOT
ATOM      1  C   UNL     1     -20.408  28.620  19.219  1.00  0.00     0.000 C 
ENDROOT
BRANCH   1   2
ATOM      2  C   UNL     1     -21.929  28.822  19.270  1.00  0.00     0.000 C 
BRANCH   2   3
ATOM      3  C   UNL     1     -22.633  27.567  19.799  1.00  0.00     0.000 C 
BRANCH   3   4
ATOM      4  C   UNL     1     -23.023  27.734  21.273  1.00  0.00     0.000 C 
BRANCH   4   5
ATOM      5  C   UNL     1     -22.101  26.915  22.183  1.00  0.00     0.000 C 
BRANCH   5   6
ATOM      6  C   UNL     1     -21.506  25.719  21.431  1.00  0.00     0.006 C 
BRANCH   6   7
ATOM      7  C   UNL     1     -19.989  25.640  21.636  1.00  0.00     0.053 C 
BRANCH   7   8
ATOM      8  C   UNL     1     -19.323  25.104  20.409  1.00  0.00     0.041 C 
ATOM      9  O   UNL     1     -19.923  25.123  19.303  1.00  0.00    -0.550 OA
ATOM     10  O   UNL     1     -18.055  24.541  20.495  1.00  0.00    -0.550 OA
ENDBRANCH   7   8
ENDBRANCH   6   7
ENDBRANCH   5   6
ENDBRANCH   4   5
ENDBRANCH   3   4
ENDBRANCH   2   3
ENDBRANCH   1   2
BRANCH   1  11
ATOM     11  C   UNL     1     -19.639  29.657  20.057  1.00  0.00     0.000 C 
BRANCH  11  12
ATOM     12  C   UNL     1     -19.226  29.179  21.463  1.00  0.00     0.000 C 
BRANCH  12  13
ATOM     13  C   UNL     1     -19.900  29.922  22.634  1.00  0.00     0.000 C 
BRANCH  13  14
ATOM     14  C   UNL     1     -20.619  31.226  22.244  1.00  0.00     0.000 C 
BRANCH  14  15
ATOM     15  C   UNL     1     -22.150  31.112  22.343  1.00  0.00     0.000 C 
BRANCH  15  16
ATOM     16  C   UNL     1     -22.871  31.856  21.208  1.00  0.00     0.006 C 
BRANCH  16  17
ATOM     17  C   UNL     1     -23.313  33.267  21.615  1.00  0.00     0.053 C 
BRANCH  17  18
ATOM     18  C   UNL     1     -22.374  34.290  21.057  1.00  0.00     0.041 C 
ATOM     19  O   UNL     1     -21.452  34.762  21.773  1.00  0.00    -0.550 OA
ATOM     20  O   UNL     1     -22.551  34.762  19.762  1.00  0.00    -0.550 OA
ENDBRANCH  17  18
ENDBRANCH  16  17
ENDBRANCH  15  16
ENDBRANCH  14  15
ENDBRANCH  13  14
ENDBRANCH  12  13
ENDBRANCH  11  12
ENDBRANCH   1  11
TORSDOF 15
ENDMDL
MODEL 5
REMARK VINA RESULT:    -3.354      2.458      4.010
REMARK INTER + INTRA:          -8.107
REMARK INTER:                  -6.463
REMARK INTRA:                  -1.644
REMARK UNBOUND:                -1.811
REMARK SMILES O=C([O-])CCCCCCCCCCCCCCC(=O)[O-]
REMARK SMILES IDX 10 1 9 2 8 3 7 4 6 5 5 6 4 7 2 8 1 9 3 10 11 11 12 12 13 13
REMARK SMILES IDX 14 14 15 15 16 16 17 17 18 18 19 19 20 20
REMARK H PARENT
REMARK Flexibility Score: inf
ROOT
ATOM      1  C   UNL     1     -21.695  28.015  20.124  1.00  0.00     0.000 C 
ENDROOT
BRANCH   1   2
ATOM      2  C   UNL     1     -23.176  28.418  20.095  1.00  0.00     0.000 C 
BRANCH   2   3
ATOM      3  C   UNL     1     -23.350  29.831  19.526  1.00  0.00     0.000 C 
BRANCH   3   4
ATOM      4  C   UNL     1     -23.980  30.769  20.562  1.00  0.00     0.000 C 
BRANCH   4   5
ATOM      5  C   UNL     1     -23.006  31.883  20.961  1.00  0.00     0.000 C 
BRANCH   5   6
ATOM      6  C   UNL     1     -23.700  33.250  20.958  1.00  0.00     0.006 C 
BRANCH   6   7
ATOM      7  C   UNL     1     -22.888  34.277  20.162  1.00  0.00     0.053 C 
BRANCH   7   8
ATOM      8  C   UNL     1     -22.222  35.246  21.087  1.00  0.00     0.041 C 
ATOM      9  O   UNL     1     -22.390  36.484  20.934  1.00  0.00    -0.550 OA
ATOM     10  O   UNL     1     -21.377  34.784  22.088  1.00  0.00    -0.550 OA
ENDBRANCH   7   8
ENDBRANCH   6   7
ENDBRANCH   5   6
ENDBRANCH   4   5
ENDBRANCH   3   4
ENDBRANCH   2   3
ENDBRANCH   1   2
BRANCH   1  11
ATOM     11  C   UNL     1     -20.802  28.959  19.299  1.00  0.00     0.000 C 
BRANCH  11  12
ATOM     12  C   UNL     1     -19.666  29.636  20.090  1.00  0.00     0.000 C 
BRANCH  12  13
ATOM     13  C   UNL     1     -20.032  30.071  21.523  1.00  0.00     0.000 C 
BRANCH  13  14
ATOM     14  C   UNL     1     -19.095  29.539  22.621  1.00  0.00     0.000 C 
BRANCH  14  15
ATOM     15  C   UNL     1     -18.109  28.480  22.098  1.00  0.00     0.000 C 
BRANCH  15  16
ATOM     16  C   UNL     1     -18.508  27.053  22.504  1.00  0.00     0.006 C 
BRANCH  16  17
ATOM     17  C   UNL     1     -18.697  26.127  21.296  1.00  0.00     0.053 C 
BRANCH  17  18
ATOM     18  C   UNL     1     -17.642  25.067  21.280  1.00  0.00     0.041 C 
ATOM     19  O   UNL     1     -16.656  25.142  22.059  1.00  0.00    -0.550 OA
ATOM     20  O   UNL     1     -17.719  24.023  20.366  1.00  0.00    -0.550 OA
ENDBRANCH  17  18
ENDBRANCH  16  17
ENDBRANCH  15  16
ENDBRANCH  14  15
ENDBRANCH  13  14
ENDBRANCH  12  13
ENDBRANCH  11  12
ENDBRANCH   1  11
TORSDOF 15
ENDMDL
MODEL 6
REMARK VINA RESULT:    -3.343      2.329      4.237
REMARK INTER + INTRA:          -8.085
REMARK INTER:                  -5.759
REMARK INTRA:                  -2.326
REMARK UNBOUND:                -1.811
REMARK SMILES O=C([O-])CCCCCCCCCCCCCCC(=O)[O-]
REMARK SMILES IDX 10 1 9 2 8 3 7 4 6 5 5 6 4 7 2 8 1 9 3 10 11 11 12 12 13 13
REMARK SMILES IDX 14 14 15 15 16 16 17 17 18 18 19 19 20 20
REMARK H PARENT
REMARK Flexibility Score: inf
ROOT
ATOM      1  C   UNL     1     -19.673  29.688  20.269  1.00  0.00     0.000 C 
ENDROOT
BRANCH   1   2
ATOM      2  C   UNL     1     -18.864  28.995  21.375  1.00  0.00     0.000 C 
BRANCH   2   3
ATOM      3  C   UNL     1     -18.893  29.813  22.671  1.00  0.00     0.000 C 
BRANCH   3   4
ATOM      4  C   UNL     1     -20.021  30.851  22.644  1.00  0.00     0.000 C 
BRANCH   4   5
ATOM      5  C   UNL     1     -19.564  32.178  23.263  1.00  0.00     0.000 C 
BRANCH   5   6
ATOM      6  C   UNL     1     -20.572  33.296  22.975  1.00  0.00     0.006 C 
BRANCH   6   7
ATOM      7  C   UNL     1     -21.688  32.804  22.048  1.00  0.00     0.053 C 
BRANCH   7   8
ATOM      8  C   UNL     1     -22.128  33.901  21.131  1.00  0.00     0.041 C 
ATOM      9  O   UNL     1     -23.090  33.717  20.340  1.00  0.00    -0.550 OA
ATOM     10  O   UNL     1     -21.444  35.110  21.115  1.00  0.00    -0.550 OA
ENDBRANCH   7   8
ENDBRANCH   6   7
ENDBRANCH   5   6
ENDBRANCH   4   5
ENDBRANCH   3   4
ENDBRANCH   2   3
ENDBRANCH   1   2
BRANCH   1  11
ATOM     11  C   UNL     1     -20.392  28.692  19.341  1.00  0.00     0.000 C 
BRANCH  11  12
ATOM     12  C   UNL     1     -21.921  28.872  19.255  1.00  0.00     0.000 C 
BRANCH  12  13
ATOM     13  C   UNL     1     -22.616  29.223  20.586  1.00  0.00     0.000 C 
BRANCH  13  14
ATOM     14  C   UNL     1     -23.020  28.011  21.445  1.00  0.00     0.000 C 
BRANCH  14  15
ATOM     15  C   UNL     1     -22.128  27.841  22.686  1.00  0.00     0.000 C 
BRANCH  15  16
ATOM     16  C   UNL     1     -21.217  26.607  22.592  1.00  0.00     0.006 C 
BRANCH  16  17
ATOM     17  C   UNL     1     -21.532  25.733  21.372  1.00  0.00     0.053 C 
BRANCH  17  18
ATOM     18  C   UNL     1     -20.320  24.961  20.954  1.00  0.00     0.041 C 
ATOM     19  O   UNL     1     -19.263  25.566  20.635  1.00  0.00    -0.550 OA
ATOM     20  O   UNL     1     -20.375  23.576  20.867  1.00  0.00    -0.550 OA
ENDBRANCH  17  18
ENDBRANCH  16  17
ENDBRANCH  15  16
ENDBRANCH  14  15
ENDBRANCH  13  14
ENDBRANCH  12  13
ENDBRANCH  11  12
ENDBRANCH   1  11
TORSDOF 15
ENDMDL
MODEL 7
REMARK VINA RESULT:    -3.336      6.548      9.527
REMARK INTER + INTRA:          -8.073
REMARK INTER:                  -7.354
REMARK INTRA:                  -0.719
REMARK UNBOUND:                -1.811
REMARK SMILES O=C([O-])CCCCCCCCCCCCCCC(=O)[O-]
REMARK SMILES IDX 10 1 9 2 8 3 7 4 6 5 5 6 4 7 2 8 1 9 3 10 11 11 12 12 13 13
REMARK SMILES IDX 14 14 15 15 16 16 17 17 18 18 19 19 20 20
REMARK H PARENT
REMARK Flexibility Score: inf
ROOT
ATOM      1  C   UNL     1     -19.439  23.165  18.235  1.00  0.00     0.000 C 
ENDROOT
BRANCH   1   2
ATOM      2  C   UNL     1     -18.345  22.943  19.289  1.00  0.00     0.000 C 
BRANCH   2   3
ATOM      3  C   UNL     1     -18.176  24.182  20.176  1.00  0.00     0.000 C 
BRANCH   3   4
ATOM      4  C   UNL     1     -19.524  24.645  20.740  1.00  0.00     0.000 C 
BRANCH   4   5
ATOM      5  C   UNL     1     -19.581  26.174  20.847  1.00  0.00     0.000 C 
BRANCH   5   6
ATOM      6  C   UNL     1     -20.316  26.783  19.649  1.00  0.00     0.006 C 
BRANCH   6   7
ATOM      7  C   UNL     1     -20.200  28.311  19.651  1.00  0.00     0.053 C 
BRANCH   7   8
ATOM      8  C   UNL     1     -21.536  28.937  19.896  1.00  0.00     0.041 C 
ATOM      9  O   UNL     1     -22.551  28.526  19.276  1.00  0.00    -0.550 OA
ATOM     10  O   UNL     1     -21.652  30.007  20.775  1.00  0.00    -0.550 OA
ENDBRANCH   7   8
ENDBRANCH   6   7
ENDBRANCH   5   6
ENDBRANCH   4   5
ENDBRANCH   3   4
ENDBRANCH   2   3
ENDBRANCH   1   2
BRANCH   1  11
ATOM     11  C   UNL     1     -18.877  23.627  16.878  1.00  0.00     0.000 C 
BRANCH  11  12
ATOM     12  C   UNL     1     -19.766  23.301  15.662  1.00  0.00     0.000 C 
BRANCH  12  13
ATOM     13  C   UNL     1     -19.646  24.284  14.479  1.00  0.00     0.000 C 
BRANCH  13  14
ATOM     14  C   UNL     1     -20.140  23.735  13.129  1.00  0.00     0.000 C 
BRANCH  14  15
ATOM     15  C   UNL     1     -21.674  23.670  13.041  1.00  0.00     0.000 C 
BRANCH  15  16
ATOM     16  C   UNL     1     -22.196  23.965  11.626  1.00  0.00     0.006 C 
BRANCH  16  17
ATOM     17  C   UNL     1     -22.721  25.398  11.478  1.00  0.00     0.053 C 
BRANCH  17  18
ATOM     18  C   UNL     1     -22.641  25.839  10.050  1.00  0.00     0.041 C 
ATOM     19  O   UNL     1     -23.397  26.753   9.626  1.00  0.00    -0.550 OA
ATOM     20  O   UNL     1     -21.769  25.205   9.175  1.00  0.00    -0.550 OA
ENDBRANCH  17  18
ENDBRANCH  16  17
ENDBRANCH  15  16
ENDBRANCH  14  15
ENDBRANCH  13  14
ENDBRANCH  12  13
ENDBRANCH  11  12
ENDBRANCH   1  11
TORSDOF 15
ENDMDL
MODEL 8
REMARK VINA RESULT:    -3.282      2.335      7.499
REMARK INTER + INTRA:          -7.971
REMARK INTER:                  -5.654
REMARK INTRA:                  -2.317
REMARK UNBOUND:                -1.811
REMARK SMILES O=C([O-])CCCCCCCCCCCCCCC(=O)[O-]
REMARK SMILES IDX 10 1 9 2 8 3 7 4 6 5 5 6 4 7 2 8 1 9 3 10 11 11 12 12 13 13
REMARK SMILES IDX 14 14 15 15 16 16 17 17 18 18 19 19 20 20
REMARK H PARENT
REMARK Flexibility Score: inf
ROOT
ATOM      1  C   UNL     1     -19.644  29.668  20.067  1.00  0.00     0.000 C 
ENDROOT
BRANCH   1   2
ATOM      2  C   UNL     1     -19.499  29.413  21.573  1.00  0.00     0.000 C 
BRANCH   2   3
ATOM      3  C   UNL     1     -18.102  28.880  21.910  1.00  0.00     0.000 C 
BRANCH   3   4
ATOM      4  C   UNL     1     -18.142  27.375  22.204  1.00  0.00     0.000 C 
BRANCH   4   5
ATOM      5  C   UNL     1     -19.538  26.942  22.667  1.00  0.00     0.000 C 
BRANCH   5   6
ATOM      6  C   UNL     1     -20.001  25.687  21.918  1.00  0.00     0.006 C 
BRANCH   6   7
ATOM      7  C   UNL     1     -19.163  25.459  20.656  1.00  0.00     0.053 C 
BRANCH   7   8
ATOM      8  C   UNL     1     -19.930  24.652  19.657  1.00  0.00     0.041 C 
ATOM      9  O   UNL     1     -21.076  25.023  19.290  1.00  0.00    -0.550 OA
ATOM     10  O   UNL     1     -19.400  23.465  19.167  1.00  0.00    -0.550 OA
ENDBRANCH   7   8
ENDBRANCH   6   7
ENDBRANCH   5   6
ENDBRANCH   4   5
ENDBRANCH   3   4
ENDBRANCH   2   3
ENDBRANCH   1   2
BRANCH   1  11
ATOM     11  C   UNL     1     -20.542  28.631  19.369  1.00  0.00     0.000 C 
BRANCH  11  12
ATOM     12  C   UNL     1     -21.934  28.444  20.004  1.00  0.00     0.000 C 
BRANCH  12  13
ATOM     13  C   UNL     1     -23.057  29.303  19.390  1.00  0.00     0.000 C 
BRANCH  13  14
ATOM     14  C   UNL     1     -23.617  30.396  20.317  1.00  0.00     0.000 C 
BRANCH  14  15
ATOM     15  C   UNL     1     -23.142  30.240  21.772  1.00  0.00     0.000 C 
BRANCH  15  16
ATOM     16  C   UNL     1     -22.696  31.573  22.392  1.00  0.00     0.006 C 
BRANCH  16  17
ATOM     17  C   UNL     1     -21.799  32.389  21.453  1.00  0.00     0.053 C 
BRANCH  17  18
ATOM     18  C   UNL     1     -22.347  33.770  21.276  1.00  0.00     0.041 C 
ATOM     19  O   UNL     1     -23.035  34.054  20.261  1.00  0.00    -0.550 OA
ATOM     20  O   UNL     1     -22.053  34.759  22.207  1.00  0.00    -0.550 OA
ENDBRANCH  17  18
ENDBRANCH  16  17
ENDBRANCH  15  16
ENDBRANCH  14  15
ENDBRANCH  13  14
ENDBRANCH  12  13
ENDBRANCH  11  12
ENDBRANCH   1  11
TORSDOF 15
ENDMDL
