MODEL 1
REMARK VINA RESULT:    -2.906      0.000      0.000
REMARK INTER + INTRA:          -6.080
REMARK INTER:                  -4.434
REMARK INTRA:                  -1.646
REMARK UNBOUND:                -1.646
REMARK SMILES OC[C@@H]1O[C@](CO)(O[C@@H]2O[C@@H](CO)[C@@H](O)[C@@H](O)[C@@H]2O)[C@H](O)[C@@H]1O
REMARK SMILES IDX 8 1 9 2 11 3 14 4 10 5 16 6 18 7 12 8 13 9 15 11 17 13 19 15
REMARK SMILES IDX 5 17 20 18 4 19 22 20 3 21 6 22 7 23 21 25 23 27 2 29 1 30
REMARK H PARENT 13 10 15 12 17 14 19 16 7 24 21 26 23 28 1 31
REMARK Flexibility Score: inf
ROOT
ATOM      1  O   UNL     1     106.910 127.837 125.293  1.00  0.00    -0.313 OA
ENDROOT
BRANCH   1   2
ATOM      2  C   UNL     1     107.248 127.000 126.394  1.00  0.00     0.285 C 
ATOM      3  C   UNL     1     105.243 127.342 127.581  1.00  0.00     0.178 C 
ATOM      4  C   UNL     1     105.942 128.070 128.746  1.00  0.00     0.177 C 
ATOM      5  O   UNL     1     106.109 126.384 126.986  1.00  0.00    -0.341 OA
ATOM      6  C   UNL     1     107.180 128.798 128.192  1.00  0.00     0.179 C 
ATOM      7  C   UNL     1     108.070 127.801 127.434  1.00  0.00     0.202 C 
BRANCH   3   8
ATOM      8  C   UNL     1     103.946 126.643 128.032  1.00  0.00     0.191 C 
BRANCH   8   9
ATOM      9  O   UNL     1     103.341 127.325 129.105  1.00  0.00    -0.394 OA
ATOM     10  H   UNL     1     103.144 126.661 129.807  1.00  0.00     0.210 HD
ENDBRANCH   8   9
ENDBRANCH   3   8
BRANCH   4  11
ATOM     11  O   UNL     1     106.329 127.152 129.738  1.00  0.00    -0.387 OA
ATOM     12  H   UNL     1     105.505 126.706 130.054  1.00  0.00     0.211 HD
ENDBRANCH   4  11
BRANCH   6  13
ATOM     13  O   UNL     1     107.918 129.383 129.233  1.00  0.00    -0.387 OA
ATOM     14  H   UNL     1     107.387 130.159 129.554  1.00  0.00     0.211 HD
ENDBRANCH   6  13
BRANCH   7  15
ATOM     15  O   UNL     1     109.112 128.495 126.796  1.00  0.00    -0.385 OA
ATOM     16  H   UNL     1     109.926 127.928 126.880  1.00  0.00     0.211 HD
ENDBRANCH   7  15
ENDBRANCH   1   2
BRANCH   1  17
ATOM     17  C   UNL     1     107.097 127.275 123.988  1.00  0.00     0.224 C 
ATOM     18  C   UNL     1     107.935 128.281 123.149  1.00  0.00     0.208 C 
ATOM     19  O   UNL     1     105.831 127.141 123.357  1.00  0.00    -0.337 OA
ATOM     20  C   UNL     1     106.896 129.011 122.327  1.00  0.00     0.180 C 
ATOM     21  C   UNL     1     105.860 127.907 122.168  1.00  0.00     0.179 C 
BRANCH  17  22
ATOM     22  C   UNL     1     107.805 125.883 124.010  1.00  0.00     0.225 C 
BRANCH  22  23
ATOM     23  O   UNL     1     109.183 125.995 123.764  1.00  0.00    -0.391 OA
ATOM     24  H   UNL     1     109.643 125.812 124.625  1.00  0.00     0.210 HD
ENDBRANCH  22  23
ENDBRANCH  17  22
BRANCH  18  25
ATOM     25  O   UNL     1     108.761 129.136 123.907  1.00  0.00    -0.385 OA
ATOM     26  H   UNL     1     108.650 130.069 123.596  1.00  0.00     0.211 HD
ENDBRANCH  18  25
BRANCH  20  27
ATOM     27  O   UNL     1     106.383 130.104 123.040  1.00  0.00    -0.387 OA
ATOM     28  H   UNL     1     105.396 130.099 122.908  1.00  0.00     0.211 HD
ENDBRANCH  20  27
BRANCH  21  29
ATOM     29  C   UNL     1     104.458 128.400 121.777  1.00  0.00     0.191 C 
BRANCH  29  30
ATOM     30  O   UNL     1     103.712 128.752 122.910  1.00  0.00    -0.394 OA
ATOM     31  H   UNL     1     103.042 129.435 122.628  1.00  0.00     0.210 HD
ENDBRANCH  29  30
ENDBRANCH  21  29
ENDBRANCH   1  17
TORSDOF 13
ENDMDL
MODEL 2
REMARK VINA RESULT:    -2.474      1.661      2.543
REMARK INTER + INTRA:          -5.422
REMARK INTER:                  -4.639
REMARK INTRA:                  -0.783
REMARK UNBOUND:                -1.646
REMARK SMILES OC[C@@H]1O[C@](CO)(O[C@@H]2O[C@@H](CO)[C@@H](O)[C@@H](O)[C@@H]2O)[C@H](O)[C@@H]1O
REMARK SMILES IDX 8 1 9 2 11 3 14 4 10 5 16 6 18 7 12 8 13 9 15 11 17 13 19 15
REMARK SMILES IDX 5 17 20 18 4 19 22 20 3 21 6 22 7 23 21 25 23 27 2 29 1 30
REMARK H PARENT 13 10 15 12 17 14 19 16 7 24 21 26 23 28 1 31
REMARK Flexibility Score: inf
ROOT
ATOM      1  O   UNL     1     107.330 128.258 125.783  1.00  0.00    -0.313 OA
ENDROOT
BRANCH   1   2
ATOM      2  C   UNL     1     108.497 127.951 126.538  1.00  0.00     0.285 C 
ATOM      3  C   UNL     1     107.602 128.575 128.626  1.00  0.00     0.178 C 
ATOM      4  C   UNL     1     108.577 129.756 128.801  1.00  0.00     0.177 C 
ATOM      5  O   UNL     1     108.198 127.532 127.866  1.00  0.00    -0.341 OA
ATOM      6  C   UNL     1     108.938 130.301 127.407  1.00  0.00     0.179 C 
ATOM      7  C   UNL     1     109.466 129.159 126.526  1.00  0.00     0.202 C 
BRANCH   3   8
ATOM      8  C   UNL     1     107.128 128.012 129.979  1.00  0.00     0.191 C 
BRANCH   8   9
ATOM      9  O   UNL     1     106.738 126.664 129.865  1.00  0.00    -0.394 OA
ATOM     10  H   UNL     1     107.557 126.120 129.795  1.00  0.00     0.210 HD
ENDBRANCH   8   9
ENDBRANCH   3   8
BRANCH   4  11
ATOM     11  O   UNL     1     109.743 129.337 129.468  1.00  0.00    -0.387 OA
ATOM     12  H   UNL     1     109.688 129.690 130.390  1.00  0.00     0.211 HD
ENDBRANCH   4  11
BRANCH   6  13
ATOM     13  O   UNL     1     109.914 131.305 127.505  1.00  0.00    -0.387 OA
ATOM     14  H   UNL     1     109.652 131.881 128.272  1.00  0.00     0.211 HD
ENDBRANCH   6  13
BRANCH   7  15
ATOM     15  O   UNL     1     109.642 129.625 125.212  1.00  0.00    -0.385 OA
ATOM     16  H   UNL     1     109.182 128.974 124.615  1.00  0.00     0.211 HD
ENDBRANCH   7  15
ENDBRANCH   1   2
BRANCH   1  17
ATOM     17  C   UNL     1     106.655 127.146 125.181  1.00  0.00     0.224 C 
ATOM     18  C   UNL     1     107.370 126.821 123.839  1.00  0.00     0.208 C 
ATOM     19  O   UNL     1     105.320 127.526 124.875  1.00  0.00    -0.337 OA
ATOM     20  C   UNL     1     106.498 127.491 122.801  1.00  0.00     0.180 C 
ATOM     21  C   UNL     1     105.141 127.376 123.480  1.00  0.00     0.179 C 
BRANCH  17  22
ATOM     22  C   UNL     1     106.627 125.875 126.089  1.00  0.00     0.225 C 
BRANCH  22  23
ATOM     23  O   UNL     1     105.751 126.029 127.176  1.00  0.00    -0.391 OA
ATOM     24  H   UNL     1     105.452 126.976 127.169  1.00  0.00     0.210 HD
ENDBRANCH  22  23
ENDBRANCH  17  22
BRANCH  18  25
ATOM     25  O   UNL     1     108.723 127.213 123.781  1.00  0.00    -0.385 OA
ATOM     26  H   UNL     1     109.290 126.426 123.588  1.00  0.00     0.211 HD
ENDBRANCH  18  25
BRANCH  20  27
ATOM     27  O   UNL     1     106.879 128.829 122.626  1.00  0.00    -0.387 OA
ATOM     28  H   UNL     1     106.082 129.387 122.837  1.00  0.00     0.211 HD
ENDBRANCH  20  27
BRANCH  21  29
ATOM     29  C   UNL     1     104.074 128.342 122.940  1.00  0.00     0.191 C 
BRANCH  29  30
ATOM     30  O   UNL     1     104.022 128.306 121.540  1.00  0.00    -0.394 OA
ATOM     31  H   UNL     1     104.803 127.773 121.223  1.00  0.00     0.210 HD
ENDBRANCH  29  30
ENDBRANCH  21  29
ENDBRANCH   1  17
TORSDOF 13
ENDMDL
MODEL 3
REMARK VINA RESULT:    -2.387      3.389      5.763
REMARK INTER + INTRA:          -5.289
REMARK INTER:                  -3.753
REMARK INTRA:                  -1.535
REMARK UNBOUND:                -1.646
REMARK SMILES OC[C@@H]1O[C@](CO)(O[C@@H]2O[C@@H](CO)[C@@H](O)[C@@H](O)[C@@H]2O)[C@H](O)[C@@H]1O
REMARK SMILES IDX 8 1 9 2 11 3 14 4 10 5 16 6 18 7 12 8 13 9 15 11 17 13 19 15
REMARK SMILES IDX 5 17 20 18 4 19 22 20 3 21 6 22 7 23 21 25 23 27 2 29 1 30
REMARK H PARENT 13 10 15 12 17 14 19 16 7 24 21 26 23 28 1 31
REMARK Flexibility Score: inf
ROOT
ATOM      1  O   UNL     1     107.810 129.017 128.440  1.00  0.00    -0.313 OA
ENDROOT
BRANCH   1   2
ATOM      2  C   UNL     1     109.116 129.570 128.553  1.00  0.00     0.285 C 
ATOM      3  C   UNL     1     108.407 131.769 129.013  1.00  0.00     0.178 C 
ATOM      4  C   UNL     1     108.978 132.333 127.697  1.00  0.00     0.177 C 
ATOM      5  O   UNL     1     109.175 130.661 129.467  1.00  0.00    -0.341 OA
ATOM      6  C   UNL     1     108.927 131.224 126.630  1.00  0.00     0.179 C 
ATOM      7  C   UNL     1     109.643 129.970 127.153  1.00  0.00     0.202 C 
BRANCH   3   8
ATOM      8  C   UNL     1     108.351 132.836 130.123  1.00  0.00     0.191 C 
BRANCH   8   9
ATOM      9  O   UNL     1     107.959 134.088 129.612  1.00  0.00    -0.394 OA
ATOM     10  H   UNL     1     108.080 134.754 130.329  1.00  0.00     0.210 HD
ENDBRANCH   8   9
ENDBRANCH   3   8
BRANCH   4  11
ATOM     11  O   UNL     1     110.304 132.762 127.880  1.00  0.00    -0.387 OA
ATOM     12  H   UNL     1     110.726 132.778 126.986  1.00  0.00     0.211 HD
ENDBRANCH   4  11
BRANCH   6  13
ATOM     13  O   UNL     1     109.541 131.652 125.443  1.00  0.00    -0.387 OA
ATOM     14  H   UNL     1     110.198 130.948 125.194  1.00  0.00     0.211 HD
ENDBRANCH   6  13
BRANCH   7  15
ATOM     15  O   UNL     1     109.457 128.912 126.246  1.00  0.00    -0.385 OA
ATOM     16  H   UNL     1     108.892 129.266 125.506  1.00  0.00     0.211 HD
ENDBRANCH   7  15
ENDBRANCH   1   2
BRANCH   1  17
ATOM     17  C   UNL     1     107.592 127.764 129.103  1.00  0.00     0.224 C 
ATOM     18  C   UNL     1     107.133 126.732 128.033  1.00  0.00     0.208 C 
ATOM     19  O   UNL     1     106.533 127.913 130.037  1.00  0.00    -0.337 OA
ATOM     20  C   UNL     1     105.630 126.702 128.191  1.00  0.00     0.180 C 
ATOM     21  C   UNL     1     105.512 127.001 129.679  1.00  0.00     0.179 C 
BRANCH  17  22
ATOM     22  C   UNL     1     108.858 127.231 129.846  1.00  0.00     0.225 C 
BRANCH  22  23
ATOM     23  O   UNL     1     109.582 126.322 129.057  1.00  0.00    -0.391 OA
ATOM     24  H   UNL     1     110.453 126.179 129.514  1.00  0.00     0.210 HD
ENDBRANCH  22  23
ENDBRANCH  17  22
BRANCH  18  25
ATOM     25  O   UNL     1     107.560 127.014 126.720  1.00  0.00    -0.385 OA
ATOM     26  H   UNL     1     108.545 126.947 126.668  1.00  0.00     0.211 HD
ENDBRANCH  18  25
BRANCH  20  27
ATOM     27  O   UNL     1     105.032 127.704 127.413  1.00  0.00    -0.387 OA
ATOM     28  H   UNL     1     104.502 127.245 126.706  1.00  0.00     0.211 HD
ENDBRANCH  20  27
BRANCH  21  29
ATOM     29  C   UNL     1     104.127 127.498 130.122  1.00  0.00     0.191 C 
BRANCH  29  30
ATOM     30  O   UNL     1     103.933 128.839 129.763  1.00  0.00    -0.394 OA
ATOM     31  H   UNL     1     103.297 129.237 130.420  1.00  0.00     0.210 HD
ENDBRANCH  29  30
ENDBRANCH  21  29
ENDBRANCH   1  17
TORSDOF 13
ENDMDL
MODEL 4
REMARK VINA RESULT:    -2.059      1.618      2.201
REMARK INTER + INTRA:          -4.788
REMARK INTER:                  -3.904
REMARK INTRA:                  -0.883
REMARK UNBOUND:                -1.646
REMARK SMILES OC[C@@H]1O[C@](CO)(O[C@@H]2O[C@@H](CO)[C@@H](O)[C@@H](O)[C@@H]2O)[C@H](O)[C@@H]1O
REMARK SMILES IDX 8 1 9 2 11 3 14 4 10 5 16 6 18 7 12 8 13 9 15 11 17 13 19 15
REMARK SMILES IDX 5 17 20 18 4 19 22 20 3 21 6 22 7 23 21 25 23 27 2 29 1 30
REMARK H PARENT 13 10 15 12 17 14 19 16 7 24 21 26 23 28 1 31
REMARK Flexibility Score: inf
ROOT
ATOM      1  O   UNL     1     107.322 128.191 124.089  1.00  0.00    -0.313 OA
ENDROOT
BRANCH   1   2
ATOM      2  C   UNL     1     108.371 127.582 124.835  1.00  0.00     0.285 C 
ATOM      3  C   UNL     1     107.136 127.329 126.825  1.00  0.00     0.178 C 
ATOM      4  C   UNL     1     108.016 128.319 127.613  1.00  0.00     0.177 C 
ATOM      5  O   UNL     1     107.890 126.669 125.816  1.00  0.00    -0.341 OA
ATOM      6  C   UNL     1     108.562 129.373 126.631  1.00  0.00     0.179 C 
ATOM      7  C   UNL     1     109.273 128.673 125.464  1.00  0.00     0.202 C 
BRANCH   3   8
ATOM      8  C   UNL     1     106.485 126.277 127.743  1.00  0.00     0.191 C 
BRANCH   8   9
ATOM      9  O   UNL     1     106.325 126.768 129.053  1.00  0.00    -0.394 OA
ATOM     10  H   UNL     1     105.371 126.683 129.289  1.00  0.00     0.210 HD
ENDBRANCH   8   9
ENDBRANCH   3   8
BRANCH   4  11
ATOM     11  O   UNL     1     109.082 127.644 128.233  1.00  0.00    -0.387 OA
ATOM     12  H   UNL     1     109.608 127.216 127.513  1.00  0.00     0.211 HD
ENDBRANCH   4  11
BRANCH   6  13
ATOM     13  O   UNL     1     109.463 130.233 127.279  1.00  0.00    -0.387 OA
ATOM     14  H   UNL     1     110.224 130.368 126.654  1.00  0.00     0.211 HD
ENDBRANCH   6  13
BRANCH   7  15
ATOM     15  O   UNL     1     109.628 129.625 124.493  1.00  0.00    -0.385 OA
ATOM     16  H   UNL     1     109.663 130.506 124.957  1.00  0.00     0.211 HD
ENDBRANCH   7  15
ENDBRANCH   1   2
BRANCH   1  17
ATOM     17  C   UNL     1     106.635 127.346 123.157  1.00  0.00     0.224 C 
ATOM     18  C   UNL     1     106.438 128.149 121.840  1.00  0.00     0.208 C 
ATOM     19  O   UNL     1     105.345 127.044 123.671  1.00  0.00    -0.337 OA
ATOM     20  C   UNL     1     105.014 128.647 121.936  1.00  0.00     0.180 C 
ATOM     21  C   UNL     1     104.390 127.515 122.740  1.00  0.00     0.179 C 
BRANCH  17  22
ATOM     22  C   UNL     1     107.390 126.012 122.859  1.00  0.00     0.225 C 
BRANCH  22  23
ATOM     23  O   UNL     1     107.686 125.875 121.492  1.00  0.00    -0.391 OA
ATOM     24  H   UNL     1     108.488 126.435 121.317  1.00  0.00     0.210 HD
ENDBRANCH  22  23
ENDBRANCH  17  22
BRANCH  18  25
ATOM     25  O   UNL     1     107.384 129.173 121.626  1.00  0.00    -0.385 OA
ATOM     26  H   UNL     1     108.187 128.798 121.187  1.00  0.00     0.211 HD
ENDBRANCH  18  25
BRANCH  20  27
ATOM     27  O   UNL     1     104.963 129.864 122.631  1.00  0.00    -0.387 OA
ATOM     28  H   UNL     1     105.377 129.707 123.522  1.00  0.00     0.211 HD
ENDBRANCH  20  27
BRANCH  21  29
ATOM     29  C   UNL     1     103.062 127.875 123.424  1.00  0.00     0.191 C 
BRANCH  29  30
ATOM     30  O   UNL     1     102.031 127.023 123.006  1.00  0.00    -0.394 OA
ATOM     31  H   UNL     1     101.249 127.593 122.764  1.00  0.00     0.210 HD
ENDBRANCH  29  30
ENDBRANCH  21  29
ENDBRANCH   1  17
TORSDOF 13
ENDMDL
MODEL 5
REMARK VINA RESULT:    -1.926      2.910      5.747
REMARK INTER + INTRA:          -4.586
REMARK INTER:                  -4.491
REMARK INTRA:                  -0.094
REMARK UNBOUND:                -1.646
REMARK SMILES OC[C@@H]1O[C@](CO)(O[C@@H]2O[C@@H](CO)[C@@H](O)[C@@H](O)[C@@H]2O)[C@H](O)[C@@H]1O
REMARK SMILES IDX 8 1 9 2 11 3 14 4 10 5 16 6 18 7 12 8 13 9 15 11 17 13 19 15
REMARK SMILES IDX 5 17 20 18 4 19 22 20 3 21 6 22 7 23 21 25 23 27 2 29 1 30
REMARK H PARENT 13 10 15 12 17 14 19 16 7 24 21 26 23 28 1 31
REMARK Flexibility Score: inf
ROOT
ATOM      1  O   UNL     1     108.354 129.959 127.693  1.00  0.00    -0.313 OA
ENDROOT
BRANCH   1   2
ATOM      2  C   UNL     1     108.485 128.733 128.405  1.00  0.00     0.285 C 
ATOM      3  C   UNL     1     107.460 127.392 126.763  1.00  0.00     0.178 C 
ATOM      4  C   UNL     1     106.255 127.043 127.658  1.00  0.00     0.177 C 
ATOM      5  O   UNL     1     108.628 127.609 127.544  1.00  0.00    -0.341 OA
ATOM      6  C   UNL     1     106.001 128.224 128.613  1.00  0.00     0.179 C 
ATOM      7  C   UNL     1     107.291 128.559 129.377  1.00  0.00     0.202 C 
BRANCH   3   8
ATOM      8  C   UNL     1     107.743 126.292 125.721  1.00  0.00     0.191 C 
BRANCH   8   9
ATOM      9  O   UNL     1     108.487 126.792 124.636  1.00  0.00    -0.394 OA
ATOM     10  H   UNL     1     109.438 126.597 124.811  1.00  0.00     0.210 HD
ENDBRANCH   8   9
ENDBRANCH   3   8
BRANCH   4  11
ATOM     11  O   UNL     1     106.513 125.875 128.398  1.00  0.00    -0.387 OA
ATOM     12  H   UNL     1     106.416 125.114 127.775  1.00  0.00     0.211 HD
ENDBRANCH   4  11
BRANCH   6  13
ATOM     13  O   UNL     1     104.984 127.910 129.529  1.00  0.00    -0.387 OA
ATOM     14  H   UNL     1     104.455 128.741 129.660  1.00  0.00     0.211 HD
ENDBRANCH   6  13
BRANCH   7  15
ATOM     15  O   UNL     1     107.101 129.733 130.125  1.00  0.00    -0.385 OA
ATOM     16  H   UNL     1     106.757 129.451 131.016  1.00  0.00     0.211 HD
ENDBRANCH   7  15
ENDBRANCH   1   2
BRANCH   1  17
ATOM     17  C   UNL     1     109.573 130.658 127.408  1.00  0.00     0.224 C 
ATOM     18  C   UNL     1     110.440 130.652 128.700  1.00  0.00     0.208 C 
ATOM     19  O   UNL     1     109.269 132.012 127.103  1.00  0.00    -0.337 OA
ATOM     20  C   UNL     1     110.186 132.014 129.305  1.00  0.00     0.180 C 
ATOM     21  C   UNL     1     109.946 132.827 128.041  1.00  0.00     0.179 C 
BRANCH  17  22
ATOM     22  C   UNL     1     110.380 130.037 126.224  1.00  0.00     0.225 C 
BRANCH  22  23
ATOM     23  O   UNL     1     109.536 129.611 125.185  1.00  0.00    -0.391 OA
ATOM     24  H   UNL     1     109.909 129.985 124.344  1.00  0.00     0.210 HD
ENDBRANCH  22  23
ENDBRANCH  17  22
BRANCH  18  25
ATOM     25  O   UNL     1     110.180 129.582 129.580  1.00  0.00    -0.385 OA
ATOM     26  H   UNL     1     111.015 129.078 129.746  1.00  0.00     0.211 HD
ENDBRANCH  18  25
BRANCH  20  27
ATOM     27  O   UNL     1     109.048 131.984 130.125  1.00  0.00    -0.387 OA
ATOM     28  H   UNL     1     109.197 132.646 130.853  1.00  0.00     0.211 HD
ENDBRANCH  20  27
BRANCH  21  29
ATOM     29  C   UNL     1     109.212 134.158 128.268  1.00  0.00     0.191 C 
BRANCH  29  30
ATOM     30  O   UNL     1     109.784 134.876 129.326  1.00  0.00    -0.394 OA
ATOM     31  H   UNL     1     109.337 135.767 129.362  1.00  0.00     0.210 HD
ENDBRANCH  29  30
ENDBRANCH  21  29
ENDBRANCH   1  17
TORSDOF 13
ENDMDL
MODEL 6
REMARK VINA RESULT:    -1.488      1.966      6.160
REMARK INTER + INTRA:          -3.917
REMARK INTER:                  -2.527
REMARK INTRA:                  -1.390
REMARK UNBOUND:                -1.646
REMARK SMILES OC[C@@H]1O[C@](CO)(O[C@@H]2O[C@@H](CO)[C@@H](O)[C@@H](O)[C@@H]2O)[C@H](O)[C@@H]1O
REMARK SMILES IDX 8 1 9 2 11 3 14 4 10 5 16 6 18 7 12 8 13 9 15 11 17 13 19 15
REMARK SMILES IDX 5 17 20 18 4 19 22 20 3 21 6 22 7 23 21 25 23 27 2 29 1 30
REMARK H PARENT 13 10 15 12 17 14 19 16 7 24 21 26 23 28 1 31
REMARK Flexibility Score: inf
ROOT
ATOM      1  O   UNL     1     107.221 128.065 127.798  1.00  0.00    -0.313 OA
ENDROOT
BRANCH   1   2
ATOM      2  C   UNL     1     107.277 126.912 126.964  1.00  0.00     0.285 C 
ATOM      3  C   UNL     1     107.782 128.076 124.979  1.00  0.00     0.178 C 
ATOM      4  C   UNL     1     106.445 127.709 124.308  1.00  0.00     0.177 C 
ATOM      5  O   UNL     1     108.193 127.059 125.884  1.00  0.00    -0.341 OA
ATOM      6  C   UNL     1     105.374 127.558 125.404  1.00  0.00     0.179 C 
ATOM      7  C   UNL     1     105.856 126.555 126.462  1.00  0.00     0.202 C 
BRANCH   3   8
ATOM      8  C   UNL     1     108.900 128.320 123.947  1.00  0.00     0.191 C 
BRANCH   8   9
ATOM      9  O   UNL     1     109.501 129.580 124.129  1.00  0.00    -0.394 OA
ATOM     10  H   UNL     1     110.469 129.475 123.972  1.00  0.00     0.210 HD
ENDBRANCH   8   9
ENDBRANCH   3   8
BRANCH   4  11
ATOM     11  O   UNL     1     106.569 126.506 123.589  1.00  0.00    -0.387 OA
ATOM     12  H   UNL     1     107.254 126.657 122.894  1.00  0.00     0.211 HD
ENDBRANCH   4  11
BRANCH   6  13
ATOM     13  O   UNL     1     104.162 127.111 124.854  1.00  0.00    -0.387 OA
ATOM     14  H   UNL     1     104.271 126.139 124.684  1.00  0.00     0.211 HD
ENDBRANCH   6  13
BRANCH   7  15
ATOM     15  O   UNL     1     104.953 126.540 127.538  1.00  0.00    -0.385 OA
ATOM     16  H   UNL     1     104.713 127.488 127.724  1.00  0.00     0.211 HD
ENDBRANCH   7  15
ENDBRANCH   1   2
BRANCH   1  17
ATOM     17  C   UNL     1     107.810 127.935 129.098  1.00  0.00     0.224 C 
ATOM     18  C   UNL     1     107.075 128.916 130.056  1.00  0.00     0.208 C 
ATOM     19  O   UNL     1     109.171 128.341 129.032  1.00  0.00    -0.337 OA
ATOM     20  C   UNL     1     107.998 130.112 130.117  1.00  0.00     0.180 C 
ATOM     21  C   UNL     1     109.341 129.421 129.928  1.00  0.00     0.179 C 
BRANCH  17  22
ATOM     22  C   UNL     1     107.738 126.483 129.667  1.00  0.00     0.225 C 
BRANCH  22  23
ATOM     23  O   UNL     1     106.449 126.165 130.125  1.00  0.00    -0.391 OA
ATOM     24  H   UNL     1     106.010 125.645 129.401  1.00  0.00     0.210 HD
ENDBRANCH  22  23
ENDBRANCH  17  22
BRANCH  18  25
ATOM     25  O   UNL     1     105.756 129.236 129.674  1.00  0.00    -0.385 OA
ATOM     26  H   UNL     1     105.736 129.469 128.713  1.00  0.00     0.211 HD
ENDBRANCH  18  25
BRANCH  20  27
ATOM     27  O   UNL     1     107.721 131.002 129.069  1.00  0.00    -0.387 OA
ATOM     28  H   UNL     1     106.816 130.772 128.724  1.00  0.00     0.211 HD
ENDBRANCH  20  27
BRANCH  21  29
ATOM     29  C   UNL     1     110.480 130.353 129.483  1.00  0.00     0.191 C 
BRANCH  29  30
ATOM     30  O   UNL     1     110.569 130.408 128.086  1.00  0.00    -0.394 OA
ATOM     31  H   UNL     1     109.815 130.972 127.758  1.00  0.00     0.210 HD
ENDBRANCH  29  30
ENDBRANCH  21  29
ENDBRANCH   1  17
TORSDOF 13
ENDMDL
MODEL 7
REMARK VINA RESULT:    -1.350      2.875      5.362
REMARK INTER + INTRA:          -3.706
REMARK INTER:                  -3.119
REMARK INTRA:                  -0.587
REMARK UNBOUND:                -1.646
REMARK SMILES OC[C@@H]1O[C@](CO)(O[C@@H]2O[C@@H](CO)[C@@H](O)[C@@H](O)[C@@H]2O)[C@H](O)[C@@H]1O
REMARK SMILES IDX 8 1 9 2 11 3 14 4 10 5 16 6 18 7 12 8 13 9 15 11 17 13 19 15
REMARK SMILES IDX 5 17 20 18 4 19 22 20 3 21 6 22 7 23 21 25 23 27 2 29 1 30
REMARK H PARENT 13 10 15 12 17 14 19 16 7 24 21 26 23 28 1 31
REMARK Flexibility Score: inf
ROOT
ATOM      1  O   UNL     1     107.915 129.403 128.327  1.00  0.00    -0.313 OA
ENDROOT
BRANCH   1   2
ATOM      2  C   UNL     1     108.628 130.039 129.382  1.00  0.00     0.285 C 
ATOM      3  C   UNL     1     107.394 132.045 129.330  1.00  0.00     0.178 C 
ATOM      4  C   UNL     1     108.598 132.889 128.869  1.00  0.00     0.177 C 
ATOM      5  O   UNL     1     107.818 130.945 130.125  1.00  0.00    -0.341 OA
ATOM      6  C   UNL     1     109.524 131.995 128.024  1.00  0.00     0.179 C 
ATOM      7  C   UNL     1     109.893 130.734 128.821  1.00  0.00     0.202 C 
BRANCH   3   8
ATOM      8  C   UNL     1     106.373 132.882 130.125  1.00  0.00     0.191 C 
BRANCH   8   9
ATOM      9  O   UNL     1     106.585 134.261 129.940  1.00  0.00    -0.394 OA
ATOM     10  H   UNL     1     107.496 134.469 130.255  1.00  0.00     0.210 HD
ENDBRANCH   8   9
ENDBRANCH   3   8
BRANCH   4  11
ATOM     11  O   UNL     1     109.300 133.393 129.979  1.00  0.00    -0.387 OA
ATOM     12  H   UNL     1     109.890 132.667 130.299  1.00  0.00     0.211 HD
ENDBRANCH   4  11
BRANCH   6  13
ATOM     13  O   UNL     1     110.696 132.685 127.675  1.00  0.00    -0.387 OA
ATOM     14  H   UNL     1     110.884 132.461 126.725  1.00  0.00     0.211 HD
ENDBRANCH   6  13
BRANCH   7  15
ATOM     15  O   UNL     1     110.603 129.848 127.993  1.00  0.00    -0.385 OA
ATOM     16  H   UNL     1     109.977 129.110 127.760  1.00  0.00     0.211 HD
ENDBRANCH   7  15
ENDBRANCH   1   2
BRANCH   1  17
ATOM     17  C   UNL     1     107.199 128.211 128.675  1.00  0.00     0.224 C 
ATOM     18  C   UNL     1     108.192 127.017 128.595  1.00  0.00     0.208 C 
ATOM     19  O   UNL     1     106.180 127.986 127.710  1.00  0.00    -0.337 OA
ATOM     20  C   UNL     1     107.903 126.403 127.244  1.00  0.00     0.180 C 
ATOM     21  C   UNL     1     106.420 126.724 127.118  1.00  0.00     0.179 C 
BRANCH  17  22
ATOM     22  C   UNL     1     106.552 128.271 130.095  1.00  0.00     0.225 C 
BRANCH  22  23
ATOM     23  O   UNL     1     105.300 128.906 130.072  1.00  0.00    -0.391 OA
ATOM     24  H   UNL     1     104.888 128.693 129.193  1.00  0.00     0.210 HD
ENDBRANCH  22  23
ENDBRANCH  17  22
BRANCH  18  25
ATOM     25  O   UNL     1     109.546 127.362 128.783  1.00  0.00    -0.385 OA
ATOM     26  H   UNL     1     109.943 127.635 127.919  1.00  0.00     0.211 HD
ENDBRANCH  18  25
BRANCH  20  27
ATOM     27  O   UNL     1     108.656 127.035 126.245  1.00  0.00    -0.387 OA
ATOM     28  H   UNL     1     108.844 127.959 126.563  1.00  0.00     0.211 HD
ENDBRANCH  20  27
BRANCH  21  29
ATOM     29  C   UNL     1     105.873 126.658 125.684  1.00  0.00     0.191 C 
BRANCH  29  30
ATOM     30  O   UNL     1     104.695 127.405 125.557  1.00  0.00    -0.394 OA
ATOM     31  H   UNL     1     104.749 128.164 126.202  1.00  0.00     0.210 HD
ENDBRANCH  29  30
ENDBRANCH  21  29
ENDBRANCH   1  17
TORSDOF 13
ENDMDL
MODEL 8
REMARK VINA RESULT:    -1.201      2.148      5.751
REMARK INTER + INTRA:          -3.479
REMARK INTER:                  -1.579
REMARK INTRA:                  -1.900
REMARK UNBOUND:                -1.646
REMARK SMILES OC[C@@H]1O[C@](CO)(O[C@@H]2O[C@@H](CO)[C@@H](O)[C@@H](O)[C@@H]2O)[C@H](O)[C@@H]1O
REMARK SMILES IDX 8 1 9 2 11 3 14 4 10 5 16 6 18 7 12 8 13 9 15 11 17 13 19 15
REMARK SMILES IDX 5 17 20 18 4 19 22 20 3 21 6 22 7 23 21 25 23 27 2 29 1 30
REMARK H PARENT 13 10 15 12 17 14 19 16 7 24 21 26 23 28 1 31
REMARK Flexibility Score: inf
ROOT
ATOM      1  O   UNL     1     109.033 128.315 127.840  1.00  0.00    -0.313 OA
ENDROOT
BRANCH   1   2
ATOM      2  C   UNL     1     107.962 128.796 127.035  1.00  0.00     0.285 C 
ATOM      3  C   UNL     1     108.115 127.109 125.398  1.00  0.00     0.178 C 
ATOM      4  C   UNL     1     108.542 128.088 124.288  1.00  0.00     0.177 C 
ATOM      5  O   UNL     1     107.277 127.753 126.350  1.00  0.00    -0.341 OA
ATOM      6  C   UNL     1     109.325 129.246 124.934  1.00  0.00     0.179 C 
ATOM      7  C   UNL     1     108.483 129.876 126.054  1.00  0.00     0.202 C 
BRANCH   3   8
ATOM      8  C   UNL     1     107.386 125.875 124.832  1.00  0.00     0.191 C 
BRANCH   8   9
ATOM      9  O   UNL     1     107.223 125.970 123.437  1.00  0.00    -0.394 OA
ATOM     10  H   UNL     1     107.013 126.910 123.224  1.00  0.00     0.210 HD
ENDBRANCH   8   9
ENDBRANCH   3   8
BRANCH   4  11
ATOM     11  O   UNL     1     107.414 128.588 123.612  1.00  0.00    -0.387 OA
ATOM     12  H   UNL     1     106.899 129.118 124.269  1.00  0.00     0.211 HD
ENDBRANCH   4  11
BRANCH   6  13
ATOM     13  O   UNL     1     109.638 130.225 123.978  1.00  0.00    -0.387 OA
ATOM     14  H   UNL     1     110.606 130.128 123.780  1.00  0.00     0.211 HD
ENDBRANCH   6  13
BRANCH   7  15
ATOM     15  O   UNL     1     109.259 130.823 126.745  1.00  0.00    -0.385 OA
ATOM     16  H   UNL     1     109.423 131.574 126.113  1.00  0.00     0.211 HD
ENDBRANCH   7  15
ENDBRANCH   1   2
BRANCH   1  17
ATOM     17  C   UNL     1     108.781 128.239 129.249  1.00  0.00     0.224 C 
ATOM     18  C   UNL     1     108.865 126.744 129.669  1.00  0.00     0.208 C 
ATOM     19  O   UNL     1     107.456 128.683 129.507  1.00  0.00    -0.337 OA
ATOM     20  C   UNL     1     107.419 126.307 129.720  1.00  0.00     0.180 C 
ATOM     21  C   UNL     1     106.759 127.618 130.124  1.00  0.00     0.179 C 
BRANCH  17  22
ATOM     22  C   UNL     1     109.778 129.087 130.101  1.00  0.00     0.225 C 
BRANCH  22  23
ATOM     23  O   UNL     1     110.202 130.238 129.416  1.00  0.00    -0.391 OA
ATOM     24  H   UNL     1     110.619 129.928 128.570  1.00  0.00     0.210 HD
ENDBRANCH  22  23
ENDBRANCH  17  22
BRANCH  18  25
ATOM     25  O   UNL     1     109.671 125.941 128.837  1.00  0.00    -0.385 OA
ATOM     26  H   UNL     1     110.422 126.479 128.481  1.00  0.00     0.211 HD
ENDBRANCH  18  25
BRANCH  20  27
ATOM     27  O   UNL     1     106.989 125.879 128.456  1.00  0.00    -0.387 OA
ATOM     28  H   UNL     1     107.618 125.166 128.161  1.00  0.00     0.211 HD
ENDBRANCH  20  27
BRANCH  21  29
ATOM     29  C   UNL     1     105.251 127.687 129.838  1.00  0.00     0.191 C 
BRANCH  29  30
ATOM     30  O   UNL     1     105.004 127.916 128.478  1.00  0.00    -0.394 OA
ATOM     31  H   UNL     1     105.802 128.381 128.101  1.00  0.00     0.210 HD
ENDBRANCH  29  30
ENDBRANCH  21  29
ENDBRANCH   1  17
TORSDOF 13
ENDMDL
MODEL 9
REMARK VINA RESULT:    -1.092      2.110      4.650
REMARK INTER + INTRA:          -3.313
REMARK INTER:                  -1.572
REMARK INTRA:                  -1.741
REMARK UNBOUND:                -1.646
REMARK SMILES OC[C@@H]1O[C@](CO)(O[C@@H]2O[C@@H](CO)[C@@H](O)[C@@H](O)[C@@H]2O)[C@H](O)[C@@H]1O
REMARK SMILES IDX 8 1 9 2 11 3 14 4 10 5 16 6 18 7 12 8 13 9 15 11 17 13 19 15
REMARK SMILES IDX 5 17 20 18 4 19 22 20 3 21 6 22 7 23 21 25 23 27 2 29 1 30
REMARK H PARENT 13 10 15 12 17 14 19 16 7 24 21 26 23 28 1 31
REMARK Flexibility Score: inf
ROOT
ATOM      1  O   UNL     1     108.154 127.919 128.047  1.00  0.00    -0.313 OA
ENDROOT
BRANCH   1   2
ATOM      2  C   UNL     1     107.712 129.237 127.739  1.00  0.00     0.285 C 
ATOM      3  C   UNL     1     109.713 129.924 126.702  1.00  0.00     0.178 C 
ATOM      4  C   UNL     1     110.030 130.973 127.786  1.00  0.00     0.177 C 
ATOM      5  O   UNL     1     108.309 129.754 126.554  1.00  0.00    -0.341 OA
ATOM      6  C   UNL     1     109.445 130.482 129.124  1.00  0.00     0.179 C 
ATOM      7  C   UNL     1     107.951 130.170 128.952  1.00  0.00     0.202 C 
BRANCH   3   8
ATOM      8  C   UNL     1     110.326 130.299 125.339  1.00  0.00     0.191 C 
BRANCH   8   9
ATOM      9  O   UNL     1     109.684 129.624 124.284  1.00  0.00    -0.394 OA
ATOM     10  H   UNL     1     109.177 130.292 123.766  1.00  0.00     0.210 HD
ENDBRANCH   8   9
ENDBRANCH   3   8
BRANCH   4  11
ATOM     11  O   UNL     1     109.470 132.217 127.446  1.00  0.00    -0.387 OA
ATOM     12  H   UNL     1     109.703 132.845 128.173  1.00  0.00     0.211 HD
ENDBRANCH   4  11
BRANCH   6  13
ATOM     13  O   UNL     1     109.607 131.456 130.121  1.00  0.00    -0.387 OA
ATOM     14  H   UNL     1     109.985 132.259 129.674  1.00  0.00     0.211 HD
ENDBRANCH   6  13
BRANCH   7  15
ATOM     15  O   UNL     1     107.460 129.574 130.125  1.00  0.00    -0.385 OA
ATOM     16  H   UNL     1     106.765 128.919 129.843  1.00  0.00     0.211 HD
ENDBRANCH   7  15
ENDBRANCH   1   2
BRANCH   1  17
ATOM     17  C   UNL     1     107.277 126.852 127.663  1.00  0.00     0.224 C 
ATOM     18  C   UNL     1     108.082 125.875 126.758  1.00  0.00     0.208 C 
ATOM     19  O   UNL     1     106.216 127.383 126.881  1.00  0.00    -0.337 OA
ATOM     20  C   UNL     1     107.678 126.273 125.357  1.00  0.00     0.180 C 
ATOM     21  C   UNL     1     106.256 126.751 125.616  1.00  0.00     0.179 C 
BRANCH  17  22
ATOM     22  C   UNL     1     106.677 126.077 128.878  1.00  0.00     0.225 C 
BRANCH  22  23
ATOM     23  O   UNL     1     106.811 126.800 130.076  1.00  0.00    -0.391 OA
ATOM     24  H   UNL     1     107.345 127.609 129.861  1.00  0.00     0.210 HD
ENDBRANCH  22  23
ENDBRANCH  17  22
BRANCH  18  25
ATOM     25  O   UNL     1     109.476 125.887 126.971  1.00  0.00    -0.385 OA
ATOM     26  H   UNL     1     109.876 126.667 126.513  1.00  0.00     0.211 HD
ENDBRANCH  18  25
BRANCH  20  27
ATOM     27  O   UNL     1     108.494 127.310 124.884  1.00  0.00    -0.387 OA
ATOM     28  H   UNL     1     109.175 126.895 124.288  1.00  0.00     0.211 HD
ENDBRANCH  20  27
BRANCH  21  29
ATOM     29  C   UNL     1     105.675 127.651 124.515  1.00  0.00     0.191 C 
BRANCH  29  30
ATOM     30  O   UNL     1     106.092 127.229 123.245  1.00  0.00    -0.394 OA
ATOM     31  H   UNL     1     107.074 127.058 123.292  1.00  0.00     0.210 HD
ENDBRANCH  29  30
ENDBRANCH  21  29
ENDBRANCH   1  17
TORSDOF 13
ENDMDL
