MODEL 1
REMARK VINA RESULT:    -3.499      0.000      0.000
REMARK INTER + INTRA:          -5.181
REMARK INTER:                  -4.624
REMARK INTRA:                  -0.557
REMARK UNBOUND:                -0.557
REMARK SMILES C=CCC[C@H](O)CCC
REMARK SMILES IDX 4 1 5 2 7 3 8 4 9 5 6 6 3 8 2 9 1 10
REMARK H PARENT 6 7
REMARK Flexibility Score: inf
ROOT
ATOM      1  C   UNL     1      42.929   0.485 111.551  1.00  0.00     0.036 C 
ENDROOT
BRANCH   1   2
ATOM      2  C   UNL     1      43.064   1.666 112.550  1.00  0.00     0.114 C 
BRANCH   2   3
ATOM      3  C   UNL     1      42.392   1.391 113.914  1.00  0.00     0.031 C 
BRANCH   3   4
ATOM      4  C   UNL     1      40.866   1.248 113.818  1.00  0.00    -0.001 C 
ATOM      5  C   UNL     1      40.339   0.255 114.849  1.00  0.00     0.004 C 
ENDBRANCH   3   4
ENDBRANCH   2   3
BRANCH   2   6
ATOM      6  O   UNL     1      44.422   1.971 112.752  1.00  0.00    -0.393 OA
ATOM      7  H   UNL     1      44.521   2.957 112.680  1.00  0.00     0.210 HD
ENDBRANCH   2   6
ENDBRANCH   1   2
BRANCH   1   8
ATOM      8  C   UNL     1      43.982  -0.610 111.793  1.00  0.00     0.029 C 
BRANCH   8   9
ATOM      9  C   UNL     1      43.346  -1.884 112.274  1.00  0.00    -0.035 C 
ATOM     10  C   UNL     1      42.022  -2.066 112.243  1.00  0.00     0.004 C 
ENDBRANCH   8   9
ENDBRANCH   1   8
TORSDOF 6
ENDMDL
MODEL 2
REMARK VINA RESULT:    -3.448      7.610      8.892
REMARK INTER + INTRA:          -5.113
REMARK INTER:                  -4.502
REMARK INTRA:                  -0.611
REMARK UNBOUND:                -0.557
REMARK SMILES C=CCC[C@H](O)CCC
REMARK SMILES IDX 4 1 5 2 7 3 8 4 9 5 6 6 3 8 2 9 1 10
REMARK H PARENT 6 7
REMARK Flexibility Score: inf
ROOT
ATOM      1  C   UNL     1      50.201   4.778 113.875  1.00  0.00     0.036 C 
ENDROOT
BRANCH   1   2
ATOM      2  C   UNL     1      50.136   6.170 114.560  1.00  0.00     0.114 C 
BRANCH   2   3
ATOM      3  C   UNL     1      49.605   7.283 113.628  1.00  0.00     0.031 C 
BRANCH   3   4
ATOM      4  C   UNL     1      48.076   7.414 113.656  1.00  0.00    -0.001 C 
ATOM      5  C   UNL     1      47.506   7.526 112.245  1.00  0.00     0.004 C 
ENDBRANCH   3   4
ENDBRANCH   2   3
BRANCH   2   6
ATOM      6  O   UNL     1      49.331   6.102 115.711  1.00  0.00    -0.393 OA
ATOM      7  H   UNL     1      49.661   6.791 116.347  1.00  0.00     0.210 HD
ENDBRANCH   2   6
ENDBRANCH   1   2
BRANCH   1   8
ATOM      8  C   UNL     1      50.502   4.878 112.370  1.00  0.00     0.029 C 
BRANCH   8   9
ATOM      9  C   UNL     1      49.353   4.368 111.547  1.00  0.00    -0.035 C 
ATOM     10  C   UNL     1      48.246   3.875 112.111  1.00  0.00     0.004 C 
ENDBRANCH   8   9
ENDBRANCH   1   8
TORSDOF 6
ENDMDL
MODEL 3
REMARK VINA RESULT:    -3.431      7.399      8.288
REMARK INTER + INTRA:          -5.091
REMARK INTER:                  -4.959
REMARK INTRA:                  -0.133
REMARK UNBOUND:                -0.557
REMARK SMILES C=CCC[C@H](O)CCC
REMARK SMILES IDX 4 1 5 2 7 3 8 4 9 5 6 6 3 8 2 9 1 10
REMARK H PARENT 6 7
REMARK Flexibility Score: inf
ROOT
ATOM      1  C   UNL     1      48.954   6.825 112.166  1.00  0.00     0.036 C 
ENDROOT
BRANCH   1   2
ATOM      2  C   UNL     1      47.464   7.262 112.201  1.00  0.00     0.114 C 
BRANCH   2   3
ATOM      3  C   UNL     1      46.954   7.574 113.627  1.00  0.00     0.031 C 
BRANCH   3   4
ATOM      4  C   UNL     1      45.424   7.530 113.743  1.00  0.00    -0.001 C 
ATOM      5  C   UNL     1      44.889   8.775 114.443  1.00  0.00     0.004 C 
ENDBRANCH   3   4
ENDBRANCH   2   3
BRANCH   2   6
ATOM      6  O   UNL     1      47.276   8.389 111.381  1.00  0.00    -0.393 OA
ATOM      7  H   UNL     1      46.844   9.092 111.935  1.00  0.00     0.210 HD
ENDBRANCH   2   6
ENDBRANCH   1   2
BRANCH   1   8
ATOM      8  C   UNL     1      49.272   5.923 110.962  1.00  0.00     0.029 C 
BRANCH   8   9
ATOM      9  C   UNL     1      49.399   4.483 111.374  1.00  0.00    -0.035 C 
ATOM     10  C   UNL     1      48.483   3.888 112.145  1.00  0.00     0.004 C 
ENDBRANCH   8   9
ENDBRANCH   1   8
TORSDOF 6
ENDMDL
MODEL 4
REMARK VINA RESULT:    -3.413      1.107      3.670
REMARK INTER + INTRA:          -5.067
REMARK INTER:                  -4.699
REMARK INTRA:                  -0.368
REMARK UNBOUND:                -0.557
REMARK SMILES C=CCC[C@H](O)CCC
REMARK SMILES IDX 4 1 5 2 7 3 8 4 9 5 6 6 3 8 2 9 1 10
REMARK H PARENT 6 7
REMARK Flexibility Score: inf
ROOT
ATOM      1  C   UNL     1      42.706   1.641 113.639  1.00  0.00     0.036 C 
ENDROOT
BRANCH   1   2
ATOM      2  C   UNL     1      43.017   0.875 112.324  1.00  0.00     0.114 C 
BRANCH   2   3
ATOM      3  C   UNL     1      42.212  -0.437 112.179  1.00  0.00     0.031 C 
BRANCH   3   4
ATOM      4  C   UNL     1      43.096  -1.692 112.200  1.00  0.00    -0.001 C 
ATOM      5  C   UNL     1      44.569  -1.327 112.350  1.00  0.00     0.004 C 
ENDBRANCH   3   4
ENDBRANCH   2   3
BRANCH   2   6
ATOM      6  O   UNL     1      42.763   1.702 111.216  1.00  0.00    -0.393 OA
ATOM      7  H   UNL     1      42.383   2.554 111.559  1.00  0.00     0.210 HD
ENDBRANCH   2   6
ENDBRANCH   1   2
BRANCH   1   8
ATOM      8  C   UNL     1      41.197   1.735 113.919  1.00  0.00     0.029 C 
BRANCH   8   9
ATOM      9  C   UNL     1      40.846   1.107 115.239  1.00  0.00    -0.035 C 
ATOM     10  C   UNL     1      39.950   0.120 115.333  1.00  0.00     0.004 C 
ENDBRANCH   8   9
ENDBRANCH   1   8
TORSDOF 6
ENDMDL
MODEL 5
REMARK VINA RESULT:    -3.400      8.626      9.131
REMARK INTER + INTRA:          -5.050
REMARK INTER:                  -4.459
REMARK INTRA:                  -0.592
REMARK UNBOUND:                -0.557
REMARK SMILES C=CCC[C@H](O)CCC
REMARK SMILES IDX 4 1 5 2 7 3 8 4 9 5 6 6 3 8 2 9 1 10
REMARK H PARENT 6 7
REMARK Flexibility Score: inf
ROOT
ATOM      1  C   UNL     1      49.174   6.636 111.279  1.00  0.00     0.036 C 
ENDROOT
BRANCH   1   2
ATOM      2  C   UNL     1      47.790   7.056 111.844  1.00  0.00     0.114 C 
BRANCH   2   3
ATOM      3  C   UNL     1      47.752   7.105 113.389  1.00  0.00     0.031 C 
BRANCH   3   4
ATOM      4  C   UNL     1      48.944   7.856 113.998  1.00  0.00    -0.001 C 
ATOM      5  C   UNL     1      49.243   7.362 115.410  1.00  0.00     0.004 C 
ENDBRANCH   3   4
ENDBRANCH   2   3
BRANCH   2   6
ATOM      6  O   UNL     1      47.422   8.313 111.329  1.00  0.00    -0.393 OA
ATOM      7  H   UNL     1      47.537   8.276 110.343  1.00  0.00     0.210 HD
ENDBRANCH   2   6
ENDBRANCH   1   2
BRANCH   1   8
ATOM      8  C   UNL     1      49.400   5.117 111.354  1.00  0.00     0.029 C 
BRANCH   8   9
ATOM      9  C   UNL     1      50.535   4.778 112.280  1.00  0.00    -0.035 C 
ATOM     10  C   UNL     1      50.323   4.317 113.516  1.00  0.00     0.004 C 
ENDBRANCH   8   9
ENDBRANCH   1   8
TORSDOF 6
ENDMDL
MODEL 6
REMARK VINA RESULT:    -3.390     14.033     15.623
REMARK INTER + INTRA:          -5.038
REMARK INTER:                  -4.600
REMARK INTRA:                  -0.438
REMARK UNBOUND:                -0.557
REMARK SMILES C=CCC[C@H](O)CCC
REMARK SMILES IDX 4 1 5 2 7 3 8 4 9 5 6 6 3 8 2 9 1 10
REMARK H PARENT 6 7
REMARK Flexibility Score: inf
ROOT
ATOM      1  C   UNL     1      40.539  16.426 113.158  1.00  0.00     0.036 C 
ENDROOT
BRANCH   1   2
ATOM      2  C   UNL     1      40.598  14.876 113.225  1.00  0.00     0.114 C 
BRANCH   2   3
ATOM      3  C   UNL     1      42.007  14.334 113.561  1.00  0.00     0.031 C 
BRANCH   3   4
ATOM      4  C   UNL     1      42.035  13.471 114.830  1.00  0.00    -0.001 C 
ATOM      5  C   UNL     1      42.253  12.000 114.491  1.00  0.00     0.004 C 
ENDBRANCH   3   4
ENDBRANCH   2   3
BRANCH   2   6
ATOM      6  O   UNL     1      39.677  14.401 114.176  1.00  0.00    -0.393 OA
ATOM      7  H   UNL     1      39.965  14.741 115.065  1.00  0.00     0.210 HD
ENDBRANCH   2   6
ENDBRANCH   1   2
BRANCH   1   8
ATOM      8  C   UNL     1      39.989  17.048 114.453  1.00  0.00     0.029 C 
BRANCH   8   9
ATOM      9  C   UNL     1      41.101  17.506 115.355  1.00  0.00    -0.035 C 
ATOM     10  C   UNL     1      41.185  17.107 116.628  1.00  0.00     0.004 C 
ENDBRANCH   8   9
ENDBRANCH   1   8
TORSDOF 6
ENDMDL
MODEL 7
REMARK VINA RESULT:    -3.378      8.228      9.305
REMARK INTER + INTRA:          -5.022
REMARK INTER:                  -4.705
REMARK INTRA:                  -0.316
REMARK UNBOUND:                -0.557
REMARK SMILES C=CCC[C@H](O)CCC
REMARK SMILES IDX 4 1 5 2 7 3 8 4 9 5 6 6 3 8 2 9 1 10
REMARK H PARENT 6 7
REMARK Flexibility Score: inf
ROOT
ATOM      1  C   UNL     1      47.982   7.505 111.397  1.00  0.00     0.036 C 
ENDROOT
BRANCH   1   2
ATOM      2  C   UNL     1      49.174   6.674 110.849  1.00  0.00     0.114 C 
BRANCH   2   3
ATOM      3  C   UNL     1      49.242   5.246 111.438  1.00  0.00     0.031 C 
BRANCH   3   4
ATOM      4  C   UNL     1      50.558   4.959 112.175  1.00  0.00    -0.001 C 
ATOM      5  C   UNL     1      50.298   4.363 113.554  1.00  0.00     0.004 C 
ENDBRANCH   3   4
ENDBRANCH   2   3
BRANCH   2   6
ATOM      6  O   UNL     1      49.101   6.597 109.447  1.00  0.00    -0.393 OA
ATOM      7  H   UNL     1      50.031   6.621 109.098  1.00  0.00     0.210 HD
ENDBRANCH   2   6
ENDBRANCH   1   2
BRANCH   1   8
ATOM      8  C   UNL     1      47.864   7.422 112.928  1.00  0.00     0.029 C 
BRANCH   8   9
ATOM      9  C   UNL     1      46.461   7.085 113.350  1.00  0.00    -0.035 C 
ATOM     10  C   UNL     1      45.580   8.032 113.687  1.00  0.00     0.004 C 
ENDBRANCH   8   9
ENDBRANCH   1   8
TORSDOF 6
ENDMDL
MODEL 8
REMARK VINA RESULT:    -3.354     14.374     15.633
REMARK INTER + INTRA:          -4.990
REMARK INTER:                  -4.547
REMARK INTRA:                  -0.443
REMARK UNBOUND:                -0.557
REMARK SMILES C=CCC[C@H](O)CCC
REMARK SMILES IDX 4 1 5 2 7 3 8 4 9 5 6 6 3 8 2 9 1 10
REMARK H PARENT 6 7
REMARK Flexibility Score: inf
ROOT
ATOM      1  C   UNL     1      41.137  15.529 112.701  1.00  0.00     0.036 C 
ENDROOT
BRANCH   1   2
ATOM      2  C   UNL     1      40.199  15.892 113.884  1.00  0.00     0.114 C 
BRANCH   2   3
ATOM      3  C   UNL     1      39.931  17.409 114.005  1.00  0.00     0.031 C 
BRANCH   3   4
ATOM      4  C   UNL     1      40.761  18.083 115.107  1.00  0.00    -0.001 C 
ATOM      5  C   UNL     1      41.117  17.093 116.212  1.00  0.00     0.004 C 
ENDBRANCH   3   4
ENDBRANCH   2   3
BRANCH   2   6
ATOM      6  O   UNL     1      38.975  15.211 113.753  1.00  0.00    -0.393 OA
ATOM      7  H   UNL     1      39.058  14.351 114.245  1.00  0.00     0.210 HD
ENDBRANCH   2   6
ENDBRANCH   1   2
BRANCH   1   8
ATOM      8  C   UNL     1      42.291  14.607 113.129  1.00  0.00     0.029 C 
BRANCH   8   9
ATOM      9  C   UNL     1      42.019  13.977 114.467  1.00  0.00    -0.035 C 
ATOM     10  C   UNL     1      41.988  12.650 114.628  1.00  0.00     0.004 C 
ENDBRANCH   8   9
ENDBRANCH   1   8
TORSDOF 6
ENDMDL
MODEL 9
REMARK VINA RESULT:    -3.326     10.430     12.384
REMARK INTER + INTRA:          -4.952
REMARK INTER:                  -4.688
REMARK INTRA:                  -0.264
REMARK UNBOUND:                -0.557
REMARK SMILES C=CCC[C@H](O)CCC
REMARK SMILES IDX 4 1 5 2 7 3 8 4 9 5 6 6 3 8 2 9 1 10
REMARK H PARENT 6 7
REMARK Flexibility Score: inf
ROOT
ATOM      1  C   UNL     1      43.324   9.967 120.243  1.00  0.00     0.036 C 
ENDROOT
BRANCH   1   2
ATOM      2  C   UNL     1      43.083   9.140 118.951  1.00  0.00     0.114 C 
BRANCH   2   3
ATOM      3  C   UNL     1      44.389   8.627 118.303  1.00  0.00     0.031 C 
BRANCH   3   4
ATOM      4  C   UNL     1      44.464   8.904 116.795  1.00  0.00    -0.001 C 
ATOM      5  C   UNL     1      43.738  10.196 116.435  1.00  0.00     0.004 C 
ENDBRANCH   3   4
ENDBRANCH   2   3
BRANCH   2   6
ATOM      6  O   UNL     1      42.241   8.048 119.230  1.00  0.00    -0.393 OA
ATOM      7  H   UNL     1      41.478   8.090 118.595  1.00  0.00     0.210 HD
ENDBRANCH   2   6
ENDBRANCH   1   2
BRANCH   1   8
ATOM      8  C   UNL     1      42.036  10.624 120.767  1.00  0.00     0.029 C 
BRANCH   8   9
ATOM      9  C   UNL     1      42.206  12.109 120.927  1.00  0.00    -0.035 C 
ATOM     10  C   UNL     1      42.625  12.883 119.921  1.00  0.00     0.004 C 
ENDBRANCH   8   9
ENDBRANCH   1   8
TORSDOF 6
ENDMDL
