MODEL 1
REMARK VINA RESULT:    -4.894      0.000      0.000
REMARK INTER + INTRA:         -10.153
REMARK INTER:                  -8.900
REMARK INTRA:                  -1.253
REMARK UNBOUND:                -1.253
REMARK SMILES CCCCCCCCCCCCCCCC(=O)[O-]
REMARK SMILES IDX 9 1 10 2 11 3 12 4 13 5 14 6 15 7 16 8 17 9 18 10 8 11 7 12
REMARK SMILES IDX 6 13 5 14 4 15 3 16 2 17 1 18
REMARK H PARENT
REMARK Flexibility Score: inf
ROOT
ATOM      1  C   UNL     1      -4.749  23.898  48.275  1.00  0.00     0.000 C 
ENDROOT
BRANCH   1   2
ATOM      2  C   UNL     1      -5.090  22.811  47.240  1.00  0.00     0.000 C 
BRANCH   2   3
ATOM      3  C   UNL     1      -4.921  21.387  47.792  1.00  0.00     0.000 C 
BRANCH   3   4
ATOM      4  C   UNL     1      -3.854  21.351  48.897  1.00  0.00     0.000 C 
BRANCH   4   5
ATOM      5  C   UNL     1      -3.051  20.040  48.903  1.00  0.00     0.000 C 
BRANCH   5   6
ATOM      6  C   UNL     1      -3.921  18.811  48.589  1.00  0.00     0.006 C 
BRANCH   6   7
ATOM      7  C   UNL     1      -3.086  17.532  48.448  1.00  0.00     0.053 C 
BRANCH   7   8
ATOM      8  C   UNL     1      -2.507  17.394  47.074  1.00  0.00     0.041 C 
ATOM      9  O   UNL     1      -1.261  17.450  46.901  1.00  0.00    -0.550 OA
ATOM     10  O   UNL     1      -3.342  17.173  45.986  1.00  0.00    -0.550 OA
ENDBRANCH   7   8
ENDBRANCH   6   7
ENDBRANCH   5   6
ENDBRANCH   4   5
ENDBRANCH   3   4
ENDBRANCH   2   3
ENDBRANCH   1   2
BRANCH   1  11
ATOM     11  C   UNL     1      -5.966  24.624  48.883  1.00  0.00     0.000 C 
BRANCH  11  12
ATOM     12  C   UNL     1      -5.956  24.746  50.420  1.00  0.00    -0.000 C 
BRANCH  12  13
ATOM     13  C   UNL     1      -4.680  24.219  51.102  1.00  0.00    -0.000 C 
BRANCH  13  14
ATOM     14  C   UNL     1      -4.245  25.081  52.300  1.00  0.00    -0.000 C 
BRANCH  14  15
ATOM     15  C   UNL     1      -2.748  24.910  52.628  1.00  0.00    -0.000 C 
BRANCH  15  16
ATOM     16  C   UNL     1      -1.942  24.195  51.527  1.00  0.00    -0.000 C 
BRANCH  16  17
ATOM     17  C   UNL     1      -1.050  23.048  52.043  1.00  0.00    -0.003 C 
ATOM     18  C   UNL     1      -1.005  22.975  53.569  1.00  0.00     0.004 C 
ENDBRANCH  16  17
ENDBRANCH  15  16
ENDBRANCH  14  15
ENDBRANCH  13  14
ENDBRANCH  12  13
ENDBRANCH  11  12
ENDBRANCH   1  11
TORSDOF 14
ENDMDL
MODEL 2
REMARK VINA RESULT:    -4.870      0.962      1.638
REMARK INTER + INTRA:         -10.108
REMARK INTER:                  -8.642
REMARK INTRA:                  -1.466
REMARK UNBOUND:                -1.253
REMARK SMILES CCCCCCCCCCCCCCCC(=O)[O-]
REMARK SMILES IDX 9 1 10 2 11 3 12 4 13 5 14 6 15 7 16 8 17 9 18 10 8 11 7 12
REMARK SMILES IDX 6 13 5 14 4 15 3 16 2 17 1 18
REMARK H PARENT
REMARK Flexibility Score: inf
ROOT
ATOM      1  C   UNL     1      -4.565  24.996  49.220  1.00  0.00     0.000 C 
ENDROOT
BRANCH   1   2
ATOM      2  C   UNL     1      -4.845  24.239  47.910  1.00  0.00     0.000 C 
BRANCH   2   3
ATOM      3  C   UNL     1      -5.648  22.946  48.127  1.00  0.00     0.000 C 
BRANCH   3   4
ATOM      4  C   UNL     1      -4.934  21.745  47.489  1.00  0.00     0.000 C 
BRANCH   4   5
ATOM      5  C   UNL     1      -4.228  20.857  48.525  1.00  0.00     0.000 C 
BRANCH   5   6
ATOM      6  C   UNL     1      -4.435  19.356  48.259  1.00  0.00     0.006 C 
BRANCH   6   7
ATOM      7  C   UNL     1      -3.190  18.530  48.605  1.00  0.00     0.053 C 
BRANCH   7   8
ATOM      8  C   UNL     1      -2.592  17.890  47.390  1.00  0.00     0.041 C 
ATOM      9  O   UNL     1      -1.366  17.600  47.363  1.00  0.00    -0.550 OA
ATOM     10  O   UNL     1      -3.393  17.586  46.297  1.00  0.00    -0.550 OA
ENDBRANCH   7   8
ENDBRANCH   6   7
ENDBRANCH   5   6
ENDBRANCH   4   5
ENDBRANCH   3   4
ENDBRANCH   2   3
ENDBRANCH   1   2
BRANCH   1  11
ATOM     11  C   UNL     1      -5.417  24.550  50.426  1.00  0.00     0.000 C 
BRANCH  11  12
ATOM     12  C   UNL     1      -4.629  24.283  51.724  1.00  0.00    -0.000 C 
BRANCH  12  13
ATOM     13  C   UNL     1      -4.052  25.540  52.399  1.00  0.00    -0.000 C 
BRANCH  13  14
ATOM     14  C   UNL     1      -2.668  25.298  53.027  1.00  0.00    -0.000 C 
BRANCH  14  15
ATOM     15  C   UNL     1      -2.078  23.931  52.626  1.00  0.00    -0.000 C 
BRANCH  15  16
ATOM     16  C   UNL     1      -0.616  23.995  52.145  1.00  0.00    -0.000 C 
BRANCH  16  17
ATOM     17  C   UNL     1      -0.431  23.693  50.645  1.00  0.00    -0.003 C 
ATOM     18  C   UNL     1      -1.636  22.977  50.034  1.00  0.00     0.004 C 
ENDBRANCH  16  17
ENDBRANCH  15  16
ENDBRANCH  14  15
ENDBRANCH  13  14
ENDBRANCH  12  13
ENDBRANCH  11  12
ENDBRANCH   1  11
TORSDOF 14
ENDMDL
MODEL 3
REMARK VINA RESULT:    -4.863      4.479      7.603
REMARK INTER + INTRA:         -10.096
REMARK INTER:                  -8.602
REMARK INTRA:                  -1.495
REMARK UNBOUND:                -1.253
REMARK SMILES CCCCCCCCCCCCCCCC(=O)[O-]
REMARK SMILES IDX 9 1 10 2 11 3 12 4 13 5 14 6 15 7 16 8 17 9 18 10 8 11 7 12
REMARK SMILES IDX 6 13 5 14 4 15 3 16 2 17 1 18
REMARK H PARENT
REMARK Flexibility Score: inf
ROOT
ATOM      1  C   UNL     1      -4.271  20.616  47.868  1.00  0.00     0.000 C 
ENDROOT
BRANCH   1   2
ATOM      2  C   UNL     1      -3.419  21.382  48.896  1.00  0.00     0.000 C 
BRANCH   2   3
ATOM      3  C   UNL     1      -3.970  22.783  49.203  1.00  0.00     0.000 C 
BRANCH   3   4
ATOM      4  C   UNL     1      -5.325  23.002  48.513  1.00  0.00     0.000 C 
BRANCH   4   5
ATOM      5  C   UNL     1      -5.891  24.411  48.752  1.00  0.00     0.000 C 
BRANCH   5   6
ATOM      6  C   UNL     1      -5.967  24.773  50.245  1.00  0.00     0.006 C 
BRANCH   6   7
ATOM      7  C   UNL     1      -5.145  26.025  50.578  1.00  0.00     0.053 C 
BRANCH   7   8
ATOM      8  C   UNL     1      -5.881  27.282  50.234  1.00  0.00     0.041 C 
ATOM      9  O   UNL     1      -5.248  28.317  49.894  1.00  0.00    -0.550 OA
ATOM     10  O   UNL     1      -7.270  27.305  50.259  1.00  0.00    -0.550 OA
ENDBRANCH   7   8
ENDBRANCH   6   7
ENDBRANCH   5   6
ENDBRANCH   4   5
ENDBRANCH   3   4
ENDBRANCH   2   3
ENDBRANCH   1   2
BRANCH   1  11
ATOM     11  C   UNL     1      -4.480  19.121  48.180  1.00  0.00     0.000 C 
BRANCH  11  12
ATOM     12  C   UNL     1      -3.350  18.455  48.991  1.00  0.00    -0.000 C 
BRANCH  12  13
ATOM     13  C   UNL     1      -2.586  17.347  48.244  1.00  0.00    -0.000 C 
BRANCH  13  14
ATOM     14  C   UNL     1      -2.815  17.387  46.722  1.00  0.00    -0.000 C 
BRANCH  14  15
ATOM     15  C   UNL     1      -1.566  17.869  45.958  1.00  0.00    -0.000 C 
BRANCH  15  16
ATOM     16  C   UNL     1      -0.625  18.762  46.790  1.00  0.00    -0.000 C 
BRANCH  16  17
ATOM     17  C   UNL     1      -0.782  20.270  46.517  1.00  0.00    -0.003 C 
ATOM     18  C   UNL     1       0.069  21.131  47.450  1.00  0.00     0.004 C 
ENDBRANCH  16  17
ENDBRANCH  15  16
ENDBRANCH  14  15
ENDBRANCH  13  14
ENDBRANCH  12  13
ENDBRANCH  11  12
ENDBRANCH   1  11
TORSDOF 14
ENDMDL
MODEL 4
REMARK VINA RESULT:    -4.806      3.788      7.054
REMARK INTER + INTRA:          -9.993
REMARK INTER:                  -8.525
REMARK INTRA:                  -1.468
REMARK UNBOUND:                -1.253
REMARK SMILES CCCCCCCCCCCCCCCC(=O)[O-]
REMARK SMILES IDX 9 1 10 2 11 3 12 4 13 5 14 6 15 7 16 8 17 9 18 10 8 11 7 12
REMARK SMILES IDX 6 13 5 14 4 15 3 16 2 17 1 18
REMARK H PARENT
REMARK Flexibility Score: inf
ROOT
ATOM      1  C   UNL     1      -4.259  21.190  47.542  1.00  0.00     0.000 C 
ENDROOT
BRANCH   1   2
ATOM      2  C   UNL     1      -5.446  22.153  47.728  1.00  0.00     0.000 C 
BRANCH   2   3
ATOM      3  C   UNL     1      -5.005  23.582  48.081  1.00  0.00     0.000 C 
BRANCH   3   4
ATOM      4  C   UNL     1      -6.060  24.280  48.953  1.00  0.00     0.000 C 
BRANCH   4   5
ATOM      5  C   UNL     1      -5.437  25.100  50.095  1.00  0.00     0.000 C 
BRANCH   5   6
ATOM      6  C   UNL     1      -5.003  24.225  51.283  1.00  0.00     0.006 C 
BRANCH   6   7
ATOM      7  C   UNL     1      -3.483  24.243  51.490  1.00  0.00     0.053 C 
BRANCH   7   8
ATOM      8  C   UNL     1      -3.093  25.077  52.671  1.00  0.00     0.041 C 
ATOM      9  O   UNL     1      -1.917  25.029  53.121  1.00  0.00    -0.550 OA
ATOM     10  O   UNL     1      -4.019  25.929  53.258  1.00  0.00    -0.550 OA
ENDBRANCH   7   8
ENDBRANCH   6   7
ENDBRANCH   5   6
ENDBRANCH   4   5
ENDBRANCH   3   4
ENDBRANCH   2   3
ENDBRANCH   1   2
BRANCH   1  11
ATOM     11  C   UNL     1      -3.656  20.639  48.850  1.00  0.00     0.000 C 
BRANCH  11  12
ATOM     12  C   UNL     1      -3.408  19.118  48.868  1.00  0.00    -0.000 C 
BRANCH  12  13
ATOM     13  C   UNL     1      -3.560  18.422  47.503  1.00  0.00    -0.000 C 
BRANCH  13  14
ATOM     14  C   UNL     1      -2.385  17.484  47.178  1.00  0.00    -0.000 C 
BRANCH  14  15
ATOM     15  C   UNL     1      -1.289  18.186  46.351  1.00  0.00    -0.000 C 
BRANCH  15  16
ATOM     16  C   UNL     1      -0.033  18.560  47.161  1.00  0.00    -0.000 C 
BRANCH  16  17
ATOM     17  C   UNL     1       0.207  20.077  47.289  1.00  0.00    -0.003 C 
ATOM     18  C   UNL     1      -0.766  20.902  46.447  1.00  0.00     0.004 C 
ENDBRANCH  16  17
ENDBRANCH  15  16
ENDBRANCH  14  15
ENDBRANCH  13  14
ENDBRANCH  12  13
ENDBRANCH  11  12
ENDBRANCH   1  11
TORSDOF 14
ENDMDL
MODEL 5
REMARK VINA RESULT:    -4.802      2.761      5.278
REMARK INTER + INTRA:          -9.986
REMARK INTER:                  -9.392
REMARK INTRA:                  -0.594
REMARK UNBOUND:                -1.253
REMARK SMILES CCCCCCCCCCCCCCCC(=O)[O-]
REMARK SMILES IDX 9 1 10 2 11 3 12 4 13 5 14 6 15 7 16 8 17 9 18 10 8 11 7 12
REMARK SMILES IDX 6 13 5 14 4 15 3 16 2 17 1 18
REMARK H PARENT
REMARK Flexibility Score: inf
ROOT
ATOM      1  C   UNL     1      -4.833  23.680  48.373  1.00  0.00     0.000 C 
ENDROOT
BRANCH   1   2
ATOM      2  C   UNL     1      -5.452  22.381  47.828  1.00  0.00     0.000 C 
BRANCH   2   3
ATOM      3  C   UNL     1      -4.397  21.356  47.384  1.00  0.00     0.000 C 
BRANCH   3   4
ATOM      4  C   UNL     1      -3.831  20.594  48.592  1.00  0.00     0.000 C 
BRANCH   4   5
ATOM      5  C   UNL     1      -4.196  19.101  48.575  1.00  0.00     0.000 C 
BRANCH   5   6
ATOM      6  C   UNL     1      -3.511  18.338  47.427  1.00  0.00     0.006 C 
BRANCH   6   7
ATOM      7  C   UNL     1      -2.201  17.676  47.874  1.00  0.00     0.053 C 
BRANCH   7   8
ATOM      8  C   UNL     1      -1.107  17.877  46.871  1.00  0.00     0.041 C 
ATOM      9  O   UNL     1      -1.299  17.600  45.657  1.00  0.00    -0.550 OA
ATOM     10  O   UNL     1       0.117  18.398  47.271  1.00  0.00    -0.550 OA
ENDBRANCH   7   8
ENDBRANCH   6   7
ENDBRANCH   5   6
ENDBRANCH   4   5
ENDBRANCH   3   4
ENDBRANCH   2   3
ENDBRANCH   1   2
BRANCH   1  11
ATOM     11  C   UNL     1      -4.951  23.868  49.899  1.00  0.00     0.000 C 
BRANCH  11  12
ATOM     12  C   UNL     1      -6.089  24.802  50.358  1.00  0.00    -0.000 C 
BRANCH  12  13
ATOM     13  C   UNL     1      -6.861  25.488  49.217  1.00  0.00    -0.000 C 
BRANCH  13  14
ATOM     14  C   UNL     1      -7.181  26.963  49.517  1.00  0.00    -0.000 C 
BRANCH  14  15
ATOM     15  C   UNL     1      -7.814  27.680  48.307  1.00  0.00    -0.000 C 
BRANCH  15  16
ATOM     16  C   UNL     1      -9.354  27.655  48.297  1.00  0.00    -0.000 C 
BRANCH  16  17
ATOM     17  C   UNL     1      -9.988  28.301  47.049  1.00  0.00    -0.003 C 
ATOM     18  C   UNL     1     -11.507  28.434  47.159  1.00  0.00     0.004 C 
ENDBRANCH  16  17
ENDBRANCH  15  16
ENDBRANCH  14  15
ENDBRANCH  13  14
ENDBRANCH  12  13
ENDBRANCH  11  12
ENDBRANCH   1  11
TORSDOF 14
ENDMDL
MODEL 6
REMARK VINA RESULT:    -4.745      1.756      3.881
REMARK INTER + INTRA:          -9.882
REMARK INTER:                  -7.976
REMARK INTRA:                  -1.906
REMARK UNBOUND:                -1.253
REMARK SMILES CCCCCCCCCCCCCCCC(=O)[O-]
REMARK SMILES IDX 9 1 10 2 11 3 12 4 13 5 14 6 15 7 16 8 17 9 18 10 8 11 7 12
REMARK SMILES IDX 6 13 5 14 4 15 3 16 2 17 1 18
REMARK H PARENT
REMARK Flexibility Score: inf
ROOT
ATOM      1  C   UNL     1      -4.498  23.972  50.605  1.00  0.00     0.000 C 
ENDROOT
BRANCH   1   2
ATOM      2  C   UNL     1      -3.431  24.171  49.514  1.00  0.00     0.000 C 
BRANCH   2   3
ATOM      3  C   UNL     1      -3.882  23.658  48.137  1.00  0.00     0.000 C 
BRANCH   3   4
ATOM      4  C   UNL     1      -5.239  22.944  48.237  1.00  0.00     0.000 C 
BRANCH   4   5
ATOM      5  C   UNL     1      -5.181  21.490  47.741  1.00  0.00     0.000 C 
BRANCH   5   6
ATOM      6  C   UNL     1      -4.115  20.657  48.472  1.00  0.00     0.006 C 
BRANCH   6   7
ATOM      7  C   UNL     1      -4.379  19.150  48.357  1.00  0.00     0.053 C 
BRANCH   7   8
ATOM      8  C   UNL     1      -3.275  18.445  47.631  1.00  0.00     0.041 C 
ATOM      9  O   UNL     1      -2.658  17.495  48.182  1.00  0.00    -0.550 OA
ATOM     10  O   UNL     1      -2.945  18.818  46.335  1.00  0.00    -0.550 OA
ENDBRANCH   7   8
ENDBRANCH   6   7
ENDBRANCH   5   6
ENDBRANCH   4   5
ENDBRANCH   3   4
ENDBRANCH   2   3
ENDBRANCH   1   2
BRANCH   1  11
ATOM     11  C   UNL     1      -4.021  24.256  52.043  1.00  0.00     0.000 C 
BRANCH  11  12
ATOM     12  C   UNL     1      -3.407  25.653  52.267  1.00  0.00    -0.000 C 
BRANCH  12  13
ATOM     13  C   UNL     1      -4.379  26.827  52.055  1.00  0.00    -0.000 C 
BRANCH  13  14
ATOM     14  C   UNL     1      -3.966  27.737  50.885  1.00  0.00    -0.000 C 
BRANCH  14  15
ATOM     15  C   UNL     1      -5.141  28.029  49.930  1.00  0.00    -0.000 C 
BRANCH  15  16
ATOM     16  C   UNL     1      -6.447  27.300  50.301  1.00  0.00    -0.000 C 
BRANCH  16  17
ATOM     17  C   UNL     1      -6.899  26.251  49.266  1.00  0.00    -0.003 C 
ATOM     18  C   UNL     1      -6.275  26.473  47.888  1.00  0.00     0.004 C 
ENDBRANCH  16  17
ENDBRANCH  15  16
ENDBRANCH  14  15
ENDBRANCH  13  14
ENDBRANCH  12  13
ENDBRANCH  11  12
ENDBRANCH   1  11
TORSDOF 14
ENDMDL
MODEL 7
REMARK VINA RESULT:    -4.731      1.549      2.822
REMARK INTER + INTRA:          -9.856
REMARK INTER:                  -7.710
REMARK INTRA:                  -2.146
REMARK UNBOUND:                -1.253
REMARK SMILES CCCCCCCCCCCCCCCC(=O)[O-]
REMARK SMILES IDX 9 1 10 2 11 3 12 4 13 5 14 6 15 7 16 8 17 9 18 10 8 11 7 12
REMARK SMILES IDX 6 13 5 14 4 15 3 16 2 17 1 18
REMARK H PARENT
REMARK Flexibility Score: inf
ROOT
ATOM      1  C   UNL     1      -5.633  24.893  50.371  1.00  0.00     0.000 C 
ENDROOT
BRANCH   1   2
ATOM      2  C   UNL     1      -5.820  24.210  49.004  1.00  0.00     0.000 C 
BRANCH   2   3
ATOM      3  C   UNL     1      -4.870  23.020  48.796  1.00  0.00     0.000 C 
BRANCH   3   4
ATOM      4  C   UNL     1      -5.391  22.093  47.687  1.00  0.00     0.000 C 
BRANCH   4   5
ATOM      5  C   UNL     1      -4.684  20.727  47.677  1.00  0.00     0.000 C 
BRANCH   5   6
ATOM      6  C   UNL     1      -3.540  20.645  48.702  1.00  0.00     0.006 C 
BRANCH   6   7
ATOM      7  C   UNL     1      -3.239  19.199  49.117  1.00  0.00     0.053 C 
BRANCH   7   8
ATOM      8  C   UNL     1      -2.377  18.500  48.111  1.00  0.00     0.041 C 
ATOM      9  O   UNL     1      -1.531  19.148  47.440  1.00  0.00    -0.550 OA
ATOM     10  O   UNL     1      -2.488  17.127  47.934  1.00  0.00    -0.550 OA
ENDBRANCH   7   8
ENDBRANCH   6   7
ENDBRANCH   5   6
ENDBRANCH   4   5
ENDBRANCH   3   4
ENDBRANCH   2   3
ENDBRANCH   1   2
BRANCH   1  11
ATOM     11  C   UNL     1      -4.852  24.065  51.412  1.00  0.00     0.000 C 
BRANCH  11  12
ATOM     12  C   UNL     1      -3.914  24.877  52.326  1.00  0.00    -0.000 C 
BRANCH  12  13
ATOM     13  C   UNL     1      -2.484  24.319  52.444  1.00  0.00    -0.000 C 
BRANCH  13  14
ATOM     14  C   UNL     1      -2.015  23.609  51.162  1.00  0.00    -0.000 C 
BRANCH  14  15
ATOM     15  C   UNL     1      -1.156  24.526  50.269  1.00  0.00    -0.000 C 
BRANCH  15  16
ATOM     16  C   UNL     1      -1.675  24.660  48.824  1.00  0.00    -0.000 C 
BRANCH  16  17
ATOM     17  C   UNL     1      -2.495  25.939  48.565  1.00  0.00    -0.003 C 
ATOM     18  C   UNL     1      -2.368  26.961  49.695  1.00  0.00     0.004 C 
ENDBRANCH  16  17
ENDBRANCH  15  16
ENDBRANCH  14  15
ENDBRANCH  13  14
ENDBRANCH  12  13
ENDBRANCH  11  12
ENDBRANCH   1  11
TORSDOF 14
ENDMDL
MODEL 8
REMARK VINA RESULT:    -4.704      4.264      7.646
REMARK INTER + INTRA:          -9.807
REMARK INTER:                  -8.684
REMARK INTRA:                  -1.124
REMARK UNBOUND:                -1.253
REMARK SMILES CCCCCCCCCCCCCCCC(=O)[O-]
REMARK SMILES IDX 9 1 10 2 11 3 12 4 13 5 14 6 15 7 16 8 17 9 18 10 8 11 7 12
REMARK SMILES IDX 6 13 5 14 4 15 3 16 2 17 1 18
REMARK H PARENT
REMARK Flexibility Score: inf
ROOT
ATOM      1  C   UNL     1      -4.556  24.194  48.086  1.00  0.00     0.000 C 
ENDROOT
BRANCH   1   2
ATOM      2  C   UNL     1      -4.263  24.817  49.462  1.00  0.00     0.000 C 
BRANCH   2   3
ATOM      3  C   UNL     1      -5.294  24.418  50.530  1.00  0.00     0.000 C 
BRANCH   3   4
ATOM      4  C   UNL     1      -4.611  24.162  51.882  1.00  0.00     0.000 C 
BRANCH   4   5
ATOM      5  C   UNL     1      -3.154  24.649  51.911  1.00  0.00     0.000 C 
BRANCH   5   6
ATOM      6  C   UNL     1      -2.850  25.536  53.131  1.00  0.00     0.006 C 
BRANCH   6   7
ATOM      7  C   UNL     1      -3.959  26.563  53.389  1.00  0.00     0.053 C 
BRANCH   7   8
ATOM      8  C   UNL     1      -3.916  27.689  52.403  1.00  0.00     0.041 C 
ATOM      9  O   UNL     1      -4.775  27.764  51.485  1.00  0.00    -0.550 OA
ATOM     10  O   UNL     1      -2.942  28.674  52.513  1.00  0.00    -0.550 OA
ENDBRANCH   7   8
ENDBRANCH   6   7
ENDBRANCH   5   6
ENDBRANCH   4   5
ENDBRANCH   3   4
ENDBRANCH   2   3
ENDBRANCH   1   2
BRANCH   1  11
ATOM     11  C   UNL     1      -5.714  23.176  48.064  1.00  0.00     0.000 C 
BRANCH  11  12
ATOM     12  C   UNL     1      -5.307  21.726  47.731  1.00  0.00    -0.000 C 
BRANCH  12  13
ATOM     13  C   UNL     1      -4.108  21.191  48.535  1.00  0.00    -0.000 C 
BRANCH  13  14
ATOM     14  C   UNL     1      -3.984  19.659  48.469  1.00  0.00    -0.000 C 
BRANCH  14  15
ATOM     15  C   UNL     1      -3.101  19.195  47.294  1.00  0.00    -0.000 C 
BRANCH  15  16
ATOM     16  C   UNL     1      -1.980  18.218  47.698  1.00  0.00    -0.000 C 
BRANCH  16  17
ATOM     17  C   UNL     1      -1.171  17.660  46.511  1.00  0.00    -0.003 C 
ATOM     18  C   UNL     1      -2.062  17.157  45.374  1.00  0.00     0.004 C 
ENDBRANCH  16  17
ENDBRANCH  15  16
ENDBRANCH  14  15
ENDBRANCH  13  14
ENDBRANCH  12  13
ENDBRANCH  11  12
ENDBRANCH   1  11
TORSDOF 14
ENDMDL
MODEL 9
REMARK VINA RESULT:    -4.633      2.373      4.121
REMARK INTER + INTRA:          -9.678
REMARK INTER:                  -8.288
REMARK INTRA:                  -1.390
REMARK UNBOUND:                -1.253
REMARK SMILES CCCCCCCCCCCCCCCC(=O)[O-]
REMARK SMILES IDX 9 1 10 2 11 3 12 4 13 5 14 6 15 7 16 8 17 9 18 10 8 11 7 12
REMARK SMILES IDX 6 13 5 14 4 15 3 16 2 17 1 18
REMARK H PARENT
REMARK Flexibility Score: inf
ROOT
ATOM      1  C   UNL     1      -4.984  23.835  49.365  1.00  0.00     0.000 C 
ENDROOT
BRANCH   1   2
ATOM      2  C   UNL     1      -5.739  23.304  48.134  1.00  0.00     0.000 C 
BRANCH   2   3
ATOM      3  C   UNL     1      -5.284  21.898  47.715  1.00  0.00     0.000 C 
BRANCH   3   4
ATOM      4  C   UNL     1      -3.767  21.736  47.895  1.00  0.00     0.000 C 
BRANCH   4   5
ATOM      5  C   UNL     1      -3.401  20.537  48.784  1.00  0.00     0.000 C 
BRANCH   5   6
ATOM      6  C   UNL     1      -4.236  19.285  48.464  1.00  0.00     0.006 C 
BRANCH   6   7
ATOM      7  C   UNL     1      -3.405  17.998  48.551  1.00  0.00     0.053 C 
BRANCH   7   8
ATOM      8  C   UNL     1      -2.714  17.693  47.258  1.00  0.00     0.041 C 
ATOM      9  O   UNL     1      -3.384  17.517  46.206  1.00  0.00    -0.550 OA
ATOM     10  O   UNL     1      -1.328  17.632  47.208  1.00  0.00    -0.550 OA
ENDBRANCH   7   8
ENDBRANCH   6   7
ENDBRANCH   5   6
ENDBRANCH   4   5
ENDBRANCH   3   4
ENDBRANCH   2   3
ENDBRANCH   1   2
BRANCH   1  11
ATOM     11  C   UNL     1      -5.819  24.722  50.310  1.00  0.00     0.000 C 
BRANCH  11  12
ATOM     12  C   UNL     1      -6.881  25.600  49.618  1.00  0.00    -0.000 C 
BRANCH  12  13
ATOM     13  C   UNL     1      -6.880  27.077  50.051  1.00  0.00    -0.000 C 
BRANCH  13  14
ATOM     14  C   UNL     1      -6.520  28.035  48.902  1.00  0.00    -0.000 C 
BRANCH  14  15
ATOM     15  C   UNL     1      -7.338  27.748  47.626  1.00  0.00    -0.000 C 
BRANCH  15  16
ATOM     16  C   UNL     1      -6.486  27.325  46.415  1.00  0.00    -0.000 C 
BRANCH  16  17
ATOM     17  C   UNL     1      -4.968  27.488  46.624  1.00  0.00    -0.003 C 
ATOM     18  C   UNL     1      -4.209  26.167  46.500  1.00  0.00     0.004 C 
ENDBRANCH  16  17
ENDBRANCH  15  16
ENDBRANCH  14  15
ENDBRANCH  13  14
ENDBRANCH  12  13
ENDBRANCH  11  12
ENDBRANCH   1  11
TORSDOF 14
ENDMDL
