MODEL 1
REMARK VINA RESULT:    -3.096      0.000      0.000
REMARK INTER + INTRA:          -3.734
REMARK INTER:                  -3.730
REMARK INTRA:                  -0.004
REMARK UNBOUND:                -0.004
REMARK SMILES CC[C@H](C)[C@@H]([NH3+])C(=O)[O-]
REMARK SMILES IDX 3 1 4 2 5 3 6 4 7 8 8 9 9 10 2 11 1 12
REMARK H PARENT 6 5 6 6 6 7
REMARK Flexibility Score: inf
ROOT
ATOM      1  C   UNL     1     113.163 129.837 139.845  1.00  0.00     0.050 C 
ATOM      2  C   UNL     1     114.474 130.050 140.630  1.00  0.00     0.014 C 
ENDROOT
BRANCH   1   3
ATOM      3  C   UNL     1     113.246 130.245 138.340  1.00  0.00     0.230 C 
BRANCH   3   4
ATOM      4  N   UNL     1     114.624 130.333 137.834  1.00  0.00    -0.350 N 
ATOM      5  H   UNL     1     114.966 131.319 137.826  1.00  0.00     0.345 HD
ATOM      6  H   UNL     1     115.260 129.764 138.439  1.00  0.00     0.345 HD
ATOM      7  H   UNL     1     114.676 129.926 136.873  1.00  0.00     0.345 HD
ENDBRANCH   3   4
BRANCH   3   8
ATOM      8  C   UNL     1     112.419 129.320 137.479  1.00  0.00     0.099 C 
ATOM      9  O   UNL     1     111.875 128.305 137.989  1.00  0.00    -0.544 OA
ATOM     10  O   UNL     1     112.292 129.550 136.114  1.00  0.00    -0.544 OA
ENDBRANCH   3   8
ENDBRANCH   1   3
BRANCH   1  11
ATOM     11  C   UNL     1     111.919 130.423 140.572  1.00  0.00     0.006 C 
ATOM     12  C   UNL     1     112.083 130.664 142.077  1.00  0.00     0.004 C 
ENDBRANCH   1  11
TORSDOF 4
ENDMDL
MODEL 2
REMARK VINA RESULT:    -2.991     23.386     24.196
REMARK INTER + INTRA:          -3.607
REMARK INTER:                  -3.608
REMARK INTRA:                   0.001
REMARK UNBOUND:                -0.004
REMARK SMILES CC[C@H](C)[C@@H]([NH3+])C(=O)[O-]
REMARK SMILES IDX 3 1 4 2 5 3 6 4 7 8 8 9 9 10 2 11 1 12
REMARK H PARENT 6 5 6 6 6 7
REMARK Flexibility Score: inf
ROOT
ATOM      1  C   UNL     1     130.235 113.464 139.564  1.00  0.00     0.050 C 
ATOM      2  C   UNL     1     128.908 113.253 140.321  1.00  0.00     0.014 C 
ENDROOT
BRANCH   1   3
ATOM      3  C   UNL     1     130.165 113.117 138.042  1.00  0.00     0.230 C 
BRANCH   3   4
ATOM      4  N   UNL     1     128.795 113.104 137.509  1.00  0.00    -0.350 N 
ATOM      5  H   UNL     1     128.700 112.432 136.715  1.00  0.00     0.345 HD
ATOM      6  H   UNL     1     128.125 112.826 138.263  1.00  0.00     0.345 HD
ATOM      7  H   UNL     1     128.524 114.064 137.201  1.00  0.00     0.345 HD
ENDBRANCH   3   4
BRANCH   3   8
ATOM      8  C   UNL     1     131.044 114.038 137.232  1.00  0.00     0.099 C 
ATOM      9  O   UNL     1     131.200 113.836 135.999  1.00  0.00    -0.544 OA
ATOM     10  O   UNL     1     131.726 115.084 137.844  1.00  0.00    -0.544 OA
ENDBRANCH   3   8
ENDBRANCH   1   3
BRANCH   1  11
ATOM     11  C   UNL     1     131.453 112.820 140.284  1.00  0.00     0.006 C 
ATOM     12  C   UNL     1     131.349 112.731 141.812  1.00  0.00     0.004 C 
ENDBRANCH   1  11
TORSDOF 4
ENDMDL
MODEL 3
REMARK VINA RESULT:    -2.915      5.464      6.447
REMARK INTER + INTRA:          -3.516
REMARK INTER:                  -3.567
REMARK INTRA:                   0.051
REMARK UNBOUND:                -0.004
REMARK SMILES CC[C@H](C)[C@@H]([NH3+])C(=O)[O-]
REMARK SMILES IDX 3 1 4 2 5 3 6 4 7 8 8 9 9 10 2 11 1 12
REMARK H PARENT 6 5 6 6 6 7
REMARK Flexibility Score: inf
ROOT
ATOM      1  C   UNL     1     114.886 131.647 143.760  1.00  0.00     0.050 C 
ATOM      2  C   UNL     1     114.323 130.512 142.880  1.00  0.00     0.014 C 
ENDROOT
BRANCH   1   3
ATOM      3  C   UNL     1     116.318 131.372 144.319  1.00  0.00     0.230 C 
BRANCH   3   4
ATOM      4  N   UNL     1     116.404 130.145 145.125  1.00  0.00    -0.350 N 
ATOM      5  H   UNL     1     117.394 129.840 145.253  1.00  0.00     0.345 HD
ATOM      6  H   UNL     1     115.981 130.310 146.067  1.00  0.00     0.345 HD
ATOM      7  H   UNL     1     115.850 129.383 144.673  1.00  0.00     0.345 HD
ENDBRANCH   3   4
BRANCH   3   8
ATOM      8  C   UNL     1     117.342 131.354 143.210  1.00  0.00     0.099 C 
ATOM      9  O   UNL     1     117.111 131.960 142.130  1.00  0.00    -0.544 OA
ATOM     10  O   UNL     1     118.522 130.632 143.347  1.00  0.00    -0.544 OA
ENDBRANCH   3   8
ENDBRANCH   1   3
BRANCH   1  11
ATOM     11  C   UNL     1     113.884 132.125 144.849  1.00  0.00     0.006 C 
ATOM     12  C   UNL     1     112.450 131.602 144.705  1.00  0.00     0.004 C 
ENDBRANCH   1  11
TORSDOF 4
ENDMDL
MODEL 4
REMARK VINA RESULT:    -2.910      5.016      5.914
REMARK INTER + INTRA:          -3.510
REMARK INTER:                  -3.434
REMARK INTRA:                  -0.076
REMARK UNBOUND:                -0.004
REMARK SMILES CC[C@H](C)[C@@H]([NH3+])C(=O)[O-]
REMARK SMILES IDX 3 1 4 2 5 3 6 4 7 8 8 9 9 10 2 11 1 12
REMARK H PARENT 6 5 6 6 6 7
REMARK Flexibility Score: inf
ROOT
ATOM      1  C   UNL     1     114.325 130.857 143.898  1.00  0.00     0.050 C 
ATOM      2  C   UNL     1     114.270 129.882 145.091  1.00  0.00     0.014 C 
ENDROOT
BRANCH   1   3
ATOM      3  C   UNL     1     115.615 131.738 143.852  1.00  0.00     0.230 C 
BRANCH   3   4
ATOM      4  N   UNL     1     116.351 131.762 145.125  1.00  0.00    -0.350 N 
ATOM      5  H   UNL     1     115.737 132.054 145.916  1.00  0.00     0.345 HD
ATOM      6  H   UNL     1     116.730 130.809 145.332  1.00  0.00     0.345 HD
ATOM      7  H   UNL     1     117.170 132.404 145.050  1.00  0.00     0.345 HD
ENDBRANCH   3   4
BRANCH   3   8
ATOM      8  C   UNL     1     116.520 131.318 142.720  1.00  0.00     0.099 C 
ATOM      9  O   UNL     1     116.025 130.919 141.632  1.00  0.00    -0.544 OA
ATOM     10  O   UNL     1     117.901 131.320 142.881  1.00  0.00    -0.544 OA
ENDBRANCH   3   8
ENDBRANCH   1   3
BRANCH   1  11
ATOM     11  C   UNL     1     113.016 131.679 143.725  1.00  0.00     0.006 C 
ATOM     12  C   UNL     1     111.913 131.001 142.903  1.00  0.00     0.004 C 
ENDBRANCH   1  11
TORSDOF 4
ENDMDL
MODEL 5
REMARK VINA RESULT:    -2.871      4.049      5.279
REMARK INTER + INTRA:          -3.462
REMARK INTER:                  -3.355
REMARK INTRA:                  -0.107
REMARK UNBOUND:                -0.004
REMARK SMILES CC[C@H](C)[C@@H]([NH3+])C(=O)[O-]
REMARK SMILES IDX 3 1 4 2 5 3 6 4 7 8 8 9 9 10 2 11 1 12
REMARK H PARENT 6 5 6 6 6 7
REMARK Flexibility Score: inf
ROOT
ATOM      1  C   UNL     1     114.748 131.518 143.806  1.00  0.00     0.050 C 
ATOM      2  C   UNL     1     114.116 132.125 145.076  1.00  0.00     0.014 C 
ENDROOT
BRANCH   1   3
ATOM      3  C   UNL     1     114.128 130.150 143.376  1.00  0.00     0.230 C 
BRANCH   3   4
ATOM      4  N   UNL     1     113.356 129.497 144.443  1.00  0.00    -0.350 N 
ATOM      5  H   UNL     1     113.981 129.109 145.184  1.00  0.00     0.345 HD
ATOM      6  H   UNL     1     112.707 130.189 144.884  1.00  0.00     0.345 HD
ATOM      7  H   UNL     1     112.763 128.739 144.040  1.00  0.00     0.345 HD
ENDBRANCH   3   4
BRANCH   3   8
ATOM      8  C   UNL     1     113.292 130.300 142.128  1.00  0.00     0.099 C 
ATOM      9  O   UNL     1     113.711 129.845 141.031  1.00  0.00    -0.544 OA
ATOM     10  O   UNL     1     112.081 130.981 142.166  1.00  0.00    -0.544 OA
ENDBRANCH   3   8
ENDBRANCH   1   3
BRANCH   1  11
ATOM     11  C   UNL     1     116.303 131.499 143.851  1.00  0.00     0.006 C 
ATOM     12  C   UNL     1     117.006 131.601 142.492  1.00  0.00     0.004 C 
ENDBRANCH   1  11
TORSDOF 4
ENDMDL
MODEL 6
REMARK VINA RESULT:    -2.853      4.988      5.991
REMARK INTER + INTRA:          -3.441
REMARK INTER:                  -3.370
REMARK INTRA:                  -0.072
REMARK UNBOUND:                -0.004
REMARK SMILES CC[C@H](C)[C@@H]([NH3+])C(=O)[O-]
REMARK SMILES IDX 3 1 4 2 5 3 6 4 7 8 8 9 9 10 2 11 1 12
REMARK H PARENT 6 5 6 6 6 7
REMARK Flexibility Score: inf
ROOT
ATOM      1  C   UNL     1     115.342 131.684 143.635  1.00  0.00     0.050 C 
ATOM      2  C   UNL     1     116.002 132.087 144.970  1.00  0.00     0.014 C 
ENDROOT
BRANCH   1   3
ATOM      3  C   UNL     1     114.239 130.586 143.774  1.00  0.00     0.230 C 
BRANCH   3   4
ATOM      4  N   UNL     1     114.278 129.879 145.062  1.00  0.00    -0.350 N 
ATOM      5  H   UNL     1     113.342 129.493 145.315  1.00  0.00     0.345 HD
ATOM      6  H   UNL     1     114.961 129.088 145.010  1.00  0.00     0.345 HD
ATOM      7  H   UNL     1     114.616 130.523 145.811  1.00  0.00     0.345 HD
ENDBRANCH   3   4
BRANCH   3   8
ATOM      8  C   UNL     1     112.865 131.160 143.522  1.00  0.00     0.099 C 
ATOM      9  O   UNL     1     112.250 131.750 144.449  1.00  0.00    -0.544 OA
ATOM     10  O   UNL     1     112.248 131.000 142.286  1.00  0.00    -0.544 OA
ENDBRANCH   3   8
ENDBRANCH   1   3
BRANCH   1  11
ATOM     11  C   UNL     1     116.376 131.376 142.515  1.00  0.00     0.006 C 
ATOM     12  C   UNL     1     117.782 131.000 142.997  1.00  0.00     0.004 C 
ENDBRANCH   1  11
TORSDOF 4
ENDMDL
MODEL 7
REMARK VINA RESULT:    -2.779      4.895      5.824
REMARK INTER + INTRA:          -3.352
REMARK INTER:                  -3.256
REMARK INTRA:                  -0.096
REMARK UNBOUND:                -0.004
REMARK SMILES CC[C@H](C)[C@@H]([NH3+])C(=O)[O-]
REMARK SMILES IDX 3 1 4 2 5 3 6 4 7 8 8 9 9 10 2 11 1 12
REMARK H PARENT 6 5 6 6 6 7
REMARK Flexibility Score: inf
ROOT
ATOM      1  C   UNL     1     113.133 129.830 143.217  1.00  0.00     0.050 C 
ATOM      2  C   UNL     1     111.919 129.455 144.092  1.00  0.00     0.014 C 
ENDROOT
BRANCH   1   3
ATOM      3  C   UNL     1     113.669 131.278 143.455  1.00  0.00     0.230 C 
BRANCH   3   4
ATOM      4  N   UNL     1     112.780 132.100 144.289  1.00  0.00    -0.350 N 
ATOM      5  H   UNL     1     112.939 133.119 144.129  1.00  0.00     0.345 HD
ATOM      6  H   UNL     1     111.782 131.879 144.066  1.00  0.00     0.345 HD
ATOM      7  H   UNL     1     112.924 131.868 145.297  1.00  0.00     0.345 HD
ENDBRANCH   3   4
BRANCH   3   8
ATOM      8  C   UNL     1     115.066 131.255 144.026  1.00  0.00     0.099 C 
ATOM      9  O   UNL     1     115.321 130.548 145.037  1.00  0.00    -0.544 OA
ATOM     10  O   UNL     1     116.068 132.046 143.476  1.00  0.00    -0.544 OA
ENDBRANCH   3   8
ENDBRANCH   1   3
BRANCH   1  11
ATOM     11  C   UNL     1     112.924 129.493 141.713  1.00  0.00     0.006 C 
ATOM     12  C   UNL     1     111.877 130.342 140.983  1.00  0.00     0.004 C 
ENDBRANCH   1  11
TORSDOF 4
ENDMDL
