MODEL 1
REMARK VINA RESULT:    -4.269      0.000      0.000
REMARK INTER + INTRA:          -5.469
REMARK INTER:                  -5.018
REMARK INTRA:                  -0.451
REMARK UNBOUND:                -0.451
REMARK SMILES C=CC(C)=CCC=C(C)C
REMARK SMILES IDX 5 1 3 2 4 3 6 4 7 5 9 6 8 7 10 8 2 9 1 10
REMARK H PARENT
REMARK Flexibility Score: inf
ROOT
ATOM      1  C   UNL     1       9.684   6.052  28.311  1.00  0.00    -0.020 C 
ATOM      2  C   UNL     1       9.775   5.476  29.526  1.00  0.00    -0.055 C 
ATOM      3  C   UNL     1      10.450   4.136  29.725  1.00  0.00     0.044 C 
ENDROOT
BRANCH   1   4
ATOM      4  C   UNL     1      10.209   5.450  27.035  1.00  0.00     0.055 C 
BRANCH   4   5
ATOM      5  C   UNL     1      11.089   6.426  26.292  1.00  0.00    -0.024 C 
ATOM      6  C   UNL     1      13.203   7.533  25.699  1.00  0.00     0.039 C 
ATOM      7  C   UNL     1      12.418   6.527  26.500  1.00  0.00    -0.080 C 
ATOM      8  C   UNL     1      13.127   5.656  27.510  1.00  0.00     0.039 C 
ENDBRANCH   4   5
ENDBRANCH   1   4
BRANCH   2   9
ATOM      9  C   UNL     1       9.255   6.232  30.694  1.00  0.00    -0.005 C 
ATOM     10  C   UNL     1       8.866   7.506  30.635  1.00  0.00     0.009 C 
ENDBRANCH   2   9
TORSDOF 3
ENDMDL
MODEL 2
REMARK VINA RESULT:    -4.199     13.399     15.673
REMARK INTER + INTRA:          -5.386
REMARK INTER:                  -4.911
REMARK INTRA:                  -0.474
REMARK UNBOUND:                -0.451
REMARK SMILES C=CC(C)=CCC=C(C)C
REMARK SMILES IDX 5 1 3 2 4 3 6 4 7 5 9 6 8 7 10 8 2 9 1 10
REMARK H PARENT
REMARK Flexibility Score: inf
ROOT
ATOM      1  C   UNL     1       7.779   6.690  13.476  1.00  0.00    -0.020 C 
ATOM      2  C   UNL     1       7.751   7.198  12.227  1.00  0.00    -0.055 C 
ATOM      3  C   UNL     1       8.148   8.630  11.938  1.00  0.00     0.044 C 
ENDROOT
BRANCH   1   4
ATOM      4  C   UNL     1       8.181   7.461  14.705  1.00  0.00     0.055 C 
BRANCH   4   5
ATOM      5  C   UNL     1       7.083   7.447  15.741  1.00  0.00    -0.024 C 
ATOM      6  C   UNL     1       5.151   8.344  16.969  1.00  0.00     0.039 C 
ATOM      7  C   UNL     1       6.213   8.465  15.907  1.00  0.00    -0.080 C 
ATOM      8  C   UNL     1       6.281   9.709  15.053  1.00  0.00     0.039 C 
ENDBRANCH   4   5
ENDBRANCH   1   4
BRANCH   2   9
ATOM      9  C   UNL     1       7.385   6.285  11.114  1.00  0.00    -0.005 C 
ATOM     10  C   UNL     1       6.231   5.619  11.054  1.00  0.00     0.009 C 
ENDBRANCH   2   9
TORSDOF 3
ENDMDL
MODEL 3
REMARK VINA RESULT:    -4.150      1.313      1.758
REMARK INTER + INTRA:          -5.328
REMARK INTER:                  -4.936
REMARK INTRA:                  -0.392
REMARK UNBOUND:                -0.451
REMARK SMILES C=CC(C)=CCC=C(C)C
REMARK SMILES IDX 5 1 3 2 4 3 6 4 7 5 9 6 8 7 10 8 2 9 1 10
REMARK H PARENT
REMARK Flexibility Score: inf
ROOT
ATOM      1  C   UNL     1      10.663   5.781  28.129  1.00  0.00    -0.020 C 
ATOM      2  C   UNL     1      10.135   4.578  28.430  1.00  0.00    -0.055 C 
ATOM      3  C   UNL     1       9.738   3.589  27.356  1.00  0.00     0.044 C 
ENDROOT
BRANCH   1   4
ATOM      4  C   UNL     1      10.902   6.285  26.730  1.00  0.00     0.055 C 
BRANCH   4   5
ATOM      5  C   UNL     1      12.186   7.075  26.647  1.00  0.00    -0.024 C 
ATOM      6  C   UNL     1      14.590   7.404  26.250  1.00  0.00     0.039 C 
ATOM      7  C   UNL     1      13.370   6.523  26.307  1.00  0.00    -0.080 C 
ATOM      8  C   UNL     1      13.491   5.052  25.982  1.00  0.00     0.039 C 
ENDBRANCH   4   5
ENDBRANCH   1   4
BRANCH   2   9
ATOM      9  C   UNL     1      10.017   4.211  29.865  1.00  0.00    -0.005 C 
ATOM     10  C   UNL     1       9.905   5.104  30.849  1.00  0.00     0.009 C 
ENDBRANCH   2   9
TORSDOF 3
ENDMDL
MODEL 4
REMARK VINA RESULT:    -4.121     13.639     15.602
REMARK INTER + INTRA:          -5.294
REMARK INTER:                  -4.937
REMARK INTRA:                  -0.357
REMARK UNBOUND:                -0.451
REMARK SMILES C=CC(C)=CCC=C(C)C
REMARK SMILES IDX 5 1 3 2 4 3 6 4 7 5 9 6 8 7 10 8 2 9 1 10
REMARK H PARENT
REMARK Flexibility Score: inf
ROOT
ATOM      1  C   UNL     1       7.359   7.558  14.436  1.00  0.00    -0.020 C 
ATOM      2  C   UNL     1       7.842   7.111  13.260  1.00  0.00    -0.055 C 
ATOM      3  C   UNL     1       7.655   5.678  12.812  1.00  0.00     0.044 C 
ENDROOT
BRANCH   1   4
ATOM      4  C   UNL     1       6.609   6.712  15.431  1.00  0.00     0.055 C 
BRANCH   4   5
ATOM      5  C   UNL     1       5.335   7.389  15.873  1.00  0.00    -0.024 C 
ATOM      6  C   UNL     1       2.988   8.094  15.672  1.00  0.00     0.039 C 
ATOM      7  C   UNL     1       4.207   7.391  15.133  1.00  0.00    -0.080 C 
ATOM      8  C   UNL     1       4.143   6.706  13.788  1.00  0.00     0.039 C 
ENDBRANCH   4   5
ENDBRANCH   1   4
BRANCH   2   9
ATOM      9  C   UNL     1       8.510   8.092  12.366  1.00  0.00    -0.005 C 
ATOM     10  C   UNL     1       7.858   9.038  11.689  1.00  0.00     0.009 C 
ENDBRANCH   2   9
TORSDOF 3
ENDMDL
MODEL 5
REMARK VINA RESULT:    -4.118      0.677      4.644
REMARK INTER + INTRA:          -5.291
REMARK INTER:                  -4.829
REMARK INTRA:                  -0.461
REMARK UNBOUND:                -0.451
REMARK SMILES C=CC(C)=CCC=C(C)C
REMARK SMILES IDX 5 1 3 2 4 3 6 4 7 5 9 6 8 7 10 8 2 9 1 10
REMARK H PARENT
REMARK Flexibility Score: inf
ROOT
ATOM      1  C   UNL     1      10.764   6.348  26.488  1.00  0.00    -0.020 C 
ATOM      2  C   UNL     1      12.104   6.384  26.625  1.00  0.00    -0.055 C 
ATOM      3  C   UNL     1      12.815   5.624  27.723  1.00  0.00     0.044 C 
ENDROOT
BRANCH   1   4
ATOM      4  C   UNL     1       9.831   5.585  27.391  1.00  0.00     0.055 C 
BRANCH   4   5
ATOM      5  C   UNL     1       9.225   6.488  28.438  1.00  0.00    -0.024 C 
ATOM      6  C   UNL     1       8.718   7.242  30.723  1.00  0.00     0.039 C 
ATOM      7  C   UNL     1       9.361   6.274  29.764  1.00  0.00    -0.080 C 
ATOM      8  C   UNL     1      10.143   5.097  30.298  1.00  0.00     0.039 C 
ENDBRANCH   4   5
ENDBRANCH   1   4
BRANCH   2   9
ATOM      9  C   UNL     1      12.885   7.141  25.613  1.00  0.00    -0.005 C 
ATOM     10  C   UNL     1      14.217   7.213  25.610  1.00  0.00     0.009 C 
ENDBRANCH   2   9
TORSDOF 3
ENDMDL
MODEL 6
REMARK VINA RESULT:    -4.101     13.507     14.910
REMARK INTER + INTRA:          -5.271
REMARK INTER:                  -4.847
REMARK INTRA:                  -0.424
REMARK UNBOUND:                -0.451
REMARK SMILES C=CC(C)=CCC=C(C)C
REMARK SMILES IDX 5 1 3 2 4 3 6 4 7 5 9 6 8 7 10 8 2 9 1 10
REMARK H PARENT
REMARK Flexibility Score: inf
ROOT
ATOM      1  C   UNL     1       6.341   6.088  15.354  1.00  0.00    -0.020 C 
ATOM      2  C   UNL     1       5.073   6.539  15.285  1.00  0.00    -0.055 C 
ATOM      3  C   UNL     1       4.366   6.732  13.961  1.00  0.00     0.044 C 
ENDROOT
BRANCH   1   4
ATOM      4  C   UNL     1       7.195   5.745  14.162  1.00  0.00     0.055 C 
BRANCH   4   5
ATOM      5  C   UNL     1       7.916   6.964  13.639  1.00  0.00    -0.024 C 
ATOM      6  C   UNL     1       8.577   8.620  11.947  1.00  0.00     0.039 C 
ATOM      7  C   UNL     1       7.817   7.388  12.362  1.00  0.00    -0.080 C 
ATOM      8  C   UNL     1       6.963   6.658  11.352  1.00  0.00     0.039 C 
ENDBRANCH   4   5
ENDBRANCH   1   4
BRANCH   2   9
ATOM      9  C   UNL     1       4.350   6.776  16.561  1.00  0.00    -0.005 C 
ATOM     10  C   UNL     1       3.447   7.744  16.729  1.00  0.00     0.009 C 
ENDBRANCH   2   9
TORSDOF 3
ENDMDL
MODEL 7
REMARK VINA RESULT:    -4.058     13.454     15.546
REMARK INTER + INTRA:          -5.221
REMARK INTER:                  -4.741
REMARK INTRA:                  -0.480
REMARK UNBOUND:                -0.451
REMARK SMILES C=CC(C)=CCC=C(C)C
REMARK SMILES IDX 5 1 3 2 4 3 6 4 7 5 9 6 8 7 10 8 2 9 1 10
REMARK H PARENT
REMARK Flexibility Score: inf
ROOT
ATOM      1  C   UNL     1       7.439   7.439  12.712  1.00  0.00    -0.020 C 
ATOM      2  C   UNL     1       7.386   6.094  12.641  1.00  0.00    -0.055 C 
ATOM      3  C   UNL     1       7.903   5.215  13.758  1.00  0.00     0.044 C 
ENDROOT
BRANCH   1   4
ATOM      4  C   UNL     1       8.015   8.214  13.867  1.00  0.00     0.055 C 
BRANCH   4   5
ATOM      5  C   UNL     1       6.968   9.088  14.514  1.00  0.00    -0.024 C 
ATOM      6  C   UNL     1       5.289   9.691  16.206  1.00  0.00     0.039 C 
ATOM      7  C   UNL     1       6.313   8.741  15.642  1.00  0.00    -0.080 C 
ATOM      8  C   UNL     1       6.588   7.432  16.344  1.00  0.00     0.039 C 
ENDBRANCH   4   5
ENDBRANCH   1   4
BRANCH   2   9
ATOM      9  C   UNL     1       6.733   5.487  11.452  1.00  0.00    -0.005 C 
ATOM     10  C   UNL     1       5.524   5.839  11.013  1.00  0.00     0.009 C 
ENDBRANCH   2   9
TORSDOF 3
ENDMDL
MODEL 8
REMARK VINA RESULT:    -4.027      1.178      2.056
REMARK INTER + INTRA:          -5.184
REMARK INTER:                  -4.698
REMARK INTRA:                  -0.486
REMARK UNBOUND:                -0.451
REMARK SMILES C=CC(C)=CCC=C(C)C
REMARK SMILES IDX 5 1 3 2 4 3 6 4 7 5 9 6 8 7 10 8 2 9 1 10
REMARK H PARENT
REMARK Flexibility Score: inf
ROOT
ATOM      1  C   UNL     1      10.660   4.898  28.376  1.00  0.00    -0.020 C 
ATOM      2  C   UNL     1       9.815   5.535  29.211  1.00  0.00    -0.055 C 
ATOM      3  C   UNL     1       9.025   6.749  28.774  1.00  0.00     0.044 C 
ENDROOT
BRANCH   1   4
ATOM      4  C   UNL     1      10.930   5.309  26.953  1.00  0.00     0.055 C 
BRANCH   4   5
ATOM      5  C   UNL     1      12.372   5.716  26.766  1.00  0.00    -0.024 C 
ATOM      6  C   UNL     1      14.221   7.285  26.359  1.00  0.00     0.039 C 
ATOM      7  C   UNL     1      12.753   6.988  26.525  1.00  0.00    -0.080 C 
ATOM      8  C   UNL     1      11.745   8.109  26.422  1.00  0.00     0.039 C 
ENDBRANCH   4   5
ENDBRANCH   1   4
BRANCH   2   9
ATOM      9  C   UNL     1       9.620   4.965  30.569  1.00  0.00    -0.005 C 
ATOM     10  C   UNL     1      10.449   4.081  31.125  1.00  0.00     0.009 C 
ENDBRANCH   2   9
TORSDOF 3
ENDMDL
MODEL 9
REMARK VINA RESULT:    -3.928     13.032     14.475
REMARK INTER + INTRA:          -5.067
REMARK INTER:                  -4.615
REMARK INTRA:                  -0.453
REMARK UNBOUND:                -0.451
REMARK SMILES C=CC(C)=CCC=C(C)C
REMARK SMILES IDX 5 1 3 2 4 3 6 4 7 5 9 6 8 7 10 8 2 9 1 10
REMARK H PARENT
REMARK Flexibility Score: inf
ROOT
ATOM      1  C   UNL     1       6.745   7.393  15.880  1.00  0.00    -0.020 C 
ATOM      2  C   UNL     1       5.881   8.408  16.084  1.00  0.00    -0.055 C 
ATOM      3  C   UNL     1       6.017   9.729  15.360  1.00  0.00     0.044 C 
ENDROOT
BRANCH   1   4
ATOM      4  C   UNL     1       7.926   7.448  14.948  1.00  0.00     0.055 C 
BRANCH   4   5
ATOM      5  C   UNL     1       7.673   6.640  13.698  1.00  0.00    -0.024 C 
ATOM      6  C   UNL     1       7.573   6.237  11.275  1.00  0.00     0.039 C 
ATOM      7  C   UNL     1       7.851   7.132  12.454  1.00  0.00    -0.080 C 
ATOM      8  C   UNL     1       8.322   8.549  12.225  1.00  0.00     0.039 C 
ENDBRANCH   4   5
ENDBRANCH   1   4
BRANCH   2   9
ATOM      9  C   UNL     1       4.734   8.169  16.997  1.00  0.00    -0.005 C 
ATOM     10  C   UNL     1       4.103   6.999  17.101  1.00  0.00     0.009 C 
ENDBRANCH   2   9
TORSDOF 3
ENDMDL
