MODEL 1
REMARK VINA RESULT:    -6.126      0.000      0.000
REMARK INTER + INTRA:          -7.667
REMARK INTER:                  -7.380
REMARK INTRA:                  -0.287
REMARK UNBOUND:                -0.287
REMARK SMILES O=c1c(O)c(-c2ccc(O)c(O)c2)oc2cc(O)cc(O)c12
REMARK SMILES IDX 5 1 3 2 2 3 1 4 22 5 20 6 19 7 17 8 16 9 15 10 14 11 6 12
REMARK SMILES IDX 7 13 8 14 9 15 13 16 11 17 10 18 12 20 4 22 21 24 18 26
REMARK H PARENT 10 19 12 21 4 23 21 25 18 27
REMARK Flexibility Score: inf
ROOT
ATOM      1  C   UNL     1      23.771  13.126  26.062  1.00  0.00     0.180 A 
ATOM      2  C   UNL     1      24.656  12.642  27.041  1.00  0.00     0.208 A 
ATOM      3  C   UNL     1      24.462  11.349  27.554  1.00  0.00     0.238 A 
ATOM      4  O   UNL     1      25.290  10.900  28.389  1.00  0.00    -0.285 OA
ATOM      5  C   UNL     1      23.378  10.564  27.096  1.00  0.00     0.111 A 
ATOM      6  C   UNL     1      23.063   9.257  27.575  1.00  0.00     0.134 A 
ATOM      7  C   UNL     1      22.044   8.522  26.958  1.00  0.00     0.093 A 
ATOM      8  C   UNL     1      21.287   9.068  25.922  1.00  0.00     0.123 A 
ATOM      9  C   UNL     1      21.547  10.368  25.485  1.00  0.00     0.094 A 
ATOM     10  C   UNL     1      22.581  11.113  26.057  1.00  0.00     0.146 A 
ATOM     11  O   UNL     1      22.802  12.342  25.605  1.00  0.00    -0.452 OA
ENDROOT
BRANCH   1  12
ATOM     12  C   UNL     1      23.896  14.488  25.491  1.00  0.00     0.025 A 
ATOM     13  C   UNL     1      23.489  15.622  26.212  1.00  0.00     0.016 A 
ATOM     14  C   UNL     1      23.594  16.893  25.643  1.00  0.00     0.051 A 
ATOM     15  C   UNL     1      24.091  17.057  24.346  1.00  0.00     0.157 A 
ATOM     16  C   UNL     1      24.374  14.647  24.181  1.00  0.00     0.062 A 
ATOM     17  C   UNL     1      24.483  15.918  23.604  1.00  0.00     0.158 A 
BRANCH  15  18
ATOM     18  O   UNL     1      24.174  18.354  23.838  1.00  0.00    -0.504 OA
ATOM     19  H   UNL     1      24.621  18.591  22.963  1.00  0.00     0.293 HD
ENDBRANCH  15  18
BRANCH  17  20
ATOM     20  O   UNL     1      24.979  16.001  22.301  1.00  0.00    -0.504 OA
ATOM     21  H   UNL     1      25.250  16.865  21.854  1.00  0.00     0.293 HD
ENDBRANCH  17  20
ENDBRANCH   1  12
BRANCH   2  22
ATOM     22  O   UNL     1      25.734  13.425  27.463  1.00  0.00    -0.502 OA
ATOM     23  H   UNL     1      26.526  13.629  26.864  1.00  0.00     0.293 HD
ENDBRANCH   2  22
BRANCH   6  24
ATOM     24  O   UNL     1      23.697   8.652  28.664  1.00  0.00    -0.507 OA
ATOM     25  H   UNL     1      23.300   8.575  29.590  1.00  0.00     0.293 HD
ENDBRANCH   6  24
BRANCH   8  26
ATOM     26  O   UNL     1      20.271   8.314  25.341  1.00  0.00    -0.508 OA
ATOM     27  H   UNL     1      19.356   8.708  25.158  1.00  0.00     0.293 HD
ENDBRANCH   8  26
TORSDOF 6
ENDMDL
MODEL 2
REMARK VINA RESULT:    -5.987      8.734     10.455
REMARK INTER + INTRA:          -7.499
REMARK INTER:                  -7.767
REMARK INTRA:                   0.267
REMARK UNBOUND:                -0.287
REMARK SMILES O=c1c(O)c(-c2ccc(O)c(O)c2)oc2cc(O)cc(O)c12
REMARK SMILES IDX 5 1 3 2 2 3 1 4 22 5 20 6 19 7 17 8 16 9 15 10 14 11 6 12
REMARK SMILES IDX 7 13 8 14 9 15 13 16 11 17 10 18 12 20 4 22 21 24 18 26
REMARK H PARENT 10 19 12 21 4 23 21 25 18 27
REMARK Flexibility Score: inf
ROOT
ATOM      1  C   UNL     1      17.333   9.614  31.450  1.00  0.00     0.180 A 
ATOM      2  C   UNL     1      17.081   8.604  30.505  1.00  0.00     0.208 A 
ATOM      3  C   UNL     1      15.838   8.578  29.852  1.00  0.00     0.238 A 
ATOM      4  O   UNL     1      15.639   7.706  28.967  1.00  0.00    -0.285 OA
ATOM      5  C   UNL     1      14.858   9.551  30.162  1.00  0.00     0.111 A 
ATOM      6  C   UNL     1      13.551   9.597  29.591  1.00  0.00     0.134 A 
ATOM      7  C   UNL     1      12.710  10.680  29.875  1.00  0.00     0.093 A 
ATOM      8  C   UNL     1      13.104  11.684  30.758  1.00  0.00     0.123 A 
ATOM      9  C   UNL     1      14.357  11.619  31.369  1.00  0.00     0.094 A 
ATOM     10  C   UNL     1      15.231  10.570  31.077  1.00  0.00     0.146 A 
ATOM     11  O   UNL     1      16.419  10.551  31.672  1.00  0.00    -0.452 OA
ENDROOT
BRANCH   1  12
ATOM     12  C   UNL     1      18.610   9.693  32.198  1.00  0.00     0.025 A 
ATOM     13  C   UNL     1      19.371   8.544  32.465  1.00  0.00     0.016 A 
ATOM     14  C   UNL     1      20.559   8.640  33.193  1.00  0.00     0.051 A 
ATOM     15  C   UNL     1      21.003   9.875  33.679  1.00  0.00     0.157 A 
ATOM     16  C   UNL     1      19.040  10.929  32.702  1.00  0.00     0.062 A 
ATOM     17  C   UNL     1      20.230  11.035  33.433  1.00  0.00     0.158 A 
BRANCH  15  18
ATOM     18  O   UNL     1      22.200   9.902  34.395  1.00  0.00    -0.504 OA
ATOM     19  H   UNL     1      22.654   9.081  34.768  1.00  0.00     0.293 HD
ENDBRANCH  15  18
BRANCH  17  20
ATOM     20  O   UNL     1      20.603  12.300  33.892  1.00  0.00    -0.504 OA
ATOM     21  H   UNL     1      20.522  12.598  34.854  1.00  0.00     0.293 HD
ENDBRANCH  17  20
ENDBRANCH   1  12
BRANCH   2  22
ATOM     22  O   UNL     1      18.071   7.667  30.197  1.00  0.00    -0.502 OA
ATOM     23  H   UNL     1      19.021   7.747  30.540  1.00  0.00     0.293 HD
ENDBRANCH   2  22
BRANCH   6  24
ATOM     24  O   UNL     1      13.024   8.597  28.768  1.00  0.00    -0.507 OA
ATOM     25  H   UNL     1      13.393   8.344  27.862  1.00  0.00     0.293 HD
ENDBRANCH   6  24
BRANCH   8  26
ATOM     26  O   UNL     1      12.235  12.739  31.029  1.00  0.00    -0.508 OA
ATOM     27  H   UNL     1      12.519  13.704  30.906  1.00  0.00     0.293 HD
ENDBRANCH   8  26
TORSDOF 6
ENDMDL
MODEL 3
REMARK VINA RESULT:    -5.953      8.766     10.082
REMARK INTER + INTRA:          -7.458
REMARK INTER:                  -7.347
REMARK INTRA:                  -0.110
REMARK UNBOUND:                -0.287
REMARK SMILES O=c1c(O)c(-c2ccc(O)c(O)c2)oc2cc(O)cc(O)c12
REMARK SMILES IDX 5 1 3 2 2 3 1 4 22 5 20 6 19 7 17 8 16 9 15 10 14 11 6 12
REMARK SMILES IDX 7 13 8 14 9 15 13 16 11 17 10 18 12 20 4 22 21 24 18 26
REMARK H PARENT 10 19 12 21 4 23 21 25 18 27
REMARK Flexibility Score: inf
ROOT
ATOM      1  C   UNL     1      16.996  10.169  31.510  1.00  0.00     0.180 A 
ATOM      2  C   UNL     1      17.864  11.216  31.867  1.00  0.00     0.208 A 
ATOM      3  C   UNL     1      19.019  10.919  32.607  1.00  0.00     0.238 A 
ATOM      4  O   UNL     1      19.821  11.852  32.877  1.00  0.00    -0.285 OA
ATOM      5  C   UNL     1      19.285   9.584  32.995  1.00  0.00     0.111 A 
ATOM      6  C   UNL     1      20.405   9.174  33.779  1.00  0.00     0.134 A 
ATOM      7  C   UNL     1      20.638   7.810  33.993  1.00  0.00     0.093 A 
ATOM      8  C   UNL     1      19.758   6.845  33.505  1.00  0.00     0.123 A 
ATOM      9  C   UNL     1      18.626   7.237  32.787  1.00  0.00     0.094 A 
ATOM     10  C   UNL     1      18.388   8.589  32.527  1.00  0.00     0.146 A 
ATOM     11  O   UNL     1      17.306   8.919  31.831  1.00  0.00    -0.452 OA
ENDROOT
BRANCH   1  12
ATOM     12  C   UNL     1      15.746  10.406  30.752  1.00  0.00     0.025 A 
ATOM     13  C   UNL     1      15.548   9.853  29.476  1.00  0.00     0.016 A 
ATOM     14  C   UNL     1      14.371  10.111  28.771  1.00  0.00     0.051 A 
ATOM     15  C   UNL     1      13.378  10.933  29.314  1.00  0.00     0.157 A 
ATOM     16  C   UNL     1      14.760  11.248  31.290  1.00  0.00     0.062 A 
ATOM     17  C   UNL     1      13.577  11.512  30.590  1.00  0.00     0.158 A 
BRANCH  15  18
ATOM     18  O   UNL     1      12.223  11.147  28.559  1.00  0.00    -0.504 OA
ATOM     19  H   UNL     1      11.943  10.570  27.778  1.00  0.00     0.293 HD
ENDBRANCH  15  18
BRANCH  17  20
ATOM     20  O   UNL     1      12.635  12.349  31.192  1.00  0.00    -0.504 OA
ATOM     21  H   UNL     1      12.710  12.694  32.138  1.00  0.00     0.293 HD
ENDBRANCH  17  20
ENDBRANCH   1  12
BRANCH   2  22
ATOM     22  O   UNL     1      17.594  12.524  31.455  1.00  0.00    -0.502 OA
ATOM     23  H   UNL     1      18.254  13.281  31.582  1.00  0.00     0.293 HD
ENDBRANCH   2  22
BRANCH   6  24
ATOM     24  O   UNL     1      21.296  10.062  34.390  1.00  0.00    -0.507 OA
ATOM     25  H   UNL     1      21.485  10.095  35.381  1.00  0.00     0.293 HD
ENDBRANCH   6  24
BRANCH   8  26
ATOM     26  O   UNL     1      20.012   5.498  33.749  1.00  0.00    -0.508 OA
ATOM     27  H   UNL     1      20.473   4.912  33.063  1.00  0.00     0.293 HD
ENDBRANCH   8  26
TORSDOF 6
ENDMDL
MODEL 4
REMARK VINA RESULT:    -5.946      8.066     10.070
REMARK INTER + INTRA:          -7.450
REMARK INTER:                  -7.191
REMARK INTRA:                  -0.259
REMARK UNBOUND:                -0.287
REMARK SMILES O=c1c(O)c(-c2ccc(O)c(O)c2)oc2cc(O)cc(O)c12
REMARK SMILES IDX 5 1 3 2 2 3 1 4 22 5 20 6 19 7 17 8 16 9 15 10 14 11 6 12
REMARK SMILES IDX 7 13 8 14 9 15 13 16 11 17 10 18 12 20 4 22 21 24 18 26
REMARK H PARENT 10 19 12 21 4 23 21 25 18 27
REMARK Flexibility Score: inf
ROOT
ATOM      1  C   UNL     1      15.901  10.745  30.952  1.00  0.00     0.180 A 
ATOM      2  C   UNL     1      16.772  11.655  31.576  1.00  0.00     0.208 A 
ATOM      3  C   UNL     1      18.105  11.276  31.800  1.00  0.00     0.238 A 
ATOM      4  O   UNL     1      18.895  12.114  32.308  1.00  0.00    -0.285 OA
ATOM      5  C   UNL     1      18.547   9.988  31.413  1.00  0.00     0.111 A 
ATOM      6  C   UNL     1      19.864   9.484  31.627  1.00  0.00     0.134 A 
ATOM      7  C   UNL     1      20.226   8.244  31.087  1.00  0.00     0.093 A 
ATOM      8  C   UNL     1      19.301   7.462  30.396  1.00  0.00     0.123 A 
ATOM      9  C   UNL     1      17.993   7.918  30.232  1.00  0.00     0.094 A 
ATOM     10  C   UNL     1      17.612   9.167  30.729  1.00  0.00     0.146 A 
ATOM     11  O   UNL     1      16.360   9.570  30.541  1.00  0.00    -0.452 OA
ENDROOT
BRANCH   1  12
ATOM     12  C   UNL     1      14.475  11.063  30.704  1.00  0.00     0.025 A 
ATOM     13  C   UNL     1      13.546  11.120  31.756  1.00  0.00     0.016 A 
ATOM     14  C   UNL     1      12.203  11.398  31.494  1.00  0.00     0.051 A 
ATOM     15  C   UNL     1      11.758  11.610  30.185  1.00  0.00     0.157 A 
ATOM     16  C   UNL     1      14.028  11.253  29.388  1.00  0.00     0.062 A 
ATOM     17  C   UNL     1      12.683  11.533  29.117  1.00  0.00     0.158 A 
BRANCH  15  18
ATOM     18  O   UNL     1      10.403  11.887  29.993  1.00  0.00    -0.504 OA
ATOM     19  H   UNL     1      10.021  12.820  29.934  1.00  0.00     0.293 HD
ENDBRANCH  15  18
BRANCH  17  20
ATOM     20  O   UNL     1      12.312  11.724  27.784  1.00  0.00    -0.504 OA
ATOM     21  H   UNL     1      11.360  11.684  27.452  1.00  0.00     0.293 HD
ENDBRANCH  17  20
ENDBRANCH   1  12
BRANCH   2  22
ATOM     22  O   UNL     1      16.322  12.930  31.930  1.00  0.00    -0.502 OA
ATOM     23  H   UNL     1      16.802  13.775  31.645  1.00  0.00     0.293 HD
ENDBRANCH   2  22
BRANCH   6  24
ATOM     24  O   UNL     1      20.839  10.143  32.382  1.00  0.00    -0.507 OA
ATOM     25  H   UNL     1      21.293  11.003  32.109  1.00  0.00     0.293 HD
ENDBRANCH   6  24
BRANCH   8  26
ATOM     26  O   UNL     1      19.692   6.226  29.885  1.00  0.00    -0.508 OA
ATOM     27  H   UNL     1      20.547   5.774  30.186  1.00  0.00     0.293 HD
ENDBRANCH   8  26
TORSDOF 6
ENDMDL
MODEL 5
REMARK VINA RESULT:    -5.875      8.220     10.433
REMARK INTER + INTRA:          -7.364
REMARK INTER:                  -7.289
REMARK INTRA:                  -0.075
REMARK UNBOUND:                -0.287
REMARK SMILES O=c1c(O)c(-c2ccc(O)c(O)c2)oc2cc(O)cc(O)c12
REMARK SMILES IDX 5 1 3 2 2 3 1 4 22 5 20 6 19 7 17 8 16 9 15 10 14 11 6 12
REMARK SMILES IDX 7 13 8 14 9 15 13 16 11 17 10 18 12 20 4 22 21 24 18 26
REMARK H PARENT 10 19 12 21 4 23 21 25 18 27
REMARK Flexibility Score: inf
ROOT
ATOM      1  C   UNL     1      15.780  10.382  30.817  1.00  0.00     0.180 A 
ATOM      2  C   UNL     1      16.202   9.159  30.268  1.00  0.00     0.208 A 
ATOM      3  C   UNL     1      17.518   8.726  30.500  1.00  0.00     0.238 A 
ATOM      4  O   UNL     1      17.873   7.605  30.053  1.00  0.00    -0.285 OA
ATOM      5  C   UNL     1      18.399   9.528  31.264  1.00  0.00     0.111 A 
ATOM      6  C   UNL     1      19.764   9.208  31.530  1.00  0.00     0.134 A 
ATOM      7  C   UNL     1      20.505  10.010  32.406  1.00  0.00     0.093 A 
ATOM      8  C   UNL     1      19.951  11.155  32.976  1.00  0.00     0.123 A 
ATOM      9  C   UNL     1      18.635  11.512  32.677  1.00  0.00     0.094 A 
ATOM     10  C   UNL     1      17.860  10.711  31.835  1.00  0.00     0.146 A 
ATOM     11  O   UNL     1      16.609  11.080  31.584  1.00  0.00    -0.452 OA
ENDROOT
BRANCH   1  12
ATOM     12  C   UNL     1      14.416  10.916  30.595  1.00  0.00     0.025 A 
ATOM     13  C   UNL     1      13.549  11.175  31.669  1.00  0.00     0.016 A 
ATOM     14  C   UNL     1      12.259  11.656  31.433  1.00  0.00     0.051 A 
ATOM     15  C   UNL     1      11.805  11.873  30.129  1.00  0.00     0.157 A 
ATOM     16  C   UNL     1      13.955  11.113  29.285  1.00  0.00     0.062 A 
ATOM     17  C   UNL     1      12.664  11.595  29.039  1.00  0.00     0.158 A 
BRANCH  15  18
ATOM     18  O   UNL     1      10.507  12.359  29.962  1.00  0.00    -0.504 OA
ATOM     19  H   UNL     1       9.901  12.626  30.725  1.00  0.00     0.293 HD
ENDBRANCH  15  18
BRANCH  17  20
ATOM     20  O   UNL     1      12.279  11.779  27.709  1.00  0.00    -0.504 OA
ATOM     21  H   UNL     1      12.782  12.354  27.050  1.00  0.00     0.293 HD
ENDBRANCH  17  20
ENDBRANCH   1  12
BRANCH   2  22
ATOM     22  O   UNL     1      15.309   8.372  29.535  1.00  0.00    -0.502 OA
ATOM     23  H   UNL     1      15.329   7.359  29.561  1.00  0.00     0.293 HD
ENDBRANCH   2  22
BRANCH   6  24
ATOM     24  O   UNL     1      20.442   8.137  30.940  1.00  0.00    -0.507 OA
ATOM     25  H   UNL     1      20.067   7.205  30.837  1.00  0.00     0.293 HD
ENDBRANCH   6  24
BRANCH   8  26
ATOM     26  O   UNL     1      20.722  11.939  33.831  1.00  0.00    -0.508 OA
ATOM     27  H   UNL     1      20.351  12.293  34.705  1.00  0.00     0.293 HD
ENDBRANCH   8  26
TORSDOF 6
ENDMDL
MODEL 6
REMARK VINA RESULT:    -5.837      8.144      9.431
REMARK INTER + INTRA:          -7.318
REMARK INTER:                  -6.999
REMARK INTRA:                  -0.319
REMARK UNBOUND:                -0.287
REMARK SMILES O=c1c(O)c(-c2ccc(O)c(O)c2)oc2cc(O)cc(O)c12
REMARK SMILES IDX 5 1 3 2 2 3 1 4 22 5 20 6 19 7 17 8 16 9 15 10 14 11 6 12
REMARK SMILES IDX 7 13 8 14 9 15 13 16 11 17 10 18 12 20 4 22 21 24 18 26
REMARK H PARENT 10 19 12 21 4 23 21 25 18 27
REMARK Flexibility Score: inf
ROOT
ATOM      1  C   UNL     1      18.032   8.153  30.726  1.00  0.00     0.180 A 
ATOM      2  C   UNL     1      16.903   7.446  31.174  1.00  0.00     0.208 A 
ATOM      3  C   UNL     1      16.286   6.530  30.307  1.00  0.00     0.238 A 
ATOM      4  O   UNL     1      15.309   5.859  30.732  1.00  0.00    -0.285 OA
ATOM      5  C   UNL     1      16.795   6.344  28.999  1.00  0.00     0.111 A 
ATOM      6  C   UNL     1      16.225   5.472  28.024  1.00  0.00     0.134 A 
ATOM      7  C   UNL     1      16.888   5.269  26.807  1.00  0.00     0.093 A 
ATOM      8  C   UNL     1      18.064   5.955  26.505  1.00  0.00     0.123 A 
ATOM      9  C   UNL     1      18.598   6.856  27.427  1.00  0.00     0.094 A 
ATOM     10  C   UNL     1      17.979   7.051  28.664  1.00  0.00     0.146 A 
ATOM     11  O   UNL     1      18.525   7.909  29.518  1.00  0.00    -0.452 OA
ENDROOT
BRANCH   1  12
ATOM     12  C   UNL     1      18.722   9.154  31.573  1.00  0.00     0.025 A 
ATOM     13  C   UNL     1      19.811   8.797  32.385  1.00  0.00     0.016 A 
ATOM     14  C   UNL     1      20.429   9.753  33.194  1.00  0.00     0.051 A 
ATOM     15  C   UNL     1      19.969  11.074  33.220  1.00  0.00     0.157 A 
ATOM     16  C   UNL     1      18.244  10.473  31.614  1.00  0.00     0.062 A 
ATOM     17  C   UNL     1      18.859  11.437  32.421  1.00  0.00     0.158 A 
BRANCH  15  18
ATOM     18  O   UNL     1      20.634  11.981  34.047  1.00  0.00    -0.504 OA
ATOM     19  H   UNL     1      20.830  11.816  35.024  1.00  0.00     0.293 HD
ENDBRANCH  15  18
BRANCH  17  20
ATOM     20  O   UNL     1      18.337  12.733  32.401  1.00  0.00    -0.504 OA
ATOM     21  H   UNL     1      18.514  13.401  31.665  1.00  0.00     0.293 HD
ENDBRANCH  17  20
ENDBRANCH   1  12
BRANCH   2  22
ATOM     22  O   UNL     1      16.430   7.628  32.477  1.00  0.00    -0.502 OA
ATOM     23  H   UNL     1      16.763   8.373  33.077  1.00  0.00     0.293 HD
ENDBRANCH   2  22
BRANCH   6  24
ATOM     24  O   UNL     1      15.006   4.807  28.188  1.00  0.00    -0.507 OA
ATOM     25  H   UNL     1      14.697   4.377  29.048  1.00  0.00     0.293 HD
ENDBRANCH   6  24
BRANCH   8  26
ATOM     26  O   UNL     1      18.688   5.741  25.278  1.00  0.00    -0.508 OA
ATOM     27  H   UNL     1      18.397   4.994  24.658  1.00  0.00     0.293 HD
ENDBRANCH   8  26
TORSDOF 6
ENDMDL
MODEL 7
REMARK VINA RESULT:    -5.787      7.877      9.938
REMARK INTER + INTRA:          -7.258
REMARK INTER:                  -7.020
REMARK INTRA:                  -0.239
REMARK UNBOUND:                -0.287
REMARK SMILES O=c1c(O)c(-c2ccc(O)c(O)c2)oc2cc(O)cc(O)c12
REMARK SMILES IDX 5 1 3 2 2 3 1 4 22 5 20 6 19 7 17 8 16 9 15 10 14 11 6 12
REMARK SMILES IDX 7 13 8 14 9 15 13 16 11 17 10 18 12 20 4 22 21 24 18 26
REMARK H PARENT 10 19 12 21 4 23 21 25 18 27
REMARK Flexibility Score: inf
ROOT
ATOM      1  C   UNL     1      18.180  10.118  31.568  1.00  0.00     0.180 A 
ATOM      2  C   UNL     1      17.661  11.422  31.646  1.00  0.00     0.208 A 
ATOM      3  C   UNL     1      16.388  11.681  31.114  1.00  0.00     0.238 A 
ATOM      4  O   UNL     1      15.906  12.837  31.237  1.00  0.00    -0.285 OA
ATOM      5  C   UNL     1      15.657  10.639  30.497  1.00  0.00     0.111 A 
ATOM      6  C   UNL     1      14.375  10.797  29.889  1.00  0.00     0.134 A 
ATOM      7  C   UNL     1      13.687   9.669  29.424  1.00  0.00     0.093 A 
ATOM      8  C   UNL     1      14.261   8.400  29.485  1.00  0.00     0.123 A 
ATOM      9  C   UNL     1      15.539   8.241  30.023  1.00  0.00     0.094 A 
ATOM     10  C   UNL     1      16.234   9.343  30.528  1.00  0.00     0.146 A 
ATOM     11  O   UNL     1      17.444   9.147  31.042  1.00  0.00    -0.452 OA
ENDROOT
BRANCH   1  12
ATOM     12  C   UNL     1      19.525   9.773  32.083  1.00  0.00     0.025 A 
ATOM     13  C   UNL     1      20.589   9.482  31.214  1.00  0.00     0.016 A 
ATOM     14  C   UNL     1      21.842   9.135  31.725  1.00  0.00     0.051 A 
ATOM     15  C   UNL     1      22.055   9.059  33.104  1.00  0.00     0.157 A 
ATOM     16  C   UNL     1      19.731   9.676  33.468  1.00  0.00     0.062 A 
ATOM     17  C   UNL     1      20.984   9.330  33.989  1.00  0.00     0.158 A 
BRANCH  15  18
ATOM     18  O   UNL     1      23.332   8.711  33.549  1.00  0.00    -0.504 OA
ATOM     19  H   UNL     1      23.971   9.356  33.991  1.00  0.00     0.293 HD
ENDBRANCH  15  18
BRANCH  17  20
ATOM     20  O   UNL     1      21.118   9.265  35.377  1.00  0.00    -0.504 OA
ATOM     21  H   UNL     1      21.431  10.035  35.950  1.00  0.00     0.293 HD
ENDBRANCH  17  20
ENDBRANCH   1  12
BRANCH   2  22
ATOM     22  O   UNL     1      18.391  12.432  32.280  1.00  0.00    -0.502 OA
ATOM     23  H   UNL     1      19.257  12.250  32.774  1.00  0.00     0.293 HD
ENDBRANCH   2  22
BRANCH   6  24
ATOM     24  O   UNL     1      13.751  12.032  29.695  1.00  0.00    -0.507 OA
ATOM     25  H   UNL     1      13.474  12.660  30.436  1.00  0.00     0.293 HD
ENDBRANCH   6  24
BRANCH   8  26
ATOM     26  O   UNL     1      13.554   7.303  28.999  1.00  0.00    -0.508 OA
ATOM     27  H   UNL     1      13.159   6.607  29.622  1.00  0.00     0.293 HD
ENDBRANCH   8  26
TORSDOF 6
ENDMDL
MODEL 8
REMARK VINA RESULT:    -5.773      5.654      8.278
REMARK INTER + INTRA:          -7.241
REMARK INTER:                  -6.991
REMARK INTRA:                  -0.250
REMARK UNBOUND:                -0.287
REMARK SMILES O=c1c(O)c(-c2ccc(O)c(O)c2)oc2cc(O)cc(O)c12
REMARK SMILES IDX 5 1 3 2 2 3 1 4 22 5 20 6 19 7 17 8 16 9 15 10 14 11 6 12
REMARK SMILES IDX 7 13 8 14 9 15 13 16 11 17 10 18 12 20 4 22 21 24 18 26
REMARK H PARENT 10 19 12 21 4 23 21 25 18 27
REMARK Flexibility Score: inf
ROOT
ATOM      1  C   UNL     1      21.925  18.946  27.590  1.00  0.00     0.180 A 
ATOM      2  C   UNL     1      22.156  20.034  28.450  1.00  0.00     0.208 A 
ATOM      3  C   UNL     1      21.082  20.563  29.182  1.00  0.00     0.238 A 
ATOM      4  O   UNL     1      21.305  21.501  29.991  1.00  0.00    -0.285 OA
ATOM      5  C   UNL     1      19.787  20.010  29.034  1.00  0.00     0.111 A 
ATOM      6  C   UNL     1      18.619  20.492  29.696  1.00  0.00     0.134 A 
ATOM      7  C   UNL     1      17.415  19.787  29.575  1.00  0.00     0.093 A 
ATOM      8  C   UNL     1      17.322  18.655  28.767  1.00  0.00     0.123 A 
ATOM      9  C   UNL     1      18.444  18.208  28.067  1.00  0.00     0.094 A 
ATOM     10  C   UNL     1      19.668  18.870  28.196  1.00  0.00     0.146 A 
ATOM     11  O   UNL     1      20.714  18.407  27.522  1.00  0.00    -0.452 OA
ENDROOT
BRANCH   1  12
ATOM     12  C   UNL     1      23.002  18.349  26.767  1.00  0.00     0.025 A 
ATOM     13  C   UNL     1      23.587  17.119  27.109  1.00  0.00     0.016 A 
ATOM     14  C   UNL     1      24.618  16.589  26.331  1.00  0.00     0.051 A 
ATOM     15  C   UNL     1      25.095  17.276  25.210  1.00  0.00     0.157 A 
ATOM     16  C   UNL     1      23.493  19.052  25.656  1.00  0.00     0.062 A 
ATOM     17  C   UNL     1      24.526  18.527  24.870  1.00  0.00     0.158 A 
BRANCH  15  18
ATOM     18  O   UNL     1      26.124  16.689  24.472  1.00  0.00    -0.504 OA
ATOM     19  H   UNL     1      26.026  16.373  23.518  1.00  0.00     0.293 HD
ENDBRANCH  15  18
BRANCH  17  20
ATOM     20  O   UNL     1      24.954  19.276  23.771  1.00  0.00    -0.504 OA
ATOM     21  H   UNL     1      24.400  19.992  23.326  1.00  0.00     0.293 HD
ENDBRANCH  17  20
ENDBRANCH   1  12
BRANCH   2  22
ATOM     22  O   UNL     1      23.447  20.550  28.598  1.00  0.00    -0.502 OA
ATOM     23  H   UNL     1      23.665  21.526  28.433  1.00  0.00     0.293 HD
ENDBRANCH   2  22
BRANCH   6  24
ATOM     24  O   UNL     1      18.580  21.666  30.455  1.00  0.00    -0.507 OA
ATOM     25  H   UNL     1      17.777  22.272  30.536  1.00  0.00     0.293 HD
ENDBRANCH   6  24
BRANCH   8  26
ATOM     26  O   UNL     1      16.105  17.986  28.657  1.00  0.00    -0.508 OA
ATOM     27  H   UNL     1      15.638  17.878  27.765  1.00  0.00     0.293 HD
ENDBRANCH   8  26
TORSDOF 6
ENDMDL
MODEL 9
REMARK VINA RESULT:    -5.751     10.210     12.594
REMARK INTER + INTRA:          -7.215
REMARK INTER:                  -6.951
REMARK INTRA:                  -0.264
REMARK UNBOUND:                -0.287
REMARK SMILES O=c1c(O)c(-c2ccc(O)c(O)c2)oc2cc(O)cc(O)c12
REMARK SMILES IDX 5 1 3 2 2 3 1 4 22 5 20 6 19 7 17 8 16 9 15 10 14 11 6 12
REMARK SMILES IDX 7 13 8 14 9 15 13 16 11 17 10 18 12 20 4 22 21 24 18 26
REMARK H PARENT 10 19 12 21 4 23 21 25 18 27
REMARK Flexibility Score: inf
ROOT
ATOM      1  C   UNL     1      13.828  11.337  30.748  1.00  0.00     0.180 A 
ATOM      2  C   UNL     1      13.273  11.218  29.462  1.00  0.00     0.208 A 
ATOM      3  C   UNL     1      11.931  11.580  29.265  1.00  0.00     0.238 A 
ATOM      4  O   UNL     1      11.455  11.525  28.101  1.00  0.00    -0.285 OA
ATOM      5  C   UNL     1      11.157  12.040  30.357  1.00  0.00     0.111 A 
ATOM      6  C   UNL     1       9.777  12.397  30.280  1.00  0.00     0.134 A 
ATOM      7  C   UNL     1       9.146  12.963  31.394  1.00  0.00     0.093 A 
ATOM      8  C   UNL     1       9.826  13.126  32.600  1.00  0.00     0.123 A 
ATOM      9  C   UNL     1      11.159  12.726  32.705  1.00  0.00     0.094 A 
ATOM     10  C   UNL     1      11.825  12.192  31.600  1.00  0.00     0.146 A 
ATOM     11  O   UNL     1      13.097  11.833  31.738  1.00  0.00    -0.452 OA
ENDROOT
BRANCH   1  12
ATOM     12  C   UNL     1      15.229  10.951  31.040  1.00  0.00     0.025 A 
ATOM     13  C   UNL     1      15.621   9.604  31.087  1.00  0.00     0.016 A 
ATOM     14  C   UNL     1      16.941   9.264  31.388  1.00  0.00     0.051 A 
ATOM     15  C   UNL     1      17.890  10.255  31.661  1.00  0.00     0.157 A 
ATOM     16  C   UNL     1      16.173  11.946  31.335  1.00  0.00     0.062 A 
ATOM     17  C   UNL     1      17.499  11.615  31.637  1.00  0.00     0.158 A 
BRANCH  15  18
ATOM     18  O   UNL     1      19.194   9.849  31.951  1.00  0.00    -0.504 OA
ATOM     19  H   UNL     1      19.463   8.889  32.115  1.00  0.00     0.293 HD
ENDBRANCH  15  18
BRANCH  17  20
ATOM     20  O   UNL     1      18.387  12.659  31.907  1.00  0.00    -0.504 OA
ATOM     21  H   UNL     1      19.192  12.877  31.338  1.00  0.00     0.293 HD
ENDBRANCH  17  20
ENDBRANCH   1  12
BRANCH   2  22
ATOM     22  O   UNL     1      14.061  10.783  28.393  1.00  0.00    -0.502 OA
ATOM     23  H   UNL     1      14.464  11.422  27.719  1.00  0.00     0.293 HD
ENDBRANCH   2  22
BRANCH   6  24
ATOM     24  O   UNL     1       8.980  12.191  29.150  1.00  0.00    -0.507 OA
ATOM     25  H   UNL     1       9.056  12.714  28.289  1.00  0.00     0.293 HD
ENDBRANCH   6  24
BRANCH   8  26
ATOM     26  O   UNL     1       9.163  13.679  33.694  1.00  0.00    -0.508 OA
ATOM     27  H   UNL     1       9.573  13.674  34.621  1.00  0.00     0.293 HD
ENDBRANCH   8  26
TORSDOF 6
ENDMDL
