MODEL 1
REMARK VINA RESULT:    -4.318      0.000      0.000
REMARK INTER + INTRA:          -9.758
REMARK INTER:                  -7.851
REMARK INTRA:                  -1.907
REMARK UNBOUND:                -1.907
REMARK SMILES CCCCCCCCCCCCCC[C@@H](C)C(=O)[O-]
REMARK SMILES IDX 9 1 10 2 11 3 12 4 13 5 14 6 15 7 16 8 17 9 18 10 19 11 8 12
REMARK SMILES IDX 7 13 6 14 5 15 4 16 3 17 2 18 1 19
REMARK H PARENT
REMARK Flexibility Score: inf
ROOT
ATOM      1  C   UNL     1       3.089  18.184  27.999  1.00  0.00     0.000 C 
ENDROOT
BRANCH   1   2
ATOM      2  C   UNL     1       2.241  16.943  27.649  1.00  0.00     0.000 C 
BRANCH   2   3
ATOM      3  C   UNL     1       0.747  17.252  27.436  1.00  0.00     0.000 C 
BRANCH   3   4
ATOM      4  C   UNL     1      -0.135  17.106  28.691  1.00  0.00     0.000 C 
BRANCH   4   5
ATOM      5  C   UNL     1       0.470  16.237  29.809  1.00  0.00     0.001 C 
BRANCH   5   6
ATOM      6  C   UNL     1      -0.074  14.798  29.808  1.00  0.00     0.009 C 
BRANCH   6   7
ATOM      7  C   UNL     1       0.935  13.781  29.231  1.00  0.00     0.032 C 
ATOM      8  C   UNL     1       2.218  13.696  30.068  1.00  0.00     0.014 C 
BRANCH   7   9
ATOM      9  C   UNL     1       0.298  12.421  29.135  1.00  0.00     0.044 C 
ATOM     10  O   UNL     1       0.707  11.581  28.289  1.00  0.00    -0.550 OA
ATOM     11  O   UNL     1      -0.750  12.085  29.982  1.00  0.00    -0.550 OA
ENDBRANCH   7   9
ENDBRANCH   6   7
ENDBRANCH   5   6
ENDBRANCH   4   5
ENDBRANCH   3   4
ENDBRANCH   2   3
ENDBRANCH   1   2
BRANCH   1  12
ATOM     12  C   UNL     1       3.566  18.176  29.462  1.00  0.00     0.000 C 
BRANCH  12  13
ATOM     13  C   UNL     1       2.809  19.188  30.337  1.00  0.00    -0.000 C 
BRANCH  13  14
ATOM     14  C   UNL     1       2.021  20.211  29.502  1.00  0.00    -0.000 C 
BRANCH  14  15
ATOM     15  C   UNL     1       0.960  20.963  30.325  1.00  0.00    -0.000 C 
BRANCH  15  16
ATOM     16  C   UNL     1      -0.463  20.373  30.253  1.00  0.00    -0.000 C 
BRANCH  16  17
ATOM     17  C   UNL     1      -1.606  21.404  30.341  1.00  0.00    -0.000 C 
BRANCH  17  18
ATOM     18  C   UNL     1      -2.977  20.892  29.865  1.00  0.00    -0.003 C 
ATOM     19  C   UNL     1      -2.940  19.436  29.405  1.00  0.00     0.004 C 
ENDBRANCH  17  18
ENDBRANCH  16  17
ENDBRANCH  15  16
ENDBRANCH  14  15
ENDBRANCH  13  14
ENDBRANCH  12  13
ENDBRANCH   1  12
TORSDOF 14
ENDMDL
MODEL 2
REMARK VINA RESULT:    -4.154      2.144      4.470
REMARK INTER + INTRA:          -9.461
REMARK INTER:                  -7.557
REMARK INTRA:                  -1.903
REMARK UNBOUND:                -1.907
REMARK SMILES CCCCCCCCCCCCCC[C@@H](C)C(=O)[O-]
REMARK SMILES IDX 9 1 10 2 11 3 12 4 13 5 14 6 15 7 16 8 17 9 18 10 19 11 8 12
REMARK SMILES IDX 7 13 6 14 5 15 4 16 3 17 2 18 1 19
REMARK H PARENT
REMARK Flexibility Score: inf
ROOT
ATOM      1  C   UNL     1      -3.082  19.763  29.531  1.00  0.00     0.000 C 
ENDROOT
BRANCH   1   2
ATOM      2  C   UNL     1      -2.560  18.367  29.129  1.00  0.00     0.000 C 
BRANCH   2   3
ATOM      3  C   UNL     1      -1.027  18.290  29.004  1.00  0.00     0.000 C 
BRANCH   3   4
ATOM      4  C   UNL     1      -0.464  16.882  28.729  1.00  0.00     0.000 C 
BRANCH   4   5
ATOM      5  C   UNL     1       0.518  16.359  29.794  1.00  0.00     0.001 C 
BRANCH   5   6
ATOM      6  C   UNL     1       1.991  16.571  29.404  1.00  0.00     0.009 C 
BRANCH   6   7
ATOM      7  C   UNL     1       2.162  16.977  27.924  1.00  0.00     0.032 C 
ATOM      8  C   UNL     1       2.966  18.275  27.766  1.00  0.00     0.014 C 
BRANCH   7   9
ATOM      9  C   UNL     1       2.832  15.868  27.160  1.00  0.00     0.044 C 
ATOM     10  O   UNL     1       2.409  14.684  27.248  1.00  0.00    -0.550 OA
ATOM     11  O   UNL     1       3.927  16.146  26.352  1.00  0.00    -0.550 OA
ENDBRANCH   7   9
ENDBRANCH   6   7
ENDBRANCH   5   6
ENDBRANCH   4   5
ENDBRANCH   3   4
ENDBRANCH   2   3
ENDBRANCH   1   2
BRANCH   1  12
ATOM     12  C   UNL     1      -1.946  20.721  29.932  1.00  0.00     0.000 C 
BRANCH  12  13
ATOM     13  C   UNL     1      -2.462  21.999  30.613  1.00  0.00    -0.000 C 
BRANCH  13  14
ATOM     14  C   UNL     1      -1.531  23.202  30.386  1.00  0.00    -0.000 C 
BRANCH  14  15
ATOM     15  C   UNL     1      -0.604  23.475  31.584  1.00  0.00    -0.000 C 
BRANCH  15  16
ATOM     16  C   UNL     1       0.531  22.450  31.780  1.00  0.00    -0.000 C 
BRANCH  16  17
ATOM     17  C   UNL     1       1.440  22.235  30.553  1.00  0.00    -0.000 C 
BRANCH  17  18
ATOM     18  C   UNL     1       1.630  20.766  30.138  1.00  0.00    -0.003 C 
ATOM     19  C   UNL     1       1.436  19.791  31.299  1.00  0.00     0.004 C 
ENDBRANCH  17  18
ENDBRANCH  16  17
ENDBRANCH  15  16
ENDBRANCH  14  15
ENDBRANCH  13  14
ENDBRANCH  12  13
ENDBRANCH   1  12
TORSDOF 14
ENDMDL
MODEL 3
REMARK VINA RESULT:    -4.149      1.964      4.599
REMARK INTER + INTRA:          -9.451
REMARK INTER:                  -6.954
REMARK INTRA:                  -2.497
REMARK UNBOUND:                -1.907
REMARK SMILES CCCCCCCCCCCCCC[C@@H](C)C(=O)[O-]
REMARK SMILES IDX 9 1 10 2 11 3 12 4 13 5 14 6 15 7 16 8 17 9 18 10 19 11 8 12
REMARK SMILES IDX 7 13 6 14 5 15 4 16 3 17 2 18 1 19
REMARK H PARENT
REMARK Flexibility Score: inf
ROOT
ATOM      1  C   UNL     1       1.219  18.848  31.545  1.00  0.00     0.000 C 
ENDROOT
BRANCH   1   2
ATOM      2  C   UNL     1       2.386  17.919  31.945  1.00  0.00     0.000 C 
BRANCH   2   3
ATOM      3  C   UNL     1       2.740  16.872  30.872  1.00  0.00     0.000 C 
BRANCH   3   4
ATOM      4  C   UNL     1       2.329  15.426  31.211  1.00  0.00     0.000 C 
BRANCH   4   5
ATOM      5  C   UNL     1       0.858  15.084  30.906  1.00  0.00     0.001 C 
BRANCH   5   6
ATOM      6  C   UNL     1       0.355  13.858  31.688  1.00  0.00     0.009 C 
BRANCH   6   7
ATOM      7  C   UNL     1      -0.384  12.842  30.789  1.00  0.00     0.032 C 
ATOM      8  C   UNL     1      -1.341  13.527  29.803  1.00  0.00     0.014 C 
BRANCH   7   9
ATOM      9  C   UNL     1       0.611  12.004  30.033  1.00  0.00     0.044 C 
ATOM     10  O   UNL     1       1.643  11.563  30.607  1.00  0.00    -0.550 OA
ATOM     11  O   UNL     1       0.397  11.714  28.692  1.00  0.00    -0.550 OA
ENDBRANCH   7   9
ENDBRANCH   6   7
ENDBRANCH   5   6
ENDBRANCH   4   5
ENDBRANCH   3   4
ENDBRANCH   2   3
ENDBRANCH   1   2
BRANCH   1  12
ATOM     12  C   UNL     1       1.068  18.977  30.019  1.00  0.00     0.000 C 
BRANCH  12  13
ATOM     13  C   UNL     1      -0.304  18.497  29.518  1.00  0.00    -0.000 C 
BRANCH  13  14
ATOM     14  C   UNL     1      -0.186  17.449  28.399  1.00  0.00    -0.000 C 
BRANCH  14  15
ATOM     15  C   UNL     1       1.122  17.574  27.597  1.00  0.00    -0.000 C 
BRANCH  15  16
ATOM     16  C   UNL     1       1.800  16.237  27.238  1.00  0.00    -0.000 C 
BRANCH  16  17
ATOM     17  C   UNL     1       3.341  16.275  27.189  1.00  0.00    -0.000 C 
BRANCH  17  18
ATOM     18  C   UNL     1       4.039  15.080  27.862  1.00  0.00    -0.003 C 
ATOM     19  C   UNL     1       3.118  13.872  28.031  1.00  0.00     0.004 C 
ENDBRANCH  17  18
ENDBRANCH  16  17
ENDBRANCH  15  16
ENDBRANCH  14  15
ENDBRANCH  13  14
ENDBRANCH  12  13
ENDBRANCH   1  12
TORSDOF 14
ENDMDL
MODEL 4
REMARK VINA RESULT:    -4.125      1.443      4.145
REMARK INTER + INTRA:          -9.408
REMARK INTER:                  -7.541
REMARK INTRA:                  -1.867
REMARK UNBOUND:                -1.907
REMARK SMILES CCCCCCCCCCCCCC[C@@H](C)C(=O)[O-]
REMARK SMILES IDX 9 1 10 2 11 3 12 4 13 5 14 6 15 7 16 8 17 9 18 10 19 11 8 12
REMARK SMILES IDX 7 13 6 14 5 15 4 16 3 17 2 18 1 19
REMARK H PARENT
REMARK Flexibility Score: inf
ROOT
ATOM      1  C   UNL     1      -0.452  19.574  29.884  1.00  0.00     0.000 C 
ENDROOT
BRANCH   1   2
ATOM      2  C   UNL     1      -1.172  18.445  29.117  1.00  0.00     0.000 C 
BRANCH   2   3
ATOM      3  C   UNL     1      -0.223  17.363  28.569  1.00  0.00     0.000 C 
BRANCH   3   4
ATOM      4  C   UNL     1      -0.442  15.950  29.144  1.00  0.00     0.000 C 
BRANCH   4   5
ATOM      5  C   UNL     1       0.592  15.512  30.197  1.00  0.00     0.001 C 
BRANCH   5   6
ATOM      6  C   UNL     1       1.342  14.228  29.802  1.00  0.00     0.009 C 
BRANCH   6   7
ATOM      7  C   UNL     1       0.799  12.977  30.525  1.00  0.00     0.032 C 
ATOM      8  C   UNL     1      -0.079  13.338  31.732  1.00  0.00     0.014 C 
BRANCH   7   9
ATOM      9  C   UNL     1       0.015  12.126  29.563  1.00  0.00     0.044 C 
ATOM     10  O   UNL     1       0.515  11.782  28.459  1.00  0.00    -0.550 OA
ATOM     11  O   UNL     1      -1.272  11.716  29.889  1.00  0.00    -0.550 OA
ENDBRANCH   7   9
ENDBRANCH   6   7
ENDBRANCH   5   6
ENDBRANCH   4   5
ENDBRANCH   3   4
ENDBRANCH   2   3
ENDBRANCH   1   2
BRANCH   1  12
ATOM     12  C   UNL     1       0.970  19.174  30.316  1.00  0.00     0.000 C 
BRANCH  12  13
ATOM     13  C   UNL     1       2.031  20.201  29.886  1.00  0.00    -0.000 C 
BRANCH  13  14
ATOM     14  C   UNL     1       3.317  19.535  29.370  1.00  0.00    -0.000 C 
BRANCH  14  15
ATOM     15  C   UNL     1       3.257  19.200  27.869  1.00  0.00    -0.000 C 
BRANCH  15  16
ATOM     16  C   UNL     1       3.068  17.706  27.539  1.00  0.00    -0.000 C 
BRANCH  16  17
ATOM     17  C   UNL     1       3.759  16.727  28.510  1.00  0.00    -0.000 C 
BRANCH  17  18
ATOM     18  C   UNL     1       4.307  15.447  27.856  1.00  0.00    -0.003 C 
ATOM     19  C   UNL     1       4.503  15.587  26.347  1.00  0.00     0.004 C 
ENDBRANCH  17  18
ENDBRANCH  16  17
ENDBRANCH  15  16
ENDBRANCH  14  15
ENDBRANCH  13  14
ENDBRANCH  12  13
ENDBRANCH   1  12
TORSDOF 14
ENDMDL
MODEL 5
REMARK VINA RESULT:    -4.094      5.109      7.226
REMARK INTER + INTRA:          -9.352
REMARK INTER:                  -7.634
REMARK INTRA:                  -1.718
REMARK UNBOUND:                -1.907
REMARK SMILES CCCCCCCCCCCCCC[C@@H](C)C(=O)[O-]
REMARK SMILES IDX 9 1 10 2 11 3 12 4 13 5 14 6 15 7 16 8 17 9 18 10 19 11 8 12
REMARK SMILES IDX 7 13 6 14 5 15 4 16 3 17 2 18 1 19
REMARK H PARENT
REMARK Flexibility Score: inf
ROOT
ATOM      1  C   UNL     1       2.826  16.692  28.607  1.00  0.00     0.000 C 
ENDROOT
BRANCH   1   2
ATOM      2  C   UNL     1       2.965  17.724  27.468  1.00  0.00     0.000 C 
BRANCH   2   3
ATOM      3  C   UNL     1       3.232  19.160  27.960  1.00  0.00     0.000 C 
BRANCH   3   4
ATOM      4  C   UNL     1       4.374  19.297  28.986  1.00  0.00     0.000 C 
BRANCH   4   5
ATOM      5  C   UNL     1       4.980  20.708  29.093  1.00  0.00     0.001 C 
BRANCH   5   6
ATOM      6  C   UNL     1       5.989  21.012  27.971  1.00  0.00     0.009 C 
BRANCH   6   7
ATOM      7  C   UNL     1       6.738  22.345  28.191  1.00  0.00     0.032 C 
ATOM      8  C   UNL     1       6.463  22.945  29.578  1.00  0.00     0.014 C 
BRANCH   7   9
ATOM      9  C   UNL     1       8.217  22.141  28.010  1.00  0.00     0.044 C 
ATOM     10  O   UNL     1       8.652  21.148  27.367  1.00  0.00    -0.550 OA
ATOM     11  O   UNL     1       9.115  23.049  28.556  1.00  0.00    -0.550 OA
ENDBRANCH   7   9
ENDBRANCH   6   7
ENDBRANCH   5   6
ENDBRANCH   4   5
ENDBRANCH   3   4
ENDBRANCH   2   3
ENDBRANCH   1   2
BRANCH   1  12
ATOM     12  C   UNL     1       1.455  15.994  28.602  1.00  0.00     0.000 C 
BRANCH  12  13
ATOM     13  C   UNL     1       0.475  16.607  29.617  1.00  0.00    -0.000 C 
BRANCH  13  14
ATOM     14  C   UNL     1      -0.424  17.684  28.988  1.00  0.00    -0.000 C 
BRANCH  14  15
ATOM     15  C   UNL     1      -0.234  19.070  29.629  1.00  0.00    -0.000 C 
BRANCH  15  16
ATOM     16  C   UNL     1       0.815  19.131  30.758  1.00  0.00    -0.000 C 
BRANCH  16  17
ATOM     17  C   UNL     1       1.236  20.551  31.186  1.00  0.00    -0.000 C 
BRANCH  17  18
ATOM     18  C   UNL     1       0.975  21.647  30.139  1.00  0.00    -0.003 C 
ATOM     19  C   UNL     1      -0.230  22.522  30.482  1.00  0.00     0.004 C 
ENDBRANCH  17  18
ENDBRANCH  16  17
ENDBRANCH  15  16
ENDBRANCH  14  15
ENDBRANCH  13  14
ENDBRANCH  12  13
ENDBRANCH   1  12
TORSDOF 14
ENDMDL
MODEL 6
REMARK VINA RESULT:    -4.081      5.676      8.191
REMARK INTER + INTRA:          -9.329
REMARK INTER:                  -7.611
REMARK INTRA:                  -1.718
REMARK UNBOUND:                -1.907
REMARK SMILES CCCCCCCCCCCCCC[C@@H](C)C(=O)[O-]
REMARK SMILES IDX 9 1 10 2 11 3 12 4 13 5 14 6 15 7 16 8 17 9 18 10 19 11 8 12
REMARK SMILES IDX 7 13 6 14 5 15 4 16 3 17 2 18 1 19
REMARK H PARENT
REMARK Flexibility Score: inf
ROOT
ATOM      1  C   UNL     1       2.917  20.256  29.545  1.00  0.00     0.000 C 
ENDROOT
BRANCH   1   2
ATOM      2  C   UNL     1       4.192  19.912  28.746  1.00  0.00     0.000 C 
BRANCH   2   3
ATOM      3  C   UNL     1       5.485  20.471  29.370  1.00  0.00     0.000 C 
BRANCH   3   4
ATOM      4  C   UNL     1       5.536  22.005  29.502  1.00  0.00     0.000 C 
BRANCH   4   5
ATOM      5  C   UNL     1       6.946  22.590  29.704  1.00  0.00     0.001 C 
BRANCH   5   6
ATOM      6  C   UNL     1       7.691  22.829  28.378  1.00  0.00     0.009 C 
BRANCH   6   7
ATOM      7  C   UNL     1       9.177  22.415  28.449  1.00  0.00     0.032 C 
ATOM      8  C   UNL     1       9.514  21.678  29.753  1.00  0.00     0.014 C 
BRANCH   7   9
ATOM      9  C   UNL     1       9.527  21.548  27.270  1.00  0.00     0.044 C 
ATOM     10  O   UNL     1       8.749  20.629  26.899  1.00  0.00    -0.550 OA
ATOM     11  O   UNL     1      10.717  21.757  26.585  1.00  0.00    -0.550 OA
ENDBRANCH   7   9
ENDBRANCH   6   7
ENDBRANCH   5   6
ENDBRANCH   4   5
ENDBRANCH   3   4
ENDBRANCH   2   3
ENDBRANCH   1   2
BRANCH   1  12
ATOM     12  C   UNL     1       2.772  19.401  30.816  1.00  0.00     0.000 C 
BRANCH  12  13
ATOM     13  C   UNL     1       1.309  19.044  31.125  1.00  0.00    -0.000 C 
BRANCH  13  14
ATOM     14  C   UNL     1       0.314  19.890  30.314  1.00  0.00    -0.000 C 
BRANCH  14  15
ATOM     15  C   UNL     1      -0.660  19.036  29.484  1.00  0.00    -0.000 C 
BRANCH  15  16
ATOM     16  C   UNL     1      -0.142  17.634  29.105  1.00  0.00    -0.000 C 
BRANCH  16  17
ATOM     17  C   UNL     1       0.421  17.508  27.675  1.00  0.00    -0.000 C 
BRANCH  17  18
ATOM     18  C   UNL     1       1.916  17.152  27.598  1.00  0.00    -0.003 C 
ATOM     19  C   UNL     1       2.384  16.292  28.772  1.00  0.00     0.004 C 
ENDBRANCH  17  18
ENDBRANCH  16  17
ENDBRANCH  15  16
ENDBRANCH  14  15
ENDBRANCH  13  14
ENDBRANCH  12  13
ENDBRANCH   1  12
TORSDOF 14
ENDMDL
MODEL 7
REMARK VINA RESULT:    -4.061      1.407      3.356
REMARK INTER + INTRA:          -9.292
REMARK INTER:                  -7.300
REMARK INTRA:                  -1.992
REMARK UNBOUND:                -1.907
REMARK SMILES CCCCCCCCCCCCCC[C@@H](C)C(=O)[O-]
REMARK SMILES IDX 9 1 10 2 11 3 12 4 13 5 14 6 15 7 16 8 17 9 18 10 19 11 8 12
REMARK SMILES IDX 7 13 6 14 5 15 4 16 3 17 2 18 1 19
REMARK H PARENT
REMARK Flexibility Score: inf
ROOT
ATOM      1  C   UNL     1       1.908  17.545  27.551  1.00  0.00     0.000 C 
ENDROOT
BRANCH   1   2
ATOM      2  C   UNL     1       2.697  16.364  28.154  1.00  0.00     0.000 C 
BRANCH   2   3
ATOM      3  C   UNL     1       2.416  15.015  27.465  1.00  0.00     0.000 C 
BRANCH   3   4
ATOM      4  C   UNL     1       3.301  13.845  27.936  1.00  0.00     0.000 C 
BRANCH   4   5
ATOM      5  C   UNL     1       2.885  13.219  29.280  1.00  0.00     0.001 C 
BRANCH   5   6
ATOM      6  C   UNL     1       1.510  12.531  29.220  1.00  0.00     0.009 C 
BRANCH   6   7
ATOM      7  C   UNL     1       0.558  13.008  30.338  1.00  0.00     0.032 C 
ATOM      8  C   UNL     1       0.818  14.467  30.741  1.00  0.00     0.014 C 
BRANCH   7   9
ATOM      9  C   UNL     1      -0.872  12.850  29.899  1.00  0.00     0.044 C 
ATOM     10  O   UNL     1      -1.581  13.861  29.650  1.00  0.00    -0.550 OA
ATOM     11  O   UNL     1      -1.421  11.580  29.769  1.00  0.00    -0.550 OA
ENDBRANCH   7   9
ENDBRANCH   6   7
ENDBRANCH   5   6
ENDBRANCH   4   5
ENDBRANCH   3   4
ENDBRANCH   2   3
ENDBRANCH   1   2
BRANCH   1  12
ATOM     12  C   UNL     1       0.386  17.318  27.596  1.00  0.00     0.000 C 
BRANCH  12  13
ATOM     13  C   UNL     1      -0.198  17.496  29.007  1.00  0.00    -0.000 C 
BRANCH  13  14
ATOM     14  C   UNL     1      -1.266  18.600  29.065  1.00  0.00    -0.000 C 
BRANCH  14  15
ATOM     15  C   UNL     1      -0.817  19.824  29.884  1.00  0.00    -0.000 C 
BRANCH  15  16
ATOM     16  C   UNL     1       0.550  19.678  30.583  1.00  0.00    -0.000 C 
BRANCH  16  17
ATOM     17  C   UNL     1       1.670  20.580  30.027  1.00  0.00    -0.000 C 
BRANCH  17  18
ATOM     18  C   UNL     1       3.086  19.983  30.118  1.00  0.00    -0.003 C 
ATOM     19  C   UNL     1       3.145  18.721  30.977  1.00  0.00     0.004 C 
ENDBRANCH  17  18
ENDBRANCH  16  17
ENDBRANCH  15  16
ENDBRANCH  14  15
ENDBRANCH  13  14
ENDBRANCH  12  13
ENDBRANCH   1  12
TORSDOF 14
ENDMDL
MODEL 8
REMARK VINA RESULT:    -4.014      3.842      6.641
REMARK INTER + INTRA:          -9.206
REMARK INTER:                  -7.169
REMARK INTRA:                  -2.037
REMARK UNBOUND:                -1.907
REMARK SMILES CCCCCCCCCCCCCC[C@@H](C)C(=O)[O-]
REMARK SMILES IDX 9 1 10 2 11 3 12 4 13 5 14 6 15 7 16 8 17 9 18 10 19 11 8 12
REMARK SMILES IDX 7 13 6 14 5 15 4 16 3 17 2 18 1 19
REMARK H PARENT
REMARK Flexibility Score: inf
ROOT
ATOM      1  C   UNL     1      -0.050  17.727  28.247  1.00  0.00     0.000 C 
ENDROOT
BRANCH   1   2
ATOM      2  C   UNL     1      -1.142  18.400  29.105  1.00  0.00     0.000 C 
BRANCH   2   3
ATOM      3  C   UNL     1      -0.662  19.667  29.838  1.00  0.00     0.000 C 
BRANCH   3   4
ATOM      4  C   UNL     1       0.658  19.510  30.618  1.00  0.00     0.000 C 
BRANCH   4   5
ATOM      5  C   UNL     1       1.844  20.312  30.051  1.00  0.00     0.001 C 
BRANCH   5   6
ATOM      6  C   UNL     1       3.206  19.677  30.378  1.00  0.00     0.009 C 
BRANCH   6   7
ATOM      7  C   UNL     1       4.110  19.533  29.134  1.00  0.00     0.032 C 
ATOM      8  C   UNL     1       3.298  19.421  27.836  1.00  0.00     0.014 C 
BRANCH   7   9
ATOM      9  C   UNL     1       5.053  20.702  29.045  1.00  0.00     0.044 C 
ATOM     10  O   UNL     1       5.097  21.560  29.967  1.00  0.00    -0.550 OA
ATOM     11  O   UNL     1       5.879  20.844  27.937  1.00  0.00    -0.550 OA
ENDBRANCH   7   9
ENDBRANCH   6   7
ENDBRANCH   5   6
ENDBRANCH   4   5
ENDBRANCH   3   4
ENDBRANCH   2   3
ENDBRANCH   1   2
BRANCH   1  12
ATOM     12  C   UNL     1       0.293  16.310  28.739  1.00  0.00     0.000 C 
BRANCH  12  13
ATOM     13  C   UNL     1       1.802  16.109  28.958  1.00  0.00    -0.000 C 
BRANCH  13  14
ATOM     14  C   UNL     1       2.186  16.125  30.447  1.00  0.00    -0.000 C 
BRANCH  14  15
ATOM     15  C   UNL     1       1.106  15.501  31.349  1.00  0.00    -0.000 C 
BRANCH  15  16
ATOM     16  C   UNL     1       1.038  13.960  31.318  1.00  0.00    -0.000 C 
BRANCH  16  17
ATOM     17  C   UNL     1      -0.317  13.355  31.738  1.00  0.00    -0.000 C 
BRANCH  17  18
ATOM     18  C   UNL     1      -1.293  13.086  30.579  1.00  0.00    -0.003 C 
ATOM     19  C   UNL     1      -0.980  11.792  29.828  1.00  0.00     0.004 C 
ENDBRANCH  17  18
ENDBRANCH  16  17
ENDBRANCH  15  16
ENDBRANCH  14  15
ENDBRANCH  13  14
ENDBRANCH  12  13
ENDBRANCH   1  12
TORSDOF 14
ENDMDL
MODEL 9
REMARK VINA RESULT:    -1.539      3.801      7.147
REMARK INTER + INTRA:          -4.705
REMARK INTER:                  -3.158
REMARK INTRA:                  -1.547
REMARK UNBOUND:                -1.907
REMARK SMILES CCCCCCCCCCCCCC[C@@H](C)C(=O)[O-]
REMARK SMILES IDX 9 1 10 2 11 3 12 4 13 5 14 6 15 7 16 8 17 9 18 10 19 11 8 12
REMARK SMILES IDX 7 13 6 14 5 15 4 16 3 17 2 18 1 19
REMARK H PARENT
REMARK Flexibility Score: inf
ROOT
ATOM      1  C   UNL     1      -2.886  19.501  29.475  1.00  0.00     0.000 C 
ENDROOT
BRANCH   1   2
ATOM      2  C   UNL     1      -3.125  20.975  29.864  1.00  0.00     0.000 C 
BRANCH   2   3
ATOM      3  C   UNL     1      -1.980  21.592  30.690  1.00  0.00     0.000 C 
BRANCH   3   4
ATOM      4  C   UNL     1      -1.585  23.027  30.289  1.00  0.00     0.000 C 
BRANCH   4   5
ATOM      5  C   UNL     1      -0.069  23.297  30.264  1.00  0.00     0.001 C 
BRANCH   5   6
ATOM      6  C   UNL     1       0.754  22.054  29.880  1.00  0.00     0.009 C 
BRANCH   6   7
ATOM      7  C   UNL     1       1.707  21.602  31.008  1.00  0.00     0.032 C 
ATOM      8  C   UNL     1       1.538  20.114  31.350  1.00  0.00     0.014 C 
BRANCH   7   9
ATOM      9  C   UNL     1       3.134  21.874  30.616  1.00  0.00     0.044 C 
ATOM     10  O   UNL     1       3.854  20.954  30.144  1.00  0.00    -0.550 OA
ATOM     11  O   UNL     1       3.666  23.147  30.778  1.00  0.00    -0.550 OA
ENDBRANCH   7   9
ENDBRANCH   6   7
ENDBRANCH   5   6
ENDBRANCH   4   5
ENDBRANCH   3   4
ENDBRANCH   2   3
ENDBRANCH   1   2
BRANCH   1  12
ATOM     12  C   UNL     1      -1.395  19.122  29.499  1.00  0.00     0.000 C 
BRANCH  12  13
ATOM     13  C   UNL     1      -1.126  17.735  28.892  1.00  0.00    -0.000 C 
BRANCH  13  14
ATOM     14  C   UNL     1       0.256  17.645  28.224  1.00  0.00    -0.000 C 
BRANCH  14  15
ATOM     15  C   UNL     1       1.079  16.440  28.715  1.00  0.00    -0.000 C 
BRANCH  15  16
ATOM     16  C   UNL     1       0.917  16.104  30.212  1.00  0.00    -0.000 C 
BRANCH  16  17
ATOM     17  C   UNL     1       0.592  14.628  30.520  1.00  0.00    -0.000 C 
BRANCH  17  18
ATOM     18  C   UNL     1      -0.654  14.077  29.805  1.00  0.00    -0.003 C 
ATOM     19  C   UNL     1      -1.281  12.890  30.535  1.00  0.00     0.004 C 
ENDBRANCH  17  18
ENDBRANCH  16  17
ENDBRANCH  15  16
ENDBRANCH  14  15
ENDBRANCH  13  14
ENDBRANCH  12  13
ENDBRANCH   1  12
TORSDOF 14
ENDMDL
