MODEL 1
REMARK VINA RESULT:    -1.788      0.000      0.000
REMARK INTER + INTRA:          -4.586
REMARK INTER:                  -3.878
REMARK INTRA:                  -0.708
REMARK UNBOUND:                -0.708
REMARK SMILES CCCCCCCCCCCCCCCCCCCCCC(=O)[O-]
REMARK SMILES IDX 12 1 11 2 10 3 9 4 8 5 7 6 6 7 5 8 4 9 3 10 2 11 1 12 13 13
REMARK SMILES IDX 14 14 15 15 16 16 17 17 18 18 19 19 20 20 21 21 22 22 23 23
REMARK SMILES IDX 24 24
REMARK H PARENT
REMARK Flexibility Score: inf
ROOT
ATOM      1  C   UNL     1      46.327  12.259 -31.310  1.00  0.00     0.000 C 
ENDROOT
BRANCH   1   2
ATOM      2  C   UNL     1      45.805  13.029 -32.539  1.00  0.00     0.000 C 
BRANCH   2   3
ATOM      3  C   UNL     1      44.384  12.643 -32.999  1.00  0.00     0.000 C 
BRANCH   3   4
ATOM      4  C   UNL     1      44.254  12.314 -34.497  1.00  0.00    -0.000 C 
BRANCH   4   5
ATOM      5  C   UNL     1      42.808  12.016 -34.918  1.00  0.00    -0.000 C 
BRANCH   5   6
ATOM      6  C   UNL     1      42.376  12.925 -36.079  1.00  0.00    -0.000 C 
BRANCH   6   7
ATOM      7  C   UNL     1      41.011  13.597 -35.841  1.00  0.00    -0.000 C 
BRANCH   7   8
ATOM      8  C   UNL     1      39.790  12.733 -36.205  1.00  0.00    -0.000 C 
BRANCH   8   9
ATOM      9  C   UNL     1      38.559  13.567 -36.592  1.00  0.00    -0.000 C 
BRANCH   9  10
ATOM     10  C   UNL     1      37.905  14.188 -35.348  1.00  0.00    -0.000 C 
BRANCH  10  11
ATOM     11  C   UNL     1      37.167  13.151 -34.488  1.00  0.00    -0.003 C 
ATOM     12  C   UNL     1      36.941  13.627 -33.053  1.00  0.00     0.004 C 
ENDBRANCH  10  11
ENDBRANCH   9  10
ENDBRANCH   8   9
ENDBRANCH   7   8
ENDBRANCH   6   7
ENDBRANCH   5   6
ENDBRANCH   4   5
ENDBRANCH   3   4
ENDBRANCH   2   3
ENDBRANCH   1   2
BRANCH   1  13
ATOM     13  C   UNL     1      45.450  12.376 -30.050  1.00  0.00     0.000 C 
BRANCH  13  14
ATOM     14  C   UNL     1      46.265  12.337 -28.749  1.00  0.00     0.000 C 
BRANCH  14  15
ATOM     15  C   UNL     1      45.395  11.876 -27.571  1.00  0.00     0.000 C 
BRANCH  15  16
ATOM     16  C   UNL     1      45.873  12.430 -26.216  1.00  0.00     0.000 C 
BRANCH  16  17
ATOM     17  C   UNL     1      44.755  12.756 -25.210  1.00  0.00     0.000 C 
BRANCH  17  18
ATOM     18  C   UNL     1      45.250  12.794 -23.754  1.00  0.00     0.000 C 
BRANCH  18  19
ATOM     19  C   UNL     1      46.317  13.877 -23.509  1.00  0.00     0.000 C 
BRANCH  19  20
ATOM     20  C   UNL     1      45.802  15.327 -23.547  1.00  0.00     0.006 C 
BRANCH  20  21
ATOM     21  C   UNL     1      46.655  16.289 -22.710  1.00  0.00     0.053 C 
BRANCH  21  22
ATOM     22  C   UNL     1      46.250  17.706 -22.967  1.00  0.00     0.041 C 
ATOM     23  O   UNL     1      45.108  18.110 -22.626  1.00  0.00    -0.550 OA
ATOM     24  O   UNL     1      47.152  18.594 -23.539  1.00  0.00    -0.550 OA
ENDBRANCH  21  22
ENDBRANCH  20  21
ENDBRANCH  19  20
ENDBRANCH  18  19
ENDBRANCH  17  18
ENDBRANCH  16  17
ENDBRANCH  15  16
ENDBRANCH  14  15
ENDBRANCH  13  14
ENDBRANCH   1  13
TORSDOF 20
ENDMDL
MODEL 2
REMARK VINA RESULT:     0.610      1.368      2.611
REMARK INTER + INTRA:           0.616
REMARK INTER:                   0.951
REMARK INTRA:                  -0.334
REMARK UNBOUND:                -0.708
REMARK SMILES CCCCCCCCCCCCCCCCCCCCCC(=O)[O-]
REMARK SMILES IDX 12 1 11 2 10 3 9 4 8 5 7 6 6 7 5 8 4 9 3 10 2 11 1 12 13 13
REMARK SMILES IDX 14 14 15 15 16 16 17 17 18 18 19 19 20 20 21 21 22 22 23 23
REMARK SMILES IDX 24 24
REMARK H PARENT
REMARK Flexibility Score: inf
ROOT
ATOM      1  C   UNL     1      44.582  12.397 -32.732  1.00  0.00     0.000 C 
ENDROOT
BRANCH   1   2
ATOM      2  C   UNL     1      44.070  12.990 -34.059  1.00  0.00     0.000 C 
BRANCH   2   3
ATOM      3  C   UNL     1      43.050  12.117 -34.818  1.00  0.00     0.000 C 
BRANCH   3   4
ATOM      4  C   UNL     1      42.677  12.627 -36.221  1.00  0.00    -0.000 C 
BRANCH   4   5
ATOM      5  C   UNL     1      41.264  13.225 -36.280  1.00  0.00    -0.000 C 
BRANCH   5   6
ATOM      6  C   UNL     1      40.207  12.120 -36.435  1.00  0.00    -0.000 C 
BRANCH   6   7
ATOM      7  C   UNL     1      38.966  12.581 -37.223  1.00  0.00    -0.000 C 
BRANCH   7   8
ATOM      8  C   UNL     1      37.650  11.889 -36.824  1.00  0.00    -0.000 C 
BRANCH   8   9
ATOM      9  C   UNL     1      37.215  12.212 -35.386  1.00  0.00    -0.000 C 
BRANCH   9  10
ATOM     10  C   UNL     1      38.036  13.378 -34.814  1.00  0.00    -0.000 C 
BRANCH  10  11
ATOM     11  C   UNL     1      37.198  14.651 -34.618  1.00  0.00    -0.003 C 
ATOM     12  C   UNL     1      37.211  15.149 -33.172  1.00  0.00     0.004 C 
ENDBRANCH  10  11
ENDBRANCH   9  10
ENDBRANCH   8   9
ENDBRANCH   7   8
ENDBRANCH   6   7
ENDBRANCH   5   6
ENDBRANCH   4   5
ENDBRANCH   3   4
ENDBRANCH   2   3
ENDBRANCH   1   2
BRANCH   1  13
ATOM     13  C   UNL     1      46.015  12.806 -32.347  1.00  0.00     0.000 C 
BRANCH  13  14
ATOM     14  C   UNL     1      46.614  11.919 -31.246  1.00  0.00     0.000 C 
BRANCH  14  15
ATOM     15  C   UNL     1      46.809  12.715 -29.947  1.00  0.00     0.000 C 
BRANCH  15  16
ATOM     16  C   UNL     1      45.548  12.746 -29.064  1.00  0.00     0.000 C 
BRANCH  16  17
ATOM     17  C   UNL     1      45.613  11.876 -27.796  1.00  0.00     0.000 C 
BRANCH  17  18
ATOM     18  C   UNL     1      45.727  12.705 -26.506  1.00  0.00     0.000 C 
BRANCH  18  19
ATOM     19  C   UNL     1      44.539  12.496 -25.550  1.00  0.00     0.000 C 
BRANCH  19  20
ATOM     20  C   UNL     1      44.546  13.379 -24.289  1.00  0.00     0.006 C 
BRANCH  20  21
ATOM     21  C   UNL     1      45.813  13.208 -23.442  1.00  0.00     0.053 C 
BRANCH  21  22
ATOM     22  C   UNL     1      46.314  14.537 -22.974  1.00  0.00     0.041 C 
ATOM     23  O   UNL     1      45.978  15.589 -23.577  1.00  0.00    -0.550 OA
ATOM     24  O   UNL     1      47.113  14.619 -21.841  1.00  0.00    -0.550 OA
ENDBRANCH  21  22
ENDBRANCH  20  21
ENDBRANCH  19  20
ENDBRANCH  18  19
ENDBRANCH  17  18
ENDBRANCH  16  17
ENDBRANCH  15  16
ENDBRANCH  14  15
ENDBRANCH  13  14
ENDBRANCH   1  13
TORSDOF 20
ENDMDL
MODEL 3
REMARK VINA RESULT:     1.066     10.082     12.064
REMARK INTER + INTRA:           1.605
REMARK INTER:                   2.613
REMARK INTRA:                  -1.008
REMARK UNBOUND:                -0.708
REMARK SMILES CCCCCCCCCCCCCCCCCCCCCC(=O)[O-]
REMARK SMILES IDX 12 1 11 2 10 3 9 4 8 5 7 6 6 7 5 8 4 9 3 10 2 11 1 12 13 13
REMARK SMILES IDX 14 14 15 15 16 16 17 17 18 18 19 19 20 20 21 21 22 22 23 23
REMARK SMILES IDX 24 24
REMARK H PARENT
REMARK Flexibility Score: inf
ROOT
ATOM      1  C   UNL     1      47.594  20.468 -25.260  1.00  0.00     0.000 C 
ENDROOT
BRANCH   1   2
ATOM      2  C   UNL     1      46.280  20.631 -26.049  1.00  0.00     0.000 C 
BRANCH   2   3
ATOM      3  C   UNL     1      45.863  22.088 -26.334  1.00  0.00     0.000 C 
BRANCH   3   4
ATOM      4  C   UNL     1      46.081  23.066 -25.166  1.00  0.00    -0.000 C 
BRANCH   4   5
ATOM      5  C   UNL     1      45.073  24.224 -25.162  1.00  0.00    -0.000 C 
BRANCH   5   6
ATOM      6  C   UNL     1      45.162  25.023 -23.853  1.00  0.00    -0.000 C 
BRANCH   6   7
ATOM      7  C   UNL     1      43.791  25.521 -23.358  1.00  0.00    -0.000 C 
BRANCH   7   8
ATOM      8  C   UNL     1      43.428  26.955 -23.783  1.00  0.00    -0.000 C 
BRANCH   8   9
ATOM      9  C   UNL     1      42.556  27.003 -25.047  1.00  0.00    -0.000 C 
BRANCH   9  10
ATOM     10  C   UNL     1      43.427  27.056 -26.312  1.00  0.00    -0.000 C 
BRANCH  10  11
ATOM     11  C   UNL     1      42.652  26.660 -27.579  1.00  0.00    -0.003 C 
ATOM     12  C   UNL     1      41.140  26.615 -27.357  1.00  0.00     0.004 C 
ENDBRANCH  10  11
ENDBRANCH   9  10
ENDBRANCH   8   9
ENDBRANCH   7   8
ENDBRANCH   6   7
ENDBRANCH   5   6
ENDBRANCH   4   5
ENDBRANCH   3   4
ENDBRANCH   2   3
ENDBRANCH   1   2
BRANCH   1  13
ATOM     13  C   UNL     1      47.551  19.416 -24.138  1.00  0.00     0.000 C 
BRANCH  13  14
ATOM     14  C   UNL     1      46.251  18.598 -24.136  1.00  0.00     0.000 C 
BRANCH  14  15
ATOM     15  C   UNL     1      45.844  18.222 -22.703  1.00  0.00     0.000 C 
BRANCH  15  16
ATOM     16  C   UNL     1      47.048  17.903 -21.799  1.00  0.00     0.000 C 
BRANCH  16  17
ATOM     17  C   UNL     1      47.767  16.577 -22.108  1.00  0.00     0.000 C 
BRANCH  17  18
ATOM     18  C   UNL     1      48.931  16.287 -21.145  1.00  0.00     0.000 C 
BRANCH  18  19
ATOM     19  C   UNL     1      48.857  14.883 -20.517  1.00  0.00     0.000 C 
BRANCH  19  20
ATOM     20  C   UNL     1      50.168  14.373 -19.891  1.00  0.00     0.006 C 
BRANCH  20  21
ATOM     21  C   UNL     1      51.381  14.546 -20.814  1.00  0.00     0.053 C 
BRANCH  21  22
ATOM     22  C   UNL     1      52.652  14.423 -20.036  1.00  0.00     0.041 C 
ATOM     23  O   UNL     1      53.044  15.372 -19.308  1.00  0.00    -0.550 OA
ATOM     24  O   UNL     1      53.381  13.241 -20.076  1.00  0.00    -0.550 OA
ENDBRANCH  21  22
ENDBRANCH  20  21
ENDBRANCH  19  20
ENDBRANCH  18  19
ENDBRANCH  17  18
ENDBRANCH  16  17
ENDBRANCH  15  16
ENDBRANCH  14  15
ENDBRANCH  13  14
ENDBRANCH   1  13
TORSDOF 20
ENDMDL
MODEL 4
REMARK VINA RESULT:     1.165     10.166     14.307
REMARK INTER + INTRA:           1.819
REMARK INTER:                   2.728
REMARK INTRA:                  -0.909
REMARK UNBOUND:                -0.708
REMARK SMILES CCCCCCCCCCCCCCCCCCCCCC(=O)[O-]
REMARK SMILES IDX 12 1 11 2 10 3 9 4 8 5 7 6 6 7 5 8 4 9 3 10 2 11 1 12 13 13
REMARK SMILES IDX 14 14 15 15 16 16 17 17 18 18 19 19 20 20 21 21 22 22 23 23
REMARK SMILES IDX 24 24
REMARK H PARENT
REMARK Flexibility Score: inf
ROOT
ATOM      1  C   UNL     1      47.637  20.464 -25.318  1.00  0.00     0.000 C 
ENDROOT
BRANCH   1   2
ATOM      2  C   UNL     1      47.563  19.557 -24.074  1.00  0.00     0.000 C 
BRANCH   2   3
ATOM      3  C   UNL     1      46.367  18.585 -24.043  1.00  0.00     0.000 C 
BRANCH   3   4
ATOM      4  C   UNL     1      46.121  17.902 -22.685  1.00  0.00    -0.000 C 
BRANCH   4   5
ATOM      5  C   UNL     1      47.409  17.711 -21.872  1.00  0.00    -0.000 C 
BRANCH   5   6
ATOM      6  C   UNL     1      47.887  16.253 -21.937  1.00  0.00    -0.000 C 
BRANCH   6   7
ATOM      7  C   UNL     1      49.202  16.017 -21.170  1.00  0.00    -0.000 C 
BRANCH   7   8
ATOM      8  C   UNL     1      49.263  14.699 -20.376  1.00  0.00    -0.000 C 
BRANCH   8   9
ATOM      9  C   UNL     1      50.651  14.423 -19.779  1.00  0.00    -0.000 C 
BRANCH   9  10
ATOM     10  C   UNL     1      51.732  14.445 -20.870  1.00  0.00    -0.000 C 
BRANCH  10  11
ATOM     11  C   UNL     1      53.156  14.453 -20.292  1.00  0.00    -0.003 C 
ATOM     12  C   UNL     1      53.647  13.055 -19.913  1.00  0.00     0.004 C 
ENDBRANCH  10  11
ENDBRANCH   9  10
ENDBRANCH   8   9
ENDBRANCH   7   8
ENDBRANCH   6   7
ENDBRANCH   5   6
ENDBRANCH   4   5
ENDBRANCH   3   4
ENDBRANCH   2   3
ENDBRANCH   1   2
BRANCH   1  13
ATOM     13  C   UNL     1      46.348  20.524 -26.156  1.00  0.00     0.000 C 
BRANCH  13  14
ATOM     14  C   UNL     1      45.906  21.961 -26.470  1.00  0.00     0.000 C 
BRANCH  14  15
ATOM     15  C   UNL     1      46.031  22.855 -25.228  1.00  0.00     0.000 C 
BRANCH  15  16
ATOM     16  C   UNL     1      45.140  24.110 -25.297  1.00  0.00     0.000 C 
BRANCH  16  17
ATOM     17  C   UNL     1      45.245  25.055 -24.086  1.00  0.00     0.000 C 
BRANCH  17  18
ATOM     18  C   UNL     1      43.878  25.384 -23.463  1.00  0.00     0.000 C 
BRANCH  18  19
ATOM     19  C   UNL     1      43.488  26.865 -23.615  1.00  0.00     0.000 C 
BRANCH  19  20
ATOM     20  C   UNL     1      42.611  27.192 -24.837  1.00  0.00     0.006 C 
BRANCH  20  21
ATOM     21  C   UNL     1      43.354  27.031 -26.170  1.00  0.00     0.053 C 
BRANCH  21  22
ATOM     22  C   UNL     1      42.389  26.748 -27.276  1.00  0.00     0.041 C 
ATOM     23  O   UNL     1      41.180  26.512 -27.018  1.00  0.00    -0.550 OA
ATOM     24  O   UNL     1      42.814  26.790 -28.598  1.00  0.00    -0.550 OA
ENDBRANCH  21  22
ENDBRANCH  20  21
ENDBRANCH  19  20
ENDBRANCH  18  19
ENDBRANCH  17  18
ENDBRANCH  16  17
ENDBRANCH  15  16
ENDBRANCH  14  15
ENDBRANCH  13  14
ENDBRANCH   1  13
TORSDOF 20
ENDMDL
