MODEL 1
REMARK VINA RESULT:    -4.046      0.000      0.000
REMARK INTER + INTRA:         -10.316
REMARK INTER:                  -7.357
REMARK INTRA:                  -2.959
REMARK UNBOUND:                -2.959
REMARK SMILES CCCCCC=CCC=CCCCCCCCC(=O)[O-]
REMARK SMILES IDX 11 1 12 2 13 3 14 4 15 5 16 6 17 7 18 8 19 9 20 10 10 11
REMARK SMILES IDX 9 12 8 13 7 14 6 15 5 16 4 17 3 18 2 19 1 20
REMARK H PARENT
REMARK Flexibility Score: inf
ROOT
ATOM      1  C   UNL     1      29.121 -34.411  26.057  1.00  0.00     0.027 C 
ENDROOT
BRANCH   1   2
ATOM      2  C   UNL     1      30.547 -34.018  25.645  1.00  0.00     0.004 C 
BRANCH   2   3
ATOM      3  C   UNL     1      31.572 -35.125  25.936  1.00  0.00     0.000 C 
BRANCH   3   4
ATOM      4  C   UNL     1      32.327 -35.520  24.661  1.00  0.00     0.000 C 
BRANCH   4   5
ATOM      5  C   UNL     1      31.863 -36.891  24.148  1.00  0.00     0.000 C 
BRANCH   5   6
ATOM      6  C   UNL     1      31.123 -36.805  22.801  1.00  0.00     0.006 C 
BRANCH   6   7
ATOM      7  C   UNL     1      30.958 -35.375  22.259  1.00  0.00     0.053 C 
BRANCH   7   8
ATOM      8  C   UNL     1      29.517 -34.988  22.121  1.00  0.00     0.041 C 
ATOM      9  O   UNL     1      29.171 -33.785  22.248  1.00  0.00    -0.550 OA
ATOM     10  O   UNL     1      28.555 -35.962  21.884  1.00  0.00    -0.550 OA
ENDBRANCH   7   8
ENDBRANCH   6   7
ENDBRANCH   5   6
ENDBRANCH   4   5
ENDBRANCH   3   4
ENDBRANCH   2   3
ENDBRANCH   1   2
BRANCH   1  11
ATOM     11  C   UNL     1      28.846 -35.893  25.942  1.00  0.00    -0.031 C 
ATOM     12  C   UNL     1      27.644 -36.478  26.111  1.00  0.00    -0.027 C 
BRANCH  12  13
ATOM     13  C   UNL     1      26.353 -35.747  26.371  1.00  0.00     0.054 C 
BRANCH  13  14
ATOM     14  C   UNL     1      25.788 -36.152  27.711  1.00  0.00    -0.027 C 
ATOM     15  C   UNL     1      26.025 -35.502  28.865  1.00  0.00    -0.031 C 
BRANCH  15  16
ATOM     16  C   UNL     1      26.853 -34.245  28.997  1.00  0.00     0.027 C 
BRANCH  16  17
ATOM     17  C   UNL     1      28.086 -34.427  29.898  1.00  0.00     0.004 C 
BRANCH  17  18
ATOM     18  C   UNL     1      28.775 -35.798  29.758  1.00  0.00     0.000 C 
BRANCH  18  19
ATOM     19  C   UNL     1      30.274 -35.706  29.406  1.00  0.00    -0.003 C 
ATOM     20  C   UNL     1      30.811 -34.278  29.497  1.00  0.00     0.004 C 
ENDBRANCH  18  19
ENDBRANCH  17  18
ENDBRANCH  16  17
ENDBRANCH  15  16
ENDBRANCH  13  14
ENDBRANCH  12  13
ENDBRANCH   1  11
TORSDOF 14
ENDMDL
MODEL 2
REMARK VINA RESULT:    -4.040     16.615     18.733
REMARK INTER + INTRA:         -10.306
REMARK INTER:                  -8.703
REMARK INTRA:                  -1.603
REMARK UNBOUND:                -2.959
REMARK SMILES CCCCCC=CCC=CCCCCCCCC(=O)[O-]
REMARK SMILES IDX 11 1 12 2 13 3 14 4 15 5 16 6 17 7 18 8 19 9 20 10 10 11
REMARK SMILES IDX 9 12 8 13 7 14 6 15 5 16 4 17 3 18 2 19 1 20
REMARK H PARENT
REMARK Flexibility Score: inf
ROOT
ATOM      1  C   UNL     1      22.826 -24.188  16.662  1.00  0.00     0.027 C 
ENDROOT
BRANCH   1   2
ATOM      2  C   UNL     1      24.109 -23.345  16.717  1.00  0.00     0.004 C 
BRANCH   2   3
ATOM      3  C   UNL     1      23.847 -21.854  16.460  1.00  0.00     0.000 C 
BRANCH   3   4
ATOM      4  C   UNL     1      24.945 -21.249  15.577  1.00  0.00     0.000 C 
BRANCH   4   5
ATOM      5  C   UNL     1      24.435 -21.012  14.149  1.00  0.00     0.000 C 
BRANCH   5   6
ATOM      6  C   UNL     1      22.907 -21.155  14.028  1.00  0.00     0.006 C 
BRANCH   6   7
ATOM      7  C   UNL     1      22.441 -22.497  13.439  1.00  0.00     0.053 C 
BRANCH   7   8
ATOM      8  C   UNL     1      22.380 -22.464  11.942  1.00  0.00     0.041 C 
ATOM      9  O   UNL     1      21.275 -22.318  11.357  1.00  0.00    -0.550 OA
ATOM     10  O   UNL     1      23.541 -22.624  11.195  1.00  0.00    -0.550 OA
ENDBRANCH   7   8
ENDBRANCH   6   7
ENDBRANCH   5   6
ENDBRANCH   4   5
ENDBRANCH   3   4
ENDBRANCH   2   3
ENDBRANCH   1   2
BRANCH   1  11
ATOM     11  C   UNL     1      21.660 -23.562  17.394  1.00  0.00    -0.031 C 
ATOM     12  C   UNL     1      20.393 -23.511  16.939  1.00  0.00    -0.027 C 
BRANCH  12  13
ATOM     13  C   UNL     1      19.905 -24.131  15.657  1.00  0.00     0.054 C 
BRANCH  13  14
ATOM     14  C   UNL     1      19.002 -23.169  14.925  1.00  0.00    -0.027 C 
ATOM     15  C   UNL     1      17.819 -23.502  14.378  1.00  0.00    -0.031 C 
BRANCH  15  16
ATOM     16  C   UNL     1      17.186 -24.872  14.447  1.00  0.00     0.027 C 
BRANCH  16  17
ATOM     17  C   UNL     1      16.227 -25.033  15.638  1.00  0.00     0.004 C 
BRANCH  17  18
ATOM     18  C   UNL     1      16.782 -25.899  16.785  1.00  0.00     0.000 C 
BRANCH  18  19
ATOM     19  C   UNL     1      15.688 -26.508  17.688  1.00  0.00    -0.003 C 
ATOM     20  C   UNL     1      14.308 -26.489  17.031  1.00  0.00     0.004 C 
ENDBRANCH  18  19
ENDBRANCH  17  18
ENDBRANCH  16  17
ENDBRANCH  15  16
ENDBRANCH  13  14
ENDBRANCH  12  13
ENDBRANCH   1  11
TORSDOF 14
ENDMDL
MODEL 3
REMARK VINA RESULT:    -3.997      1.391      3.141
REMARK INTER + INTRA:         -10.228
REMARK INTER:                  -7.298
REMARK INTRA:                  -2.930
REMARK UNBOUND:                -2.959
REMARK SMILES CCCCCC=CCC=CCCCCCCCC(=O)[O-]
REMARK SMILES IDX 11 1 12 2 13 3 14 4 15 5 16 6 17 7 18 8 19 9 20 10 10 11
REMARK SMILES IDX 9 12 8 13 7 14 6 15 5 16 4 17 3 18 2 19 1 20
REMARK H PARENT
REMARK Flexibility Score: inf
ROOT
ATOM      1  C   UNL     1      32.209 -34.378  25.233  1.00  0.00     0.027 C 
ENDROOT
BRANCH   1   2
ATOM      2  C   UNL     1      32.350 -35.547  24.246  1.00  0.00     0.004 C 
BRANCH   2   3
ATOM      3  C   UNL     1      32.093 -36.911  24.906  1.00  0.00     0.000 C 
BRANCH   3   4
ATOM      4  C   UNL     1      31.070 -37.723  24.103  1.00  0.00     0.000 C 
BRANCH   4   5
ATOM      5  C   UNL     1      29.641 -37.441  24.588  1.00  0.00     0.000 C 
BRANCH   5   6
ATOM      6  C   UNL     1      28.888 -36.445  23.687  1.00  0.00     0.006 C 
BRANCH   6   7
ATOM      7  C   UNL     1      29.313 -36.484  22.209  1.00  0.00     0.053 C 
BRANCH   7   8
ATOM      8  C   UNL     1      29.763 -35.142  21.719  1.00  0.00     0.041 C 
ATOM      9  O   UNL     1      29.187 -34.096  22.118  1.00  0.00    -0.550 OA
ATOM     10  O   UNL     1      30.799 -35.050  20.797  1.00  0.00    -0.550 OA
ENDBRANCH   7   8
ENDBRANCH   6   7
ENDBRANCH   5   6
ENDBRANCH   4   5
ENDBRANCH   3   4
ENDBRANCH   2   3
ENDBRANCH   1   2
BRANCH   1  11
ATOM     11  C   UNL     1      30.789 -33.877  25.377  1.00  0.00    -0.031 C 
ATOM     12  C   UNL     1      29.971 -34.144  26.413  1.00  0.00    -0.027 C 
BRANCH  12  13
ATOM     13  C   UNL     1      30.352 -34.927  27.641  1.00  0.00     0.054 C 
BRANCH  13  14
ATOM     14  C   UNL     1      29.677 -34.345  28.859  1.00  0.00    -0.027 C 
ATOM     15  C   UNL     1      28.587 -34.868  29.448  1.00  0.00    -0.031 C 
BRANCH  15  16
ATOM     16  C   UNL     1      27.894 -36.140  29.016  1.00  0.00     0.027 C 
BRANCH  16  17
ATOM     17  C   UNL     1      26.607 -35.882  28.216  1.00  0.00     0.004 C 
BRANCH  17  18
ATOM     18  C   UNL     1      26.772 -36.020  26.691  1.00  0.00     0.000 C 
BRANCH  18  19
ATOM     19  C   UNL     1      26.375 -34.752  25.906  1.00  0.00    -0.003 C 
ATOM     20  C   UNL     1      26.385 -33.497  26.778  1.00  0.00     0.004 C 
ENDBRANCH  18  19
ENDBRANCH  17  18
ENDBRANCH  16  17
ENDBRANCH  15  16
ENDBRANCH  13  14
ENDBRANCH  12  13
ENDBRANCH   1  11
TORSDOF 14
ENDMDL
MODEL 4
REMARK VINA RESULT:    -3.951     16.787     18.695
REMARK INTER + INTRA:         -10.144
REMARK INTER:                  -8.011
REMARK INTRA:                  -2.133
REMARK UNBOUND:                -2.959
REMARK SMILES CCCCCC=CCC=CCCCCCCCC(=O)[O-]
REMARK SMILES IDX 11 1 12 2 13 3 14 4 15 5 16 6 17 7 18 8 19 9 20 10 10 11
REMARK SMILES IDX 9 12 8 13 7 14 6 15 5 16 4 17 3 18 2 19 1 20
REMARK H PARENT
REMARK Flexibility Score: inf
ROOT
ATOM      1  C   UNL     1      17.347 -25.021  14.696  1.00  0.00     0.027 C 
ENDROOT
BRANCH   1   2
ATOM      2  C   UNL     1      18.570 -24.660  13.839  1.00  0.00     0.004 C 
BRANCH   2   3
ATOM      3  C   UNL     1      19.102 -23.250  14.133  1.00  0.00     0.000 C 
BRANCH   3   4
ATOM      4  C   UNL     1      20.591 -23.291  14.495  1.00  0.00     0.000 C 
BRANCH   4   5
ATOM      5  C   UNL     1      20.820 -22.818  15.938  1.00  0.00     0.000 C 
BRANCH   5   6
ATOM      6  C   UNL     1      21.364 -23.931  16.852  1.00  0.00     0.006 C 
BRANCH   6   7
ATOM      7  C   UNL     1      22.827 -24.317  16.578  1.00  0.00     0.053 C 
BRANCH   7   8
ATOM      8  C   UNL     1      23.789 -23.355  17.205  1.00  0.00     0.041 C 
ATOM      9  O   UNL     1      24.926 -23.175  16.695  1.00  0.00    -0.550 OA
ATOM     10  O   UNL     1      23.440 -22.680  18.368  1.00  0.00    -0.550 OA
ENDBRANCH   7   8
ENDBRANCH   6   7
ENDBRANCH   5   6
ENDBRANCH   4   5
ENDBRANCH   3   4
ENDBRANCH   2   3
ENDBRANCH   1   2
BRANCH   1  11
ATOM     11  C   UNL     1      17.683 -25.294  16.144  1.00  0.00    -0.031 C 
ATOM     12  C   UNL     1      16.824 -25.768  17.067  1.00  0.00    -0.027 C 
BRANCH  12  13
ATOM     13  C   UNL     1      15.399 -26.174  16.798  1.00  0.00     0.054 C 
BRANCH  13  14
ATOM     14  C   UNL     1      14.720 -26.572  18.085  1.00  0.00    -0.027 C 
ATOM     15  C   UNL     1      13.945 -25.755  18.822  1.00  0.00    -0.031 C 
BRANCH  15  16
ATOM     16  C   UNL     1      13.596 -24.331  18.457  1.00  0.00     0.027 C 
BRANCH  16  17
ATOM     17  C   UNL     1      14.251 -23.294  19.383  1.00  0.00     0.004 C 
BRANCH  17  18
ATOM     18  C   UNL     1      15.383 -22.483  18.724  1.00  0.00     0.000 C 
BRANCH  18  19
ATOM     19  C   UNL     1      15.279 -22.408  17.187  1.00  0.00    -0.003 C 
ATOM     20  C   UNL     1      16.551 -21.862  16.539  1.00  0.00     0.004 C 
ENDBRANCH  18  19
ENDBRANCH  17  18
ENDBRANCH  16  17
ENDBRANCH  15  16
ENDBRANCH  13  14
ENDBRANCH  12  13
ENDBRANCH   1  11
TORSDOF 14
ENDMDL
MODEL 5
REMARK VINA RESULT:    -3.950      2.002      5.844
REMARK INTER + INTRA:         -10.142
REMARK INTER:                  -7.181
REMARK INTRA:                  -2.962
REMARK UNBOUND:                -2.959
REMARK SMILES CCCCCC=CCC=CCCCCCCCC(=O)[O-]
REMARK SMILES IDX 11 1 12 2 13 3 14 4 15 5 16 6 17 7 18 8 19 9 20 10 10 11
REMARK SMILES IDX 9 12 8 13 7 14 6 15 5 16 4 17 3 18 2 19 1 20
REMARK H PARENT
REMARK Flexibility Score: inf
ROOT
ATOM      1  C   UNL     1      31.204 -34.542  27.620  1.00  0.00     0.027 C 
ENDROOT
BRANCH   1   2
ATOM      2  C   UNL     1      30.517 -34.607  28.992  1.00  0.00     0.004 C 
BRANCH   2   3
ATOM      3  C   UNL     1      29.972 -36.007  29.314  1.00  0.00     0.000 C 
BRANCH   3   4
ATOM      4  C   UNL     1      28.446 -36.047  29.168  1.00  0.00     0.000 C 
BRANCH   4   5
ATOM      5  C   UNL     1      27.823 -34.688  29.519  1.00  0.00     0.000 C 
BRANCH   5   6
ATOM      6  C   UNL     1      26.648 -34.313  28.597  1.00  0.00     0.006 C 
BRANCH   6   7
ATOM      7  C   UNL     1      26.802 -34.798  27.146  1.00  0.00     0.053 C 
BRANCH   7   8
ATOM      8  C   UNL     1      26.316 -33.782  26.159  1.00  0.00     0.041 C 
ATOM      9  O   UNL     1      26.306 -34.049  24.929  1.00  0.00    -0.550 OA
ATOM     10  O   UNL     1      25.902 -32.530  26.596  1.00  0.00    -0.550 OA
ENDBRANCH   7   8
ENDBRANCH   6   7
ENDBRANCH   5   6
ENDBRANCH   4   5
ENDBRANCH   3   4
ENDBRANCH   2   3
ENDBRANCH   1   2
BRANCH   1  11
ATOM     11  C   UNL     1      30.285 -34.100  26.504  1.00  0.00    -0.031 C 
ATOM     12  C   UNL     1      30.646 -33.939  25.216  1.00  0.00    -0.027 C 
BRANCH  12  13
ATOM     13  C   UNL     1      32.009 -34.242  24.652  1.00  0.00     0.054 C 
BRANCH  13  14
ATOM     14  C   UNL     1      31.880 -35.056  23.388  1.00  0.00    -0.027 C 
ATOM     15  C   UNL     1      32.300 -36.327  23.255  1.00  0.00    -0.031 C 
BRANCH  15  16
ATOM     16  C   UNL     1      32.924 -37.154  24.355  1.00  0.00     0.027 C 
BRANCH  16  17
ATOM     17  C   UNL     1      31.962 -38.198  24.945  1.00  0.00     0.004 C 
BRANCH  17  18
ATOM     18  C   UNL     1      31.218 -37.730  26.209  1.00  0.00     0.000 C 
BRANCH  18  19
ATOM     19  C   UNL     1      29.700 -38.004  26.173  1.00  0.00    -0.003 C 
ATOM     20  C   UNL     1      28.994 -37.247  25.048  1.00  0.00     0.004 C 
ENDBRANCH  18  19
ENDBRANCH  17  18
ENDBRANCH  16  17
ENDBRANCH  15  16
ENDBRANCH  13  14
ENDBRANCH  12  13
ENDBRANCH   1  11
TORSDOF 14
ENDMDL
MODEL 6
REMARK VINA RESULT:    -3.898     16.982     19.176
REMARK INTER + INTRA:         -10.047
REMARK INTER:                  -7.809
REMARK INTRA:                  -2.238
REMARK UNBOUND:                -2.959
REMARK SMILES CCCCCC=CCC=CCCCCCCCC(=O)[O-]
REMARK SMILES IDX 11 1 12 2 13 3 14 4 15 5 16 6 17 7 18 8 19 9 20 10 10 11
REMARK SMILES IDX 9 12 8 13 7 14 6 15 5 16 4 17 3 18 2 19 1 20
REMARK H PARENT
REMARK Flexibility Score: inf
ROOT
ATOM      1  C   UNL     1      18.278 -25.256  13.381  1.00  0.00     0.027 C 
ENDROOT
BRANCH   1   2
ATOM      2  C   UNL     1      19.129 -24.868  14.600  1.00  0.00     0.004 C 
BRANCH   2   3
ATOM      3  C   UNL     1      20.123 -23.739  14.291  1.00  0.00     0.000 C 
BRANCH   3   4
ATOM      4  C   UNL     1      20.170 -22.722  15.438  1.00  0.00     0.000 C 
BRANCH   4   5
ATOM      5  C   UNL     1      19.850 -23.393  16.782  1.00  0.00     0.000 C 
BRANCH   5   6
ATOM      6  C   UNL     1      21.112 -23.827  17.548  1.00  0.00     0.006 C 
BRANCH   6   7
ATOM      7  C   UNL     1      22.420 -23.223  17.011  1.00  0.00     0.053 C 
BRANCH   7   8
ATOM      8  C   UNL     1      23.115 -22.383  18.038  1.00  0.00     0.041 C 
ATOM      9  O   UNL     1      22.445 -21.712  18.866  1.00  0.00    -0.550 OA
ATOM     10  O   UNL     1      24.503 -22.318  18.060  1.00  0.00    -0.550 OA
ENDBRANCH   7   8
ENDBRANCH   6   7
ENDBRANCH   5   6
ENDBRANCH   4   5
ENDBRANCH   3   4
ENDBRANCH   2   3
ENDBRANCH   1   2
BRANCH   1  11
ATOM     11  C   UNL     1      18.011 -24.103  12.440  1.00  0.00    -0.031 C 
ATOM     12  C   UNL     1      16.957 -23.267  12.513  1.00  0.00    -0.027 C 
BRANCH  12  13
ATOM     13  C   UNL     1      15.901 -23.293  13.586  1.00  0.00     0.054 C 
BRANCH  13  14
ATOM     14  C   UNL     1      16.344 -22.471  14.771  1.00  0.00    -0.027 C 
ATOM     15  C   UNL     1      16.179 -22.836  16.056  1.00  0.00    -0.031 C 
BRANCH  15  16
ATOM     16  C   UNL     1      15.568 -24.139  16.514  1.00  0.00     0.027 C 
BRANCH  16  17
ATOM     17  C   UNL     1      16.614 -25.164  16.983  1.00  0.00     0.004 C 
BRANCH  17  18
ATOM     18  C   UNL     1      16.015 -26.452  17.578  1.00  0.00     0.000 C 
BRANCH  18  19
ATOM     19  C   UNL     1      14.475 -26.507  17.517  1.00  0.00    -0.003 C 
ATOM     20  C   UNL     1      13.878 -27.424  18.584  1.00  0.00     0.004 C 
ENDBRANCH  18  19
ENDBRANCH  17  18
ENDBRANCH  16  17
ENDBRANCH  15  16
ENDBRANCH  13  14
ENDBRANCH  12  13
ENDBRANCH   1  11
TORSDOF 14
ENDMDL
MODEL 7
REMARK VINA RESULT:    -3.891      1.409      2.659
REMARK INTER + INTRA:         -10.035
REMARK INTER:                  -6.977
REMARK INTRA:                  -3.059
REMARK UNBOUND:                -2.959
REMARK SMILES CCCCCC=CCC=CCCCCCCCC(=O)[O-]
REMARK SMILES IDX 11 1 12 2 13 3 14 4 15 5 16 6 17 7 18 8 19 9 20 10 10 11
REMARK SMILES IDX 9 12 8 13 7 14 6 15 5 16 4 17 3 18 2 19 1 20
REMARK H PARENT
REMARK Flexibility Score: inf
ROOT
ATOM      1  C   UNL     1      30.682 -36.101  28.381  1.00  0.00     0.027 C 
ENDROOT
BRANCH   1   2
ATOM      2  C   UNL     1      31.185 -34.690  28.040  1.00  0.00     0.004 C 
BRANCH   2   3
ATOM      3  C   UNL     1      32.095 -34.671  26.802  1.00  0.00     0.000 C 
BRANCH   3   4
ATOM      4  C   UNL     1      31.400 -33.982  25.622  1.00  0.00     0.000 C 
BRANCH   4   5
ATOM      5  C   UNL     1      32.068 -34.358  24.292  1.00  0.00     0.000 C 
BRANCH   5   6
ATOM      6  C   UNL     1      31.212 -35.316  23.443  1.00  0.00     0.006 C 
BRANCH   6   7
ATOM      7  C   UNL     1      30.039 -34.639  22.714  1.00  0.00     0.053 C 
BRANCH   7   8
ATOM      8  C   UNL     1      29.627 -35.396  21.489  1.00  0.00     0.041 C 
ATOM      9  O   UNL     1      28.497 -35.947  21.436  1.00  0.00    -0.550 OA
ATOM     10  O   UNL     1      30.504 -35.517  20.418  1.00  0.00    -0.550 OA
ENDBRANCH   7   8
ENDBRANCH   6   7
ENDBRANCH   5   6
ENDBRANCH   4   5
ENDBRANCH   3   4
ENDBRANCH   2   3
ENDBRANCH   1   2
BRANCH   1  11
ATOM     11  C   UNL     1      30.787 -37.075  27.229  1.00  0.00    -0.031 C 
ATOM     12  C   UNL     1      29.764 -37.469  26.447  1.00  0.00    -0.027 C 
BRANCH  12  13
ATOM     13  C   UNL     1      28.352 -36.952  26.540  1.00  0.00     0.054 C 
BRANCH  13  14
ATOM     14  C   UNL     1      28.058 -36.034  25.380  1.00  0.00    -0.027 C 
ATOM     15  C   UNL     1      27.790 -34.720  25.497  1.00  0.00    -0.031 C 
BRANCH  15  16
ATOM     16  C   UNL     1      27.786 -33.949  26.796  1.00  0.00     0.027 C 
BRANCH  16  17
ATOM     17  C   UNL     1      26.380 -33.787  27.396  1.00  0.00     0.004 C 
BRANCH  17  18
ATOM     18  C   UNL     1      26.066 -34.765  28.544  1.00  0.00     0.000 C 
BRANCH  18  19
ATOM     19  C   UNL     1      27.213 -34.913  29.566  1.00  0.00    -0.003 C 
ATOM     20  C   UNL     1      27.338 -36.338  30.103  1.00  0.00     0.004 C 
ENDBRANCH  18  19
ENDBRANCH  17  18
ENDBRANCH  16  17
ENDBRANCH  15  16
ENDBRANCH  13  14
ENDBRANCH  12  13
ENDBRANCH   1  11
TORSDOF 14
ENDMDL
MODEL 8
REMARK VINA RESULT:    -3.859      2.739      4.390
REMARK INTER + INTRA:          -9.976
REMARK INTER:                  -7.743
REMARK INTRA:                  -2.234
REMARK UNBOUND:                -2.959
REMARK SMILES CCCCCC=CCC=CCCCCCCCC(=O)[O-]
REMARK SMILES IDX 11 1 12 2 13 3 14 4 15 5 16 6 17 7 18 8 19 9 20 10 10 11
REMARK SMILES IDX 9 12 8 13 7 14 6 15 5 16 4 17 3 18 2 19 1 20
REMARK H PARENT
REMARK Flexibility Score: inf
ROOT
ATOM      1  C   UNL     1      29.597 -34.141  23.307  1.00  0.00     0.027 C 
ENDROOT
BRANCH   1   2
ATOM      2  C   UNL     1      28.988 -35.335  22.556  1.00  0.00     0.004 C 
BRANCH   2   3
ATOM      3  C   UNL     1      29.869 -36.591  22.631  1.00  0.00     0.000 C 
BRANCH   3   4
ATOM      4  C   UNL     1      30.156 -37.142  21.230  1.00  0.00     0.000 C 
BRANCH   4   5
ATOM      5  C   UNL     1      31.392 -36.469  20.615  1.00  0.00     0.000 C 
BRANCH   5   6
ATOM      6  C   UNL     1      32.018 -37.294  19.476  1.00  0.00     0.006 C 
BRANCH   6   7
ATOM      7  C   UNL     1      32.424 -36.468  18.245  1.00  0.00     0.053 C 
BRANCH   7   8
ATOM      8  C   UNL     1      31.265 -36.216  17.330  1.00  0.00     0.041 C 
ATOM      9  O   UNL     1      30.205 -36.884  17.453  1.00  0.00    -0.550 OA
ATOM     10  O   UNL     1      31.369 -35.266  16.321  1.00  0.00    -0.550 OA
ENDBRANCH   7   8
ENDBRANCH   6   7
ENDBRANCH   5   6
ENDBRANCH   4   5
ENDBRANCH   3   4
ENDBRANCH   2   3
ENDBRANCH   1   2
BRANCH   1  11
ATOM     11  C   UNL     1      30.933 -34.446  23.945  1.00  0.00    -0.031 C 
ATOM     12  C   UNL     1      31.208 -34.348  25.260  1.00  0.00    -0.027 C 
BRANCH  12  13
ATOM     13  C   UNL     1      30.211 -33.987  26.330  1.00  0.00     0.054 C 
BRANCH  13  14
ATOM     14  C   UNL     1      30.109 -35.101  27.343  1.00  0.00    -0.027 C 
ATOM     15  C   UNL     1      29.292 -36.164  27.226  1.00  0.00    -0.031 C 
BRANCH  15  16
ATOM     16  C   UNL     1      28.386 -36.435  26.047  1.00  0.00     0.027 C 
BRANCH  16  17
ATOM     17  C   UNL     1      26.952 -35.922  26.260  1.00  0.00     0.004 C 
BRANCH  17  18
ATOM     18  C   UNL     1      26.698 -34.507  25.707  1.00  0.00     0.000 C 
BRANCH  18  19
ATOM     19  C   UNL     1      26.364 -33.465  26.795  1.00  0.00    -0.003 C 
ATOM     20  C   UNL     1      26.347 -34.070  28.199  1.00  0.00     0.004 C 
ENDBRANCH  18  19
ENDBRANCH  17  18
ENDBRANCH  16  17
ENDBRANCH  15  16
ENDBRANCH  13  14
ENDBRANCH  12  13
ENDBRANCH   1  11
TORSDOF 14
ENDMDL
MODEL 9
REMARK VINA RESULT:    -3.821      2.512      6.654
REMARK INTER + INTRA:          -9.908
REMARK INTER:                  -7.079
REMARK INTRA:                  -2.828
REMARK UNBOUND:                -2.959
REMARK SMILES CCCCCC=CCC=CCCCCCCCC(=O)[O-]
REMARK SMILES IDX 11 1 12 2 13 3 14 4 15 5 16 6 17 7 18 8 19 9 20 10 10 11
REMARK SMILES IDX 9 12 8 13 7 14 6 15 5 16 4 17 3 18 2 19 1 20
REMARK H PARENT
REMARK Flexibility Score: inf
ROOT
ATOM      1  C   UNL     1      31.783 -38.050  24.006  1.00  0.00     0.027 C 
ENDROOT
BRANCH   1   2
ATOM      2  C   UNL     1      32.551 -36.778  24.395  1.00  0.00     0.004 C 
BRANCH   2   3
ATOM      3  C   UNL     1      31.840 -35.973  25.493  1.00  0.00     0.000 C 
BRANCH   3   4
ATOM      4  C   UNL     1      31.600 -34.527  25.043  1.00  0.00     0.000 C 
BRANCH   4   5
ATOM      5  C   UNL     1      30.425 -33.899  25.806  1.00  0.00     0.000 C 
BRANCH   5   6
ATOM      6  C   UNL     1      29.257 -34.881  26.017  1.00  0.00     0.006 C 
BRANCH   6   7
ATOM      7  C   UNL     1      27.971 -34.229  26.551  1.00  0.00     0.053 C 
BRANCH   7   8
ATOM      8  C   UNL     1      26.744 -34.790  25.900  1.00  0.00     0.041 C 
ATOM      9  O   UNL     1      26.093 -34.098  25.074  1.00  0.00    -0.550 OA
ATOM     10  O   UNL     1      26.303 -36.066  26.229  1.00  0.00    -0.550 OA
ENDBRANCH   7   8
ENDBRANCH   6   7
ENDBRANCH   5   6
ENDBRANCH   4   5
ENDBRANCH   3   4
ENDBRANCH   2   3
ENDBRANCH   1   2
BRANCH   1  11
ATOM     11  C   UNL     1      30.389 -38.117  24.589  1.00  0.00    -0.031 C 
ATOM     12  C   UNL     1      29.254 -37.815  23.930  1.00  0.00    -0.027 C 
BRANCH  12  13
ATOM     13  C   UNL     1      29.171 -37.429  22.477  1.00  0.00     0.054 C 
BRANCH  13  14
ATOM     14  C   UNL     1      29.032 -35.932  22.344  1.00  0.00    -0.027 C 
ATOM     15  C   UNL     1      29.972 -35.123  21.823  1.00  0.00    -0.031 C 
BRANCH  15  16
ATOM     16  C   UNL     1      31.292 -35.584  21.250  1.00  0.00     0.027 C 
BRANCH  16  17
ATOM     17  C   UNL     1      31.276 -35.699  19.717  1.00  0.00     0.004 C 
BRANCH  17  18
ATOM     18  C   UNL     1      30.823 -37.073  19.189  1.00  0.00     0.000 C 
BRANCH  18  19
ATOM     19  C   UNL     1      29.720 -36.993  18.114  1.00  0.00    -0.003 C 
ATOM     20  C   UNL     1      28.325 -36.820  18.716  1.00  0.00     0.004 C 
ENDBRANCH  18  19
ENDBRANCH  17  18
ENDBRANCH  16  17
ENDBRANCH  15  16
ENDBRANCH  13  14
ENDBRANCH  12  13
ENDBRANCH   1  11
TORSDOF 14
ENDMDL
