MODEL 1
REMARK VINA RESULT:    -3.577      0.000      0.000
REMARK INTER + INTRA:          -5.277
REMARK INTER:                  -4.727
REMARK INTRA:                  -0.551
REMARK UNBOUND:                -0.551
REMARK SMILES C=C[C@@H](O)CCCCC
REMARK SMILES IDX 6 1 7 2 8 3 9 4 5 5 3 6 2 7 1 8 4 9
REMARK H PARENT 4 10
REMARK Flexibility Score: inf
ROOT
ATOM      1  C   UNL     1      50.180   6.510 111.358  1.00  0.00     0.003 C 
ENDROOT
BRANCH   1   2
ATOM      2  C   UNL     1      50.313   4.979 111.410  1.00  0.00    -0.000 C 
BRANCH   2   3
ATOM      3  C   UNL     1      49.552   4.363 112.596  1.00  0.00    -0.003 C 
ATOM      4  C   UNL     1      48.178   3.820 112.202  1.00  0.00     0.004 C 
ENDBRANCH   2   3
ENDBRANCH   1   2
BRANCH   1   5
ATOM      5  C   UNL     1      49.029   6.984 110.453  1.00  0.00     0.036 C 
BRANCH   5   6
ATOM      6  C   UNL     1      47.809   7.514 111.233  1.00  0.00     0.136 C 
BRANCH   6   7
ATOM      7  C   UNL     1      48.131   7.655 112.701  1.00  0.00    -0.004 C 
ATOM      8  C   UNL     1      47.271   7.293 113.658  1.00  0.00     0.007 C 
ENDBRANCH   6   7
BRANCH   6   9
ATOM      9  O   UNL     1      47.410   8.758 110.717  1.00  0.00    -0.389 OA
ATOM     10  H   UNL     1      48.204   9.149 110.267  1.00  0.00     0.211 HD
ENDBRANCH   6   9
ENDBRANCH   5   6
ENDBRANCH   1   5
TORSDOF 6
ENDMDL
MODEL 2
REMARK VINA RESULT:    -3.399      9.099     11.277
REMARK INTER + INTRA:          -5.043
REMARK INTER:                  -4.528
REMARK INTRA:                  -0.515
REMARK UNBOUND:                -0.551
REMARK SMILES C=C[C@@H](O)CCCCC
REMARK SMILES IDX 6 1 7 2 8 3 9 4 5 5 3 6 2 7 1 8 4 9
REMARK H PARENT 4 10
REMARK Flexibility Score: inf
ROOT
ATOM      1  C   UNL     1      42.618  11.711 119.863  1.00  0.00     0.003 C 
ENDROOT
BRANCH   1   2
ATOM      2  C   UNL     1      42.667  12.473 121.198  1.00  0.00    -0.000 C 
BRANCH   2   3
ATOM      3  C   UNL     1      43.964  12.207 121.980  1.00  0.00    -0.003 C 
ATOM      4  C   UNL     1      45.193  12.835 121.321  1.00  0.00     0.004 C 
ENDBRANCH   2   3
ENDBRANCH   1   2
BRANCH   1   5
ATOM      5  C   UNL     1      42.538  10.185 120.045  1.00  0.00     0.036 C 
BRANCH   5   6
ATOM      6  C   UNL     1      43.197   9.391 118.898  1.00  0.00     0.136 C 
BRANCH   6   7
ATOM      7  C   UNL     1      44.696   9.332 119.081  1.00  0.00    -0.004 C 
ATOM      8  C   UNL     1      45.260   9.094 120.269  1.00  0.00     0.007 C 
ENDBRANCH   6   7
BRANCH   6   9
ATOM      9  O   UNL     1      42.676   8.088 118.853  1.00  0.00    -0.389 OA
ATOM     10  H   UNL     1      42.601   7.776 119.793  1.00  0.00     0.211 HD
ENDBRANCH   6   9
ENDBRANCH   5   6
ENDBRANCH   1   5
TORSDOF 6
ENDMDL
MODEL 3
REMARK VINA RESULT:    -3.391      9.893     12.092
REMARK INTER + INTRA:          -5.032
REMARK INTER:                  -4.691
REMARK INTRA:                  -0.342
REMARK UNBOUND:                -0.551
REMARK SMILES C=C[C@@H](O)CCCCC
REMARK SMILES IDX 6 1 7 2 8 3 9 4 5 5 3 6 2 7 1 8 4 9
REMARK H PARENT 4 10
REMARK Flexibility Score: inf
ROOT
ATOM      1  C   UNL     1      41.154  15.676 113.009  1.00  0.00     0.003 C 
ENDROOT
BRANCH   1   2
ATOM      2  C   UNL     1      40.106  16.070 114.064  1.00  0.00    -0.000 C 
BRANCH   2   3
ATOM      3  C   UNL     1      40.327  17.490 114.610  1.00  0.00    -0.003 C 
ATOM      4  C   UNL     1      41.285  17.526 115.801  1.00  0.00     0.004 C 
ENDBRANCH   2   3
ENDBRANCH   1   2
BRANCH   1   5
ATOM      5  C   UNL     1      42.190  14.668 113.536  1.00  0.00     0.036 C 
BRANCH   5   6
ATOM      6  C   UNL     1      41.644  13.745 114.645  1.00  0.00     0.136 C 
BRANCH   6   7
ATOM      7  C   UNL     1      41.944  12.298 114.333  1.00  0.00    -0.004 C 
ATOM      8  C   UNL     1      41.182  11.575 113.506  1.00  0.00     0.007 C 
ENDBRANCH   6   7
BRANCH   6   9
ATOM      9  O   UNL     1      42.214  14.088 115.882  1.00  0.00    -0.389 OA
ATOM     10  H   UNL     1      42.902  14.781 115.698  1.00  0.00     0.211 HD
ENDBRANCH   6   9
ENDBRANCH   5   6
ENDBRANCH   1   5
TORSDOF 6
ENDMDL
MODEL 4
REMARK VINA RESULT:    -3.380      8.244     10.870
REMARK INTER + INTRA:          -5.017
REMARK INTER:                  -4.659
REMARK INTRA:                  -0.358
REMARK UNBOUND:                -0.551
REMARK SMILES C=C[C@@H](O)CCCCC
REMARK SMILES IDX 6 1 7 2 8 3 9 4 5 5 3 6 2 7 1 8 4 9
REMARK H PARENT 4 10
REMARK Flexibility Score: inf
ROOT
ATOM      1  C   UNL     1      43.172  10.201 121.047  1.00  0.00     0.003 C 
ENDROOT
BRANCH   1   2
ATOM      2  C   UNL     1      41.985  11.135 120.758  1.00  0.00    -0.000 C 
BRANCH   2   3
ATOM      3  C   UNL     1      42.388  12.618 120.765  1.00  0.00    -0.003 C 
ATOM      4  C   UNL     1      42.450  13.222 119.361  1.00  0.00     0.004 C 
ENDBRANCH   2   3
ENDBRANCH   1   2
BRANCH   1   5
ATOM      5  C   UNL     1      44.065   9.964 119.816  1.00  0.00     0.036 C 
BRANCH   5   6
ATOM      6  C   UNL     1      43.276   9.605 118.540  1.00  0.00     0.136 C 
BRANCH   6   7
ATOM      7  C   UNL     1      44.121   9.824 117.308  1.00  0.00    -0.004 C 
ATOM      8  C   UNL     1      43.613  10.321 116.175  1.00  0.00     0.007 C 
ENDBRANCH   6   7
BRANCH   6   9
ATOM      9  O   UNL     1      42.859   8.265 118.594  1.00  0.00    -0.389 OA
ATOM     10  H   UNL     1      42.620   8.076 119.539  1.00  0.00     0.211 HD
ENDBRANCH   6   9
ENDBRANCH   5   6
ENDBRANCH   1   5
TORSDOF 6
ENDMDL
MODEL 5
REMARK VINA RESULT:    -3.374      1.465      2.493
REMARK INTER + INTRA:          -5.010
REMARK INTER:                  -4.651
REMARK INTRA:                  -0.359
REMARK UNBOUND:                -0.551
REMARK SMILES C=C[C@@H](O)CCCCC
REMARK SMILES IDX 6 1 7 2 8 3 9 4 5 5 3 6 2 7 1 8 4 9
REMARK H PARENT 4 10
REMARK Flexibility Score: inf
ROOT
ATOM      1  C   UNL     1      49.454   6.502 113.255  1.00  0.00     0.003 C 
ENDROOT
BRANCH   1   2
ATOM      2  C   UNL     1      48.922   5.324 112.422  1.00  0.00    -0.000 C 
BRANCH   2   3
ATOM      3  C   UNL     1      49.539   5.272 111.015  1.00  0.00    -0.003 C 
ATOM      4  C   UNL     1      49.285   6.547 110.209  1.00  0.00     0.004 C 
ENDBRANCH   2   3
ENDBRANCH   1   2
BRANCH   1   5
ATOM      5  C   UNL     1      48.337   7.426 113.772  1.00  0.00     0.036 C 
BRANCH   5   6
ATOM      6  C   UNL     1      46.979   7.203 113.075  1.00  0.00     0.136 C 
BRANCH   6   7
ATOM      7  C   UNL     1      45.849   7.250 114.077  1.00  0.00    -0.004 C 
ATOM      8  C   UNL     1      44.776   6.460 113.978  1.00  0.00     0.007 C 
ENDBRANCH   6   7
BRANCH   6   9
ATOM      9  O   UNL     1      46.776   8.183 112.090  1.00  0.00    -0.389 OA
ATOM     10  H   UNL     1      46.425   8.988 112.553  1.00  0.00     0.211 HD
ENDBRANCH   6   9
ENDBRANCH   5   6
ENDBRANCH   1   5
TORSDOF 6
ENDMDL
MODEL 6
REMARK VINA RESULT:    -3.340      1.974      4.252
REMARK INTER + INTRA:          -4.964
REMARK INTER:                  -4.816
REMARK INTRA:                  -0.149
REMARK UNBOUND:                -0.551
REMARK SMILES C=C[C@@H](O)CCCCC
REMARK SMILES IDX 6 1 7 2 8 3 9 4 5 5 3 6 2 7 1 8 4 9
REMARK H PARENT 4 10
REMARK Flexibility Score: inf
ROOT
ATOM      1  C   UNL     1      46.857   7.407 113.862  1.00  0.00     0.003 C 
ENDROOT
BRANCH   1   2
ATOM      2  C   UNL     1      45.350   7.696 113.766  1.00  0.00    -0.000 C 
BRANCH   2   3
ATOM      3  C   UNL     1      44.502   6.640 114.494  1.00  0.00    -0.003 C 
ATOM      4  C   UNL     1      43.099   7.142 114.839  1.00  0.00     0.004 C 
ENDBRANCH   2   3
ENDBRANCH   1   2
BRANCH   1   5
ATOM      5  C   UNL     1      47.401   6.638 112.644  1.00  0.00     0.036 C 
BRANCH   5   6
ATOM      6  C   UNL     1      48.231   7.513 111.682  1.00  0.00     0.136 C 
BRANCH   6   7
ATOM      7  C   UNL     1      48.999   6.655 110.705  1.00  0.00    -0.004 C 
ATOM      8  C   UNL     1      49.428   5.428 111.020  1.00  0.00     0.007 C 
ENDBRANCH   6   7
BRANCH   6   9
ATOM      9  O   UNL     1      47.388   8.388 110.978  1.00  0.00    -0.389 OA
ATOM     10  H   UNL     1      46.455   8.109 111.176  1.00  0.00     0.211 HD
ENDBRANCH   6   9
ENDBRANCH   5   6
ENDBRANCH   1   5
TORSDOF 6
ENDMDL
MODEL 7
REMARK VINA RESULT:    -3.336      7.133      8.428
REMARK INTER + INTRA:          -4.959
REMARK INTER:                  -4.651
REMARK INTRA:                  -0.309
REMARK UNBOUND:                -0.551
REMARK SMILES C=C[C@@H](O)CCCCC
REMARK SMILES IDX 6 1 7 2 8 3 9 4 5 5 3 6 2 7 1 8 4 9
REMARK H PARENT 4 10
REMARK Flexibility Score: inf
ROOT
ATOM      1  C   UNL     1      41.582  -0.080 112.498  1.00  0.00     0.003 C 
ENDROOT
BRANCH   1   2
ATOM      2  C   UNL     1      42.262  -1.459 112.521  1.00  0.00    -0.000 C 
BRANCH   2   3
ATOM      3  C   UNL     1      43.537  -1.501 111.664  1.00  0.00    -0.003 C 
ATOM      4  C   UNL     1      44.806  -1.686 112.497  1.00  0.00     0.004 C 
ENDBRANCH   2   3
ENDBRANCH   1   2
BRANCH   1   5
ATOM      5  C   UNL     1      42.314   0.967 113.356  1.00  0.00     0.036 C 
BRANCH   5   6
ATOM      6  C   UNL     1      43.092   2.010 112.527  1.00  0.00     0.136 C 
BRANCH   6   7
ATOM      7  C   UNL     1      42.655   3.411 112.883  1.00  0.00    -0.004 C 
ATOM      8  C   UNL     1      41.377   3.717 113.132  1.00  0.00     0.007 C 
ENDBRANCH   6   7
BRANCH   6   9
ATOM      9  O   UNL     1      44.471   1.875 112.754  1.00  0.00    -0.389 OA
ATOM     10  H   UNL     1      44.755   2.670 113.278  1.00  0.00     0.211 HD
ENDBRANCH   6   9
ENDBRANCH   5   6
ENDBRANCH   1   5
TORSDOF 6
ENDMDL
MODEL 8
REMARK VINA RESULT:    -3.328      7.982      9.495
REMARK INTER + INTRA:          -4.949
REMARK INTER:                  -4.590
REMARK INTRA:                  -0.359
REMARK UNBOUND:                -0.551
REMARK SMILES C=C[C@@H](O)CCCCC
REMARK SMILES IDX 6 1 7 2 8 3 9 4 5 5 3 6 2 7 1 8 4 9
REMARK H PARENT 4 10
REMARK Flexibility Score: inf
ROOT
ATOM      1  C   UNL     1      42.959   1.587 113.325  1.00  0.00     0.003 C 
ENDROOT
BRANCH   1   2
ATOM      2  C   UNL     1      41.476   1.823 113.659  1.00  0.00    -0.000 C 
BRANCH   2   3
ATOM      3  C   UNL     1      40.856   0.652 114.439  1.00  0.00    -0.003 C 
ATOM      4  C   UNL     1      40.802   0.906 115.946  1.00  0.00     0.004 C 
ENDBRANCH   2   3
ENDBRANCH   1   2
BRANCH   1   5
ATOM      5  C   UNL     1      43.163   0.719 112.070  1.00  0.00     0.036 C 
BRANCH   5   6
ATOM      6  C   UNL     1      44.120  -0.470 112.291  1.00  0.00     0.136 C 
BRANCH   6   7
ATOM      7  C   UNL     1      43.474  -1.765 111.859  1.00  0.00    -0.004 C 
ATOM      8  C   UNL     1      42.254  -2.124 112.272  1.00  0.00     0.007 C 
ENDBRANCH   6   7
BRANCH   6   9
ATOM      9  O   UNL     1      45.308  -0.273 111.568  1.00  0.00    -0.389 OA
ATOM     10  H   UNL     1      46.048  -0.617 112.134  1.00  0.00     0.211 HD
ENDBRANCH   6   9
ENDBRANCH   5   6
ENDBRANCH   1   5
TORSDOF 6
ENDMDL
MODEL 9
REMARK VINA RESULT:    -3.274      2.734      3.704
REMARK INTER + INTRA:          -4.877
REMARK INTER:                  -4.295
REMARK INTRA:                  -0.583
REMARK UNBOUND:                -0.551
REMARK SMILES C=C[C@@H](O)CCCCC
REMARK SMILES IDX 6 1 7 2 8 3 9 4 5 5 3 6 2 7 1 8 4 9
REMARK H PARENT 4 10
REMARK Flexibility Score: inf
ROOT
ATOM      1  C   UNL     1      50.797   4.860 112.440  1.00  0.00     0.003 C 
ENDROOT
BRANCH   1   2
ATOM      2  C   UNL     1      49.637   4.776 111.434  1.00  0.00    -0.000 C 
BRANCH   2   3
ATOM      3  C   UNL     1      49.203   6.159 110.920  1.00  0.00    -0.003 C 
ATOM      4  C   UNL     1      48.163   6.826 111.821  1.00  0.00     0.004 C 
ENDBRANCH   2   3
ENDBRANCH   1   2
BRANCH   1   5
ATOM      5  C   UNL     1      50.379   4.489 113.874  1.00  0.00     0.036 C 
BRANCH   5   6
ATOM      6  C   UNL     1      50.572   5.633 114.890  1.00  0.00     0.136 C 
BRANCH   6   7
ATOM      7  C   UNL     1      51.119   6.866 114.210  1.00  0.00    -0.004 C 
ATOM      8  C   UNL     1      50.630   8.087 114.450  1.00  0.00     0.007 C 
ENDBRANCH   6   7
BRANCH   6   9
ATOM      9  O   UNL     1      49.350   5.939 115.510  1.00  0.00    -0.389 OA
ATOM     10  H   UNL     1      49.568   6.413 116.355  1.00  0.00     0.211 HD
ENDBRANCH   6   9
ENDBRANCH   5   6
ENDBRANCH   1   5
TORSDOF 6
ENDMDL
