MODEL 1
REMARK VINA RESULT:    -5.163      0.000      0.000
REMARK INTER + INTRA:          -6.400
REMARK INTER:                  -6.219
REMARK INTRA:                  -0.181
REMARK UNBOUND:                -0.181
REMARK SMILES [NH3+][C@@H](Cc1cnc[nH]1)C(=O)[O-]
REMARK SMILES IDX 3 1 2 2 1 3 9 7 10 8 11 9 4 10 5 11 8 12 6 13 7 14
REMARK H PARENT 1 4 1 5 1 6 8 15
REMARK Flexibility Score: inf
ROOT
ATOM      1  C   UNL     1     -32.085  58.849  10.704  1.00  0.00     0.127 C 
ENDROOT
BRANCH   1   2
ATOM      2  C   UNL     1     -33.593  59.142  10.589  1.00  0.00     0.233 C 
BRANCH   2   3
ATOM      3  N   UNL     1     -33.828  60.586  10.470  1.00  0.00    -0.350 N 
ATOM      4  H   UNL     1     -34.234  60.969  11.356  1.00  0.00     0.345 HD
ATOM      5  H   UNL     1     -34.487  60.775   9.679  1.00  0.00     0.345 HD
ATOM      6  H   UNL     1     -32.927  61.076  10.267  1.00  0.00     0.345 HD
ENDBRANCH   2   3
BRANCH   2   7
ATOM      7  C   UNL     1     -34.340  58.593  11.778  1.00  0.00     0.099 C 
ATOM      8  O   UNL     1     -33.958  57.526  12.327  1.00  0.00    -0.544 OA
ATOM      9  O   UNL     1     -35.447  59.266  12.282  1.00  0.00    -0.544 OA
ENDBRANCH   2   7
ENDBRANCH   1   2
BRANCH   1  10
ATOM     10  C   UNL     1     -31.594  58.020   9.554  1.00  0.00     0.041 A 
ATOM     11  C   UNL     1     -32.243  56.950   8.978  1.00  0.00     0.134 A 
ATOM     12  N   UNL     1     -30.468  58.259   8.867  1.00  0.00    -0.348 N 
ATOM     13  N   UNL     1     -31.518  56.507   7.931  1.00  0.00    -0.245 NA
ATOM     14  C   UNL     1     -30.445  57.327   7.896  1.00  0.00     0.196 A 
ATOM     15  H   UNL     1     -29.764  59.011   9.037  1.00  0.00     0.167 HD
ENDBRANCH   1  10
TORSDOF 4
ENDMDL
MODEL 2
REMARK VINA RESULT:    -5.071      1.146      1.340
REMARK INTER + INTRA:          -6.290
REMARK INTER:                  -6.156
REMARK INTRA:                  -0.134
REMARK UNBOUND:                -0.181
REMARK SMILES [NH3+][C@@H](Cc1cnc[nH]1)C(=O)[O-]
REMARK SMILES IDX 3 1 2 2 1 3 9 7 10 8 11 9 4 10 5 11 8 12 6 13 7 14
REMARK H PARENT 1 4 1 5 1 6 8 15
REMARK Flexibility Score: inf
ROOT
ATOM      1  C   UNL     1     -32.061  58.901  10.782  1.00  0.00     0.127 C 
ENDROOT
BRANCH   1   2
ATOM      2  C   UNL     1     -33.390  58.401  11.381  1.00  0.00     0.233 C 
BRANCH   2   3
ATOM      3  N   UNL     1     -34.245  59.535  11.749  1.00  0.00    -0.350 N 
ATOM      4  H   UNL     1     -35.228  59.217  11.918  1.00  0.00     0.345 HD
ATOM      5  H   UNL     1     -34.241  60.247  10.982  1.00  0.00     0.345 HD
ATOM      6  H   UNL     1     -33.879  59.988  12.617  1.00  0.00     0.345 HD
ENDBRANCH   2   3
BRANCH   2   7
ATOM      7  C   UNL     1     -33.143  57.528  12.586  1.00  0.00     0.099 C 
ATOM      8  O   UNL     1     -31.968  57.336  12.996  1.00  0.00    -0.544 OA
ATOM      9  O   UNL     1     -34.208  56.941  13.257  1.00  0.00    -0.544 OA
ENDBRANCH   2   7
ENDBRANCH   1   2
BRANCH   1  10
ATOM     10  C   UNL     1     -31.627  58.056   9.620  1.00  0.00     0.041 A 
ATOM     11  C   UNL     1     -32.313  56.993   9.078  1.00  0.00     0.134 A 
ATOM     12  N   UNL     1     -30.525  58.274   8.888  1.00  0.00    -0.348 N 
ATOM     13  N   UNL     1     -31.636  56.531   8.008  1.00  0.00    -0.245 NA
ATOM     14  C   UNL     1     -30.554  57.335   7.925  1.00  0.00     0.196 A 
ATOM     15  H   UNL     1     -29.805  59.018   9.026  1.00  0.00     0.167 HD
ENDBRANCH   1  10
TORSDOF 4
ENDMDL
MODEL 3
REMARK VINA RESULT:    -4.888      1.671      1.871
REMARK INTER + INTRA:          -6.070
REMARK INTER:                  -5.784
REMARK INTRA:                  -0.286
REMARK UNBOUND:                -0.181
REMARK SMILES [NH3+][C@@H](Cc1cnc[nH]1)C(=O)[O-]
REMARK SMILES IDX 3 1 2 2 1 3 9 7 10 8 11 9 4 10 5 11 8 12 6 13 7 14
REMARK H PARENT 1 4 1 5 1 6 8 15
REMARK Flexibility Score: inf
ROOT
ATOM      1  C   UNL     1     -33.576  57.618  10.205  1.00  0.00     0.127 C 
ENDROOT
BRANCH   1   2
ATOM      2  C   UNL     1     -33.349  58.597  11.374  1.00  0.00     0.233 C 
BRANCH   2   3
ATOM      3  N   UNL     1     -33.955  58.076  12.605  1.00  0.00    -0.350 N 
ATOM      4  H   UNL     1     -34.235  57.074  12.483  1.00  0.00     0.345 HD
ATOM      5  H   UNL     1     -34.799  58.642  12.854  1.00  0.00     0.345 HD
ATOM      6  H   UNL     1     -33.271  58.145  13.393  1.00  0.00     0.345 HD
ENDBRANCH   2   3
BRANCH   2   7
ATOM      7  C   UNL     1     -33.917  59.957  11.055  1.00  0.00     0.099 C 
ATOM      8  O   UNL     1     -33.452  60.626  10.095  1.00  0.00    -0.544 OA
ATOM      9  O   UNL     1     -34.963  60.475  11.809  1.00  0.00    -0.544 OA
ENDBRANCH   2   7
ENDBRANCH   1   2
BRANCH   1  10
ATOM     10  C   UNL     1     -32.337  57.454   9.375  1.00  0.00     0.041 A 
ATOM     11  C   UNL     1     -32.088  56.454   8.462  1.00  0.00     0.134 A 
ATOM     12  N   UNL     1     -31.313  58.320   9.353  1.00  0.00    -0.348 N 
ATOM     13  N   UNL     1     -30.898  56.683   7.871  1.00  0.00    -0.245 NA
ATOM     14  C   UNL     1     -30.457  57.826   8.440  1.00  0.00     0.196 A 
ATOM     15  H   UNL     1     -31.206  59.195   9.913  1.00  0.00     0.167 HD
ENDBRANCH   1  10
TORSDOF 4
ENDMDL
MODEL 4
REMARK VINA RESULT:    -4.875      2.758      5.460
REMARK INTER + INTRA:          -6.053
REMARK INTER:                  -5.917
REMARK INTRA:                  -0.136
REMARK UNBOUND:                -0.181
REMARK SMILES [NH3+][C@@H](Cc1cnc[nH]1)C(=O)[O-]
REMARK SMILES IDX 3 1 2 2 1 3 9 7 10 8 11 9 4 10 5 11 8 12 6 13 7 14
REMARK H PARENT 1 4 1 5 1 6 8 15
REMARK Flexibility Score: inf
ROOT
ATOM      1  C   UNL     1     -34.642  59.471  11.563  1.00  0.00     0.127 C 
ENDROOT
BRANCH   1   2
ATOM      2  C   UNL     1     -33.212  59.896  11.176  1.00  0.00     0.233 C 
BRANCH   2   3
ATOM      3  N   UNL     1     -33.202  60.507   9.842  1.00  0.00    -0.350 N 
ATOM      4  H   UNL     1     -32.345  61.094   9.710  1.00  0.00     0.345 HD
ATOM      5  H   UNL     1     -34.052  61.106   9.719  1.00  0.00     0.345 HD
ATOM      6  H   UNL     1     -33.221  59.761   9.110  1.00  0.00     0.345 HD
ENDBRANCH   2   3
BRANCH   2   7
ATOM      7  C   UNL     1     -32.272  58.717  11.211  1.00  0.00     0.099 C 
ATOM      8  O   UNL     1     -32.080  58.094  12.288  1.00  0.00    -0.544 OA
ATOM      9  O   UNL     1     -31.623  58.304  10.054  1.00  0.00    -0.544 OA
ENDBRANCH   2   7
ENDBRANCH   1   2
BRANCH   1  10
ATOM     10  C   UNL     1     -35.373  60.573  12.270  1.00  0.00     0.041 A 
ATOM     11  C   UNL     1     -36.706  60.582  12.619  1.00  0.00     0.134 A 
ATOM     12  N   UNL     1     -34.800  61.693  12.735  1.00  0.00    -0.348 N 
ATOM     13  N   UNL     1     -36.976  61.716  13.296  1.00  0.00    -0.245 NA
ATOM     14  C   UNL     1     -35.793  62.366  13.345  1.00  0.00     0.196 A 
ATOM     15  H   UNL     1     -33.800  61.979  12.653  1.00  0.00     0.167 HD
ENDBRANCH   1  10
TORSDOF 4
ENDMDL
MODEL 5
REMARK VINA RESULT:    -4.746      3.119      4.501
REMARK INTER + INTRA:          -5.898
REMARK INTER:                  -5.734
REMARK INTRA:                  -0.164
REMARK UNBOUND:                -0.181
REMARK SMILES [NH3+][C@@H](Cc1cnc[nH]1)C(=O)[O-]
REMARK SMILES IDX 3 1 2 2 1 3 9 7 10 8 11 9 4 10 5 11 8 12 6 13 7 14
REMARK H PARENT 1 4 1 5 1 6 8 15
REMARK Flexibility Score: inf
ROOT
ATOM      1  C   UNL     1     -33.550  58.350  10.329  1.00  0.00     0.127 C 
ENDROOT
BRANCH   1   2
ATOM      2  C   UNL     1     -32.014  58.273  10.225  1.00  0.00     0.233 C 
BRANCH   2   3
ATOM      3  N   UNL     1     -31.433  59.620  10.204  1.00  0.00    -0.350 N 
ATOM      4  H   UNL     1     -30.723  59.705   9.439  1.00  0.00     0.345 HD
ATOM      5  H   UNL     1     -30.976  59.825  11.122  1.00  0.00     0.345 HD
ATOM      6  H   UNL     1     -32.187  60.329  10.050  1.00  0.00     0.345 HD
ENDBRANCH   2   3
BRANCH   2   7
ATOM      7  C   UNL     1     -31.596  57.510   8.993  1.00  0.00     0.099 C 
ATOM      8  O   UNL     1     -32.353  56.628   8.509  1.00  0.00    -0.544 OA
ATOM      9  O   UNL     1     -30.381  57.784   8.378  1.00  0.00    -0.544 OA
ENDBRANCH   2   7
ENDBRANCH   1   2
BRANCH   1  10
ATOM     10  C   UNL     1     -34.070  57.503  11.453  1.00  0.00     0.041 A 
ATOM     11  C   UNL     1     -34.123  56.127  11.487  1.00  0.00     0.134 A 
ATOM     12  N   UNL     1     -34.493  57.978  12.634  1.00  0.00    -0.348 N 
ATOM     13  N   UNL     1     -34.591  55.734  12.688  1.00  0.00    -0.245 NA
ATOM     14  C   UNL     1     -34.807  56.888  13.358  1.00  0.00     0.196 A 
ATOM     15  H   UNL     1     -34.556  58.976  12.934  1.00  0.00     0.167 HD
ENDBRANCH   1  10
TORSDOF 4
ENDMDL
MODEL 6
REMARK VINA RESULT:    -4.568      8.945      9.722
REMARK INTER + INTRA:          -5.684
REMARK INTER:                  -5.418
REMARK INTRA:                  -0.267
REMARK UNBOUND:                -0.181
REMARK SMILES [NH3+][C@@H](Cc1cnc[nH]1)C(=O)[O-]
REMARK SMILES IDX 3 1 2 2 1 3 9 7 10 8 11 9 4 10 5 11 8 12 6 13 7 14
REMARK H PARENT 1 4 1 5 1 6 8 15
REMARK Flexibility Score: inf
ROOT
ATOM      1  C   UNL     1     -35.975  55.858   1.735  1.00  0.00     0.127 C 
ENDROOT
BRANCH   1   2
ATOM      2  C   UNL     1     -35.882  56.753   2.986  1.00  0.00     0.233 C 
BRANCH   2   3
ATOM      3  N   UNL     1     -35.041  56.121   4.008  1.00  0.00    -0.350 N 
ATOM      4  H   UNL     1     -35.456  55.211   4.318  1.00  0.00     0.345 HD
ATOM      5  H   UNL     1     -34.949  56.756   4.835  1.00  0.00     0.345 HD
ATOM      6  H   UNL     1     -34.085  55.947   3.623  1.00  0.00     0.345 HD
ENDBRANCH   2   3
BRANCH   2   7
ATOM      7  C   UNL     1     -37.253  57.037   3.547  1.00  0.00     0.099 C 
ATOM      8  O   UNL     1     -37.663  56.413   4.561  1.00  0.00    -0.544 OA
ATOM      9  O   UNL     1     -38.067  57.997   2.957  1.00  0.00    -0.544 OA
ENDBRANCH   2   7
ENDBRANCH   1   2
BRANCH   1  10
ATOM     10  C   UNL     1     -36.198  56.667   0.492  1.00  0.00     0.041 A 
ATOM     11  C   UNL     1     -36.596  56.191  -0.737  1.00  0.00     0.134 A 
ATOM     12  N   UNL     1     -36.110  58.004   0.426  1.00  0.00    -0.348 N 
ATOM     13  N   UNL     1     -36.749  57.229  -1.584  1.00  0.00    -0.245 NA
ATOM     14  C   UNL     1     -36.443  58.315  -0.840  1.00  0.00     0.196 A 
ATOM     15  H   UNL     1     -35.851  58.664   1.192  1.00  0.00     0.167 HD
ENDBRANCH   1  10
TORSDOF 4
ENDMDL
MODEL 7
REMARK VINA RESULT:    -4.557      3.561      4.367
REMARK INTER + INTRA:          -5.671
REMARK INTER:                  -5.509
REMARK INTRA:                  -0.162
REMARK UNBOUND:                -0.181
REMARK SMILES [NH3+][C@@H](Cc1cnc[nH]1)C(=O)[O-]
REMARK SMILES IDX 3 1 2 2 1 3 9 7 10 8 11 9 4 10 5 11 8 12 6 13 7 14
REMARK H PARENT 1 4 1 5 1 6 8 15
REMARK Flexibility Score: inf
ROOT
ATOM      1  C   UNL     1     -32.828  58.197  11.853  1.00  0.00     0.127 C 
ENDROOT
BRANCH   1   2
ATOM      2  C   UNL     1     -31.931  58.050  10.608  1.00  0.00     0.233 C 
BRANCH   2   3
ATOM      3  N   UNL     1     -31.485  59.367  10.139  1.00  0.00    -0.350 N 
ATOM      4  H   UNL     1     -32.283  59.901   9.722  1.00  0.00     0.345 HD
ATOM      5  H   UNL     1     -30.735  59.252   9.419  1.00  0.00     0.345 HD
ATOM      6  H   UNL     1     -31.090  59.913  10.938  1.00  0.00     0.345 HD
ENDBRANCH   2   3
BRANCH   2   7
ATOM      7  C   UNL     1     -32.659  57.327   9.504  1.00  0.00     0.099 C 
ATOM      8  O   UNL     1     -33.918  57.331   9.467  1.00  0.00    -0.544 OA
ATOM      9  O   UNL     1     -31.947  56.662   8.513  1.00  0.00    -0.544 OA
ENDBRANCH   2   7
ENDBRANCH   1   2
BRANCH   1  10
ATOM     10  C   UNL     1     -32.422  57.246  12.940  1.00  0.00     0.041 A 
ATOM     11  C   UNL     1     -32.774  55.919  13.043  1.00  0.00     0.134 A 
ATOM     12  N   UNL     1     -31.581  57.546  13.942  1.00  0.00    -0.348 N 
ATOM     13  N   UNL     1     -32.163  55.383  14.119  1.00  0.00    -0.245 NA
ATOM     14  C   UNL     1     -31.448  56.403  14.640  1.00  0.00     0.196 A 
ATOM     15  H   UNL     1     -31.120  58.463  14.134  1.00  0.00     0.167 HD
ENDBRANCH   1  10
TORSDOF 4
ENDMDL
MODEL 8
REMARK VINA RESULT:    -4.524      3.686      4.932
REMARK INTER + INTRA:          -5.632
REMARK INTER:                  -5.484
REMARK INTRA:                  -0.147
REMARK UNBOUND:                -0.181
REMARK SMILES [NH3+][C@@H](Cc1cnc[nH]1)C(=O)[O-]
REMARK SMILES IDX 3 1 2 2 1 3 9 7 10 8 11 9 4 10 5 11 8 12 6 13 7 14
REMARK H PARENT 1 4 1 5 1 6 8 15
REMARK Flexibility Score: inf
ROOT
ATOM      1  C   UNL     1     -33.285  57.351  11.845  1.00  0.00     0.127 C 
ENDROOT
BRANCH   1   2
ATOM      2  C   UNL     1     -32.983  56.759  13.236  1.00  0.00     0.233 C 
BRANCH   2   3
ATOM      3  N   UNL     1     -31.831  57.434  13.842  1.00  0.00    -0.350 N 
ATOM      4  H   UNL     1     -32.146  58.196  14.487  1.00  0.00     0.345 HD
ATOM      5  H   UNL     1     -31.225  57.845  13.094  1.00  0.00     0.345 HD
ATOM      6  H   UNL     1     -31.260  56.745  14.383  1.00  0.00     0.345 HD
ENDBRANCH   2   3
BRANCH   2   7
ATOM      7  C   UNL     1     -32.725  55.276  13.144  1.00  0.00     0.099 C 
ATOM      8  O   UNL     1     -33.030  54.644  12.099  1.00  0.00    -0.544 OA
ATOM      9  O   UNL     1     -32.138  54.600  14.207  1.00  0.00    -0.544 OA
ENDBRANCH   2   7
ENDBRANCH   1   2
BRANCH   1  10
ATOM     10  C   UNL     1     -34.141  58.578  11.941  1.00  0.00     0.041 A 
ATOM     11  C   UNL     1     -33.972  59.754  11.243  1.00  0.00     0.134 A 
ATOM     12  N   UNL     1     -35.256  58.675  12.680  1.00  0.00    -0.348 N 
ATOM     13  N   UNL     1     -34.977  60.598  11.551  1.00  0.00    -0.245 NA
ATOM     14  C   UNL     1     -35.737  59.907  12.428  1.00  0.00     0.196 A 
ATOM     15  H   UNL     1     -35.671  57.950  13.306  1.00  0.00     0.167 HD
ENDBRANCH   1  10
TORSDOF 4
ENDMDL
MODEL 9
REMARK VINA RESULT:    -4.474      3.291      5.270
REMARK INTER + INTRA:          -5.571
REMARK INTER:                  -5.426
REMARK INTRA:                  -0.145
REMARK UNBOUND:                -0.181
REMARK SMILES [NH3+][C@@H](Cc1cnc[nH]1)C(=O)[O-]
REMARK SMILES IDX 3 1 2 2 1 3 9 7 10 8 11 9 4 10 5 11 8 12 6 13 7 14
REMARK H PARENT 1 4 1 5 1 6 8 15
REMARK Flexibility Score: inf
ROOT
ATOM      1  C   UNL     1     -33.926  59.475  11.341  1.00  0.00     0.127 C 
ENDROOT
BRANCH   1   2
ATOM      2  C   UNL     1     -34.196  58.006  11.725  1.00  0.00     0.233 C 
BRANCH   2   3
ATOM      3  N   UNL     1     -33.546  57.681  13.000  1.00  0.00    -0.350 N 
ATOM      4  H   UNL     1     -32.691  58.268  13.139  1.00  0.00     0.345 HD
ATOM      5  H   UNL     1     -33.276  56.670  13.013  1.00  0.00     0.345 HD
ATOM      6  H   UNL     1     -34.210  57.852  13.789  1.00  0.00     0.345 HD
ENDBRANCH   2   3
BRANCH   2   7
ATOM      7  C   UNL     1     -33.713  57.071  10.645  1.00  0.00     0.099 C 
ATOM      8  O   UNL     1     -33.511  57.503   9.479  1.00  0.00    -0.544 OA
ATOM      9  O   UNL     1     -33.478  55.732  10.931  1.00  0.00    -0.544 OA
ENDBRANCH   2   7
ENDBRANCH   1   2
BRANCH   1  10
ATOM     10  C   UNL     1     -34.859  60.411  12.051  1.00  0.00     0.041 A 
ATOM     11  C   UNL     1     -36.168  60.159  12.397  1.00  0.00     0.134 A 
ATOM     12  N   UNL     1     -34.515  61.619  12.522  1.00  0.00    -0.348 N 
ATOM     13  N   UNL     1     -36.654  61.215  13.079  1.00  0.00    -0.245 NA
ATOM     14  C   UNL     1     -35.620  62.083  13.134  1.00  0.00     0.196 A 
ATOM     15  H   UNL     1     -33.589  62.093  12.444  1.00  0.00     0.167 HD
ENDBRANCH   1  10
TORSDOF 4
ENDMDL
