MODEL 1
REMARK VINA RESULT:    -2.706      0.000      0.000
REMARK INTER + INTRA:          -2.706
REMARK INTER:                  -2.706
REMARK INTRA:                   0.000
REMARK UNBOUND:                 0.000
REMARK SMILES CC(=O)[O-]
REMARK SMILES IDX 1 1 2 2 3 3 4 4
REMARK H PARENT
REMARK Flexibility Score: inf
ROOT
ATOM      1  C   UNL     1       1.522   8.063  -5.030  1.00  0.00     0.063 C 
ATOM      2  C   UNL     1       2.167   7.591  -3.772  1.00  0.00     0.038 C 
ATOM      3  O   UNL     1       3.388   7.816  -3.564  1.00  0.00    -0.550 OA
ATOM      4  O   UNL     1       1.435   6.853  -2.849  1.00  0.00    -0.550 OA
ENDROOT
TORSDOF 0
ENDMDL
MODEL 2
REMARK VINA RESULT:    -2.344     12.836     13.483
REMARK INTER + INTRA:          -2.344
REMARK INTER:                  -2.344
REMARK INTRA:                   0.000
REMARK UNBOUND:                 0.000
REMARK SMILES CC(=O)[O-]
REMARK SMILES IDX 1 1 2 2 3 3 4 4
REMARK H PARENT
REMARK Flexibility Score: inf
ROOT
ATOM      1  C   UNL     1      -7.958   0.598  -0.516  1.00  0.00     0.063 C 
ATOM      2  C   UNL     1      -8.915   1.292   0.392  1.00  0.00     0.038 C 
ATOM      3  O   UNL     1      -9.713   0.624   1.099  1.00  0.00    -0.550 OA
ATOM      4  O   UNL     1      -8.964   2.681   0.421  1.00  0.00    -0.550 OA
ENDROOT
TORSDOF 0
ENDMDL
MODEL 3
REMARK VINA RESULT:    -2.336     11.583     12.070
REMARK INTER + INTRA:          -2.336
REMARK INTER:                  -2.336
REMARK INTRA:                   0.000
REMARK UNBOUND:                 0.000
REMARK SMILES CC(=O)[O-]
REMARK SMILES IDX 1 1 2 2 3 3 4 4
REMARK H PARENT
REMARK Flexibility Score: inf
ROOT
ATOM      1  C   UNL     1      -7.872   5.506   3.919  1.00  0.00     0.063 C 
ATOM      2  C   UNL     1      -6.656   6.328   4.174  1.00  0.00     0.038 C 
ATOM      3  O   UNL     1      -5.964   6.129   5.207  1.00  0.00    -0.550 OA
ATOM      4  O   UNL     1      -6.311   7.352   3.300  1.00  0.00    -0.550 OA
ENDROOT
TORSDOF 0
ENDMDL
MODEL 4
REMARK VINA RESULT:    -2.334     11.585     12.011
REMARK INTER + INTRA:          -2.334
REMARK INTER:                  -2.334
REMARK INTRA:                   0.000
REMARK UNBOUND:                 0.000
REMARK SMILES CC(=O)[O-]
REMARK SMILES IDX 1 1 2 2 3 3 4 4
REMARK H PARENT
REMARK Flexibility Score: inf
ROOT
ATOM      1  C   UNL     1      -7.856   5.533   3.798  1.00  0.00     0.063 C 
ATOM      2  C   UNL     1      -6.675   6.382   4.123  1.00  0.00     0.038 C 
ATOM      3  O   UNL     1      -6.327   7.305   3.342  1.00  0.00    -0.550 OA
ATOM      4  O   UNL     1      -5.923   6.122   5.262  1.00  0.00    -0.550 OA
ENDROOT
TORSDOF 0
ENDMDL
MODEL 5
REMARK VINA RESULT:    -2.183     11.109     11.639
REMARK INTER + INTRA:          -2.183
REMARK INTER:                  -2.183
REMARK INTRA:                   0.000
REMARK UNBOUND:                 0.000
REMARK SMILES CC(=O)[O-]
REMARK SMILES IDX 1 1 2 2 3 3 4 4
REMARK H PARENT
REMARK Flexibility Score: inf
ROOT
ATOM      1  C   UNL     1      -3.675  -3.461  -4.859  1.00  0.00     0.063 C 
ATOM      2  C   UNL     1      -3.891  -2.167  -4.152  1.00  0.00     0.038 C 
ATOM      3  O   UNL     1      -5.058  -1.782  -3.881  1.00  0.00    -0.550 OA
ATOM      4  O   UNL     1      -2.807  -1.356  -3.838  1.00  0.00    -0.550 OA
ENDROOT
TORSDOF 0
ENDMDL
MODEL 6
REMARK VINA RESULT:    -2.168     10.596     11.195
REMARK INTER + INTRA:          -2.168
REMARK INTER:                  -2.168
REMARK INTRA:                   0.000
REMARK UNBOUND:                 0.000
REMARK SMILES CC(=O)[O-]
REMARK SMILES IDX 1 1 2 2 3 3 4 4
REMARK H PARENT
REMARK Flexibility Score: inf
ROOT
ATOM      1  C   UNL     1      -7.756   5.469   3.332  1.00  0.00     0.063 C 
ATOM      2  C   UNL     1      -6.666   6.270   2.706  1.00  0.00     0.038 C 
ATOM      3  O   UNL     1      -6.234   7.304   3.278  1.00  0.00    -0.550 OA
ATOM      4  O   UNL     1      -6.162   5.908   1.463  1.00  0.00    -0.550 OA
ENDROOT
TORSDOF 0
ENDMDL
MODEL 7
REMARK VINA RESULT:    -2.135     12.243     12.473
REMARK INTER + INTRA:          -2.135
REMARK INTER:                  -2.135
REMARK INTRA:                   0.000
REMARK UNBOUND:                 0.000
REMARK SMILES CC(=O)[O-]
REMARK SMILES IDX 1 1 2 2 3 3 4 4
REMARK H PARENT
REMARK Flexibility Score: inf
ROOT
ATOM      1  C   UNL     1      -4.118  -1.991  -3.987  1.00  0.00     0.063 C 
ATOM      2  C   UNL     1      -4.000  -3.118  -4.955  1.00  0.00     0.038 C 
ATOM      3  O   UNL     1      -3.291  -4.120  -4.676  1.00  0.00    -0.550 OA
ATOM      4  O   UNL     1      -4.631  -3.043  -6.191  1.00  0.00    -0.550 OA
ENDROOT
TORSDOF 0
ENDMDL
MODEL 8
REMARK VINA RESULT:    -1.949     10.936     11.124
REMARK INTER + INTRA:          -1.949
REMARK INTER:                  -1.949
REMARK INTRA:                   0.000
REMARK UNBOUND:                 0.000
REMARK SMILES CC(=O)[O-]
REMARK SMILES IDX 1 1 2 2 3 3 4 4
REMARK H PARENT
REMARK Flexibility Score: inf
ROOT
ATOM      1  C   UNL     1      -9.267   5.856  -3.403  1.00  0.00     0.063 C 
ATOM      2  C   UNL     1      -8.738   6.717  -4.498  1.00  0.00     0.038 C 
ATOM      3  O   UNL     1      -8.663   7.964  -4.342  1.00  0.00    -0.550 OA
ATOM      4  O   UNL     1      -8.376   6.152  -5.715  1.00  0.00    -0.550 OA
ENDROOT
TORSDOF 0
ENDMDL
MODEL 9
REMARK VINA RESULT:    -1.875     10.237     10.473
REMARK INTER + INTRA:          -1.875
REMARK INTER:                  -1.875
REMARK INTRA:                   0.000
REMARK UNBOUND:                 0.000
REMARK SMILES CC(=O)[O-]
REMARK SMILES IDX 1 1 2 2 3 3 4 4
REMARK H PARENT
REMARK Flexibility Score: inf
ROOT
ATOM      1  C   UNL     1      -6.338   6.186   2.604  1.00  0.00     0.063 C 
ATOM      2  C   UNL     1      -6.755   6.551   1.220  1.00  0.00     0.038 C 
ATOM      3  O   UNL     1      -7.079   7.737   0.950  1.00  0.00    -0.550 OA
ATOM      4  O   UNL     1      -6.838   5.572   0.238  1.00  0.00    -0.550 OA
ENDROOT
TORSDOF 0
ENDMDL
