MODEL 1
REMARK VINA RESULT:    -5.116      0.000      0.000
REMARK INTER + INTRA:         -11.228
REMARK INTER:                  -9.302
REMARK INTRA:                  -1.926
REMARK UNBOUND:                -1.926
REMARK SMILES CCCCCCCCCCCCCC[C@H](C)C(=O)[O-]
REMARK SMILES IDX 9 1 10 2 11 3 12 4 13 5 14 6 15 7 16 8 17 9 18 10 19 11 8 12
REMARK SMILES IDX 7 13 6 14 5 15 4 16 3 17 2 18 1 19
REMARK H PARENT
REMARK Flexibility Score: inf
ROOT
ATOM      1  C   UNL     1      10.132  18.196  31.897  1.00  0.00     0.000 C 
ENDROOT
BRANCH   1   2
ATOM      2  C   UNL     1      10.126  16.998  32.866  1.00  0.00     0.000 C 
BRANCH   2   3
ATOM      3  C   UNL     1       9.412  17.305  34.193  1.00  0.00     0.000 C 
BRANCH   3   4
ATOM      4  C   UNL     1       8.184  18.223  33.988  1.00  0.00     0.000 C 
BRANCH   4   5
ATOM      5  C   UNL     1       8.426  19.670  34.458  1.00  0.00     0.001 C 
BRANCH   5   6
ATOM      6  C   UNL     1       9.392  19.790  35.659  1.00  0.00     0.009 C 
BRANCH   6   7
ATOM      7  C   UNL     1       8.677  19.798  37.028  1.00  0.00     0.032 C 
ATOM      8  C   UNL     1       8.625  21.219  37.599  1.00  0.00     0.014 C 
BRANCH   7   9
ATOM      9  C   UNL     1       9.349  18.881  38.014  1.00  0.00     0.044 C 
ATOM     10  O   UNL     1       9.976  17.868  37.609  1.00  0.00    -0.550 OA
ATOM     11  O   UNL     1       9.284  19.147  39.378  1.00  0.00    -0.550 OA
ENDBRANCH   7   9
ENDBRANCH   6   7
ENDBRANCH   5   6
ENDBRANCH   4   5
ENDBRANCH   3   4
ENDBRANCH   2   3
ENDBRANCH   1   2
BRANCH   1  12
ATOM     12  C   UNL     1       9.829  17.833  30.432  1.00  0.00     0.000 C 
BRANCH  12  13
ATOM     13  C   UNL     1       8.920  18.867  29.742  1.00  0.00    -0.000 C 
BRANCH  13  14
ATOM     14  C   UNL     1       8.280  19.848  30.739  1.00  0.00    -0.000 C 
BRANCH  14  15
ATOM     15  C   UNL     1       8.107  21.262  30.156  1.00  0.00    -0.000 C 
BRANCH  15  16
ATOM     16  C   UNL     1       8.129  22.354  31.238  1.00  0.00    -0.000 C 
BRANCH  16  17
ATOM     17  C   UNL     1       9.530  22.947  31.449  1.00  0.00    -0.000 C 
BRANCH  17  18
ATOM     18  C   UNL     1      10.072  22.591  32.839  1.00  0.00    -0.003 C 
ATOM     19  C   UNL     1      11.206  21.575  32.744  1.00  0.00     0.004 C 
ENDBRANCH  17  18
ENDBRANCH  16  17
ENDBRANCH  15  16
ENDBRANCH  14  15
ENDBRANCH  13  14
ENDBRANCH  12  13
ENDBRANCH   1  12
TORSDOF 14
ENDMDL
MODEL 2
REMARK VINA RESULT:    -5.087      1.505      2.418
REMARK INTER + INTRA:         -11.176
REMARK INTER:                  -8.696
REMARK INTRA:                  -2.480
REMARK UNBOUND:                -1.926
REMARK SMILES CCCCCCCCCCCCCC[C@H](C)C(=O)[O-]
REMARK SMILES IDX 9 1 10 2 11 3 12 4 13 5 14 6 15 7 16 8 17 9 18 10 19 11 8 12
REMARK SMILES IDX 7 13 6 14 5 15 4 16 3 17 2 18 1 19
REMARK H PARENT
REMARK Flexibility Score: inf
ROOT
ATOM      1  C   UNL     1       8.896  18.517  30.418  1.00  0.00     0.000 C 
ENDROOT
BRANCH   1   2
ATOM      2  C   UNL     1      10.031  18.586  31.458  1.00  0.00     0.000 C 
BRANCH   2   3
ATOM      3  C   UNL     1       9.692  17.847  32.764  1.00  0.00     0.000 C 
BRANCH   3   4
ATOM      4  C   UNL     1       8.377  18.363  33.394  1.00  0.00     0.000 C 
BRANCH   4   5
ATOM      5  C   UNL     1       8.132  17.820  34.814  1.00  0.00     0.001 C 
BRANCH   5   6
ATOM      6  C   UNL     1       9.271  16.924  35.351  1.00  0.00     0.009 C 
BRANCH   6   7
ATOM      7  C   UNL     1       9.841  17.395  36.708  1.00  0.00     0.032 C 
ATOM      8  C   UNL     1       9.395  18.829  37.009  1.00  0.00     0.014 C 
BRANCH   7   9
ATOM      9  C   UNL     1      11.343  17.317  36.740  1.00  0.00     0.044 C 
ATOM     10  O   UNL     1      11.972  16.833  35.762  1.00  0.00    -0.550 OA
ATOM     11  O   UNL     1      12.048  17.778  37.846  1.00  0.00    -0.550 OA
ENDBRANCH   7   9
ENDBRANCH   6   7
ENDBRANCH   5   6
ENDBRANCH   4   5
ENDBRANCH   3   4
ENDBRANCH   2   3
ENDBRANCH   1   2
BRANCH   1  12
ATOM     12  C   UNL     1       8.532  19.871  29.782  1.00  0.00     0.000 C 
BRANCH  12  13
ATOM     13  C   UNL     1       7.951  20.867  30.802  1.00  0.00    -0.000 C 
BRANCH  13  14
ATOM     14  C   UNL     1       8.532  22.283  30.640  1.00  0.00    -0.000 C 
BRANCH  14  15
ATOM     15  C   UNL     1       9.495  22.665  31.778  1.00  0.00    -0.000 C 
BRANCH  15  16
ATOM     16  C   UNL     1       8.821  22.632  33.159  1.00  0.00    -0.000 C 
BRANCH  16  17
ATOM     17  C   UNL     1       9.601  21.787  34.177  1.00  0.00    -0.000 C 
BRANCH  17  18
ATOM     18  C   UNL     1      10.927  21.297  33.580  1.00  0.00    -0.003 C 
ATOM     19  C   UNL     1      11.685  20.417  34.570  1.00  0.00     0.004 C 
ENDBRANCH  17  18
ENDBRANCH  16  17
ENDBRANCH  15  16
ENDBRANCH  14  15
ENDBRANCH  13  14
ENDBRANCH  12  13
ENDBRANCH   1  12
TORSDOF 14
ENDMDL
MODEL 3
REMARK VINA RESULT:    -5.078      1.307      4.172
REMARK INTER + INTRA:         -11.160
REMARK INTER:                  -9.112
REMARK INTRA:                  -2.048
REMARK UNBOUND:                -1.926
REMARK SMILES CCCCCCCCCCCCCC[C@H](C)C(=O)[O-]
REMARK SMILES IDX 9 1 10 2 11 3 12 4 13 5 14 6 15 7 16 8 17 9 18 10 19 11 8 12
REMARK SMILES IDX 7 13 6 14 5 15 4 16 3 17 2 18 1 19
REMARK H PARENT
REMARK Flexibility Score: inf
ROOT
ATOM      1  C   UNL     1       7.875  21.825  29.820  1.00  0.00     0.000 C 
ENDROOT
BRANCH   1   2
ATOM      2  C   UNL     1       8.243  20.389  29.402  1.00  0.00     0.000 C 
BRANCH   2   3
ATOM      3  C   UNL     1       8.512  19.466  30.603  1.00  0.00     0.000 C 
BRANCH   3   4
ATOM      4  C   UNL     1       9.489  18.323  30.243  1.00  0.00     0.000 C 
BRANCH   4   5
ATOM      5  C   UNL     1       9.902  17.474  31.461  1.00  0.00     0.001 C 
BRANCH   5   6
ATOM      6  C   UNL     1      10.198  18.300  32.733  1.00  0.00     0.009 C 
BRANCH   6   7
ATOM      7  C   UNL     1       9.383  17.850  33.966  1.00  0.00     0.032 C 
ATOM      8  C   UNL     1       8.341  18.911  34.337  1.00  0.00     0.014 C 
BRANCH   7   9
ATOM      9  C   UNL     1      10.267  17.575  35.151  1.00  0.00     0.044 C 
ATOM     10  O   UNL     1       9.838  17.769  36.319  1.00  0.00    -0.550 OA
ATOM     11  O   UNL     1      11.563  17.103  34.967  1.00  0.00    -0.550 OA
ENDBRANCH   7   9
ENDBRANCH   6   7
ENDBRANCH   5   6
ENDBRANCH   4   5
ENDBRANCH   3   4
ENDBRANCH   2   3
ENDBRANCH   1   2
BRANCH   1  12
ATOM     12  C   UNL     1       7.879  22.067  31.340  1.00  0.00     0.000 C 
BRANCH  12  13
ATOM     13  C   UNL     1       9.046  22.964  31.793  1.00  0.00    -0.000 C 
BRANCH  13  14
ATOM     14  C   UNL     1      10.328  22.164  32.079  1.00  0.00    -0.000 C 
BRANCH  14  15
ATOM     15  C   UNL     1      10.556  21.920  33.582  1.00  0.00    -0.000 C 
BRANCH  15  16
ATOM     16  C   UNL     1       9.963  23.036  34.459  1.00  0.00    -0.000 C 
BRANCH  16  17
ATOM     17  C   UNL     1       8.971  22.503  35.502  1.00  0.00    -0.000 C 
BRANCH  17  18
ATOM     18  C   UNL     1       9.711  21.855  36.680  1.00  0.00    -0.003 C 
ATOM     19  C   UNL     1       8.773  20.978  37.504  1.00  0.00     0.004 C 
ENDBRANCH  17  18
ENDBRANCH  16  17
ENDBRANCH  15  16
ENDBRANCH  14  15
ENDBRANCH  13  14
ENDBRANCH  12  13
ENDBRANCH   1  12
TORSDOF 14
ENDMDL
MODEL 4
REMARK VINA RESULT:    -5.049      2.895      5.526
REMARK INTER + INTRA:         -11.107
REMARK INTER:                  -9.349
REMARK INTRA:                  -1.758
REMARK UNBOUND:                -1.926
REMARK SMILES CCCCCCCCCCCCCC[C@H](C)C(=O)[O-]
REMARK SMILES IDX 9 1 10 2 11 3 12 4 13 5 14 6 15 7 16 8 17 9 18 10 19 11 8 12
REMARK SMILES IDX 7 13 6 14 5 15 4 16 3 17 2 18 1 19
REMARK H PARENT
REMARK Flexibility Score: inf
ROOT
ATOM      1  C   UNL     1       9.663  18.151  30.606  1.00  0.00     0.000 C 
ENDROOT
BRANCH   1   2
ATOM      2  C   UNL     1       8.817  19.108  29.745  1.00  0.00     0.000 C 
BRANCH   2   3
ATOM      3  C   UNL     1       8.059  20.154  30.581  1.00  0.00     0.000 C 
BRANCH   3   4
ATOM      4  C   UNL     1       8.278  21.588  30.044  1.00  0.00     0.000 C 
BRANCH   4   5
ATOM      5  C   UNL     1       8.186  22.665  31.141  1.00  0.00     0.001 C 
BRANCH   5   6
ATOM      6  C   UNL     1       9.127  22.422  32.343  1.00  0.00     0.009 C 
BRANCH   6   7
ATOM      7  C   UNL     1      10.571  22.918  32.107  1.00  0.00     0.032 C 
ATOM      8  C   UNL     1      11.581  21.945  32.726  1.00  0.00     0.014 C 
BRANCH   7   9
ATOM      9  C   UNL     1      10.788  24.296  32.670  1.00  0.00     0.044 C 
ATOM     10  O   UNL     1      10.459  25.310  32.000  1.00  0.00    -0.550 OA
ATOM     11  O   UNL     1      11.351  24.460  33.931  1.00  0.00    -0.550 OA
ENDBRANCH   7   9
ENDBRANCH   6   7
ENDBRANCH   5   6
ENDBRANCH   4   5
ENDBRANCH   3   4
ENDBRANCH   2   3
ENDBRANCH   1   2
BRANCH   1  12
ATOM     12  C   UNL     1      10.112  18.738  31.957  1.00  0.00     0.000 C 
BRANCH  12  13
ATOM     13  C   UNL     1       9.608  17.916  33.157  1.00  0.00    -0.000 C 
BRANCH  13  14
ATOM     14  C   UNL     1       8.116  18.153  33.449  1.00  0.00    -0.000 C 
BRANCH  14  15
ATOM     15  C   UNL     1       7.876  18.839  34.806  1.00  0.00    -0.000 C 
BRANCH  15  16
ATOM     16  C   UNL     1       8.900  19.948  35.097  1.00  0.00    -0.000 C 
BRANCH  16  17
ATOM     17  C   UNL     1       9.022  20.260  36.596  1.00  0.00    -0.000 C 
BRANCH  17  18
ATOM     18  C   UNL     1       8.008  19.446  37.409  1.00  0.00    -0.003 C 
ATOM     19  C   UNL     1       8.342  19.478  38.897  1.00  0.00     0.004 C 
ENDBRANCH  17  18
ENDBRANCH  16  17
ENDBRANCH  15  16
ENDBRANCH  14  15
ENDBRANCH  13  14
ENDBRANCH  12  13
ENDBRANCH   1  12
TORSDOF 14
ENDMDL
MODEL 5
REMARK VINA RESULT:    -4.988      2.965      5.685
REMARK INTER + INTRA:         -10.996
REMARK INTER:                  -8.390
REMARK INTRA:                  -2.606
REMARK UNBOUND:                -1.926
REMARK SMILES CCCCCCCCCCCCCC[C@H](C)C(=O)[O-]
REMARK SMILES IDX 9 1 10 2 11 3 12 4 13 5 14 6 15 7 16 8 17 9 18 10 19 11 8 12
REMARK SMILES IDX 7 13 6 14 5 15 4 16 3 17 2 18 1 19
REMARK H PARENT
REMARK Flexibility Score: inf
ROOT
ATOM      1  C   UNL     1       9.374  16.999  34.470  1.00  0.00     0.000 C 
ENDROOT
BRANCH   1   2
ATOM      2  C   UNL     1      10.145  16.968  33.137  1.00  0.00     0.000 C 
BRANCH   2   3
ATOM      3  C   UNL     1      10.193  18.339  32.441  1.00  0.00     0.000 C 
BRANCH   3   4
ATOM      4  C   UNL     1       9.726  18.253  30.969  1.00  0.00     0.000 C 
BRANCH   4   5
ATOM      5  C   UNL     1       8.780  19.401  30.566  1.00  0.00     0.001 C 
BRANCH   5   6
ATOM      6  C   UNL     1       8.405  20.346  31.730  1.00  0.00     0.009 C 
BRANCH   6   7
ATOM      7  C   UNL     1       8.378  21.838  31.331  1.00  0.00     0.032 C 
ATOM      8  C   UNL     1       8.105  21.988  29.830  1.00  0.00     0.014 C 
BRANCH   7   9
ATOM      9  C   UNL     1       9.665  22.534  31.681  1.00  0.00     0.044 C 
ATOM     10  O   UNL     1      10.622  21.881  32.176  1.00  0.00    -0.550 OA
ATOM     11  O   UNL     1       9.810  23.899  31.460  1.00  0.00    -0.550 OA
ENDBRANCH   7   9
ENDBRANCH   6   7
ENDBRANCH   5   6
ENDBRANCH   4   5
ENDBRANCH   3   4
ENDBRANCH   2   3
ENDBRANCH   1   2
BRANCH   1  12
ATOM     12  C   UNL     1       8.350  18.142  34.588  1.00  0.00     0.000 C 
BRANCH  12  13
ATOM     13  C   UNL     1       8.642  19.080  35.773  1.00  0.00    -0.000 C 
BRANCH  13  14
ATOM     14  C   UNL     1       9.052  20.492  35.321  1.00  0.00    -0.000 C 
BRANCH  14  15
ATOM     15  C   UNL     1      10.571  20.728  35.408  1.00  0.00    -0.000 C 
BRANCH  15  16
ATOM     16  C   UNL     1      11.298  19.622  36.190  1.00  0.00    -0.000 C 
BRANCH  16  17
ATOM     17  C   UNL     1      12.456  19.000  35.395  1.00  0.00    -0.000 C 
BRANCH  17  18
ATOM     18  C   UNL     1      12.720  17.559  35.850  1.00  0.00    -0.003 C 
ATOM     19  C   UNL     1      12.010  17.257  37.166  1.00  0.00     0.004 C 
ENDBRANCH  17  18
ENDBRANCH  16  17
ENDBRANCH  15  16
ENDBRANCH  14  15
ENDBRANCH  13  14
ENDBRANCH  12  13
ENDBRANCH   1  12
TORSDOF 14
ENDMDL
MODEL 6
REMARK VINA RESULT:    -4.967      1.566      4.075
REMARK INTER + INTRA:         -10.958
REMARK INTER:                  -8.408
REMARK INTRA:                  -2.550
REMARK UNBOUND:                -1.926
REMARK SMILES CCCCCCCCCCCCCC[C@H](C)C(=O)[O-]
REMARK SMILES IDX 9 1 10 2 11 3 12 4 13 5 14 6 15 7 16 8 17 9 18 10 19 11 8 12
REMARK SMILES IDX 7 13 6 14 5 15 4 16 3 17 2 18 1 19
REMARK H PARENT
REMARK Flexibility Score: inf
ROOT
ATOM      1  C   UNL     1       9.276  23.635  32.193  1.00  0.00     0.000 C 
ENDROOT
BRANCH   1   2
ATOM      2  C   UNL     1      10.671  23.220  31.688  1.00  0.00     0.000 C 
BRANCH   2   3
ATOM      3  C   UNL     1      11.609  22.769  32.821  1.00  0.00     0.000 C 
BRANCH   3   4
ATOM      4  C   UNL     1      11.402  21.279  33.181  1.00  0.00     0.000 C 
BRANCH   4   5
ATOM      5  C   UNL     1      10.931  21.068  34.633  1.00  0.00     0.001 C 
BRANCH   5   6
ATOM      6  C   UNL     1       9.409  21.242  34.833  1.00  0.00     0.009 C 
BRANCH   6   7
ATOM      7  C   UNL     1       9.043  22.207  35.982  1.00  0.00     0.032 C 
ATOM      8  C   UNL     1       9.936  23.452  35.944  1.00  0.00     0.014 C 
BRANCH   7   9
ATOM      9  C   UNL     1       9.160  21.544  37.328  1.00  0.00     0.044 C 
ATOM     10  O   UNL     1      10.031  21.932  38.150  1.00  0.00    -0.550 OA
ATOM     11  O   UNL     1       8.308  20.500  37.674  1.00  0.00    -0.550 OA
ENDBRANCH   7   9
ENDBRANCH   6   7
ENDBRANCH   5   6
ENDBRANCH   4   5
ENDBRANCH   3   4
ENDBRANCH   2   3
ENDBRANCH   1   2
BRANCH   1  12
ATOM     12  C   UNL     1       8.132  22.708  31.742  1.00  0.00     0.000 C 
BRANCH  12  13
ATOM     13  C   UNL     1       8.309  22.212  30.295  1.00  0.00    -0.000 C 
BRANCH  13  14
ATOM     14  C   UNL     1       7.993  20.714  30.143  1.00  0.00    -0.000 C 
BRANCH  14  15
ATOM     15  C   UNL     1       8.616  19.857  31.259  1.00  0.00    -0.000 C 
BRANCH  15  16
ATOM     16  C   UNL     1       9.696  18.897  30.735  1.00  0.00    -0.000 C 
BRANCH  16  17
ATOM     17  C   UNL     1       9.811  17.620  31.579  1.00  0.00    -0.000 C 
BRANCH  17  18
ATOM     18  C   UNL     1       9.391  17.883  33.031  1.00  0.00    -0.003 C 
ATOM     19  C   UNL     1      10.461  17.407  34.009  1.00  0.00     0.004 C 
ENDBRANCH  17  18
ENDBRANCH  16  17
ENDBRANCH  15  16
ENDBRANCH  14  15
ENDBRANCH  13  14
ENDBRANCH  12  13
ENDBRANCH   1  12
TORSDOF 14
ENDMDL
MODEL 7
REMARK VINA RESULT:    -4.932      2.015      2.450
REMARK INTER + INTRA:         -10.894
REMARK INTER:                  -8.447
REMARK INTRA:                  -2.447
REMARK UNBOUND:                -1.926
REMARK SMILES CCCCCCCCCCCCCC[C@H](C)C(=O)[O-]
REMARK SMILES IDX 9 1 10 2 11 3 12 4 13 5 14 6 15 7 16 8 17 9 18 10 19 11 8 12
REMARK SMILES IDX 7 13 6 14 5 15 4 16 3 17 2 18 1 19
REMARK H PARENT
REMARK Flexibility Score: inf
ROOT
ATOM      1  C   UNL     1      10.211  18.575  32.134  1.00  0.00     0.000 C 
ENDROOT
BRANCH   1   2
ATOM      2  C   UNL     1      10.033  17.633  33.340  1.00  0.00     0.000 C 
BRANCH   2   3
ATOM      3  C   UNL     1       8.605  17.654  33.910  1.00  0.00     0.000 C 
BRANCH   3   4
ATOM      4  C   UNL     1       8.192  19.069  34.379  1.00  0.00     0.000 C 
BRANCH   4   5
ATOM      5  C   UNL     1       8.283  19.251  35.906  1.00  0.00     0.001 C 
BRANCH   5   6
ATOM      6  C   UNL     1       9.602  19.897  36.386  1.00  0.00     0.009 C 
BRANCH   6   7
ATOM      7  C   UNL     1      10.186  20.924  35.390  1.00  0.00     0.032 C 
ATOM      8  C   UNL     1      11.668  20.635  35.127  1.00  0.00     0.014 C 
BRANCH   7   9
ATOM      9  C   UNL     1      10.026  22.335  35.884  1.00  0.00     0.044 C 
ATOM     10  O   UNL     1       8.988  22.671  36.513  1.00  0.00    -0.550 OA
ATOM     11  O   UNL     1      11.022  23.279  35.653  1.00  0.00    -0.550 OA
ENDBRANCH   7   9
ENDBRANCH   6   7
ENDBRANCH   5   6
ENDBRANCH   4   5
ENDBRANCH   3   4
ENDBRANCH   2   3
ENDBRANCH   1   2
BRANCH   1  12
ATOM     12  C   UNL     1       9.844  17.947  30.776  1.00  0.00     0.000 C 
BRANCH  12  13
ATOM     13  C   UNL     1       8.972  18.876  29.912  1.00  0.00    -0.000 C 
BRANCH  13  14
ATOM     14  C   UNL     1       8.191  19.902  30.751  1.00  0.00    -0.000 C 
BRANCH  14  15
ATOM     15  C   UNL     1       8.019  21.252  30.033  1.00  0.00    -0.000 C 
BRANCH  15  16
ATOM     16  C   UNL     1       7.994  22.441  31.008  1.00  0.00    -0.000 C 
BRANCH  16  17
ATOM     17  C   UNL     1       8.776  22.162  32.300  1.00  0.00    -0.000 C 
BRANCH  17  18
ATOM     18  C   UNL     1      10.246  22.573  32.150  1.00  0.00    -0.003 C 
ATOM     19  C   UNL     1      10.369  24.004  31.636  1.00  0.00     0.004 C 
ENDBRANCH  17  18
ENDBRANCH  16  17
ENDBRANCH  15  16
ENDBRANCH  14  15
ENDBRANCH  13  14
ENDBRANCH  12  13
ENDBRANCH   1  12
TORSDOF 14
ENDMDL
MODEL 8
REMARK VINA RESULT:    -4.928      2.910      5.311
REMARK INTER + INTRA:         -10.887
REMARK INTER:                  -8.612
REMARK INTRA:                  -2.275
REMARK UNBOUND:                -1.926
REMARK SMILES CCCCCCCCCCCCCC[C@H](C)C(=O)[O-]
REMARK SMILES IDX 9 1 10 2 11 3 12 4 13 5 14 6 15 7 16 8 17 9 18 10 19 11 8 12
REMARK SMILES IDX 7 13 6 14 5 15 4 16 3 17 2 18 1 19
REMARK H PARENT
REMARK Flexibility Score: inf
ROOT
ATOM      1  C   UNL     1      10.170  18.298  32.548  1.00  0.00     0.000 C 
ENDROOT
BRANCH   1   2
ATOM      2  C   UNL     1       9.767  17.753  31.165  1.00  0.00     0.000 C 
BRANCH   2   3
ATOM      3  C   UNL     1       9.024  18.790  30.305  1.00  0.00     0.000 C 
BRANCH   3   4
ATOM      4  C   UNL     1       8.431  19.931  31.164  1.00  0.00     0.000 C 
BRANCH   4   5
ATOM      5  C   UNL     1       8.198  21.229  30.368  1.00  0.00     0.001 C 
BRANCH   5   6
ATOM      6  C   UNL     1       8.596  22.514  31.128  1.00  0.00     0.009 C 
BRANCH   6   7
ATOM      7  C   UNL     1       9.672  22.282  32.213  1.00  0.00     0.032 C 
ATOM      8  C   UNL     1       9.081  22.492  33.610  1.00  0.00     0.014 C 
BRANCH   7   9
ATOM      9  C   UNL     1      10.859  23.188  32.025  1.00  0.00     0.044 C 
ATOM     10  O   UNL     1      11.962  22.904  32.562  1.00  0.00    -0.550 OA
ATOM     11  O   UNL     1      10.747  24.343  31.258  1.00  0.00    -0.550 OA
ENDBRANCH   7   9
ENDBRANCH   6   7
ENDBRANCH   5   6
ENDBRANCH   4   5
ENDBRANCH   3   4
ENDBRANCH   2   3
ENDBRANCH   1   2
BRANCH   1  12
ATOM     12  C   UNL     1       9.780  17.391  33.729  1.00  0.00     0.000 C 
BRANCH  12  13
ATOM     13  C   UNL     1       8.333  17.623  34.200  1.00  0.00    -0.000 C 
BRANCH  13  14
ATOM     14  C   UNL     1       8.120  19.031  34.781  1.00  0.00    -0.000 C 
BRANCH  14  15
ATOM     15  C   UNL     1       7.882  19.020  36.301  1.00  0.00    -0.000 C 
BRANCH  15  16
ATOM     16  C   UNL     1       9.183  19.178  37.105  1.00  0.00    -0.000 C 
BRANCH  16  17
ATOM     17  C   UNL     1       9.982  20.424  36.695  1.00  0.00    -0.000 C 
BRANCH  17  18
ATOM     18  C   UNL     1      11.459  20.076  36.465  1.00  0.00    -0.003 C 
ATOM     19  C   UNL     1      11.876  20.370  35.028  1.00  0.00     0.004 C 
ENDBRANCH  17  18
ENDBRANCH  16  17
ENDBRANCH  15  16
ENDBRANCH  14  15
ENDBRANCH  13  14
ENDBRANCH  12  13
ENDBRANCH   1  12
TORSDOF 14
ENDMDL
MODEL 9
REMARK VINA RESULT:    -4.893      1.431      2.129
REMARK INTER + INTRA:         -10.824
REMARK INTER:                  -8.930
REMARK INTRA:                  -1.894
REMARK UNBOUND:                -1.926
REMARK SMILES CCCCCCCCCCCCCC[C@H](C)C(=O)[O-]
REMARK SMILES IDX 9 1 10 2 11 3 12 4 13 5 14 6 15 7 16 8 17 9 18 10 19 11 8 12
REMARK SMILES IDX 7 13 6 14 5 15 4 16 3 17 2 18 1 19
REMARK H PARENT
REMARK Flexibility Score: inf
ROOT
ATOM      1  C   UNL     1       9.325  18.507  30.135  1.00  0.00     0.000 C 
ENDROOT
BRANCH   1   2
ATOM      2  C   UNL     1      10.008  17.611  31.186  1.00  0.00     0.000 C 
BRANCH   2   3
ATOM      3  C   UNL     1       9.399  17.765  32.590  1.00  0.00     0.000 C 
BRANCH   3   4
ATOM      4  C   UNL     1      10.489  17.850  33.684  1.00  0.00     0.000 C 
BRANCH   4   5
ATOM      5  C   UNL     1      11.042  19.275  33.878  1.00  0.00     0.001 C 
BRANCH   5   6
ATOM      6  C   UNL     1      10.862  19.832  35.308  1.00  0.00     0.009 C 
BRANCH   6   7
ATOM      7  C   UNL     1       9.419  20.291  35.616  1.00  0.00     0.032 C 
ATOM      8  C   UNL     1       9.391  21.786  35.952  1.00  0.00     0.014 C 
BRANCH   7   9
ATOM      9  C   UNL     1       8.812  19.507  36.747  1.00  0.00     0.044 C 
ATOM     10  O   UNL     1       9.046  18.275  36.859  1.00  0.00    -0.550 OA
ATOM     11  O   UNL     1       7.991  20.136  37.677  1.00  0.00    -0.550 OA
ENDBRANCH   7   9
ENDBRANCH   6   7
ENDBRANCH   5   6
ENDBRANCH   4   5
ENDBRANCH   3   4
ENDBRANCH   2   3
ENDBRANCH   1   2
BRANCH   1  12
ATOM     12  C   UNL     1       8.350  19.545  30.719  1.00  0.00     0.000 C 
BRANCH  12  13
ATOM     13  C   UNL     1       8.157  20.761  29.795  1.00  0.00    -0.000 C 
BRANCH  13  14
ATOM     14  C   UNL     1       8.156  22.093  30.566  1.00  0.00    -0.000 C 
BRANCH  14  15
ATOM     15  C   UNL     1       8.590  21.932  32.034  1.00  0.00    -0.000 C 
BRANCH  15  16
ATOM     16  C   UNL     1      10.010  22.462  32.292  1.00  0.00    -0.000 C 
BRANCH  16  17
ATOM     17  C   UNL     1      10.320  23.736  31.492  1.00  0.00    -0.000 C 
BRANCH  17  18
ATOM     18  C   UNL     1      10.493  24.941  32.426  1.00  0.00    -0.003 C 
ATOM     19  C   UNL     1       9.472  24.910  33.559  1.00  0.00     0.004 C 
ENDBRANCH  17  18
ENDBRANCH  16  17
ENDBRANCH  15  16
ENDBRANCH  14  15
ENDBRANCH  13  14
ENDBRANCH  12  13
ENDBRANCH   1  12
TORSDOF 14
ENDMDL
