MODEL 1
REMARK VINA RESULT:    -4.748      0.000      0.000
REMARK INTER + INTRA:         -10.818
REMARK INTER:                  -8.357
REMARK INTRA:                  -2.461
REMARK UNBOUND:                -2.461
REMARK SMILES CCCCCCC=CCCCCCCCC(=O)[O-]
REMARK SMILES IDX 10 1 11 2 12 3 13 4 14 5 15 6 16 7 17 8 18 9 9 10 8 11 7 12
REMARK SMILES IDX 6 13 5 14 4 15 3 16 2 17 1 18
REMARK H PARENT
REMARK Flexibility Score: inf
ROOT
ATOM      1  C   UNL     1       7.285  -9.597  -1.262  1.00  0.00     0.004 C 
ENDROOT
BRANCH   1   2
ATOM      2  C   UNL     1       5.858  -9.797  -1.785  1.00  0.00     0.000 C 
BRANCH   2   3
ATOM      3  C   UNL     1       5.012 -10.596  -0.785  1.00  0.00     0.000 C 
BRANCH   3   4
ATOM      4  C   UNL     1       4.093 -11.586  -1.509  1.00  0.00     0.000 C 
BRANCH   4   5
ATOM      5  C   UNL     1       3.950 -12.890  -0.710  1.00  0.00     0.006 C 
BRANCH   5   6
ATOM      6  C   UNL     1       3.984 -14.130  -1.612  1.00  0.00     0.053 C 
BRANCH   6   7
ATOM      7  C   UNL     1       2.864 -15.074  -1.299  1.00  0.00     0.041 C 
ATOM      8  O   UNL     1       2.610 -16.036  -2.071  1.00  0.00    -0.550 OA
ATOM      9  O   UNL     1       2.119 -14.908  -0.139  1.00  0.00    -0.550 OA
ENDBRANCH   6   7
ENDBRANCH   5   6
ENDBRANCH   4   5
ENDBRANCH   3   4
ENDBRANCH   2   3
ENDBRANCH   1   2
BRANCH   1  10
ATOM     10  C   UNL     1       7.495 -10.339   0.062  1.00  0.00     0.027 C 
BRANCH  10  11
ATOM     11  C   UNL     1       8.716 -11.222  -0.008  1.00  0.00    -0.031 C 
ATOM     12  C   UNL     1       8.730 -12.465  -0.525  1.00  0.00    -0.031 C 
BRANCH  12  13
ATOM     13  C   UNL     1       7.511 -13.192  -1.033  1.00  0.00     0.027 C 
BRANCH  13  14
ATOM     14  C   UNL     1       7.736 -13.693  -2.469  1.00  0.00     0.004 C 
BRANCH  14  15
ATOM     15  C   UNL     1       7.247 -12.694  -3.533  1.00  0.00     0.000 C 
BRANCH  15  16
ATOM     16  C   UNL     1       6.371 -13.306  -4.641  1.00  0.00    -0.000 C 
BRANCH  16  17
ATOM     17  C   UNL     1       5.132 -12.455  -4.960  1.00  0.00    -0.003 C 
ATOM     18  C   UNL     1       3.912 -13.335  -5.214  1.00  0.00     0.004 C 
ENDBRANCH  16  17
ENDBRANCH  15  16
ENDBRANCH  14  15
ENDBRANCH  13  14
ENDBRANCH  12  13
ENDBRANCH  10  11
ENDBRANCH   1  10
TORSDOF 13
ENDMDL
MODEL 2
REMARK VINA RESULT:    -4.577      2.751      5.689
REMARK INTER + INTRA:         -10.516
REMARK INTER:                  -8.724
REMARK INTRA:                  -1.792
REMARK UNBOUND:                -2.461
REMARK SMILES CCCCCCC=CCCCCCCCC(=O)[O-]
REMARK SMILES IDX 10 1 11 2 12 3 13 4 14 5 15 6 16 7 17 8 18 9 9 10 8 11 7 12
REMARK SMILES IDX 6 13 5 14 4 15 3 16 2 17 1 18
REMARK H PARENT
REMARK Flexibility Score: inf
ROOT
ATOM      1  C   UNL     1       6.101 -12.143  -3.491  1.00  0.00     0.004 C 
ENDROOT
BRANCH   1   2
ATOM      2  C   UNL     1       7.156 -13.224  -3.751  1.00  0.00     0.000 C 
BRANCH   2   3
ATOM      3  C   UNL     1       7.731 -13.762  -2.435  1.00  0.00     0.000 C 
BRANCH   3   4
ATOM      4  C   UNL     1       7.315 -12.882  -1.251  1.00  0.00     0.000 C 
BRANCH   4   5
ATOM      5  C   UNL     1       8.529 -12.509  -0.389  1.00  0.00     0.006 C 
BRANCH   5   6
ATOM      6  C   UNL     1       8.894 -11.024  -0.511  1.00  0.00     0.053 C 
BRANCH   6   7
ATOM      7  C   UNL     1       7.689 -10.144  -0.387  1.00  0.00     0.041 C 
ATOM      8  O   UNL     1       7.111 -10.012   0.724  1.00  0.00    -0.550 OA
ATOM      9  O   UNL     1       7.222  -9.446  -1.492  1.00  0.00    -0.550 OA
ENDBRANCH   6   7
ENDBRANCH   5   6
ENDBRANCH   4   5
ENDBRANCH   3   4
ENDBRANCH   2   3
ENDBRANCH   1   2
BRANCH   1  10
ATOM     10  C   UNL     1       5.317 -11.822  -4.767  1.00  0.00     0.027 C 
BRANCH  10  11
ATOM     11  C   UNL     1       4.760 -13.080  -5.383  1.00  0.00    -0.031 C 
ATOM     12  C   UNL     1       3.669 -13.730  -4.937  1.00  0.00    -0.031 C 
BRANCH  12  13
ATOM     13  C   UNL     1       2.890 -13.346  -3.705  1.00  0.00     0.027 C 
BRANCH  13  14
ATOM     14  C   UNL     1       2.853 -14.509  -2.701  1.00  0.00     0.004 C 
BRANCH  14  15
ATOM     15  C   UNL     1       3.913 -14.375  -1.593  1.00  0.00     0.000 C 
BRANCH  15  16
ATOM     16  C   UNL     1       3.812 -13.089  -0.753  1.00  0.00    -0.000 C 
BRANCH  16  17
ATOM     17  C   UNL     1       2.651 -13.121   0.252  1.00  0.00    -0.003 C 
ATOM     18  C   UNL     1       2.668 -14.409   1.071  1.00  0.00     0.004 C 
ENDBRANCH  16  17
ENDBRANCH  15  16
ENDBRANCH  14  15
ENDBRANCH  13  14
ENDBRANCH  12  13
ENDBRANCH  10  11
ENDBRANCH   1  10
TORSDOF 13
ENDMDL
MODEL 3
REMARK VINA RESULT:    -4.558      3.691      5.783
REMARK INTER + INTRA:         -10.483
REMARK INTER:                  -8.596
REMARK INTRA:                  -1.887
REMARK UNBOUND:                -2.461
REMARK SMILES CCCCCCC=CCCCCCCCC(=O)[O-]
REMARK SMILES IDX 10 1 11 2 12 3 13 4 14 5 15 6 16 7 17 8 18 9 9 10 8 11 7 12
REMARK SMILES IDX 6 13 5 14 4 15 3 16 2 17 1 18
REMARK H PARENT
REMARK Flexibility Score: inf
ROOT
ATOM      1  C   UNL     1       6.285 -13.353  -4.259  1.00  0.00     0.004 C 
ENDROOT
BRANCH   1   2
ATOM      2  C   UNL     1       4.867 -13.205  -3.698  1.00  0.00     0.000 C 
BRANCH   2   3
ATOM      3  C   UNL     1       3.926 -12.579  -4.734  1.00  0.00     0.000 C 
BRANCH   3   4
ATOM      4  C   UNL     1       4.706 -12.069  -5.951  1.00  0.00     0.000 C 
BRANCH   4   5
ATOM      5  C   UNL     1       4.591 -10.543  -6.079  1.00  0.00     0.006 C 
BRANCH   5   6
ATOM      6  C   UNL     1       3.449 -10.123  -7.013  1.00  0.00     0.053 C 
BRANCH   6   7
ATOM      7  C   UNL     1       3.825  -8.940  -7.851  1.00  0.00     0.041 C 
ATOM      8  O   UNL     1       3.579  -7.773  -7.449  1.00  0.00    -0.550 OA
ATOM      9  O   UNL     1       4.475  -9.127  -9.064  1.00  0.00    -0.550 OA
ENDBRANCH   6   7
ENDBRANCH   5   6
ENDBRANCH   4   5
ENDBRANCH   3   4
ENDBRANCH   2   3
ENDBRANCH   1   2
BRANCH   1  10
ATOM     10  C   UNL     1       7.318 -12.728  -3.316  1.00  0.00     0.027 C 
BRANCH  10  11
ATOM     11  C   UNL     1       7.266 -13.380  -1.958  1.00  0.00    -0.031 C 
ATOM     12  C   UNL     1       7.896 -12.916  -0.863  1.00  0.00    -0.031 C 
BRANCH  12  13
ATOM     13  C   UNL     1       8.817 -11.723  -0.850  1.00  0.00     0.027 C 
BRANCH  13  14
ATOM     14  C   UNL     1       8.521 -10.821   0.358  1.00  0.00     0.004 C 
BRANCH  14  15
ATOM     15  C   UNL     1       7.186 -10.064   0.225  1.00  0.00     0.000 C 
BRANCH  15  16
ATOM     16  C   UNL     1       7.009  -9.291  -1.095  1.00  0.00    -0.000 C 
BRANCH  16  17
ATOM     17  C   UNL     1       5.810  -9.783  -1.918  1.00  0.00    -0.003 C 
ATOM     18  C   UNL     1       4.849 -10.598  -1.057  1.00  0.00     0.004 C 
ENDBRANCH  16  17
ENDBRANCH  15  16
ENDBRANCH  14  15
ENDBRANCH  13  14
ENDBRANCH  12  13
ENDBRANCH  10  11
ENDBRANCH   1  10
TORSDOF 13
ENDMDL
MODEL 4
REMARK VINA RESULT:    -4.544      4.428      6.492
REMARK INTER + INTRA:         -10.457
REMARK INTER:                  -9.230
REMARK INTRA:                  -1.228
REMARK UNBOUND:                -2.461
REMARK SMILES CCCCCCC=CCCCCCCCC(=O)[O-]
REMARK SMILES IDX 10 1 11 2 12 3 13 4 14 5 15 6 16 7 17 8 18 9 9 10 8 11 7 12
REMARK SMILES IDX 6 13 5 14 4 15 3 16 2 17 1 18
REMARK H PARENT
REMARK Flexibility Score: inf
ROOT
ATOM      1  C   UNL     1       4.845 -12.997  -4.153  1.00  0.00     0.004 C 
ENDROOT
BRANCH   1   2
ATOM      2  C   UNL     1       4.353 -12.794  -5.591  1.00  0.00     0.000 C 
BRANCH   2   3
ATOM      3  C   UNL     1       4.784 -11.427  -6.134  1.00  0.00     0.000 C 
BRANCH   3   4
ATOM      4  C   UNL     1       3.568 -10.547  -6.442  1.00  0.00     0.000 C 
BRANCH   4   5
ATOM      5  C   UNL     1       3.871  -9.569  -7.586  1.00  0.00     0.006 C 
BRANCH   5   6
ATOM      6  C   UNL     1       3.649  -8.107  -7.176  1.00  0.00     0.053 C 
BRANCH   6   7
ATOM      7  C   UNL     1       4.690  -7.203  -7.761  1.00  0.00     0.041 C 
ATOM      8  O   UNL     1       5.287  -7.525  -8.821  1.00  0.00    -0.550 OA
ATOM      9  O   UNL     1       4.978  -5.990  -7.150  1.00  0.00    -0.550 OA
ENDBRANCH   6   7
ENDBRANCH   5   6
ENDBRANCH   4   5
ENDBRANCH   3   4
ENDBRANCH   2   3
ENDBRANCH   1   2
BRANCH   1  10
ATOM     10  C   UNL     1       6.197 -12.312  -3.934  1.00  0.00     0.027 C 
BRANCH  10  11
ATOM     11  C   UNL     1       7.294 -13.334  -3.772  1.00  0.00    -0.031 C 
ATOM     12  C   UNL     1       7.802 -13.727  -2.589  1.00  0.00    -0.031 C 
BRANCH  12  13
ATOM     13  C   UNL     1       7.410 -13.144  -1.255  1.00  0.00     0.027 C 
BRANCH  13  14
ATOM     14  C   UNL     1       8.649 -12.646  -0.494  1.00  0.00     0.004 C 
BRANCH  14  15
ATOM     15  C   UNL     1       8.514 -11.186  -0.024  1.00  0.00     0.000 C 
BRANCH  15  16
ATOM     16  C   UNL     1       7.739 -10.266  -0.985  1.00  0.00    -0.000 C 
BRANCH  16  17
ATOM     17  C   UNL     1       6.513  -9.615  -0.328  1.00  0.00    -0.003 C 
ATOM     18  C   UNL     1       5.217 -10.204  -0.879  1.00  0.00     0.004 C 
ENDBRANCH  16  17
ENDBRANCH  15  16
ENDBRANCH  14  15
ENDBRANCH  13  14
ENDBRANCH  12  13
ENDBRANCH  10  11
ENDBRANCH   1  10
TORSDOF 13
ENDMDL
MODEL 5
REMARK VINA RESULT:    -4.540      4.462      6.570
REMARK INTER + INTRA:         -10.451
REMARK INTER:                  -9.285
REMARK INTRA:                  -1.166
REMARK UNBOUND:                -2.461
REMARK SMILES CCCCCCC=CCCCCCCCC(=O)[O-]
REMARK SMILES IDX 10 1 11 2 12 3 13 4 14 5 15 6 16 7 17 8 18 9 9 10 8 11 7 12
REMARK SMILES IDX 6 13 5 14 4 15 3 16 2 17 1 18
REMARK H PARENT
REMARK Flexibility Score: inf
ROOT
ATOM      1  C   UNL     1       4.265  -9.945  -5.212  1.00  0.00     0.004 C 
ENDROOT
BRANCH   1   2
ATOM      2  C   UNL     1       4.425 -10.486  -6.638  1.00  0.00     0.000 C 
BRANCH   2   3
ATOM      3  C   UNL     1       4.176  -9.385  -7.676  1.00  0.00     0.000 C 
BRANCH   3   4
ATOM      4  C   UNL     1       2.723  -9.407  -8.164  1.00  0.00     0.000 C 
BRANCH   4   5
ATOM      5  C   UNL     1       1.914  -8.263  -7.534  1.00  0.00     0.006 C 
BRANCH   5   6
ATOM      6  C   UNL     1       0.816  -8.778  -6.595  1.00  0.00     0.053 C 
BRANCH   6   7
ATOM      7  C   UNL     1      -0.431  -9.137  -7.343  1.00  0.00     0.041 C 
ATOM      8  O   UNL     1      -1.227  -9.993  -6.875  1.00  0.00    -0.550 OA
ATOM      9  O   UNL     1      -0.729  -8.504  -8.542  1.00  0.00    -0.550 OA
ENDBRANCH   6   7
ENDBRANCH   5   6
ENDBRANCH   4   5
ENDBRANCH   3   4
ENDBRANCH   2   3
ENDBRANCH   1   2
BRANCH   1  10
ATOM     10  C   UNL     1       4.949 -10.865  -4.195  1.00  0.00     0.027 C 
BRANCH  10  11
ATOM     11  C   UNL     1       4.763 -12.312  -4.574  1.00  0.00    -0.031 C 
ATOM     12  C   UNL     1       5.721 -13.253  -4.487  1.00  0.00    -0.031 C 
BRANCH  12  13
ATOM     13  C   UNL     1       7.147 -12.984  -4.079  1.00  0.00     0.027 C 
BRANCH  13  14
ATOM     14  C   UNL     1       7.413 -13.503  -2.657  1.00  0.00     0.004 C 
BRANCH  14  15
ATOM     15  C   UNL     1       7.070 -12.469  -1.569  1.00  0.00     0.000 C 
BRANCH  15  16
ATOM     16  C   UNL     1       7.721 -11.088  -1.761  1.00  0.00    -0.000 C 
BRANCH  16  17
ATOM     17  C   UNL     1       8.024 -10.381  -0.432  1.00  0.00    -0.003 C 
ATOM     18  C   UNL     1       9.218 -11.019   0.270  1.00  0.00     0.004 C 
ENDBRANCH  16  17
ENDBRANCH  15  16
ENDBRANCH  14  15
ENDBRANCH  13  14
ENDBRANCH  12  13
ENDBRANCH  10  11
ENDBRANCH   1  10
TORSDOF 13
ENDMDL
MODEL 6
REMARK VINA RESULT:    -4.515      0.981      3.847
REMARK INTER + INTRA:         -10.407
REMARK INTER:                  -8.463
REMARK INTRA:                  -1.944
REMARK UNBOUND:                -2.461
REMARK SMILES CCCCCCC=CCCCCCCCC(=O)[O-]
REMARK SMILES IDX 10 1 11 2 12 3 13 4 14 5 15 6 16 7 17 8 18 9 9 10 8 11 7 12
REMARK SMILES IDX 6 13 5 14 4 15 3 16 2 17 1 18
REMARK H PARENT
REMARK Flexibility Score: inf
ROOT
ATOM      1  C   UNL     1       5.070 -11.978  -5.293  1.00  0.00     0.004 C 
ENDROOT
BRANCH   1   2
ATOM      2  C   UNL     1       4.451 -13.375  -5.407  1.00  0.00     0.000 C 
BRANCH   2   3
ATOM      3  C   UNL     1       2.929 -13.321  -5.233  1.00  0.00     0.000 C 
BRANCH   3   4
ATOM      4  C   UNL     1       2.540 -13.400  -3.752  1.00  0.00     0.000 C 
BRANCH   4   5
ATOM      5  C   UNL     1       3.450 -14.379  -2.996  1.00  0.00     0.006 C 
BRANCH   5   6
ATOM      6  C   UNL     1       3.676 -13.954  -1.539  1.00  0.00     0.053 C 
BRANCH   6   7
ATOM      7  C   UNL     1       3.070 -14.928  -0.577  1.00  0.00     0.041 C 
ATOM      8  O   UNL     1       2.619 -16.030  -0.988  1.00  0.00    -0.550 OA
ATOM      9  O   UNL     1       3.032 -14.633   0.779  1.00  0.00    -0.550 OA
ENDBRANCH   6   7
ENDBRANCH   5   6
ENDBRANCH   4   5
ENDBRANCH   3   4
ENDBRANCH   2   3
ENDBRANCH   1   2
BRANCH   1  10
ATOM     10  C   UNL     1       5.953 -11.867  -4.046  1.00  0.00     0.027 C 
BRANCH  10  11
ATOM     11  C   UNL     1       7.015 -12.938  -4.046  1.00  0.00    -0.031 C 
ATOM     12  C   UNL     1       7.501 -13.530  -2.940  1.00  0.00    -0.031 C 
BRANCH  12  13
ATOM     13  C   UNL     1       7.119 -13.154  -1.531  1.00  0.00     0.027 C 
BRANCH  13  14
ATOM     14  C   UNL     1       8.360 -12.750  -0.721  1.00  0.00     0.004 C 
BRANCH  14  15
ATOM     15  C   UNL     1       8.573 -11.226  -0.673  1.00  0.00     0.000 C 
BRANCH  15  16
ATOM     16  C   UNL     1       7.372 -10.421  -0.145  1.00  0.00    -0.000 C 
BRANCH  16  17
ATOM     17  C   UNL     1       6.897  -9.342  -1.129  1.00  0.00    -0.003 C 
ATOM     18  C   UNL     1       5.396  -9.452  -1.384  1.00  0.00     0.004 C 
ENDBRANCH  16  17
ENDBRANCH  15  16
ENDBRANCH  14  15
ENDBRANCH  13  14
ENDBRANCH  12  13
ENDBRANCH  10  11
ENDBRANCH   1  10
TORSDOF 13
ENDMDL
MODEL 7
REMARK VINA RESULT:    -4.478      5.128      7.450
REMARK INTER + INTRA:         -10.341
REMARK INTER:                  -9.271
REMARK INTRA:                  -1.071
REMARK UNBOUND:                -2.461
REMARK SMILES CCCCCCC=CCCCCCCCC(=O)[O-]
REMARK SMILES IDX 10 1 11 2 12 3 13 4 14 5 15 6 16 7 17 8 18 9 9 10 8 11 7 12
REMARK SMILES IDX 6 13 5 14 4 15 3 16 2 17 1 18
REMARK H PARENT
REMARK Flexibility Score: inf
ROOT
ATOM      1  C   UNL     1       4.404 -10.591  -6.753  1.00  0.00     0.004 C 
ENDROOT
BRANCH   1   2
ATOM      2  C   UNL     1       2.995 -10.017  -6.939  1.00  0.00     0.000 C 
BRANCH   2   3
ATOM      3  C   UNL     1       2.917  -9.140  -8.195  1.00  0.00     0.000 C 
BRANCH   3   4
ATOM      4  C   UNL     1       4.303  -8.953  -8.822  1.00  0.00     0.000 C 
BRANCH   4   5
ATOM      5  C   UNL     1       4.753  -7.487  -8.736  1.00  0.00     0.006 C 
BRANCH   5   6
ATOM      6  C   UNL     1       5.343  -7.140  -7.363  1.00  0.00     0.053 C 
BRANCH   6   7
ATOM      7  C   UNL     1       4.651  -5.967  -6.742  1.00  0.00     0.041 C 
ATOM      8  O   UNL     1       3.448  -6.058  -6.379  1.00  0.00    -0.550 OA
ATOM      9  O   UNL     1       5.343  -4.781  -6.535  1.00  0.00    -0.550 OA
ENDBRANCH   6   7
ENDBRANCH   5   6
ENDBRANCH   4   5
ENDBRANCH   3   4
ENDBRANCH   2   3
ENDBRANCH   1   2
BRANCH   1  10
ATOM     10  C   UNL     1       4.659 -10.961  -5.289  1.00  0.00     0.027 C 
BRANCH  10  11
ATOM     11  C   UNL     1       4.369 -12.421  -5.048  1.00  0.00    -0.031 C 
ATOM     12  C   UNL     1       5.276 -13.318  -4.619  1.00  0.00    -0.031 C 
BRANCH  12  13
ATOM     13  C   UNL     1       6.736 -13.017  -4.397  1.00  0.00     0.027 C 
BRANCH  13  14
ATOM     14  C   UNL     1       7.138 -13.317  -2.945  1.00  0.00     0.004 C 
BRANCH  14  15
ATOM     15  C   UNL     1       6.220 -12.631  -1.917  1.00  0.00     0.000 C 
BRANCH  15  16
ATOM     16  C   UNL     1       6.936 -11.675  -0.946  1.00  0.00    -0.000 C 
BRANCH  16  17
ATOM     17  C   UNL     1       8.332 -12.172  -0.540  1.00  0.00    -0.003 C 
ATOM     18  C   UNL     1       9.102 -11.092   0.215  1.00  0.00     0.004 C 
ENDBRANCH  16  17
ENDBRANCH  15  16
ENDBRANCH  14  15
ENDBRANCH  13  14
ENDBRANCH  12  13
ENDBRANCH  10  11
ENDBRANCH   1  10
TORSDOF 13
ENDMDL
MODEL 8
REMARK VINA RESULT:    -4.411      2.796      4.633
REMARK INTER + INTRA:         -10.224
REMARK INTER:                  -8.260
REMARK INTRA:                  -1.964
REMARK UNBOUND:                -2.461
REMARK SMILES CCCCCCC=CCCCCCCCC(=O)[O-]
REMARK SMILES IDX 10 1 11 2 12 3 13 4 14 5 15 6 16 7 17 8 18 9 9 10 8 11 7 12
REMARK SMILES IDX 6 13 5 14 4 15 3 16 2 17 1 18
REMARK H PARENT
REMARK Flexibility Score: inf
ROOT
ATOM      1  C   UNL     1       8.670 -12.643  -0.475  1.00  0.00     0.004 C 
ENDROOT
BRANCH   1   2
ATOM      2  C   UNL     1       8.696 -11.166  -0.066  1.00  0.00     0.000 C 
BRANCH   2   3
ATOM      3  C   UNL     1       7.968 -10.295  -1.098  1.00  0.00     0.000 C 
BRANCH   3   4
ATOM      4  C   UNL     1       6.867  -9.461  -0.434  1.00  0.00     0.000 C 
BRANCH   4   5
ATOM      5  C   UNL     1       6.115  -8.615  -1.473  1.00  0.00     0.006 C 
BRANCH   5   6
ATOM      6  C   UNL     1       4.999  -9.406  -2.168  1.00  0.00     0.053 C 
BRANCH   6   7
ATOM      7  C   UNL     1       4.503  -8.704  -3.394  1.00  0.00     0.041 C 
ATOM      8  O   UNL     1       4.535  -7.447  -3.463  1.00  0.00    -0.550 OA
ATOM      9  O   UNL     1       4.034  -9.440  -4.474  1.00  0.00    -0.550 OA
ENDBRANCH   6   7
ENDBRANCH   5   6
ENDBRANCH   4   5
ENDBRANCH   3   4
ENDBRANCH   2   3
ENDBRANCH   1   2
BRANCH   1  10
ATOM     10  C   UNL     1       7.382 -12.980  -1.234  1.00  0.00     0.027 C 
BRANCH  10  11
ATOM     11  C   UNL     1       7.685 -13.804  -2.460  1.00  0.00    -0.031 C 
ATOM     12  C   UNL     1       7.300 -13.484  -3.709  1.00  0.00    -0.031 C 
BRANCH  12  13
ATOM     13  C   UNL     1       6.435 -12.299  -4.058  1.00  0.00     0.027 C 
BRANCH  13  14
ATOM     14  C   UNL     1       5.179 -12.749  -4.820  1.00  0.00     0.004 C 
BRANCH  14  15
ATOM     15  C   UNL     1       4.193 -13.534  -3.935  1.00  0.00     0.000 C 
BRANCH  15  16
ATOM     16  C   UNL     1       3.838 -12.854  -2.601  1.00  0.00    -0.000 C 
BRANCH  16  17
ATOM     17  C   UNL     1       3.878 -13.821  -1.408  1.00  0.00    -0.003 C 
ATOM     18  C   UNL     1       3.087 -15.093  -1.705  1.00  0.00     0.004 C 
ENDBRANCH  16  17
ENDBRANCH  15  16
ENDBRANCH  14  15
ENDBRANCH  13  14
ENDBRANCH  12  13
ENDBRANCH  10  11
ENDBRANCH   1  10
TORSDOF 13
ENDMDL
MODEL 9
REMARK VINA RESULT:    -4.409      4.132      6.666
REMARK INTER + INTRA:         -10.220
REMARK INTER:                  -8.571
REMARK INTRA:                  -1.649
REMARK UNBOUND:                -2.461
REMARK SMILES CCCCCCC=CCCCCCCCC(=O)[O-]
REMARK SMILES IDX 10 1 11 2 12 3 13 4 14 5 15 6 16 7 17 8 18 9 9 10 8 11 7 12
REMARK SMILES IDX 6 13 5 14 4 15 3 16 2 17 1 18
REMARK H PARENT
REMARK Flexibility Score: inf
ROOT
ATOM      1  C   UNL     1       4.725 -11.038  -5.195  1.00  0.00     0.004 C 
ENDROOT
BRANCH   1   2
ATOM      2  C   UNL     1       4.418 -12.538  -5.134  1.00  0.00     0.000 C 
BRANCH   2   3
ATOM      3  C   UNL     1       5.204 -13.217  -4.006  1.00  0.00     0.000 C 
BRANCH   3   4
ATOM      4  C   UNL     1       6.715 -13.067  -4.220  1.00  0.00     0.000 C 
BRANCH   4   5
ATOM      5  C   UNL     1       7.496 -13.553  -2.990  1.00  0.00     0.006 C 
BRANCH   5   6
ATOM      6  C   UNL     1       6.907 -13.018  -1.679  1.00  0.00     0.053 C 
BRANCH   6   7
ATOM      7  C   UNL     1       7.888 -12.164  -0.937  1.00  0.00     0.041 C 
ATOM      8  O   UNL     1       8.734 -12.692  -0.168  1.00  0.00    -0.550 OA
ATOM      9  O   UNL     1       7.887 -10.788  -1.118  1.00  0.00    -0.550 OA
ENDBRANCH   6   7
ENDBRANCH   5   6
ENDBRANCH   4   5
ENDBRANCH   3   4
ENDBRANCH   2   3
ENDBRANCH   1   2
BRANCH   1  10
ATOM     10  C   UNL     1       4.661 -10.521  -6.636  1.00  0.00     0.027 C 
BRANCH  10  11
ATOM     11  C   UNL     1       4.595  -9.015  -6.661  1.00  0.00    -0.031 C 
ATOM     12  C   UNL     1       3.683  -8.303  -7.349  1.00  0.00    -0.031 C 
BRANCH  12  13
ATOM     13  C   UNL     1       2.645  -8.901  -8.264  1.00  0.00     0.027 C 
BRANCH  13  14
ATOM     14  C   UNL     1       1.255  -8.321  -7.963  1.00  0.00     0.004 C 
BRANCH  14  15
ATOM     15  C   UNL     1       0.339  -9.315  -7.226  1.00  0.00     0.000 C 
BRANCH  15  16
ATOM     16  C   UNL     1       0.701  -9.556  -5.749  1.00  0.00    -0.000 C 
BRANCH  16  17
ATOM     17  C   UNL     1       1.028 -11.026  -5.447  1.00  0.00    -0.003 C 
ATOM     18  C   UNL     1       1.028 -11.863  -6.722  1.00  0.00     0.004 C 
ENDBRANCH  16  17
ENDBRANCH  15  16
ENDBRANCH  14  15
ENDBRANCH  13  14
ENDBRANCH  12  13
ENDBRANCH  10  11
ENDBRANCH   1  10
TORSDOF 13
ENDMDL
