MODEL 1
REMARK VINA RESULT:    14.854      0.000      0.000
REMARK INTER + INTRA:          14.854
REMARK INTER:                  14.854
REMARK INTRA:                   0.000
REMARK UNBOUND:                 0.000
REMARK SMILES C=C1CCC[C@@]2(C)CC(=O)C(=C(C)C)C[C@@H]12
REMARK SMILES IDX 13 1 12 2 11 3 15 4 16 5 2 6 1 7 3 8 4 9 5 10 6 11 8 12 9 13
REMARK SMILES IDX 10 14 7 15 14 16
REMARK H PARENT
REMARK Flexibility Score: inf
ROOT
ATOM      1  C   UNL     1      10.062  13.518  -4.326  1.00  0.00     0.039 C 
ATOM      2  C   UNL     1      11.106  13.502  -3.232  1.00  0.00    -0.070 C 
ATOM      3  C   UNL     1      10.836  13.982  -1.985  1.00  0.00    -0.006 C 
ATOM      4  C   UNL     1      11.858  13.943  -0.867  1.00  0.00     0.047 C 
ATOM      5  C   UNL     1      11.231  13.716   0.533  1.00  0.00     0.025 C 
ATOM      6  C   UNL     1      12.304  13.935   1.588  1.00  0.00    -0.073 C 
ATOM      7  C   UNL     1      12.956  12.891   2.125  1.00  0.00     0.008 C 
ATOM      8  C   UNL     1      12.734  15.352   1.906  1.00  0.00     0.031 C 
ATOM      9  C   UNL     1      11.526  16.279   2.104  1.00  0.00     0.005 C 
ATOM     10  C   UNL     1      10.460  16.109   1.006  1.00  0.00     0.008 C 
ATOM     11  C   UNL     1      10.000  14.631   0.831  1.00  0.00    -0.018 C 
ATOM     12  C   UNL     1       8.962  14.527  -0.318  1.00  0.00     0.088 C 
ATOM     13  C   UNL     1       9.579  14.699  -1.668  1.00  0.00     0.159 C 
ATOM     14  O   UNL     1       9.022  15.450  -2.513  1.00  0.00    -0.295 OA
ATOM     15  C   UNL     1       9.290  14.145   2.123  1.00  0.00     0.012 C 
ATOM     16  C   UNL     1      12.449  12.895  -3.567  1.00  0.00     0.039 C 
ENDROOT
TORSDOF 0
ENDMDL
MODEL 2
REMARK VINA RESULT:    15.447      1.508      2.287
REMARK INTER + INTRA:          15.447
REMARK INTER:                  15.447
REMARK INTRA:                   0.000
REMARK UNBOUND:                 0.000
REMARK SMILES C=C1CCC[C@@]2(C)CC(=O)C(=C(C)C)C[C@@H]12
REMARK SMILES IDX 13 1 12 2 11 3 15 4 16 5 2 6 1 7 3 8 4 9 5 10 6 11 8 12 9 13
REMARK SMILES IDX 10 14 7 15 14 16
REMARK H PARENT
REMARK Flexibility Score: inf
ROOT
ATOM      1  C   UNL     1      11.115  13.697  -4.395  1.00  0.00     0.039 C 
ATOM      2  C   UNL     1      11.263  14.815  -3.388  1.00  0.00    -0.070 C 
ATOM      3  C   UNL     1      10.881  14.657  -2.089  1.00  0.00    -0.006 C 
ATOM      4  C   UNL     1      11.054  15.755  -1.058  1.00  0.00     0.047 C 
ATOM      5  C   UNL     1      11.374  15.221   0.362  1.00  0.00     0.025 C 
ATOM      6  C   UNL     1      11.286  16.375   1.347  1.00  0.00    -0.073 C 
ATOM      7  C   UNL     1      12.396  17.018   1.745  1.00  0.00     0.008 C 
ATOM      8  C   UNL     1       9.919  16.889   1.746  1.00  0.00     0.031 C 
ATOM      9  C   UNL     1       8.967  15.741   2.110  1.00  0.00     0.005 C 
ATOM     10  C   UNL     1       9.003  14.592   1.086  1.00  0.00     0.008 C 
ATOM     11  C   UNL     1      10.442  14.056   0.825  1.00  0.00    -0.018 C 
ATOM     12  C   UNL     1      10.409  12.934  -0.246  1.00  0.00     0.088 C 
ATOM     13  C   UNL     1      10.146  13.459  -1.621  1.00  0.00     0.159 C 
ATOM     14  O   UNL     1       9.306  12.876  -2.357  1.00  0.00    -0.295 OA
ATOM     15  C   UNL     1      11.009  13.420   2.123  1.00  0.00     0.012 C 
ATOM     16  C   UNL     1      11.890  16.102  -3.873  1.00  0.00     0.039 C 
ENDROOT
TORSDOF 0
ENDMDL
MODEL 3
REMARK VINA RESULT:    16.695      1.547      3.862
REMARK INTER + INTRA:          16.695
REMARK INTER:                  16.695
REMARK INTRA:                   0.000
REMARK UNBOUND:                 0.000
REMARK SMILES C=C1CCC[C@@]2(C)CC(=O)C(=C(C)C)C[C@@H]12
REMARK SMILES IDX 13 1 12 2 11 3 15 4 16 5 2 6 1 7 3 8 4 9 5 10 6 11 8 12 9 13
REMARK SMILES IDX 10 14 7 15 14 16
REMARK H PARENT
REMARK Flexibility Score: inf
ROOT
ATOM      1  C   UNL     1       6.187  14.411  -0.354  1.00  0.00     0.039 C 
ATOM      2  C   UNL     1       7.311  14.682   0.619  1.00  0.00    -0.070 C 
ATOM      3  C   UNL     1       8.614  14.467   0.278  1.00  0.00    -0.006 C 
ATOM      4  C   UNL     1       9.756  14.765   1.228  1.00  0.00     0.047 C 
ATOM      5  C   UNL     1      11.038  15.263   0.512  1.00  0.00     0.025 C 
ATOM      6  C   UNL     1      12.177  15.296   1.520  1.00  0.00    -0.073 C 
ATOM      7  C   UNL     1      12.519  16.445   2.125  1.00  0.00     0.008 C 
ATOM      8  C   UNL     1      12.809  13.988   1.947  1.00  0.00     0.031 C 
ATOM      9  C   UNL     1      13.127  13.093   0.742  1.00  0.00     0.005 C 
ATOM     10  C   UNL     1      11.958  13.003  -0.257  1.00  0.00     0.008 C 
ATOM     11  C   UNL     1      11.449  14.400  -0.723  1.00  0.00    -0.018 C 
ATOM     12  C   UNL     1      10.246  14.234  -1.689  1.00  0.00     0.088 C 
ATOM     13  C   UNL     1       9.000  13.800  -0.987  1.00  0.00     0.159 C 
ATOM     14  O   UNL     1       8.301  12.875  -1.481  1.00  0.00    -0.295 OA
ATOM     15  C   UNL     1      12.567  15.127  -1.518  1.00  0.00     0.012 C 
ATOM     16  C   UNL     1       6.935  15.239   1.973  1.00  0.00     0.039 C 
ENDROOT
TORSDOF 0
ENDMDL
MODEL 4
REMARK VINA RESULT:    16.859      2.163      3.834
REMARK INTER + INTRA:          16.859
REMARK INTER:                  16.859
REMARK INTRA:                   0.000
REMARK UNBOUND:                 0.000
REMARK SMILES C=C1CCC[C@@]2(C)CC(=O)C(=C(C)C)C[C@@H]12
REMARK SMILES IDX 13 1 12 2 11 3 15 4 16 5 2 6 1 7 3 8 4 9 5 10 6 11 8 12 9 13
REMARK SMILES IDX 10 14 7 15 14 16
REMARK H PARENT
REMARK Flexibility Score: inf
ROOT
ATOM      1  C   UNL     1      12.194  12.910  -2.173  1.00  0.00     0.039 C 
ATOM      2  C   UNL     1      11.135  13.989  -2.209  1.00  0.00    -0.070 C 
ATOM      3  C   UNL     1      10.797  14.691  -1.091  1.00  0.00    -0.006 C 
ATOM      4  C   UNL     1       9.763  15.799  -1.116  1.00  0.00     0.047 C 
ATOM      5  C   UNL     1      10.076  16.955  -0.131  1.00  0.00     0.025 C 
ATOM      6  C   UNL     1       8.868  17.877  -0.063  1.00  0.00    -0.073 C 
ATOM      7  C   UNL     1       8.830  19.005  -0.790  1.00  0.00     0.008 C 
ATOM      8  C   UNL     1       7.648  17.422   0.710  1.00  0.00     0.031 C 
ATOM      9  C   UNL     1       8.027  16.860   2.086  1.00  0.00     0.005 C 
ATOM     10  C   UNL     1       9.211  15.878   2.022  1.00  0.00     0.008 C 
ATOM     11  C   UNL     1      10.459  16.477   1.306  1.00  0.00    -0.018 C 
ATOM     12  C   UNL     1      11.593  15.421   1.238  1.00  0.00     0.088 C 
ATOM     13  C   UNL     1      11.308  14.333   0.252  1.00  0.00     0.159 C 
ATOM     14  O   UNL     1      11.507  13.133   0.580  1.00  0.00    -0.295 OA
ATOM     15  C   UNL     1      11.009  17.675   2.125  1.00  0.00     0.012 C 
ATOM     16  C   UNL     1      10.497  14.285  -3.547  1.00  0.00     0.039 C 
ENDROOT
TORSDOF 0
ENDMDL
MODEL 5
REMARK VINA RESULT:    17.144      2.106      4.038
REMARK INTER + INTRA:          17.144
REMARK INTER:                  17.144
REMARK INTRA:                   0.000
REMARK UNBOUND:                 0.000
REMARK SMILES C=C1CCC[C@@]2(C)CC(=O)C(=C(C)C)C[C@@H]12
REMARK SMILES IDX 13 1 12 2 11 3 15 4 16 5 2 6 1 7 3 8 4 9 5 10 6 11 8 12 9 13
REMARK SMILES IDX 10 14 7 15 14 16
REMARK H PARENT
REMARK Flexibility Score: inf
ROOT
ATOM      1  C   UNL     1       5.839  14.493   1.627  1.00  0.00     0.039 C 
ATOM      2  C   UNL     1       6.840  14.185   0.538  1.00  0.00    -0.070 C 
ATOM      3  C   UNL     1       8.112  14.675   0.582  1.00  0.00    -0.006 C 
ATOM      4  C   UNL     1       9.139  14.349  -0.484  1.00  0.00     0.047 C 
ATOM      5  C   UNL     1      10.584  14.238   0.068  1.00  0.00     0.025 C 
ATOM      6  C   UNL     1      11.548  14.152  -1.105  1.00  0.00    -0.073 C 
ATOM      7  C   UNL     1      12.014  12.963  -1.518  1.00  0.00     0.008 C 
ATOM      8  C   UNL     1      11.845  15.408  -1.897  1.00  0.00     0.031 C 
ATOM      9  C   UNL     1      12.156  16.596  -0.976  1.00  0.00     0.005 C 
ATOM     10  C   UNL     1      11.150  16.730   0.182  1.00  0.00     0.008 C 
ATOM     11  C   UNL     1      10.996  15.417   1.007  1.00  0.00    -0.018 C 
ATOM     12  C   UNL     1       9.937  15.610   2.125  1.00  0.00     0.088 C 
ATOM     13  C   UNL     1       8.542  15.669   1.593  1.00  0.00     0.159 C 
ATOM     14  O   UNL     1       7.757  16.561   2.011  1.00  0.00    -0.295 OA
ATOM     15  C   UNL     1      12.337  15.078   1.711  1.00  0.00     0.012 C 
ATOM     16  C   UNL     1       6.386  13.277  -0.582  1.00  0.00     0.039 C 
ENDROOT
TORSDOF 0
ENDMDL
MODEL 6
REMARK VINA RESULT:    17.692      2.189      4.817
REMARK INTER + INTRA:          17.692
REMARK INTER:                  17.692
REMARK INTRA:                   0.000
REMARK UNBOUND:                 0.000
REMARK SMILES C=C1CCC[C@@]2(C)CC(=O)C(=C(C)C)C[C@@H]12
REMARK SMILES IDX 13 1 12 2 11 3 15 4 16 5 2 6 1 7 3 8 4 9 5 10 6 11 8 12 9 13
REMARK SMILES IDX 10 14 7 15 14 16
REMARK H PARENT
REMARK Flexibility Score: inf
ROOT
ATOM      1  C   UNL     1       9.964  19.261   1.968  1.00  0.00     0.039 C 
ATOM      2  C   UNL     1       9.577  18.247   0.916  1.00  0.00    -0.070 C 
ATOM      3  C   UNL     1      10.207  17.041   0.825  1.00  0.00    -0.006 C 
ATOM      4  C   UNL     1       9.810  15.999  -0.202  1.00  0.00     0.047 C 
ATOM      5  C   UNL     1       9.965  14.543   0.308  1.00  0.00     0.025 C 
ATOM      6  C   UNL     1       9.776  13.594  -0.865  1.00  0.00    -0.073 C 
ATOM      7  C   UNL     1       8.591  12.998  -1.075  1.00  0.00     0.008 C 
ATOM      8  C   UNL     1      10.892  13.458  -1.880  1.00  0.00     0.031 C 
ATOM      9  C   UNL     1      12.255  13.275  -1.199  1.00  0.00     0.005 C 
ATOM     10  C   UNL     1      12.484  14.272  -0.047  1.00  0.00     0.008 C 
ATOM     11  C   UNL     1      11.334  14.258   1.004  1.00  0.00    -0.018 C 
ATOM     12  C   UNL     1      11.607  15.314   2.108  1.00  0.00     0.088 C 
ATOM     13  C   UNL     1      11.410  16.715   1.625  1.00  0.00     0.159 C 
ATOM     14  O   UNL     1      12.270  17.593   1.904  1.00  0.00    -0.295 OA
ATOM     15  C   UNL     1      11.283  12.876   1.709  1.00  0.00     0.012 C 
ATOM     16  C   UNL     1       8.435  18.609  -0.006  1.00  0.00     0.039 C 
ENDROOT
TORSDOF 0
ENDMDL
