MODEL 1
REMARK VINA RESULT:    -5.993      0.000      0.000
REMARK INTER + INTRA:         -10.503
REMARK INTER:                  -8.971
REMARK INTRA:                  -1.532
REMARK UNBOUND:                -1.532
REMARK SMILES COC(=O)C1=CO[C@@H](O[C@@H]2O[C@@H](CO)[C@@H](O)[C@@H](O)[C@@H]2O)[C@@H]2C(CO)=CC[C@@H]12
REMARK SMILES IDX 9 1 8 2 5 3 6 4 27 5 7 6 21 7 26 8 22 9 25 10 3 11 4 12 2 13
REMARK SMILES IDX 1 14 23 15 24 16 10 18 19 19 11 20 17 21 12 22 15 23 20 24
REMARK SMILES IDX 18 26 13 28 14 29 16 31
REMARK H PARENT 24 17 20 25 18 27 14 30 16 32
REMARK Flexibility Score: inf
ROOT
ATOM      1  O   UNL     1      -5.410   4.533 -19.342  1.00  0.00    -0.310 OA
ENDROOT
BRANCH   1   2
ATOM      2  C   UNL     1      -5.604   5.286 -20.528  1.00  0.00     0.316 C 
ATOM      3  C   UNL     1      -6.583   5.115 -23.285  1.00  0.00     0.076 C 
ATOM      4  C   UNL     1      -7.446   5.092 -22.245  1.00  0.00     0.202 C 
ATOM      5  C   UNL     1      -5.142   5.409 -22.946  1.00  0.00     0.047 C 
ATOM      6  O   UNL     1      -6.991   5.186 -20.909  1.00  0.00    -0.471 OA
ATOM      7  C   UNL     1      -4.769   4.677 -21.661  1.00  0.00     0.094 C 
ATOM      8  C   UNL     1      -4.009   5.031 -23.897  1.00  0.00     0.037 C 
ATOM      9  C   UNL     1      -3.277   4.783 -21.678  1.00  0.00    -0.039 C 
ATOM     10  C   UNL     1      -2.858   4.914 -22.942  1.00  0.00    -0.024 C 
BRANCH   3  11
ATOM     11  C   UNL     1      -7.072   5.062 -24.683  1.00  0.00     0.337 C 
ATOM     12  O   UNL     1      -6.825   4.054 -25.402  1.00  0.00    -0.246 OA
BRANCH  11  13
ATOM     13  O   UNL     1      -7.815   6.125 -25.204  1.00  0.00    -0.466 OA
ATOM     14  C   UNL     1      -9.219   6.048 -25.420  1.00  0.00     0.282 C 
ENDBRANCH  11  13
ENDBRANCH   3  11
BRANCH   9  15
ATOM     15  C   UNL     1      -2.350   4.509 -20.524  1.00  0.00     0.187 C 
BRANCH  15  16
ATOM     16  O   UNL     1      -2.710   3.318 -19.879  1.00  0.00    -0.392 OA
ATOM     17  H   UNL     1      -2.205   2.590 -20.328  1.00  0.00     0.211 HD
ENDBRANCH  15  16
ENDBRANCH   9  15
ENDBRANCH   1   2
BRANCH   1  18
ATOM     18  C   UNL     1      -5.727   5.258 -18.157  1.00  0.00     0.286 C 
ATOM     19  C   UNL     1      -6.887   4.606 -17.363  1.00  0.00     0.202 C 
ATOM     20  O   UNL     1      -4.572   5.360 -17.336  1.00  0.00    -0.341 OA
ATOM     21  C   UNL     1      -6.458   3.229 -16.837  1.00  0.00     0.179 C 
ATOM     22  C   UNL     1      -4.092   4.083 -16.938  1.00  0.00     0.178 C 
ATOM     23  C   UNL     1      -5.134   3.356 -16.056  1.00  0.00     0.177 C 
BRANCH  19  24
ATOM     24  O   UNL     1      -8.037   4.472 -18.155  1.00  0.00    -0.385 OA
ATOM     25  H   UNL     1      -8.809   4.713 -17.580  1.00  0.00     0.211 HD
ENDBRANCH  19  24
BRANCH  21  26
ATOM     26  O   UNL     1      -7.468   2.706 -16.014  1.00  0.00    -0.387 OA
ATOM     27  H   UNL     1      -7.371   3.147 -15.129  1.00  0.00     0.211 HD
ENDBRANCH  21  26
BRANCH  22  28
ATOM     28  C   UNL     1      -2.759   4.273 -16.197  1.00  0.00     0.191 C 
BRANCH  28  29
ATOM     29  O   UNL     1      -1.670   4.021 -17.045  1.00  0.00    -0.394 OA
ATOM     30  H   UNL     1      -1.735   4.671 -17.793  1.00  0.00     0.210 HD
ENDBRANCH  28  29
ENDBRANCH  22  28
BRANCH  23  31
ATOM     31  O   UNL     1      -5.339   4.077 -14.866  1.00  0.00    -0.387 OA
ATOM     32  H   UNL     1      -6.042   4.752 -15.054  1.00  0.00     0.211 HD
ENDBRANCH  23  31
ENDBRANCH   1  18
TORSDOF 11
ENDMDL
MODEL 2
REMARK VINA RESULT:    -5.841      1.936      2.212
REMARK INTER + INTRA:         -10.275
REMARK INTER:                  -9.071
REMARK INTRA:                  -1.204
REMARK UNBOUND:                -1.532
REMARK SMILES COC(=O)C1=CO[C@@H](O[C@@H]2O[C@@H](CO)[C@@H](O)[C@@H](O)[C@@H]2O)[C@@H]2C(CO)=CC[C@@H]12
REMARK SMILES IDX 9 1 8 2 5 3 6 4 27 5 7 6 21 7 26 8 22 9 25 10 3 11 4 12 2 13
REMARK SMILES IDX 1 14 23 15 24 16 10 18 19 19 11 20 17 21 12 22 15 23 20 24
REMARK SMILES IDX 18 26 13 28 14 29 16 31
REMARK H PARENT 24 17 20 25 18 27 14 30 16 32
REMARK Flexibility Score: inf
ROOT
ATOM      1  O   UNL     1      -3.579   4.125 -20.294  1.00  0.00    -0.310 OA
ENDROOT
BRANCH   1   2
ATOM      2  C   UNL     1      -4.151   4.990 -21.261  1.00  0.00     0.316 C 
ATOM      3  C   UNL     1      -5.828   5.046 -23.664  1.00  0.00     0.076 C 
ATOM      4  C   UNL     1      -6.369   4.789 -22.452  1.00  0.00     0.202 C 
ATOM      5  C   UNL     1      -4.380   5.469 -23.668  1.00  0.00     0.047 C 
ATOM      6  O   UNL     1      -5.576   4.771 -21.281  1.00  0.00    -0.471 OA
ATOM      7  C   UNL     1      -3.610   4.633 -22.650  1.00  0.00     0.094 C 
ATOM      8  C   UNL     1      -3.522   5.352 -24.925  1.00  0.00     0.037 C 
ATOM      9  C   UNL     1      -2.194   4.921 -23.036  1.00  0.00    -0.039 C 
ATOM     10  C   UNL     1      -2.148   5.258 -24.329  1.00  0.00    -0.024 C 
BRANCH   3  11
ATOM     11  C   UNL     1      -6.674   5.109 -24.879  1.00  0.00     0.337 C 
ATOM     12  O   UNL     1      -6.543   4.241 -25.786  1.00  0.00    -0.246 OA
BRANCH  11  13
ATOM     13  O   UNL     1      -7.624   6.125 -25.018  1.00  0.00    -0.466 OA
ATOM     14  C   UNL     1      -9.019   5.865 -25.114  1.00  0.00     0.282 C 
ENDBRANCH  11  13
ENDBRANCH   3  11
BRANCH   9  15
ATOM     15  C   UNL     1      -0.967   4.620 -22.216  1.00  0.00     0.187 C 
BRANCH  15  16
ATOM     16  O   UNL     1      -0.508   3.322 -22.481  1.00  0.00    -0.392 OA
ATOM     17  H   UNL     1      -1.080   2.707 -21.950  1.00  0.00     0.211 HD
ENDBRANCH  15  16
ENDBRANCH   9  15
ENDBRANCH   1   2
BRANCH   1  18
ATOM     18  C   UNL     1      -4.359   4.011 -19.108  1.00  0.00     0.286 C 
ATOM     19  C   UNL     1      -4.879   2.568 -18.883  1.00  0.00     0.202 C 
ATOM     20  O   UNL     1      -3.592   4.432 -17.988  1.00  0.00    -0.341 OA
ATOM     21  C   UNL     1      -3.701   1.616 -18.631  1.00  0.00     0.179 C 
ATOM     22  C   UNL     1      -2.431   3.631 -17.813  1.00  0.00     0.178 C 
ATOM     23  C   UNL     1      -2.818   2.167 -17.493  1.00  0.00     0.177 C 
BRANCH  19  24
ATOM     24  O   UNL     1      -5.624   2.117 -19.983  1.00  0.00    -0.385 OA
ATOM     25  H   UNL     1      -6.540   1.930 -19.649  1.00  0.00     0.211 HD
ENDBRANCH  19  24
BRANCH  21  26
ATOM     26  O   UNL     1      -4.190   0.342 -18.302  1.00  0.00    -0.387 OA
ATOM     27  H   UNL     1      -3.475  -0.113 -17.785  1.00  0.00     0.211 HD
ENDBRANCH  21  26
BRANCH  22  28
ATOM     28  C   UNL     1      -1.579   4.247 -16.693  1.00  0.00     0.191 C 
BRANCH  28  29
ATOM     29  O   UNL     1      -2.376   4.630 -15.604  1.00  0.00    -0.394 OA
ATOM     30  H   UNL     1      -1.878   5.342 -15.124  1.00  0.00     0.210 HD
ENDBRANCH  28  29
ENDBRANCH  22  28
BRANCH  23  31
ATOM     31  O   UNL     1      -3.511   2.113 -16.269  1.00  0.00    -0.387 OA
ATOM     32  H   UNL     1      -4.133   1.342 -16.323  1.00  0.00     0.211 HD
ENDBRANCH  23  31
ENDBRANCH   1  18
TORSDOF 11
ENDMDL
MODEL 3
REMARK VINA RESULT:    -5.780      1.991      4.179
REMARK INTER + INTRA:         -10.183
REMARK INTER:                  -8.644
REMARK INTRA:                  -1.539
REMARK UNBOUND:                -1.532
REMARK SMILES COC(=O)C1=CO[C@@H](O[C@@H]2O[C@@H](CO)[C@@H](O)[C@@H](O)[C@@H]2O)[C@@H]2C(CO)=CC[C@@H]12
REMARK SMILES IDX 9 1 8 2 5 3 6 4 27 5 7 6 21 7 26 8 22 9 25 10 3 11 4 12 2 13
REMARK SMILES IDX 1 14 23 15 24 16 10 18 19 19 11 20 17 21 12 22 15 23 20 24
REMARK SMILES IDX 18 26 13 28 14 29 16 31
REMARK H PARENT 24 17 20 25 18 27 14 30 16 32
REMARK Flexibility Score: inf
ROOT
ATOM      1  O   UNL     1      -4.849   4.214 -19.025  1.00  0.00    -0.310 OA
ENDROOT
BRANCH   1   2
ATOM      2  C   UNL     1      -4.513   4.002 -20.386  1.00  0.00     0.316 C 
ATOM      3  C   UNL     1      -2.851   5.009 -22.580  1.00  0.00     0.076 C 
ATOM      4  C   UNL     1      -2.294   4.346 -21.543  1.00  0.00     0.202 C 
ATOM      5  C   UNL     1      -4.359   5.034 -22.619  1.00  0.00     0.047 C 
ATOM      6  O   UNL     1      -3.084   3.842 -20.482  1.00  0.00    -0.471 OA
ATOM      7  C   UNL     1      -4.895   5.240 -21.206  1.00  0.00     0.094 C 
ATOM      8  C   UNL     1      -5.116   6.085 -23.428  1.00  0.00     0.037 C 
ATOM      9  C   UNL     1      -6.324   5.591 -21.475  1.00  0.00    -0.039 C 
ATOM     10  C   UNL     1      -6.425   6.125 -22.697  1.00  0.00    -0.024 C 
BRANCH   3  11
ATOM     11  C   UNL     1      -2.022   5.492 -23.709  1.00  0.00     0.337 C 
ATOM     12  O   UNL     1      -0.890   6.005 -23.488  1.00  0.00    -0.246 OA
BRANCH  11  13
ATOM     13  O   UNL     1      -2.490   5.374 -25.021  1.00  0.00    -0.466 OA
ATOM     14  C   UNL     1      -1.625   5.392 -26.150  1.00  0.00     0.282 C 
ENDBRANCH  11  13
ENDBRANCH   3  11
BRANCH   9  15
ATOM     15  C   UNL     1      -7.441   5.618 -20.466  1.00  0.00     0.187 C 
BRANCH  15  16
ATOM     16  O   UNL     1      -7.757   4.317 -20.050  1.00  0.00    -0.392 OA
ATOM     17  H   UNL     1      -8.472   4.406 -19.367  1.00  0.00     0.211 HD
ENDBRANCH  15  16
ENDBRANCH   9  15
ENDBRANCH   1   2
BRANCH   1  18
ATOM     18  C   UNL     1      -5.088   3.007 -18.309  1.00  0.00     0.286 C 
ATOM     19  C   UNL     1      -3.993   2.727 -17.248  1.00  0.00     0.202 C 
ATOM     20  O   UNL     1      -6.364   3.064 -17.687  1.00  0.00    -0.341 OA
ATOM     21  C   UNL     1      -4.028   3.804 -16.156  1.00  0.00     0.179 C 
ATOM     22  C   UNL     1      -6.451   4.135 -16.757  1.00  0.00     0.178 C 
ATOM     23  C   UNL     1      -5.457   3.928 -15.589  1.00  0.00     0.177 C 
BRANCH  19  24
ATOM     24  O   UNL     1      -2.717   2.685 -17.830  1.00  0.00    -0.385 OA
ATOM     25  H   UNL     1      -2.433   1.734 -17.827  1.00  0.00     0.211 HD
ENDBRANCH  19  24
BRANCH  21  26
ATOM     26  O   UNL     1      -3.122   3.470 -15.138  1.00  0.00    -0.387 OA
ATOM     27  H   UNL     1      -2.713   2.602 -15.394  1.00  0.00     0.211 HD
ENDBRANCH  21  26
BRANCH  22  28
ATOM     28  C   UNL     1      -7.900   4.228 -16.255  1.00  0.00     0.191 C 
BRANCH  28  29
ATOM     29  O   UNL     1      -8.792   4.424 -17.320  1.00  0.00    -0.394 OA
ATOM     30  H   UNL     1      -9.153   5.344 -17.224  1.00  0.00     0.210 HD
ENDBRANCH  28  29
ENDBRANCH  22  28
BRANCH  23  31
ATOM     31  O   UNL     1      -5.798   2.767 -14.872  1.00  0.00    -0.387 OA
ATOM     32  H   UNL     1      -5.167   2.703 -14.109  1.00  0.00     0.211 HD
ENDBRANCH  23  31
ENDBRANCH   1  18
TORSDOF 11
ENDMDL
MODEL 4
REMARK VINA RESULT:    -5.678      1.351      2.006
REMARK INTER + INTRA:         -10.031
REMARK INTER:                  -8.570
REMARK INTRA:                  -1.461
REMARK UNBOUND:                -1.532
REMARK SMILES COC(=O)C1=CO[C@@H](O[C@@H]2O[C@@H](CO)[C@@H](O)[C@@H](O)[C@@H]2O)[C@@H]2C(CO)=CC[C@@H]12
REMARK SMILES IDX 9 1 8 2 5 3 6 4 27 5 7 6 21 7 26 8 22 9 25 10 3 11 4 12 2 13
REMARK SMILES IDX 1 14 23 15 24 16 10 18 19 19 11 20 17 21 12 22 15 23 20 24
REMARK SMILES IDX 18 26 13 28 14 29 16 31
REMARK H PARENT 24 17 20 25 18 27 14 30 16 32
REMARK Flexibility Score: inf
ROOT
ATOM      1  O   UNL     1      -5.762   4.062 -19.508  1.00  0.00    -0.310 OA
ENDROOT
BRANCH   1   2
ATOM      2  C   UNL     1      -5.975   4.926 -20.612  1.00  0.00     0.316 C 
ATOM      3  C   UNL     1      -6.823   4.989 -23.417  1.00  0.00     0.076 C 
ATOM      4  C   UNL     1      -7.721   4.773 -22.430  1.00  0.00     0.202 C 
ATOM      5  C   UNL     1      -5.430   5.366 -22.975  1.00  0.00     0.047 C 
ATOM      6  O   UNL     1      -7.331   4.752 -21.070  1.00  0.00    -0.471 OA
ATOM      7  C   UNL     1      -5.043   4.526 -21.762  1.00  0.00     0.094 C 
ATOM      8  C   UNL     1      -4.230   5.198 -23.903  1.00  0.00     0.037 C 
ATOM      9  C   UNL     1      -3.568   4.761 -21.692  1.00  0.00    -0.039 C 
ATOM     10  C   UNL     1      -3.113   5.072 -22.910  1.00  0.00    -0.024 C 
BRANCH   3  11
ATOM     11  C   UNL     1      -7.249   5.055 -24.834  1.00  0.00     0.337 C 
ATOM     12  O   UNL     1      -6.912   4.142 -25.639  1.00  0.00    -0.246 OA
BRANCH  11  13
ATOM     13  O   UNL     1      -8.031   6.125 -25.281  1.00  0.00    -0.466 OA
ATOM     14  C   UNL     1      -9.436   6.021 -25.472  1.00  0.00     0.282 C 
ENDBRANCH  11  13
ENDBRANCH   3  11
BRANCH   9  15
ATOM     15  C   UNL     1      -2.667   4.437 -20.530  1.00  0.00     0.187 C 
BRANCH  15  16
ATOM     16  O   UNL     1      -2.942   3.153 -20.041  1.00  0.00    -0.392 OA
ATOM     17  H   UNL     1      -3.004   2.557 -20.832  1.00  0.00     0.211 HD
ENDBRANCH  15  16
ENDBRANCH   9  15
ENDBRANCH   1   2
BRANCH   1  18
ATOM     18  C   UNL     1      -6.962   3.715 -18.825  1.00  0.00     0.286 C 
ATOM     19  C   UNL     1      -7.235   2.189 -18.857  1.00  0.00     0.202 C 
ATOM     20  O   UNL     1      -6.896   4.169 -17.480  1.00  0.00    -0.341 OA
ATOM     21  C   UNL     1      -6.147   1.441 -18.074  1.00  0.00     0.179 C 
ATOM     22  C   UNL     1      -5.816   3.573 -16.774  1.00  0.00     0.178 C 
ATOM     23  C   UNL     1      -6.014   2.043 -16.660  1.00  0.00     0.177 C 
BRANCH  19  24
ATOM     24  O   UNL     1      -7.285   1.707 -20.173  1.00  0.00    -0.385 OA
ATOM     25  H   UNL     1      -6.807   0.837 -20.176  1.00  0.00     0.211 HD
ENDBRANCH  19  24
BRANCH  21  26
ATOM     26  O   UNL     1      -6.474   0.078 -18.001  1.00  0.00    -0.387 OA
ATOM     27  H   UNL     1      -5.713  -0.419 -18.402  1.00  0.00     0.211 HD
ENDBRANCH  21  26
BRANCH  22  28
ATOM     28  C   UNL     1      -5.714   4.234 -15.391  1.00  0.00     0.191 C 
BRANCH  28  29
ATOM     29  O   UNL     1      -6.968   4.685 -14.953  1.00  0.00    -0.394 OA
ATOM     30  H   UNL     1      -7.596   3.923 -15.056  1.00  0.00     0.210 HD
ENDBRANCH  28  29
ENDBRANCH  22  28
BRANCH  23  31
ATOM     31  O   UNL     1      -7.167   1.766 -15.903  1.00  0.00    -0.387 OA
ATOM     32  H   UNL     1      -7.696   2.605 -15.863  1.00  0.00     0.211 HD
ENDBRANCH  23  31
ENDBRANCH   1  18
TORSDOF 11
ENDMDL
MODEL 5
REMARK VINA RESULT:    -5.619      2.284      7.435
REMARK INTER + INTRA:          -9.942
REMARK INTER:                  -8.630
REMARK INTRA:                  -1.312
REMARK UNBOUND:                -1.532
REMARK SMILES COC(=O)C1=CO[C@@H](O[C@@H]2O[C@@H](CO)[C@@H](O)[C@@H](O)[C@@H]2O)[C@@H]2C(CO)=CC[C@@H]12
REMARK SMILES IDX 9 1 8 2 5 3 6 4 27 5 7 6 21 7 26 8 22 9 25 10 3 11 4 12 2 13
REMARK SMILES IDX 1 14 23 15 24 16 10 18 19 19 11 20 17 21 12 22 15 23 20 24
REMARK SMILES IDX 18 26 13 28 14 29 16 31
REMARK H PARENT 24 17 20 25 18 27 14 30 16 32
REMARK Flexibility Score: inf
ROOT
ATOM      1  O   UNL     1      -6.070   4.010 -21.249  1.00  0.00    -0.310 OA
ENDROOT
BRANCH   1   2
ATOM      2  C   UNL     1      -5.780   4.047 -19.862  1.00  0.00     0.316 C 
ATOM      3  C   UNL     1      -3.584   4.119 -17.922  1.00  0.00     0.076 C 
ATOM      4  C   UNL     1      -3.877   5.206 -18.672  1.00  0.00     0.202 C 
ATOM      5  C   UNL     1      -4.550   2.965 -18.020  1.00  0.00     0.047 C 
ATOM      6  O   UNL     1      -4.942   5.191 -19.603  1.00  0.00    -0.471 OA
ATOM      7  C   UNL     1      -4.985   2.795 -19.472  1.00  0.00     0.094 C 
ATOM      8  C   UNL     1      -4.140   1.550 -17.618  1.00  0.00     0.037 C 
ATOM      9  C   UNL     1      -5.622   1.442 -19.439  1.00  0.00    -0.039 C 
ATOM     10  C   UNL     1      -5.093   0.730 -18.437  1.00  0.00    -0.024 C 
BRANCH   3  11
ATOM     11  C   UNL     1      -2.496   4.158 -16.917  1.00  0.00     0.337 C 
ATOM     12  O   UNL     1      -1.322   3.829 -17.242  1.00  0.00    -0.246 OA
BRANCH  11  13
ATOM     13  O   UNL     1      -2.768   4.568 -15.608  1.00  0.00    -0.466 OA
ATOM     14  C   UNL     1      -3.356   3.708 -14.640  1.00  0.00     0.282 C 
ENDBRANCH  11  13
ENDBRANCH   3  11
BRANCH   9  15
ATOM     15  C   UNL     1      -6.503   0.844 -20.502  1.00  0.00     0.187 C 
BRANCH  15  16
ATOM     16  O   UNL     1      -6.619  -0.541 -20.320  1.00  0.00    -0.392 OA
ATOM     17  H   UNL     1      -5.695  -0.904 -20.324  1.00  0.00     0.211 HD
ENDBRANCH  15  16
ENDBRANCH   9  15
ENDBRANCH   1   2
BRANCH   1  18
ATOM     18  C   UNL     1      -6.194   5.302 -21.833  1.00  0.00     0.286 C 
ATOM     19  C   UNL     1      -5.110   5.566 -22.909  1.00  0.00     0.202 C 
ATOM     20  O   UNL     1      -7.488   5.449 -22.401  1.00  0.00    -0.341 OA
ATOM     21  C   UNL     1      -5.303   4.615 -24.098  1.00  0.00     0.179 C 
ATOM     22  C   UNL     1      -7.727   4.494 -23.426  1.00  0.00     0.178 C 
ATOM     23  C   UNL     1      -6.755   4.707 -24.611  1.00  0.00     0.177 C 
BRANCH  19  24
ATOM     24  O   UNL     1      -3.819   5.408 -22.383  1.00  0.00    -0.385 OA
ATOM     25  H   UNL     1      -3.192   5.807 -23.041  1.00  0.00     0.211 HD
ENDBRANCH  19  24
BRANCH  21  26
ATOM     26  O   UNL     1      -4.398   4.949 -25.118  1.00  0.00    -0.387 OA
ATOM     27  H   UNL     1      -4.908   4.925 -25.970  1.00  0.00     0.211 HD
ENDBRANCH  21  26
BRANCH  22  28
ATOM     28  C   UNL     1      -9.193   4.612 -23.870  1.00  0.00     0.191 C 
BRANCH  28  29
ATOM     29  O   UNL     1      -9.343   4.248 -25.217  1.00  0.00    -0.394 OA
ATOM     30  H   UNL     1      -9.008   5.010 -25.757  1.00  0.00     0.210 HD
ENDBRANCH  28  29
ENDBRANCH  22  28
BRANCH  23  31
ATOM     31  O   UNL     1      -6.985   5.965 -25.197  1.00  0.00    -0.387 OA
ATOM     32  H   UNL     1      -7.121   5.812 -26.168  1.00  0.00     0.211 HD
ENDBRANCH  23  31
ENDBRANCH   1  18
TORSDOF 11
ENDMDL
MODEL 6
REMARK VINA RESULT:    -5.583      1.918      7.630
REMARK INTER + INTRA:          -9.889
REMARK INTER:                  -8.159
REMARK INTRA:                  -1.730
REMARK UNBOUND:                -1.532
REMARK SMILES COC(=O)C1=CO[C@@H](O[C@@H]2O[C@@H](CO)[C@@H](O)[C@@H](O)[C@@H]2O)[C@@H]2C(CO)=CC[C@@H]12
REMARK SMILES IDX 9 1 8 2 5 3 6 4 27 5 7 6 21 7 26 8 22 9 25 10 3 11 4 12 2 13
REMARK SMILES IDX 1 14 23 15 24 16 10 18 19 19 11 20 17 21 12 22 15 23 20 24
REMARK SMILES IDX 18 26 13 28 14 29 16 31
REMARK H PARENT 24 17 20 25 18 27 14 30 16 32
REMARK Flexibility Score: inf
ROOT
ATOM      1  O   UNL     1      -5.857   4.609 -21.581  1.00  0.00    -0.310 OA
ENDROOT
BRANCH   1   2
ATOM      2  C   UNL     1      -5.442   4.901 -20.257  1.00  0.00     0.316 C 
ATOM      3  C   UNL     1      -3.596   4.073 -18.137  1.00  0.00     0.076 C 
ATOM      4  C   UNL     1      -3.139   4.707 -19.239  1.00  0.00     0.202 C 
ATOM      5  C   UNL     1      -5.096   3.987 -17.994  1.00  0.00     0.047 C 
ATOM      6  O   UNL     1      -4.018   5.125 -20.266  1.00  0.00    -0.471 OA
ATOM      7  C   UNL     1      -5.714   3.690 -19.357  1.00  0.00     0.094 C 
ATOM      8  C   UNL     1      -5.750   2.947 -17.088  1.00  0.00     0.037 C 
ATOM      9  C   UNL     1      -7.105   3.295 -18.976  1.00  0.00    -0.039 C 
ATOM     10  C   UNL     1      -7.101   2.818 -17.726  1.00  0.00    -0.024 C 
BRANCH   3  11
ATOM     11  C   UNL     1      -2.674   3.680 -17.046  1.00  0.00     0.337 C 
ATOM     12  O   UNL     1      -1.903   2.691 -17.194  1.00  0.00    -0.246 OA
BRANCH  11  13
ATOM     13  O   UNL     1      -2.651   4.409 -15.853  1.00  0.00    -0.466 OA
ATOM     14  C   UNL     1      -3.208   3.916 -14.641  1.00  0.00     0.282 C 
ENDBRANCH  11  13
ENDBRANCH   3  11
BRANCH   9  15
ATOM     15  C   UNL     1      -8.284   3.172 -19.904  1.00  0.00     0.187 C 
BRANCH  15  16
ATOM     16  O   UNL     1      -8.741   4.442 -20.285  1.00  0.00    -0.392 OA
ATOM     17  H   UNL     1      -9.318   4.767 -19.546  1.00  0.00     0.211 HD
ENDBRANCH  15  16
ENDBRANCH   9  15
ENDBRANCH   1   2
BRANCH   1  18
ATOM     18  C   UNL     1      -6.170   5.771 -22.343  1.00  0.00     0.286 C 
ATOM     19  C   UNL     1      -5.235   5.939 -23.567  1.00  0.00     0.202 C 
ATOM     20  O   UNL     1      -7.524   5.714 -22.769  1.00  0.00    -0.341 OA
ATOM     21  C   UNL     1      -5.454   4.790 -24.561  1.00  0.00     0.179 C 
ATOM     22  C   UNL     1      -7.770   4.584 -23.595  1.00  0.00     0.178 C 
ATOM     23  C   UNL     1      -6.953   4.675 -24.905  1.00  0.00     0.177 C 
BRANCH  19  24
ATOM     24  O   UNL     1      -3.887   5.978 -23.179  1.00  0.00    -0.385 OA
ATOM     25  H   UNL     1      -3.575   5.036 -23.141  1.00  0.00     0.211 HD
ENDBRANCH  19  24
BRANCH  21  26
ATOM     26  O   UNL     1      -4.698   5.021 -25.720  1.00  0.00    -0.387 OA
ATOM     27  H   UNL     1      -3.788   4.663 -25.544  1.00  0.00     0.211 HD
ENDBRANCH  21  26
BRANCH  22  28
ATOM     28  C   UNL     1      -9.279   4.504 -23.875  1.00  0.00     0.191 C 
BRANCH  28  29
ATOM     29  O   UNL     1      -9.528   4.207 -25.224  1.00  0.00    -0.394 OA
ATOM     30  H   UNL     1     -10.059   4.963 -25.588  1.00  0.00     0.210 HD
ENDBRANCH  28  29
ENDBRANCH  22  28
BRANCH  23  31
ATOM     31  O   UNL     1      -7.368   5.794 -25.650  1.00  0.00    -0.387 OA
ATOM     32  H   UNL     1      -6.565   6.359 -25.794  1.00  0.00     0.211 HD
ENDBRANCH  23  31
ENDBRANCH   1  18
TORSDOF 11
ENDMDL
MODEL 7
REMARK VINA RESULT:    -5.549      1.875      6.701
REMARK INTER + INTRA:          -9.837
REMARK INTER:                  -8.126
REMARK INTRA:                  -1.711
REMARK UNBOUND:                -1.532
REMARK SMILES COC(=O)C1=CO[C@@H](O[C@@H]2O[C@@H](CO)[C@@H](O)[C@@H](O)[C@@H]2O)[C@@H]2C(CO)=CC[C@@H]12
REMARK SMILES IDX 9 1 8 2 5 3 6 4 27 5 7 6 21 7 26 8 22 9 25 10 3 11 4 12 2 13
REMARK SMILES IDX 1 14 23 15 24 16 10 18 19 19 11 20 17 21 12 22 15 23 20 24
REMARK SMILES IDX 18 26 13 28 14 29 16 31
REMARK H PARENT 24 17 20 25 18 27 14 30 16 32
REMARK Flexibility Score: inf
ROOT
ATOM      1  O   UNL     1      -7.019   4.613 -21.452  1.00  0.00    -0.310 OA
ENDROOT
BRANCH   1   2
ATOM      2  C   UNL     1      -5.993   3.805 -20.899  1.00  0.00     0.316 C 
ATOM      3  C   UNL     1      -4.110   3.603 -18.662  1.00  0.00     0.076 C 
ATOM      4  C   UNL     1      -5.432   3.397 -18.471  1.00  0.00     0.202 C 
ATOM      5  C   UNL     1      -3.663   3.760 -20.094  1.00  0.00     0.047 C 
ATOM      6  O   UNL     1      -6.353   3.478 -19.542  1.00  0.00    -0.471 OA
ATOM      7  C   UNL     1      -4.685   4.604 -20.850  1.00  0.00     0.094 C 
ATOM      8  C   UNL     1      -2.338   4.432 -20.444  1.00  0.00     0.037 C 
ATOM      9  C   UNL     1      -3.929   4.946 -22.095  1.00  0.00    -0.039 C 
ATOM     10  C   UNL     1      -2.617   4.912 -21.838  1.00  0.00    -0.024 C 
BRANCH   3  11
ATOM     11  C   UNL     1      -3.148   3.470 -17.543  1.00  0.00     0.337 C 
ATOM     12  O   UNL     1      -2.328   2.511 -17.524  1.00  0.00    -0.246 OA
BRANCH  11  13
ATOM     13  O   UNL     1      -3.143   4.412 -16.510  1.00  0.00    -0.466 OA
ATOM     14  C   UNL     1      -3.130   4.046 -15.136  1.00  0.00     0.282 C 
ENDBRANCH  11  13
ENDBRANCH   3  11
BRANCH   9  15
ATOM     15  C   UNL     1      -4.509   5.514 -23.362  1.00  0.00     0.187 C 
BRANCH  15  16
ATOM     16  O   UNL     1      -5.161   4.513 -24.095  1.00  0.00    -0.392 OA
ATOM     17  H   UNL     1      -6.098   4.488 -23.767  1.00  0.00     0.211 HD
ENDBRANCH  15  16
ENDBRANCH   9  15
ENDBRANCH   1   2
BRANCH   1  18
ATOM     18  C   UNL     1      -8.090   3.859 -22.010  1.00  0.00     0.286 C 
ATOM     19  C   UNL     1      -9.452   4.196 -21.352  1.00  0.00     0.202 C 
ATOM     20  O   UNL     1      -8.157   4.088 -23.411  1.00  0.00    -0.341 OA
ATOM     21  C   UNL     1      -9.840   5.650 -21.656  1.00  0.00     0.179 C 
ATOM     22  C   UNL     1      -8.398   5.456 -23.711  1.00  0.00     0.178 C 
ATOM     23  C   UNL     1      -9.780   5.899 -23.177  1.00  0.00     0.177 C 
BRANCH  19  24
ATOM     24  O   UNL     1      -9.410   4.000 -19.963  1.00  0.00    -0.385 OA
ATOM     25  H   UNL     1     -10.341   4.104 -19.633  1.00  0.00     0.211 HD
ENDBRANCH  19  24
BRANCH  21  26
ATOM     26  O   UNL     1     -11.130   5.904 -21.165  1.00  0.00    -0.387 OA
ATOM     27  H   UNL     1     -11.709   6.064 -21.956  1.00  0.00     0.211 HD
ENDBRANCH  21  26
BRANCH  22  28
ATOM     28  C   UNL     1      -8.292   5.647 -25.232  1.00  0.00     0.191 C 
BRANCH  28  29
ATOM     29  O   UNL     1      -7.659   4.550 -25.836  1.00  0.00    -0.394 OA
ATOM     30  H   UNL     1      -7.489   3.888 -25.116  1.00  0.00     0.210 HD
ENDBRANCH  28  29
ENDBRANCH  22  28
BRANCH  23  31
ATOM     31  O   UNL     1     -10.798   5.178 -23.828  1.00  0.00    -0.387 OA
ATOM     32  H   UNL     1     -10.582   5.185 -24.797  1.00  0.00     0.211 HD
ENDBRANCH  23  31
ENDBRANCH   1  18
TORSDOF 11
ENDMDL
MODEL 8
REMARK VINA RESULT:    -5.548      1.743      6.930
REMARK INTER + INTRA:          -9.836
REMARK INTER:                  -8.709
REMARK INTRA:                  -1.128
REMARK UNBOUND:                -1.532
REMARK SMILES COC(=O)C1=CO[C@@H](O[C@@H]2O[C@@H](CO)[C@@H](O)[C@@H](O)[C@@H]2O)[C@@H]2C(CO)=CC[C@@H]12
REMARK SMILES IDX 9 1 8 2 5 3 6 4 27 5 7 6 21 7 26 8 22 9 25 10 3 11 4 12 2 13
REMARK SMILES IDX 1 14 23 15 24 16 10 18 19 19 11 20 17 21 12 22 15 23 20 24
REMARK SMILES IDX 18 26 13 28 14 29 16 31
REMARK H PARENT 24 17 20 25 18 27 14 30 16 32
REMARK Flexibility Score: inf
ROOT
ATOM      1  O   UNL     1      -6.571   4.498 -21.768  1.00  0.00    -0.310 OA
ENDROOT
BRANCH   1   2
ATOM      2  C   UNL     1      -6.137   3.862 -20.577  1.00  0.00     0.316 C 
ATOM      3  C   UNL     1      -5.753   4.272 -17.701  1.00  0.00     0.076 C 
ATOM      4  C   UNL     1      -6.996   4.158 -18.221  1.00  0.00     0.202 C 
ATOM      5  C   UNL     1      -4.610   4.001 -18.648  1.00  0.00     0.047 C 
ATOM      6  O   UNL     1      -7.198   3.947 -19.605  1.00  0.00    -0.471 OA
ATOM      7  C   UNL     1      -4.928   4.614 -20.008  1.00  0.00     0.094 C 
ATOM      8  C   UNL     1      -3.202   4.517 -18.361  1.00  0.00     0.037 C 
ATOM      9  C   UNL     1      -3.592   4.567 -20.678  1.00  0.00    -0.039 C 
ATOM     10  C   UNL     1      -2.631   4.581 -19.747  1.00  0.00    -0.024 C 
BRANCH   3  11
ATOM     11  C   UNL     1      -5.549   4.447 -16.244  1.00  0.00     0.337 C 
ATOM     12  O   UNL     1      -6.537   4.667 -15.489  1.00  0.00    -0.246 OA
BRANCH  11  13
ATOM     13  O   UNL     1      -4.264   4.360 -15.702  1.00  0.00    -0.466 OA
ATOM     14  C   UNL     1      -3.972   3.605 -14.533  1.00  0.00     0.282 C 
ENDBRANCH  11  13
ENDBRANCH   3  11
BRANCH   9  15
ATOM     15  C   UNL     1      -3.322   4.759 -22.146  1.00  0.00     0.187 C 
BRANCH  15  16
ATOM     16  O   UNL     1      -4.095   5.814 -22.652  1.00  0.00    -0.392 OA
ATOM     17  H   UNL     1      -4.668   5.427 -23.365  1.00  0.00     0.211 HD
ENDBRANCH  15  16
ENDBRANCH   9  15
ENDBRANCH   1   2
BRANCH   1  18
ATOM     18  C   UNL     1      -7.255   3.622 -22.658  1.00  0.00     0.286 C 
ATOM     19  C   UNL     1      -8.769   3.943 -22.750  1.00  0.00     0.202 C 
ATOM     20  O   UNL     1      -6.664   3.691 -23.948  1.00  0.00    -0.341 OA
ATOM     21  C   UNL     1      -8.977   5.328 -23.380  1.00  0.00     0.179 C 
ATOM     22  C   UNL     1      -6.743   5.000 -24.495  1.00  0.00     0.178 C 
ATOM     23  C   UNL     1      -8.217   5.412 -24.720  1.00  0.00     0.177 C 
BRANCH  19  24
ATOM     24  O   UNL     1      -9.377   3.903 -21.487  1.00  0.00    -0.385 OA
ATOM     25  H   UNL     1      -9.365   2.954 -21.195  1.00  0.00     0.211 HD
ENDBRANCH  19  24
BRANCH  21  26
ATOM     26  O   UNL     1     -10.348   5.553 -23.576  1.00  0.00    -0.387 OA
ATOM     27  H   UNL     1     -10.725   5.805 -22.693  1.00  0.00     0.211 HD
ENDBRANCH  21  26
BRANCH  22  28
ATOM     28  C   UNL     1      -5.942   5.029 -25.806  1.00  0.00     0.191 C 
BRANCH  28  29
ATOM     29  O   UNL     1      -4.564   5.095 -25.555  1.00  0.00    -0.394 OA
ATOM     30  H   UNL     1      -4.122   4.531 -26.242  1.00  0.00     0.210 HD
ENDBRANCH  28  29
ENDBRANCH  22  28
BRANCH  23  31
ATOM     31  O   UNL     1      -8.811   4.561 -25.670  1.00  0.00    -0.387 OA
ATOM     32  H   UNL     1      -8.113   4.345 -26.341  1.00  0.00     0.211 HD
ENDBRANCH  23  31
ENDBRANCH   1  18
TORSDOF 11
ENDMDL
MODEL 9
REMARK VINA RESULT:    -5.541      1.958      3.077
REMARK INTER + INTRA:          -9.826
REMARK INTER:                  -8.140
REMARK INTRA:                  -1.686
REMARK UNBOUND:                -1.532
REMARK SMILES COC(=O)C1=CO[C@@H](O[C@@H]2O[C@@H](CO)[C@@H](O)[C@@H](O)[C@@H]2O)[C@@H]2C(CO)=CC[C@@H]12
REMARK SMILES IDX 9 1 8 2 5 3 6 4 27 5 7 6 21 7 26 8 22 9 25 10 3 11 4 12 2 13
REMARK SMILES IDX 1 14 23 15 24 16 10 18 19 19 11 20 17 21 12 22 15 23 20 24
REMARK SMILES IDX 18 26 13 28 14 29 16 31
REMARK H PARENT 24 17 20 25 18 27 14 30 16 32
REMARK Flexibility Score: inf
ROOT
ATOM      1  O   UNL     1      -6.243   4.445 -21.323  1.00  0.00    -0.310 OA
ENDROOT
BRANCH   1   2
ATOM      2  C   UNL     1      -7.061   5.137 -22.252  1.00  0.00     0.316 C 
ATOM      3  C   UNL     1      -9.213   4.780 -24.209  1.00  0.00     0.076 C 
ATOM      4  C   UNL     1      -9.466   4.694 -22.883  1.00  0.00     0.202 C 
ATOM      5  C   UNL     1      -7.828   5.238 -24.592  1.00  0.00     0.047 C 
ATOM      6  O   UNL     1      -8.441   4.876 -21.926  1.00  0.00    -0.471 OA
ATOM      7  C   UNL     1      -6.808   4.589 -23.662  1.00  0.00     0.094 C 
ATOM      8  C   UNL     1      -7.254   4.958 -25.978  1.00  0.00     0.037 C 
ATOM      9  C   UNL     1      -5.528   4.856 -24.387  1.00  0.00    -0.039 C 
ATOM     10  C   UNL     1      -5.781   4.994 -25.693  1.00  0.00    -0.024 C 
BRANCH   3  11
ATOM     11  C   UNL     1     -10.302   4.633 -25.203  1.00  0.00     0.337 C 
ATOM     12  O   UNL     1     -10.563   5.578 -25.999  1.00  0.00    -0.246 OA
BRANCH  11  13
ATOM     13  O   UNL     1     -11.036   3.445 -25.266  1.00  0.00    -0.466 OA
ATOM     14  C   UNL     1     -12.186   3.296 -26.089  1.00  0.00     0.282 C 
ENDBRANCH  11  13
ENDBRANCH   3  11
BRANCH   9  15
ATOM     15  C   UNL     1      -4.138   4.718 -23.825  1.00  0.00     0.187 C 
BRANCH  15  16
ATOM     16  O   UNL     1      -3.857   5.776 -22.949  1.00  0.00    -0.392 OA
ATOM     17  H   UNL     1      -2.888   5.720 -22.741  1.00  0.00     0.211 HD
ENDBRANCH  15  16
ENDBRANCH   9  15
ENDBRANCH   1   2
BRANCH   1  18
ATOM     18  C   UNL     1      -5.939   5.210 -20.161  1.00  0.00     0.286 C 
ATOM     19  C   UNL     1      -6.554   4.597 -18.877  1.00  0.00     0.202 C 
ATOM     20  O   UNL     1      -4.530   5.324 -20.018  1.00  0.00    -0.341 OA
ATOM     21  C   UNL     1      -5.916   3.232 -18.585  1.00  0.00     0.179 C 
ATOM     22  C   UNL     1      -3.910   4.055 -19.866  1.00  0.00     0.178 C 
ATOM     23  C   UNL     1      -4.380   3.368 -18.562  1.00  0.00     0.177 C 
BRANCH  19  24
ATOM     24  O   UNL     1      -7.945   4.452 -18.996  1.00  0.00    -0.385 OA
ATOM     25  H   UNL     1      -8.347   4.913 -18.213  1.00  0.00     0.211 HD
ENDBRANCH  19  24
BRANCH  21  26
ATOM     26  O   UNL     1      -6.386   2.748 -17.354  1.00  0.00    -0.387 OA
ATOM     27  H   UNL     1      -7.352   2.977 -17.308  1.00  0.00     0.211 HD
ENDBRANCH  21  26
BRANCH  22  28
ATOM     28  C   UNL     1      -2.386   4.251 -19.884  1.00  0.00     0.191 C 
BRANCH  28  29
ATOM     29  O   UNL     1      -1.893   4.250 -21.197  1.00  0.00    -0.394 OA
ATOM     30  H   UNL     1      -1.130   4.885 -21.215  1.00  0.00     0.210 HD
ENDBRANCH  28  29
ENDBRANCH  22  28
BRANCH  23  31
ATOM     31  O   UNL     1      -3.975   4.129 -17.449  1.00  0.00    -0.387 OA
ATOM     32  H   UNL     1      -4.623   3.943 -16.721  1.00  0.00     0.211 HD
ENDBRANCH  23  31
ENDBRANCH   1  18
TORSDOF 11
ENDMDL
