MODEL 1
REMARK VINA RESULT:    -3.201      0.000      0.000
REMARK INTER + INTRA:          -5.785
REMARK INTER:                  -4.886
REMARK INTRA:                  -0.900
REMARK UNBOUND:                -0.900
REMARK SMILES CCCCCCCCCCC(=O)[O-]
REMARK SMILES IDX 7 1 8 2 9 3 10 4 11 5 12 6 13 7 6 8 5 9 4 10 3 11 2 12 1 13
REMARK H PARENT
REMARK Flexibility Score: inf
ROOT
ATOM      1  C   UNL     1      43.527  21.254  79.474  1.00  0.00     0.000 C 
ENDROOT
BRANCH   1   2
ATOM      2  C   UNL     1      43.768  20.098  78.486  1.00  0.00     0.000 C 
BRANCH   2   3
ATOM      3  C   UNL     1      45.232  19.910  78.052  1.00  0.00     0.006 C 
BRANCH   3   4
ATOM      4  C   UNL     1      45.615  18.436  77.862  1.00  0.00     0.053 C 
BRANCH   4   5
ATOM      5  C   UNL     1      45.687  18.097  76.407  1.00  0.00     0.041 C 
ATOM      6  O   UNL     1      45.748  16.895  76.039  1.00  0.00    -0.550 OA
ATOM      7  O   UNL     1      45.637  19.108  75.455  1.00  0.00    -0.550 OA
ENDBRANCH   4   5
ENDBRANCH   3   4
ENDBRANCH   2   3
ENDBRANCH   1   2
BRANCH   1   8
ATOM      8  C   UNL     1      42.257  21.065  80.319  1.00  0.00     0.000 C 
BRANCH   8   9
ATOM      9  C   UNL     1      41.263  20.131  79.612  1.00  0.00    -0.000 C 
BRANCH   9  10
ATOM     10  C   UNL     1      39.849  20.728  79.521  1.00  0.00    -0.000 C 
BRANCH  10  11
ATOM     11  C   UNL     1      39.703  21.731  78.364  1.00  0.00    -0.000 C 
BRANCH  11  12
ATOM     12  C   UNL     1      40.499  21.312  77.119  1.00  0.00    -0.003 C 
ATOM     13  C   UNL     1      41.411  22.422  76.596  1.00  0.00     0.004 C 
ENDBRANCH  11  12
ENDBRANCH  10  11
ENDBRANCH   9  10
ENDBRANCH   8   9
ENDBRANCH   1   8
TORSDOF 9
ENDMDL
MODEL 2
REMARK VINA RESULT:    -3.046      1.601      2.780
REMARK INTER + INTRA:          -5.548
REMARK INTER:                  -5.119
REMARK INTRA:                  -0.429
REMARK UNBOUND:                -0.900
REMARK SMILES CCCCCCCCCCC(=O)[O-]
REMARK SMILES IDX 7 1 8 2 9 3 10 4 11 5 12 6 13 7 6 8 5 9 4 10 3 11 2 12 1 13
REMARK H PARENT
REMARK Flexibility Score: inf
ROOT
ATOM      1  C   UNL     1      42.757  21.443  77.977  1.00  0.00     0.000 C 
ENDROOT
BRANCH   1   2
ATOM      2  C   UNL     1      43.639  20.558  78.876  1.00  0.00     0.000 C 
BRANCH   2   3
ATOM      3  C   UNL     1      44.538  19.559  78.125  1.00  0.00     0.006 C 
BRANCH   3   4
ATOM      4  C   UNL     1      44.941  20.050  76.729  1.00  0.00     0.053 C 
BRANCH   4   5
ATOM      5  C   UNL     1      45.637  18.964  75.972  1.00  0.00     0.041 C 
ATOM      6  O   UNL     1      46.284  19.234  74.927  1.00  0.00    -0.550 OA
ATOM      7  O   UNL     1      45.612  17.660  76.450  1.00  0.00    -0.550 OA
ENDBRANCH   4   5
ENDBRANCH   3   4
ENDBRANCH   2   3
ENDBRANCH   1   2
BRANCH   1   8
ATOM      8  C   UNL     1      41.270  21.062  78.034  1.00  0.00     0.000 C 
BRANCH   8   9
ATOM      9  C   UNL     1      40.987  20.138  79.228  1.00  0.00    -0.000 C 
BRANCH   9  10
ATOM     10  C   UNL     1      39.564  20.306  79.786  1.00  0.00    -0.000 C 
BRANCH  10  11
ATOM     11  C   UNL     1      38.839  18.962  79.972  1.00  0.00    -0.000 C 
BRANCH  11  12
ATOM     12  C   UNL     1      37.383  19.137  80.431  1.00  0.00    -0.003 C 
ATOM     13  C   UNL     1      36.932  20.597  80.430  1.00  0.00     0.004 C 
ENDBRANCH  11  12
ENDBRANCH  10  11
ENDBRANCH   9  10
ENDBRANCH   8   9
ENDBRANCH   1   8
TORSDOF 9
ENDMDL
MODEL 3
REMARK VINA RESULT:    -3.042      6.224      8.150
REMARK INTER + INTRA:          -5.542
REMARK INTER:                  -5.103
REMARK INTRA:                  -0.438
REMARK UNBOUND:                -0.900
REMARK SMILES CCCCCCCCCCC(=O)[O-]
REMARK SMILES IDX 7 1 8 2 9 3 10 4 11 5 12 6 13 7 6 8 5 9 4 10 3 11 2 12 1 13
REMARK H PARENT
REMARK Flexibility Score: inf
ROOT
ATOM      1  C   UNL     1      50.412  21.850  76.472  1.00  0.00     0.000 C 
ENDROOT
BRANCH   1   2
ATOM      2  C   UNL     1      51.093  22.181  75.131  1.00  0.00     0.000 C 
BRANCH   2   3
ATOM      3  C   UNL     1      52.582  21.803  75.048  1.00  0.00     0.006 C 
BRANCH   3   4
ATOM      4  C   UNL     1      52.901  20.884  73.863  1.00  0.00     0.053 C 
BRANCH   4   5
ATOM      5  C   UNL     1      53.938  19.876  74.246  1.00  0.00     0.041 C 
ATOM      6  O   UNL     1      54.810  20.161  75.109  1.00  0.00    -0.550 OA
ATOM      7  O   UNL     1      53.911  18.605  73.688  1.00  0.00    -0.550 OA
ENDBRANCH   4   5
ENDBRANCH   3   4
ENDBRANCH   2   3
ENDBRANCH   1   2
BRANCH   1   8
ATOM      8  C   UNL     1      48.901  21.609  76.333  1.00  0.00     0.000 C 
BRANCH   8   9
ATOM      9  C   UNL     1      48.484  21.579  74.855  1.00  0.00    -0.000 C 
BRANCH   9  10
ATOM     10  C   UNL     1      47.507  20.436  74.535  1.00  0.00    -0.000 C 
BRANCH  10  11
ATOM     11  C   UNL     1      46.636  20.048  75.741  1.00  0.00    -0.000 C 
BRANCH  11  12
ATOM     12  C   UNL     1      45.886  18.724  75.524  1.00  0.00    -0.003 C 
ATOM     13  C   UNL     1      45.615  17.974  76.828  1.00  0.00     0.004 C 
ENDBRANCH  11  12
ENDBRANCH  10  11
ENDBRANCH   9  10
ENDBRANCH   8   9
ENDBRANCH   1   8
TORSDOF 9
ENDMDL
MODEL 4
REMARK VINA RESULT:    -3.012      1.403      2.186
REMARK INTER + INTRA:          -5.496
REMARK INTER:                  -4.825
REMARK INTRA:                  -0.671
REMARK UNBOUND:                -0.900
REMARK SMILES CCCCCCCCCCC(=O)[O-]
REMARK SMILES IDX 7 1 8 2 9 3 10 4 11 5 12 6 13 7 6 8 5 9 4 10 3 11 2 12 1 13
REMARK H PARENT
REMARK Flexibility Score: inf
ROOT
ATOM      1  C   UNL     1      44.103  20.105  77.982  1.00  0.00     0.000 C 
ENDROOT
BRANCH   1   2
ATOM      2  C   UNL     1      45.262  19.094  78.049  1.00  0.00     0.000 C 
BRANCH   2   3
ATOM      3  C   UNL     1      45.911  18.759  76.695  1.00  0.00     0.006 C 
BRANCH   3   4
ATOM      4  C   UNL     1      45.431  19.672  75.559  1.00  0.00     0.053 C 
BRANCH   4   5
ATOM      5  C   UNL     1      46.382  19.616  74.406  1.00  0.00     0.041 C 
ATOM      6  O   UNL     1      47.468  20.249  74.449  1.00  0.00    -0.550 OA
ATOM      7  O   UNL     1      46.090  18.823  73.303  1.00  0.00    -0.550 OA
ENDBRANCH   4   5
ENDBRANCH   3   4
ENDBRANCH   2   3
ENDBRANCH   1   2
BRANCH   1   8
ATOM      8  C   UNL     1      44.026  21.013  79.220  1.00  0.00     0.000 C 
BRANCH   8   9
ATOM      9  C   UNL     1      42.567  21.237  79.644  1.00  0.00    -0.000 C 
BRANCH   9  10
ATOM     10  C   UNL     1      41.682  20.002  79.410  1.00  0.00    -0.000 C 
BRANCH  10  11
ATOM     11  C   UNL     1      40.358  20.347  78.708  1.00  0.00    -0.000 C 
BRANCH  11  12
ATOM     12  C   UNL     1      40.418  21.692  77.967  1.00  0.00    -0.003 C 
ATOM     13  C   UNL     1      40.641  21.533  76.464  1.00  0.00     0.004 C 
ENDBRANCH  11  12
ENDBRANCH  10  11
ENDBRANCH   9  10
ENDBRANCH   8   9
ENDBRANCH   1   8
TORSDOF 9
ENDMDL
MODEL 5
REMARK VINA RESULT:    -2.968     16.349     17.863
REMARK INTER + INTRA:          -5.430
REMARK INTER:                  -4.250
REMARK INTRA:                  -1.180
REMARK UNBOUND:                -0.900
REMARK SMILES CCCCCCCCCCC(=O)[O-]
REMARK SMILES IDX 7 1 8 2 9 3 10 4 11 5 12 6 13 7 6 8 5 9 4 10 3 11 2 12 1 13
REMARK H PARENT
REMARK Flexibility Score: inf
ROOT
ATOM      1  C   UNL     1      51.880  33.234  85.659  1.00  0.00     0.000 C 
ENDROOT
BRANCH   1   2
ATOM      2  C   UNL     1      50.820  33.196  84.543  1.00  0.00     0.000 C 
BRANCH   2   3
ATOM      3  C   UNL     1      50.837  34.403  83.588  1.00  0.00     0.006 C 
BRANCH   3   4
ATOM      4  C   UNL     1      49.445  34.768  83.060  1.00  0.00     0.053 C 
BRANCH   4   5
ATOM      5  C   UNL     1      49.226  34.173  81.705  1.00  0.00     0.041 C 
ATOM      6  O   UNL     1      48.989  32.943  81.584  1.00  0.00    -0.550 OA
ATOM      7  O   UNL     1      49.234  34.987  80.579  1.00  0.00    -0.550 OA
ENDBRANCH   4   5
ENDBRANCH   3   4
ENDBRANCH   2   3
ENDBRANCH   1   2
BRANCH   1   8
ATOM      8  C   UNL     1      52.709  34.528  85.654  1.00  0.00     0.000 C 
BRANCH   8   9
ATOM      9  C   UNL     1      52.404  35.379  86.896  1.00  0.00    -0.000 C 
BRANCH   9  10
ATOM     10  C   UNL     1      51.115  34.944  87.613  1.00  0.00    -0.000 C 
BRANCH  10  11
ATOM     11  C   UNL     1      49.978  35.968  87.459  1.00  0.00    -0.000 C 
BRANCH  11  12
ATOM     12  C   UNL     1      48.759  35.387  86.725  1.00  0.00    -0.003 C 
ATOM     13  C   UNL     1      48.331  34.024  87.268  1.00  0.00     0.004 C 
ENDBRANCH  11  12
ENDBRANCH  10  11
ENDBRANCH   9  10
ENDBRANCH   8   9
ENDBRANCH   1   8
TORSDOF 9
ENDMDL
MODEL 6
REMARK VINA RESULT:    -2.954     16.609     18.336
REMARK INTER + INTRA:          -5.408
REMARK INTER:                  -4.421
REMARK INTRA:                  -0.987
REMARK UNBOUND:                -0.900
REMARK SMILES CCCCCCCCCCC(=O)[O-]
REMARK SMILES IDX 7 1 8 2 9 3 10 4 11 5 12 6 13 7 6 8 5 9 4 10 3 11 2 12 1 13
REMARK H PARENT
REMARK Flexibility Score: inf
ROOT
ATOM      1  C   UNL     1      48.782  33.618  86.358  1.00  0.00     0.000 C 
ENDROOT
BRANCH   1   2
ATOM      2  C   UNL     1      47.968  32.410  86.858  1.00  0.00     0.000 C 
BRANCH   2   3
ATOM      3  C   UNL     1      47.576  32.462  88.345  1.00  0.00     0.006 C 
BRANCH   3   4
ATOM      4  C   UNL     1      46.580  31.364  88.740  1.00  0.00     0.053 C 
BRANCH   4   5
ATOM      5  C   UNL     1      46.733  31.014  90.186  1.00  0.00     0.041 C 
ATOM      6  O   UNL     1      47.831  31.204  90.771  1.00  0.00    -0.550 OA
ATOM      7  O   UNL     1      45.648  30.524  90.901  1.00  0.00    -0.550 OA
ENDBRANCH   4   5
ENDBRANCH   3   4
ENDBRANCH   2   3
ENDBRANCH   1   2
BRANCH   1   8
ATOM      8  C   UNL     1      48.492  34.904  87.147  1.00  0.00     0.000 C 
BRANCH   8   9
ATOM      9  C   UNL     1      49.768  35.743  87.315  1.00  0.00    -0.000 C 
BRANCH   9  10
ATOM     10  C   UNL     1      51.015  35.049  86.743  1.00  0.00    -0.000 C 
BRANCH  10  11
ATOM     11  C   UNL     1      52.033  34.672  87.832  1.00  0.00    -0.000 C 
BRANCH  11  12
ATOM     12  C   UNL     1      52.136  33.153  88.040  1.00  0.00    -0.003 C 
ATOM     13  C   UNL     1      51.189  32.636  89.123  1.00  0.00     0.004 C 
ENDBRANCH  11  12
ENDBRANCH  10  11
ENDBRANCH   9  10
ENDBRANCH   8   9
ENDBRANCH   1   8
TORSDOF 9
ENDMDL
MODEL 7
REMARK VINA RESULT:    -2.951     17.639     19.056
REMARK INTER + INTRA:          -5.403
REMARK INTER:                  -4.330
REMARK INTRA:                  -1.073
REMARK UNBOUND:                -0.900
REMARK SMILES CCCCCCCCCCC(=O)[O-]
REMARK SMILES IDX 7 1 8 2 9 3 10 4 11 5 12 6 13 7 6 8 5 9 4 10 3 11 2 12 1 13
REMARK H PARENT
REMARK Flexibility Score: inf
ROOT
ATOM      1  C   UNL     1      51.864  32.931  87.222  1.00  0.00     0.000 C 
ENDROOT
BRANCH   1   2
ATOM      2  C   UNL     1      51.473  31.916  88.311  1.00  0.00     0.000 C 
BRANCH   2   3
ATOM      3  C   UNL     1      51.335  32.503  89.727  1.00  0.00     0.006 C 
BRANCH   3   4
ATOM      4  C   UNL     1      50.631  31.552  90.704  1.00  0.00     0.053 C 
BRANCH   4   5
ATOM      5  C   UNL     1      51.201  31.698  92.079  1.00  0.00     0.041 C 
ATOM      6  O   UNL     1      52.337  31.227  92.346  1.00  0.00    -0.550 OA
ATOM      7  O   UNL     1      50.498  32.396  93.052  1.00  0.00    -0.550 OA
ENDBRANCH   4   5
ENDBRANCH   3   4
ENDBRANCH   2   3
ENDBRANCH   1   2
BRANCH   1   8
ATOM      8  C   UNL     1      51.909  34.377  87.738  1.00  0.00     0.000 C 
BRANCH   8   9
ATOM      9  C   UNL     1      51.088  35.308  86.832  1.00  0.00    -0.000 C 
BRANCH   9  10
ATOM     10  C   UNL     1      49.732  35.693  87.445  1.00  0.00    -0.000 C 
BRANCH  10  11
ATOM     11  C   UNL     1      48.554  34.961  86.781  1.00  0.00    -0.000 C 
BRANCH  11  12
ATOM     12  C   UNL     1      48.165  33.674  87.526  1.00  0.00    -0.003 C 
ATOM     13  C   UNL     1      48.164  32.441  86.622  1.00  0.00     0.004 C 
ENDBRANCH  11  12
ENDBRANCH  10  11
ENDBRANCH   9  10
ENDBRANCH   8   9
ENDBRANCH   1   8
TORSDOF 9
ENDMDL
MODEL 8
REMARK VINA RESULT:    -2.950      2.568      4.784
REMARK INTER + INTRA:          -5.402
REMARK INTER:                  -4.302
REMARK INTRA:                  -1.100
REMARK UNBOUND:                -0.900
REMARK SMILES CCCCCCCCCCC(=O)[O-]
REMARK SMILES IDX 7 1 8 2 9 3 10 4 11 5 12 6 13 7 6 8 5 9 4 10 3 11 2 12 1 13
REMARK H PARENT
REMARK Flexibility Score: inf
ROOT
ATOM      1  C   UNL     1      48.754  21.052  77.069  1.00  0.00     0.000 C 
ENDROOT
BRANCH   1   2
ATOM      2  C   UNL     1      47.640  22.072  76.772  1.00  0.00     0.000 C 
BRANCH   2   3
ATOM      3  C   UNL     1      46.843  21.806  75.482  1.00  0.00     0.006 C 
BRANCH   3   4
ATOM      4  C   UNL     1      47.311  20.549  74.738  1.00  0.00     0.053 C 
BRANCH   4   5
ATOM      5  C   UNL     1      46.140  19.805  74.179  1.00  0.00     0.041 C 
ATOM      6  O   UNL     1      45.962  18.593  74.471  1.00  0.00    -0.550 OA
ATOM      7  O   UNL     1      45.216  20.463  73.378  1.00  0.00    -0.550 OA
ENDBRANCH   4   5
ENDBRANCH   3   4
ENDBRANCH   2   3
ENDBRANCH   1   2
BRANCH   1   8
ATOM      8  C   UNL     1      48.591  20.366  78.434  1.00  0.00     0.000 C 
BRANCH   8   9
ATOM      9  C   UNL     1      47.105  20.192  78.785  1.00  0.00    -0.000 C 
BRANCH   9  10
ATOM     10  C   UNL     1      46.476  18.960  78.114  1.00  0.00    -0.000 C 
BRANCH  10  11
ATOM     11  C   UNL     1      44.966  19.125  77.872  1.00  0.00    -0.000 C 
BRANCH  11  12
ATOM     12  C   UNL     1      44.400  20.394  78.529  1.00  0.00    -0.003 C 
ATOM     13  C   UNL     1      42.917  20.271  78.877  1.00  0.00     0.004 C 
ENDBRANCH  11  12
ENDBRANCH  10  11
ENDBRANCH   9  10
ENDBRANCH   8   9
ENDBRANCH   1   8
TORSDOF 9
ENDMDL
MODEL 9
REMARK VINA RESULT:    -2.944     16.440     18.082
REMARK INTER + INTRA:          -5.393
REMARK INTER:                  -4.759
REMARK INTRA:                  -0.634
REMARK UNBOUND:                -0.900
REMARK SMILES CCCCCCCCCCC(=O)[O-]
REMARK SMILES IDX 7 1 8 2 9 3 10 4 11 5 12 6 13 7 6 8 5 9 4 10 3 11 2 12 1 13
REMARK H PARENT
REMARK Flexibility Score: inf
ROOT
ATOM      1  C   UNL     1      47.746  31.689  87.501  1.00  0.00     0.000 C 
ENDROOT
BRANCH   1   2
ATOM      2  C   UNL     1      48.493  31.623  88.845  1.00  0.00     0.000 C 
BRANCH   2   3
ATOM      3  C   UNL     1      47.609  31.307  90.065  1.00  0.00     0.006 C 
BRANCH   3   4
ATOM      4  C   UNL     1      46.148  31.736  89.872  1.00  0.00     0.053 C 
BRANCH   4   5
ATOM      5  C   UNL     1      45.271  31.074  90.886  1.00  0.00     0.041 C 
ATOM      6  O   UNL     1      45.301  29.824  91.031  1.00  0.00    -0.550 OA
ATOM      7  O   UNL     1      44.456  31.843  91.707  1.00  0.00    -0.550 OA
ENDBRANCH   4   5
ENDBRANCH   3   4
ENDBRANCH   2   3
ENDBRANCH   1   2
BRANCH   1   8
ATOM      8  C   UNL     1      48.210  32.855  86.614  1.00  0.00     0.000 C 
BRANCH   8   9
ATOM      9  C   UNL     1      48.298  34.158  87.424  1.00  0.00    -0.000 C 
BRANCH   9  10
ATOM     10  C   UNL     1      49.057  35.270  86.682  1.00  0.00    -0.000 C 
BRANCH  10  11
ATOM     11  C   UNL     1      50.303  35.747  87.446  1.00  0.00    -0.000 C 
BRANCH  11  12
ATOM     12  C   UNL     1      51.595  35.091  86.933  1.00  0.00    -0.003 C 
ATOM     13  C   UNL     1      51.466  34.564  85.504  1.00  0.00     0.004 C 
ENDBRANCH  11  12
ENDBRANCH  10  11
ENDBRANCH   9  10
ENDBRANCH   8   9
ENDBRANCH   1   8
TORSDOF 9
ENDMDL
