MODEL 1
REMARK VINA RESULT:    -4.445      0.000      0.000
REMARK INTER + INTRA:          -5.016
REMARK INTER:                  -4.834
REMARK INTRA:                  -0.182
REMARK UNBOUND:                -0.182
REMARK SMILES Cc1ccc(C(C)C)c(O)c1
REMARK SMILES IDX 1 1 2 2 11 3 9 4 5 5 4 6 3 7 10 8 6 10 7 11 8 12
REMARK H PARENT 10 9
REMARK Flexibility Score: inf
ROOT
ATOM      1  C   UNL     1     175.715 161.164 150.168  1.00  0.00     0.044 C 
ATOM      2  C   UNL     1     174.343 160.557 150.104  1.00  0.00    -0.047 A 
ATOM      3  C   UNL     1     174.157 159.203 150.400  1.00  0.00     0.049 A 
ATOM      4  C   UNL     1     172.880 158.625 150.381  1.00  0.00     0.119 A 
ATOM      5  C   UNL     1     171.745 159.429 150.068  1.00  0.00    -0.004 A 
ATOM      6  C   UNL     1     171.955 160.798 149.794  1.00  0.00     0.008 A 
ATOM      7  C   UNL     1     173.233 161.355 149.818  1.00  0.00     0.004 A 
ENDROOT
BRANCH   4   8
ATOM      8  O   UNL     1     172.809 157.265 150.684  1.00  0.00    -0.508 OA
ATOM      9  H   UNL     1     172.008 156.801 151.076  1.00  0.00     0.293 HD
ENDBRANCH   4   8
BRANCH   5  10
ATOM     10  C   UNL     1     170.306 158.916 150.010  1.00  0.00     0.017 C 
ATOM     11  C   UNL     1     169.268 160.010 150.301  1.00  0.00     0.012 C 
ATOM     12  C   UNL     1     170.004 158.125 148.730  1.00  0.00     0.012 C 
ENDBRANCH   5  10
TORSDOF 2
ENDMDL
MODEL 2
REMARK VINA RESULT:    -4.385      9.557     11.139
REMARK INTER + INTRA:          -4.951
REMARK INTER:                  -4.777
REMARK INTRA:                  -0.174
REMARK UNBOUND:                -0.182
REMARK SMILES Cc1ccc(C(C)C)c(O)c1
REMARK SMILES IDX 1 1 2 2 11 3 9 4 5 5 4 6 3 7 10 8 6 10 7 11 8 12
REMARK H PARENT 10 9
REMARK Flexibility Score: inf
ROOT
ATOM      1  C   UNL     1     173.517 173.863 150.070  1.00  0.00     0.044 C 
ATOM      2  C   UNL     1     173.583 172.364 150.103  1.00  0.00    -0.047 A 
ATOM      3  C   UNL     1     172.430 171.602 149.889  1.00  0.00     0.049 A 
ATOM      4  C   UNL     1     172.476 170.202 149.879  1.00  0.00     0.119 A 
ATOM      5  C   UNL     1     173.720 169.535 150.079  1.00  0.00    -0.004 A 
ATOM      6  C   UNL     1     174.875 170.324 150.271  1.00  0.00     0.008 A 
ATOM      7  C   UNL     1     174.808 171.717 150.276  1.00  0.00     0.004 A 
ENDROOT
BRANCH   4   8
ATOM      8  O   UNL     1     171.266 169.541 149.665  1.00  0.00    -0.508 OA
ATOM      9  H   UNL     1     171.129 168.778 149.027  1.00  0.00     0.293 HD
ENDBRANCH   4   8
BRANCH   5  10
ATOM     10  C   UNL     1     173.899 168.017 150.095  1.00  0.00     0.017 C 
ATOM     11  C   UNL     1     174.621 167.485 148.849  1.00  0.00     0.012 C 
ATOM     12  C   UNL     1     174.506 167.500 151.408  1.00  0.00     0.012 C 
ENDBRANCH   5  10
TORSDOF 2
ENDMDL
MODEL 3
REMARK VINA RESULT:    -4.364     15.845     17.467
REMARK INTER + INTRA:          -4.929
REMARK INTER:                  -4.754
REMARK INTRA:                  -0.175
REMARK UNBOUND:                -0.182
REMARK SMILES Cc1ccc(C(C)C)c(O)c1
REMARK SMILES IDX 1 1 2 2 11 3 9 4 5 5 4 6 3 7 10 8 6 10 7 11 8 12
REMARK H PARENT 10 9
REMARK Flexibility Score: inf
ROOT
ATOM      1  C   UNL     1     160.747 175.515 150.086  1.00  0.00     0.044 C 
ATOM      2  C   UNL     1     162.198 175.135 150.128  1.00  0.00    -0.047 A 
ATOM      3  C   UNL     1     162.584 173.804 149.937  1.00  0.00     0.049 A 
ATOM      4  C   UNL     1     163.935 173.434 149.936  1.00  0.00     0.119 A 
ATOM      5  C   UNL     1     164.941 174.427 150.122  1.00  0.00    -0.004 A 
ATOM      6  C   UNL     1     164.529 175.767 150.291  1.00  0.00     0.008 A 
ATOM      7  C   UNL     1     163.179 176.116 150.288  1.00  0.00     0.004 A 
ENDROOT
BRANCH   4   8
ATOM      8  O   UNL     1     164.208 172.078 149.744  1.00  0.00    -0.508 OA
ATOM      9  H   UNL     1     164.835 171.530 150.305  1.00  0.00     0.293 HD
ENDBRANCH   4   8
BRANCH   5  10
ATOM     10  C   UNL     1     166.444 174.149 150.146  1.00  0.00     0.017 C 
ATOM     11  C   UNL     1     167.163 174.631 148.878  1.00  0.00     0.012 C 
ATOM     12  C   UNL     1     167.120 174.626 151.439  1.00  0.00     0.012 C 
ENDBRANCH   5  10
TORSDOF 2
ENDMDL
MODEL 4
REMARK VINA RESULT:    -4.361      1.029      4.038
REMARK INTER + INTRA:          -4.925
REMARK INTER:                  -4.738
REMARK INTRA:                  -0.187
REMARK UNBOUND:                -0.182
REMARK SMILES Cc1ccc(C(C)C)c(O)c1
REMARK SMILES IDX 1 1 2 2 11 3 9 4 5 5 4 6 3 7 10 8 6 10 7 11 8 12
REMARK H PARENT 10 9
REMARK Flexibility Score: inf
ROOT
ATOM      1  C   UNL     1     169.278 160.261 149.060  1.00  0.00     0.044 C 
ATOM      2  C   UNL     1     170.698 160.095 149.518  1.00  0.00    -0.047 A 
ATOM      3  C   UNL     1     171.162 158.845 149.938  1.00  0.00     0.049 A 
ATOM      4  C   UNL     1     172.493 158.660 150.334  1.00  0.00     0.119 A 
ATOM      5  C   UNL     1     173.399 159.760 150.300  1.00  0.00    -0.004 A 
ATOM      6  C   UNL     1     172.914 161.008 149.852  1.00  0.00     0.008 A 
ATOM      7  C   UNL     1     171.586 161.171 149.460  1.00  0.00     0.004 A 
ENDROOT
BRANCH   4   8
ATOM      8  O   UNL     1     172.848 157.374 150.743  1.00  0.00    -0.508 OA
ATOM      9  H   UNL     1     173.769 156.979 150.675  1.00  0.00     0.293 HD
ENDBRANCH   4   8
BRANCH   5  10
ATOM     10  C   UNL     1     174.870 159.688 150.711  1.00  0.00     0.017 C 
ATOM     11  C   UNL     1     175.774 160.594 149.863  1.00  0.00     0.012 C 
ATOM     12  C   UNL     1     175.079 159.872 152.220  1.00  0.00     0.012 C 
ENDBRANCH   5  10
TORSDOF 2
ENDMDL
MODEL 5
REMARK VINA RESULT:    -4.355      1.606      2.381
REMARK INTER + INTRA:          -4.919
REMARK INTER:                  -4.740
REMARK INTRA:                  -0.179
REMARK UNBOUND:                -0.182
REMARK SMILES Cc1ccc(C(C)C)c(O)c1
REMARK SMILES IDX 1 1 2 2 11 3 9 4 5 5 4 6 3 7 10 8 6 10 7 11 8 12
REMARK H PARENT 10 9
REMARK Flexibility Score: inf
ROOT
ATOM      1  C   UNL     1     175.758 160.934 150.074  1.00  0.00     0.044 C 
ATOM      2  C   UNL     1     174.341 160.441 150.120  1.00  0.00    -0.047 A 
ATOM      3  C   UNL     1     173.284 161.302 149.807  1.00  0.00     0.049 A 
ATOM      4  C   UNL     1     171.957 160.853 149.809  1.00  0.00     0.119 A 
ATOM      5  C   UNL     1     171.672 159.492 150.122  1.00  0.00    -0.004 A 
ATOM      6  C   UNL     1     172.756 158.635 150.414  1.00  0.00     0.008 A 
ATOM      7  C   UNL     1     174.070 159.102 150.406  1.00  0.00     0.004 A 
ENDROOT
BRANCH   4   8
ATOM      8  O   UNL     1     170.980 161.798 149.489  1.00  0.00    -0.508 OA
ATOM      9  H   UNL     1     170.944 162.736 149.847  1.00  0.00     0.293 HD
ENDBRANCH   4   8
BRANCH   5  10
ATOM     10  C   UNL     1     170.269 158.884 150.162  1.00  0.00     0.017 C 
ATOM     11  C   UNL     1     169.919 158.103 148.888  1.00  0.00     0.012 C 
ATOM     12  C   UNL     1     169.997 158.092 151.448  1.00  0.00     0.012 C 
ENDBRANCH   5  10
TORSDOF 2
ENDMDL
MODEL 6
REMARK VINA RESULT:    -4.342      9.600     11.033
REMARK INTER + INTRA:          -4.904
REMARK INTER:                  -4.764
REMARK INTRA:                  -0.141
REMARK UNBOUND:                -0.182
REMARK SMILES Cc1ccc(C(C)C)c(O)c1
REMARK SMILES IDX 1 1 2 2 11 3 9 4 5 5 4 6 3 7 10 8 6 10 7 11 8 12
REMARK H PARENT 10 9
REMARK Flexibility Score: inf
ROOT
ATOM      1  C   UNL     1     173.568 173.868 150.171  1.00  0.00     0.044 C 
ATOM      2  C   UNL     1     173.643 172.371 150.118  1.00  0.00    -0.047 A 
ATOM      3  C   UNL     1     174.817 171.710 150.497  1.00  0.00     0.049 A 
ATOM      4  C   UNL     1     174.896 170.311 150.490  1.00  0.00     0.119 A 
ATOM      5  C   UNL     1     173.761 169.540 150.103  1.00  0.00    -0.004 A 
ATOM      6  C   UNL     1     172.580 170.228 149.746  1.00  0.00     0.008 A 
ATOM      7  C   UNL     1     172.521 171.621 149.760  1.00  0.00     0.004 A 
ENDROOT
BRANCH   4   8
ATOM      8  O   UNL     1     176.116 169.756 150.878  1.00  0.00    -0.508 OA
ATOM      9  H   UNL     1     176.672 170.067 151.655  1.00  0.00     0.293 HD
ENDBRANCH   4   8
BRANCH   5  10
ATOM     10  C   UNL     1     173.724 168.013 150.050  1.00  0.00     0.017 C 
ATOM     11  C   UNL     1     172.296 167.448 150.037  1.00  0.00     0.012 C 
ATOM     12  C   UNL     1     174.611 167.431 148.940  1.00  0.00     0.012 C 
ENDBRANCH   5  10
TORSDOF 2
ENDMDL
MODEL 7
REMARK VINA RESULT:    -4.296      9.751     11.520
REMARK INTER + INTRA:          -4.854
REMARK INTER:                  -4.667
REMARK INTRA:                  -0.187
REMARK UNBOUND:                -0.182
REMARK SMILES Cc1ccc(C(C)C)c(O)c1
REMARK SMILES IDX 1 1 2 2 11 3 9 4 5 5 4 6 3 7 10 8 6 10 7 11 8 12
REMARK H PARENT 10 9
REMARK Flexibility Score: inf
ROOT
ATOM      1  C   UNL     1     172.299 167.153 149.348  1.00  0.00     0.044 C 
ATOM      2  C   UNL     1     172.888 168.486 149.706  1.00  0.00    -0.047 A 
ATOM      3  C   UNL     1     174.216 168.576 150.138  1.00  0.00     0.049 A 
ATOM      4  C   UNL     1     174.797 169.814 150.443  1.00  0.00     0.119 A 
ATOM      5  C   UNL     1     174.031 171.008 150.301  1.00  0.00    -0.004 A 
ATOM      6  C   UNL     1     172.700 170.895 149.843  1.00  0.00     0.008 A 
ATOM      7  C   UNL     1     172.140 169.653 149.544  1.00  0.00     0.004 A 
ENDROOT
BRANCH   4   8
ATOM      8  O   UNL     1     176.125 169.789 150.872  1.00  0.00    -0.508 OA
ATOM      9  H   UNL     1     176.751 170.575 150.862  1.00  0.00     0.293 HD
ENDBRANCH   4   8
BRANCH   5  10
ATOM     10  C   UNL     1     174.549 172.414 150.606  1.00  0.00     0.017 C 
ATOM     11  C   UNL     1     173.879 173.498 149.749  1.00  0.00     0.012 C 
ATOM     12  C   UNL     1     174.541 172.742 152.106  1.00  0.00     0.012 C 
ENDBRANCH   5  10
TORSDOF 2
ENDMDL
MODEL 8
REMARK VINA RESULT:    -4.292     10.034     11.787
REMARK INTER + INTRA:          -4.851
REMARK INTER:                  -4.678
REMARK INTRA:                  -0.173
REMARK UNBOUND:                -0.182
REMARK SMILES Cc1ccc(C(C)C)c(O)c1
REMARK SMILES IDX 1 1 2 2 11 3 9 4 5 5 4 6 3 7 10 8 6 10 7 11 8 12
REMARK H PARENT 10 9
REMARK Flexibility Score: inf
ROOT
ATOM      1  C   UNL     1     174.492 167.099 149.366  1.00  0.00     0.044 C 
ATOM      2  C   UNL     1     174.356 168.554 149.703  1.00  0.00    -0.047 A 
ATOM      3  C   UNL     1     173.089 169.125 149.866  1.00  0.00     0.049 A 
ATOM      4  C   UNL     1     172.941 170.473 150.217  1.00  0.00     0.119 A 
ATOM      5  C   UNL     1     174.097 171.281 150.425  1.00  0.00    -0.004 A 
ATOM      6  C   UNL     1     175.365 170.679 150.276  1.00  0.00     0.008 A 
ATOM      7  C   UNL     1     175.492 169.335 149.927  1.00  0.00     0.004 A 
ENDROOT
BRANCH   4   8
ATOM      8  O   UNL     1     171.632 170.942 150.346  1.00  0.00    -0.508 OA
ATOM      9  H   UNL     1     170.966 170.617 151.024  1.00  0.00     0.293 HD
ENDBRANCH   4   8
BRANCH   5  10
ATOM     10  C   UNL     1     174.066 172.762 150.804  1.00  0.00     0.017 C 
ATOM     11  C   UNL     1     174.738 173.048 152.155  1.00  0.00     0.012 C 
ATOM     12  C   UNL     1     174.564 173.679 149.678  1.00  0.00     0.012 C 
ENDBRANCH   5  10
TORSDOF 2
ENDMDL
MODEL 9
REMARK VINA RESULT:    -4.282      1.795      4.570
REMARK INTER + INTRA:          -4.840
REMARK INTER:                  -4.667
REMARK INTRA:                  -0.172
REMARK UNBOUND:                -0.182
REMARK SMILES Cc1ccc(C(C)C)c(O)c1
REMARK SMILES IDX 1 1 2 2 11 3 9 4 5 5 4 6 3 7 10 8 6 10 7 11 8 12
REMARK H PARENT 10 9
REMARK Flexibility Score: inf
ROOT
ATOM      1  C   UNL     1     169.776 158.124 149.398  1.00  0.00     0.044 C 
ATOM      2  C   UNL     1     171.129 158.686 149.727  1.00  0.00    -0.047 A 
ATOM      3  C   UNL     1     171.292 160.061 149.923  1.00  0.00     0.049 A 
ATOM      4  C   UNL     1     172.538 160.602 150.266  1.00  0.00     0.119 A 
ATOM      5  C   UNL     1     173.662 159.740 150.431  1.00  0.00    -0.004 A 
ATOM      6  C   UNL     1     173.469 158.353 150.249  1.00  0.00     0.008 A 
ATOM      7  C   UNL     1     172.220 157.834 149.909  1.00  0.00     0.004 A 
ENDROOT
BRANCH   4   8
ATOM      8  O   UNL     1     172.591 161.987 150.430  1.00  0.00    -0.508 OA
ATOM      9  H   UNL     1     172.219 162.491 151.216  1.00  0.00     0.293 HD
ENDBRANCH   4   8
BRANCH   5  10
ATOM     10  C   UNL     1     175.070 160.208 150.798  1.00  0.00     0.017 C 
ATOM     11  C   UNL     1     175.537 159.689 152.165  1.00  0.00     0.012 C 
ATOM     12  C   UNL     1     176.093 159.962 149.680  1.00  0.00     0.012 C 
ENDBRANCH   5  10
TORSDOF 2
ENDMDL
