MODEL 1
REMARK VINA RESULT:    -4.110      0.000      0.000
REMARK INTER + INTRA:          -4.110
REMARK INTER:                  -4.110
REMARK INTRA:                   0.000
REMARK UNBOUND:                 0.000
REMARK SMILES CC1=CC(=O)[C@H]2C[C@@H]1C2(C)C
REMARK SMILES IDX 1 1 2 2 3 3 4 4 5 5 6 6 7 7 8 8 9 9 10 10 11 11
REMARK H PARENT
REMARK Flexibility Score: inf
ROOT
ATOM      1  C   UNL     1      52.360  26.299  22.679  1.00  0.00     0.040 C 
ATOM      2  C   UNL     1      51.541  25.768  21.545  1.00  0.00    -0.066 C 
ATOM      3  C   UNL     1      51.305  26.492  20.415  1.00  0.00     0.047 C 
ATOM      4  C   UNL     1      50.466  25.829  19.365  1.00  0.00     0.159 C 
ATOM      5  O   UNL     1      50.143  26.410  18.297  1.00  0.00    -0.295 OA
ATOM      6  C   UNL     1      50.032  24.397  19.683  1.00  0.00     0.067 C 
ATOM      7  C   UNL     1      51.317  23.722  20.210  1.00  0.00     0.021 C 
ATOM      8  C   UNL     1      50.971  24.335  21.585  1.00  0.00     0.022 C 
ATOM      9  C   UNL     1      49.481  24.358  21.137  1.00  0.00    -0.019 C 
ATOM     10  C   UNL     1      48.749  23.029  21.454  1.00  0.00     0.012 C 
ATOM     11  C   UNL     1      48.587  25.535  21.620  1.00  0.00     0.012 C 
ENDROOT
TORSDOF 0
ENDMDL
MODEL 2
REMARK VINA RESULT:    -4.102      1.682      2.944
REMARK INTER + INTRA:          -4.102
REMARK INTER:                  -4.102
REMARK INTRA:                   0.000
REMARK UNBOUND:                 0.000
REMARK SMILES CC1=CC(=O)[C@H]2C[C@@H]1C2(C)C
REMARK SMILES IDX 1 1 2 2 3 3 4 4 5 5 6 6 7 7 8 8 9 9 10 10 11 11
REMARK H PARENT
REMARK Flexibility Score: inf
ROOT
ATOM      1  C   UNL     1      47.787  26.385  21.524  1.00  0.00     0.040 C 
ATOM      2  C   UNL     1      49.140  25.754  21.425  1.00  0.00    -0.066 C 
ATOM      3  C   UNL     1      50.257  26.343  21.936  1.00  0.00     0.047 C 
ATOM      4  C   UNL     1      51.542  25.592  21.761  1.00  0.00     0.159 C 
ATOM      5  O   UNL     1      52.647  26.050  22.151  1.00  0.00    -0.295 OA
ATOM      6  C   UNL     1      51.416  24.231  21.074  1.00  0.00     0.067 C 
ATOM      7  C   UNL     1      50.204  23.570  21.767  1.00  0.00     0.021 C 
ATOM      8  C   UNL     1      49.318  24.363  20.781  1.00  0.00     0.022 C 
ATOM      9  C   UNL     1      50.530  24.396  19.806  1.00  0.00    -0.019 C 
ATOM     10  C   UNL     1      50.581  23.150  18.885  1.00  0.00     0.012 C 
ATOM     11  C   UNL     1      50.731  25.662  18.925  1.00  0.00     0.012 C 
ENDROOT
TORSDOF 0
ENDMDL
MODEL 3
REMARK VINA RESULT:    -3.982      1.472      2.197
REMARK INTER + INTRA:          -3.982
REMARK INTER:                  -3.982
REMARK INTRA:                   0.000
REMARK UNBOUND:                 0.000
REMARK SMILES CC1=CC(=O)[C@H]2C[C@@H]1C2(C)C
REMARK SMILES IDX 1 1 2 2 3 3 4 4 5 5 6 6 7 7 8 8 9 9 10 10 11 11
REMARK H PARENT
REMARK Flexibility Score: inf
ROOT
ATOM      1  C   UNL     1      52.095  26.392  23.542  1.00  0.00     0.040 C 
ATOM      2  C   UNL     1      51.156  26.152  22.402  1.00  0.00    -0.066 C 
ATOM      3  C   UNL     1      49.869  26.598  22.412  1.00  0.00     0.047 C 
ATOM      4  C   UNL     1      49.047  26.282  21.199  1.00  0.00     0.159 C 
ATOM      5  O   UNL     1      47.834  26.602  21.107  1.00  0.00    -0.295 OA
ATOM      6  C   UNL     1      49.787  25.543  20.083  1.00  0.00     0.067 C 
ATOM      7  C   UNL     1      51.127  26.300  19.953  1.00  0.00     0.021 C 
ATOM      8  C   UNL     1      51.633  25.430  21.125  1.00  0.00     0.022 C 
ATOM      9  C   UNL     1      50.580  24.361  20.712  1.00  0.00    -0.019 C 
ATOM     10  C   UNL     1      51.123  23.380  19.642  1.00  0.00     0.012 C 
ATOM     11  C   UNL     1      49.897  23.529  21.834  1.00  0.00     0.012 C 
ENDROOT
TORSDOF 0
ENDMDL
MODEL 4
REMARK VINA RESULT:    -3.762      1.788      2.999
REMARK INTER + INTRA:          -3.762
REMARK INTER:                  -3.762
REMARK INTRA:                   0.000
REMARK UNBOUND:                 0.000
REMARK SMILES CC1=CC(=O)[C@H]2C[C@@H]1C2(C)C
REMARK SMILES IDX 1 1 2 2 3 3 4 4 5 5 6 6 7 7 8 8 9 9 10 10 11 11
REMARK H PARENT
REMARK Flexibility Score: inf
ROOT
ATOM      1  C   UNL     1      49.903  27.421  18.732  1.00  0.00     0.040 C 
ATOM      2  C   UNL     1      50.413  26.709  19.945  1.00  0.00    -0.066 C 
ATOM      3  C   UNL     1      51.675  26.898  20.423  1.00  0.00     0.047 C 
ATOM      4  C   UNL     1      52.045  26.116  21.647  1.00  0.00     0.159 C 
ATOM      5  O   UNL     1      53.193  26.171  22.158  1.00  0.00    -0.295 OA
ATOM      6  C   UNL     1      50.930  25.246  22.229  1.00  0.00     0.067 C 
ATOM      7  C   UNL     1      49.692  26.169  22.226  1.00  0.00     0.021 C 
ATOM      8  C   UNL     1      49.498  25.762  20.748  1.00  0.00     0.022 C 
ATOM      9  C   UNL     1      50.268  24.448  21.069  1.00  0.00    -0.019 C 
ATOM     10  C   UNL     1      49.330  23.326  21.585  1.00  0.00     0.012 C 
ATOM     11  C   UNL     1      51.186  23.847  19.968  1.00  0.00     0.012 C 
ENDROOT
TORSDOF 0
ENDMDL
MODEL 5
REMARK VINA RESULT:    -3.743     10.547     12.462
REMARK INTER + INTRA:          -3.743
REMARK INTER:                  -3.743
REMARK INTRA:                   0.000
REMARK UNBOUND:                 0.000
REMARK SMILES CC1=CC(=O)[C@H]2C[C@@H]1C2(C)C
REMARK SMILES IDX 1 1 2 2 3 3 4 4 5 5 6 6 7 7 8 8 9 9 10 10 11 11
REMARK H PARENT
REMARK Flexibility Score: inf
ROOT
ATOM      1  C   UNL     1      36.687  22.836  21.934  1.00  0.00     0.040 C 
ATOM      2  C   UNL     1      37.612  23.645  22.787  1.00  0.00    -0.066 C 
ATOM      3  C   UNL     1      37.898  24.950  22.515  1.00  0.00     0.047 C 
ATOM      4  C   UNL     1      38.842  25.631  23.459  1.00  0.00     0.159 C 
ATOM      5  O   UNL     1      39.218  26.820  23.292  1.00  0.00    -0.295 OA
ATOM      6  C   UNL     1      39.317  24.780  24.638  1.00  0.00     0.067 C 
ATOM      7  C   UNL     1      38.029  24.107  25.160  1.00  0.00     0.021 C 
ATOM      8  C   UNL     1      38.242  23.044  24.059  1.00  0.00     0.022 C 
ATOM      9  C   UNL     1      39.759  23.389  24.099  1.00  0.00    -0.019 C 
ATOM     10  C   UNL     1      40.525  22.561  25.161  1.00  0.00     0.012 C 
ATOM     11  C   UNL     1      40.560  23.335  22.767  1.00  0.00     0.012 C 
ENDROOT
TORSDOF 0
ENDMDL
MODEL 6
REMARK VINA RESULT:    -3.717     10.599     12.426
REMARK INTER + INTRA:          -3.717
REMARK INTER:                  -3.717
REMARK INTRA:                   0.000
REMARK UNBOUND:                 0.000
REMARK SMILES CC1=CC(=O)[C@H]2C[C@@H]1C2(C)C
REMARK SMILES IDX 1 1 2 2 3 3 4 4 5 5 6 6 7 7 8 8 9 9 10 10 11 11
REMARK H PARENT
REMARK Flexibility Score: inf
ROOT
ATOM      1  C   UNL     1      41.670  23.482  22.479  1.00  0.00     0.040 C 
ATOM      2  C   UNL     1      40.367  23.322  23.196  1.00  0.00    -0.066 C 
ATOM      3  C   UNL     1      40.268  22.673  24.390  1.00  0.00     0.047 C 
ATOM      4  C   UNL     1      38.897  22.591  24.989  1.00  0.00     0.159 C 
ATOM      5  O   UNL     1      38.669  21.982  26.066  1.00  0.00    -0.295 OA
ATOM      6  C   UNL     1      37.795  23.300  24.200  1.00  0.00     0.067 C 
ATOM      7  C   UNL     1      38.415  24.666  23.831  1.00  0.00     0.021 C 
ATOM      8  C   UNL     1      39.073  23.945  22.633  1.00  0.00     0.022 C 
ATOM      9  C   UNL     1      37.923  22.900  22.702  1.00  0.00    -0.019 C 
ATOM     10  C   UNL     1      36.687  23.327  21.870  1.00  0.00     0.012 C 
ATOM     11  C   UNL     1      38.253  21.419  22.360  1.00  0.00     0.012 C 
ENDROOT
TORSDOF 0
ENDMDL
MODEL 7
REMARK VINA RESULT:    -3.706     11.178     12.318
REMARK INTER + INTRA:          -3.706
REMARK INTER:                  -3.706
REMARK INTRA:                   0.000
REMARK UNBOUND:                 0.000
REMARK SMILES CC1=CC(=O)[C@H]2C[C@@H]1C2(C)C
REMARK SMILES IDX 1 1 2 2 3 3 4 4 5 5 6 6 7 7 8 8 9 9 10 10 11 11
REMARK H PARENT
REMARK Flexibility Score: inf
ROOT
ATOM      1  C   UNL     1      38.877  25.153  26.159  1.00  0.00     0.040 C 
ATOM      2  C   UNL     1      38.934  24.250  24.968  1.00  0.00    -0.066 C 
ATOM      3  C   UNL     1      39.995  23.429  24.726  1.00  0.00     0.047 C 
ATOM      4  C   UNL     1      39.910  22.582  23.492  1.00  0.00     0.159 C 
ATOM      5  O   UNL     1      40.843  21.816  23.138  1.00  0.00    -0.295 OA
ATOM      6  C   UNL     1      38.611  22.714  22.696  1.00  0.00     0.067 C 
ATOM      7  C   UNL     1      37.503  22.658  23.770  1.00  0.00     0.021 C 
ATOM      8  C   UNL     1      37.751  24.168  23.982  1.00  0.00     0.022 C 
ATOM      9  C   UNL     1      38.288  24.227  22.523  1.00  0.00    -0.019 C 
ATOM     10  C   UNL     1      37.161  24.474  21.488  1.00  0.00     0.012 C 
ATOM     11  C   UNL     1      39.460  25.200  22.209  1.00  0.00     0.012 C 
ENDROOT
TORSDOF 0
ENDMDL
MODEL 8
REMARK VINA RESULT:    -3.677     11.116     12.730
REMARK INTER + INTRA:          -3.677
REMARK INTER:                  -3.677
REMARK INTRA:                   0.000
REMARK UNBOUND:                 0.000
REMARK SMILES CC1=CC(=O)[C@H]2C[C@@H]1C2(C)C
REMARK SMILES IDX 1 1 2 2 3 3 4 4 5 5 6 6 7 7 8 8 9 9 10 10 11 11
REMARK H PARENT
REMARK Flexibility Score: inf
ROOT
ATOM      1  C   UNL     1      36.741  23.017  21.886  1.00  0.00     0.040 C 
ATOM      2  C   UNL     1      37.792  23.161  22.941  1.00  0.00    -0.066 C 
ATOM      3  C   UNL     1      37.808  22.386  24.063  1.00  0.00     0.047 C 
ATOM      4  C   UNL     1      38.922  22.645  25.031  1.00  0.00     0.159 C 
ATOM      5  O   UNL     1      39.022  22.026  26.122  1.00  0.00    -0.295 OA
ATOM      6  C   UNL     1      39.928  23.714  24.601  1.00  0.00     0.067 C 
ATOM      7  C   UNL     1      40.228  23.377  23.124  1.00  0.00     0.021 C 
ATOM      8  C   UNL     1      38.948  24.167  22.773  1.00  0.00     0.022 C 
ATOM      9  C   UNL     1      39.142  24.959  24.098  1.00  0.00    -0.019 C 
ATOM     10  C   UNL     1      40.055  26.199  23.916  1.00  0.00     0.012 C 
ATOM     11  C   UNL     1      37.874  25.399  24.884  1.00  0.00     0.012 C 
ENDROOT
TORSDOF 0
ENDMDL
MODEL 9
REMARK VINA RESULT:    -3.578     10.774     12.587
REMARK INTER + INTRA:          -3.578
REMARK INTER:                  -3.578
REMARK INTRA:                   0.000
REMARK UNBOUND:                 0.000
REMARK SMILES CC1=CC(=O)[C@H]2C[C@@H]1C2(C)C
REMARK SMILES IDX 1 1 2 2 3 3 4 4 5 5 6 6 7 7 8 8 9 9 10 10 11 11
REMARK H PARENT
REMARK Flexibility Score: inf
ROOT
ATOM      1  C   UNL     1      39.158  22.256  26.183  1.00  0.00     0.040 C 
ATOM      2  C   UNL     1      38.718  23.036  24.984  1.00  0.00    -0.066 C 
ATOM      3  C   UNL     1      37.866  22.522  24.053  1.00  0.00     0.047 C 
ATOM      4  C   UNL     1      37.515  23.421  22.907  1.00  0.00     0.159 C 
ATOM      5  O   UNL     1      36.773  23.048  21.963  1.00  0.00    -0.295 OA
ATOM      6  C   UNL     1      38.124  24.824  22.966  1.00  0.00     0.067 C 
ATOM      7  C   UNL     1      37.889  25.275  24.424  1.00  0.00     0.021 C 
ATOM      8  C   UNL     1      39.174  24.495  24.782  1.00  0.00     0.022 C 
ATOM      9  C   UNL     1      39.635  24.693  23.309  1.00  0.00    -0.019 C 
ATOM     10  C   UNL     1      40.403  26.025  23.105  1.00  0.00     0.012 C 
ATOM     11  C   UNL     1      40.450  23.553  22.634  1.00  0.00     0.012 C 
ENDROOT
TORSDOF 0
ENDMDL
