MODEL 1
REMARK VINA RESULT:    -3.959      0.000      0.000
REMARK INTER + INTRA:          -5.610
REMARK INTER:                  -5.116
REMARK INTRA:                  -0.494
REMARK UNBOUND:                -0.494
REMARK SMILES C=CC(=O)CCCCC
REMARK SMILES IDX 6 1 7 2 8 3 9 4 5 5 3 6 4 7 2 8 1 9
REMARK H PARENT
REMARK Flexibility Score: inf
ROOT
ATOM      1  C   UNL     1     -13.343   6.853  26.693  1.00  0.00     0.008 C 
ENDROOT
BRANCH   1   2
ATOM      2  C   UNL     1     -14.573   5.960  26.932  1.00  0.00     0.000 C 
BRANCH   2   3
ATOM      3  C   UNL     1     -14.408   4.556  26.330  1.00  0.00    -0.003 C 
ATOM      4  C   UNL     1     -13.784   3.562  27.309  1.00  0.00     0.004 C 
ENDBRANCH   2   3
ENDBRANCH   1   2
BRANCH   1   5
ATOM      5  C   UNL     1     -12.868   6.809  25.234  1.00  0.00     0.080 C 
BRANCH   5   6
ATOM      6  C   UNL     1     -11.397   6.521  25.132  1.00  0.00     0.155 C 
ATOM      7  O   UNL     1     -10.733   7.035  24.190  1.00  0.00    -0.295 OA
BRANCH   6   8
ATOM      8  C   UNL     1     -10.745   5.626  26.108  1.00  0.00     0.039 C 
ATOM      9  C   UNL     1      -9.972   4.607  25.738  1.00  0.00     0.012 C 
ENDBRANCH   6   8
ENDBRANCH   5   6
ENDBRANCH   1   5
TORSDOF 5
ENDMDL
MODEL 2
REMARK VINA RESULT:    -3.810      2.009      3.855
REMARK INTER + INTRA:          -5.417
REMARK INTER:                  -4.930
REMARK INTRA:                  -0.487
REMARK UNBOUND:                -0.494
REMARK SMILES C=CC(=O)CCCCC
REMARK SMILES IDX 6 1 7 2 8 3 9 4 5 5 3 6 4 7 2 8 1 9
REMARK H PARENT
REMARK Flexibility Score: inf
ROOT
ATOM      1  C   UNL     1     -12.961   6.754  25.192  1.00  0.00     0.008 C 
ENDROOT
BRANCH   1   2
ATOM      2  C   UNL     1     -11.427   6.632  25.210  1.00  0.00     0.000 C 
BRANCH   2   3
ATOM      3  C   UNL     1     -10.927   5.657  26.288  1.00  0.00    -0.003 C 
ATOM      4  C   UNL     1      -9.980   4.594  25.732  1.00  0.00     0.004 C 
ENDBRANCH   2   3
ENDBRANCH   1   2
BRANCH   1   5
ATOM      5  C   UNL     1     -13.539   7.013  26.590  1.00  0.00     0.080 C 
BRANCH   5   6
ATOM      6  C   UNL     1     -14.617   6.027  26.942  1.00  0.00     0.155 C 
ATOM      7  O   UNL     1     -15.554   6.385  27.705  1.00  0.00    -0.295 OA
BRANCH   6   8
ATOM      8  C   UNL     1     -14.561   4.647  26.418  1.00  0.00     0.039 C 
ATOM      9  C   UNL     1     -13.982   3.652  27.087  1.00  0.00     0.012 C 
ENDBRANCH   6   8
ENDBRANCH   5   6
ENDBRANCH   1   5
TORSDOF 5
ENDMDL
MODEL 3
REMARK VINA RESULT:    -3.774      1.636      2.730
REMARK INTER + INTRA:          -5.371
REMARK INTER:                  -5.086
REMARK INTRA:                  -0.285
REMARK UNBOUND:                -0.494
REMARK SMILES C=CC(=O)CCCCC
REMARK SMILES IDX 6 1 7 2 8 3 9 4 5 5 3 6 4 7 2 8 1 9
REMARK H PARENT
REMARK Flexibility Score: inf
ROOT
ATOM      1  C   UNL     1     -13.880   6.468  25.949  1.00  0.00     0.008 C 
ENDROOT
BRANCH   1   2
ATOM      2  C   UNL     1     -14.891   7.437  26.587  1.00  0.00     0.000 C 
BRANCH   2   3
ATOM      3  C   UNL     1     -14.487   8.909  26.410  1.00  0.00    -0.003 C 
ATOM      4  C   UNL     1     -15.646   9.789  25.945  1.00  0.00     0.004 C 
ENDBRANCH   2   3
ENDBRANCH   1   2
BRANCH   1   5
ATOM      5  C   UNL     1     -12.950   7.172  24.952  1.00  0.00     0.080 C 
BRANCH   5   6
ATOM      6  C   UNL     1     -11.537   6.672  25.055  1.00  0.00     0.155 C 
ATOM      7  O   UNL     1     -10.683   7.060  24.212  1.00  0.00    -0.295 OA
BRANCH   6   8
ATOM      8  C   UNL     1     -11.162   5.715  26.115  1.00  0.00     0.039 C 
ATOM      9  C   UNL     1     -10.242   4.770  25.933  1.00  0.00     0.012 C 
ENDBRANCH   6   8
ENDBRANCH   5   6
ENDBRANCH   1   5
TORSDOF 5
ENDMDL
MODEL 4
REMARK VINA RESULT:    -3.757      2.607      4.458
REMARK INTER + INTRA:          -5.349
REMARK INTER:                  -5.110
REMARK INTRA:                  -0.240
REMARK UNBOUND:                -0.494
REMARK SMILES C=CC(=O)CCCCC
REMARK SMILES IDX 6 1 7 2 8 3 9 4 5 5 3 6 4 7 2 8 1 9
REMARK H PARENT
REMARK Flexibility Score: inf
ROOT
ATOM      1  C   UNL     1     -12.914   6.988  25.063  1.00  0.00     0.008 C 
ENDROOT
BRANCH   1   2
ATOM      2  C   UNL     1     -11.476   6.692  25.523  1.00  0.00     0.000 C 
BRANCH   2   3
ATOM      3  C   UNL     1     -11.338   5.302  26.165  1.00  0.00    -0.003 C 
ATOM      4  C   UNL     1     -10.018   4.616  25.813  1.00  0.00     0.004 C 
ENDBRANCH   2   3
ENDBRANCH   1   2
BRANCH   1   5
ATOM      5  C   UNL     1     -13.952   6.629  26.135  1.00  0.00     0.080 C 
BRANCH   5   6
ATOM      6  C   UNL     1     -14.954   7.731  26.337  1.00  0.00     0.155 C 
ATOM      7  O   UNL     1     -16.178   7.443  26.416  1.00  0.00    -0.295 OA
BRANCH   6   8
ATOM      8  C   UNL     1     -14.507   9.136  26.415  1.00  0.00     0.039 C 
ATOM      9  C   UNL     1     -15.160  10.128  25.812  1.00  0.00     0.012 C 
ENDBRANCH   6   8
ENDBRANCH   5   6
ENDBRANCH   1   5
TORSDOF 5
ENDMDL
MODEL 5
REMARK VINA RESULT:    -3.744      1.741      3.850
REMARK INTER + INTRA:          -5.332
REMARK INTER:                  -5.090
REMARK INTRA:                  -0.242
REMARK UNBOUND:                -0.494
REMARK SMILES C=CC(=O)CCCCC
REMARK SMILES IDX 6 1 7 2 8 3 9 4 5 5 3 6 4 7 2 8 1 9
REMARK H PARENT
REMARK Flexibility Score: inf
ROOT
ATOM      1  C   UNL     1     -11.779   6.704  25.619  1.00  0.00     0.008 C 
ENDROOT
BRANCH   1   2
ATOM      2  C   UNL     1     -11.225   5.429  26.278  1.00  0.00     0.000 C 
BRANCH   2   3
ATOM      3  C   UNL     1     -10.020   4.850  25.519  1.00  0.00    -0.003 C 
ATOM      4  C   UNL     1      -9.583   3.487  26.055  1.00  0.00     0.004 C 
ENDBRANCH   2   3
ENDBRANCH   1   2
BRANCH   1   5
ATOM      5  C   UNL     1     -13.255   6.560  25.223  1.00  0.00     0.080 C 
BRANCH   5   6
ATOM      6  C   UNL     1     -14.168   7.225  26.214  1.00  0.00     0.155 C 
ATOM      7  O   UNL     1     -14.061   8.465  26.413  1.00  0.00    -0.295 OA
BRANCH   6   8
ATOM      8  C   UNL     1     -15.160   6.427  26.962  1.00  0.00     0.039 C 
ATOM      9  C   UNL     1     -15.344   5.127  26.743  1.00  0.00     0.012 C 
ENDBRANCH   6   8
ENDBRANCH   5   6
ENDBRANCH   1   5
TORSDOF 5
ENDMDL
MODEL 6
REMARK VINA RESULT:    -3.615      2.190      4.047
REMARK INTER + INTRA:          -5.165
REMARK INTER:                  -4.862
REMARK INTRA:                  -0.303
REMARK UNBOUND:                -0.494
REMARK SMILES C=CC(=O)CCCCC
REMARK SMILES IDX 6 1 7 2 8 3 9 4 5 5 3 6 4 7 2 8 1 9
REMARK H PARENT
REMARK Flexibility Score: inf
ROOT
ATOM      1  C   UNL     1     -12.591   6.242  26.624  1.00  0.00     0.008 C 
ENDROOT
BRANCH   1   2
ATOM      2  C   UNL     1     -11.360   6.150  25.705  1.00  0.00     0.000 C 
BRANCH   2   3
ATOM      3  C   UNL     1     -10.444   4.969  26.063  1.00  0.00    -0.003 C 
ATOM      4  C   UNL     1      -9.588   4.506  24.885  1.00  0.00     0.004 C 
ENDBRANCH   2   3
ENDBRANCH   1   2
BRANCH   1   5
ATOM      5  C   UNL     1     -13.885   5.833  25.904  1.00  0.00     0.080 C 
BRANCH   5   6
ATOM      6  C   UNL     1     -14.491   4.595  26.502  1.00  0.00     0.155 C 
ATOM      7  O   UNL     1     -15.736   4.415  26.413  1.00  0.00    -0.295 OA
BRANCH   6   8
ATOM      8  C   UNL     1     -13.640   3.617  27.207  1.00  0.00     0.039 C 
ATOM      9  C   UNL     1     -14.144   2.663  27.988  1.00  0.00     0.012 C 
ENDBRANCH   6   8
ENDBRANCH   5   6
ENDBRANCH   1   5
TORSDOF 5
ENDMDL
MODEL 7
REMARK VINA RESULT:    -3.553      2.478      3.457
REMARK INTER + INTRA:          -5.086
REMARK INTER:                  -4.948
REMARK INTRA:                  -0.138
REMARK UNBOUND:                -0.494
REMARK SMILES C=CC(=O)CCCCC
REMARK SMILES IDX 6 1 7 2 8 3 9 4 5 5 3 6 4 7 2 8 1 9
REMARK H PARENT
REMARK Flexibility Score: inf
ROOT
ATOM      1  C   UNL     1     -14.466   7.070  26.007  1.00  0.00     0.008 C 
ENDROOT
BRANCH   1   2
ATOM      2  C   UNL     1     -14.447   8.499  26.575  1.00  0.00     0.000 C 
BRANCH   2   3
ATOM      3  C   UNL     1     -15.628   9.347  26.075  1.00  0.00    -0.003 C 
ATOM      4  C   UNL     1     -15.213  10.764  25.680  1.00  0.00     0.004 C 
ENDBRANCH   2   3
ENDBRANCH   1   2
BRANCH   1   5
ATOM      5  C   UNL     1     -13.181   6.733  25.237  1.00  0.00     0.080 C 
BRANCH   5   6
ATOM      6  C   UNL     1     -12.326   5.745  25.978  1.00  0.00     0.155 C 
ATOM      7  O   UNL     1     -12.877   4.900  26.735  1.00  0.00    -0.295 OA
BRANCH   6   8
ATOM      8  C   UNL     1     -10.857   5.782  25.840  1.00  0.00     0.039 C 
ATOM      9  C   UNL     1     -10.103   4.687  25.920  1.00  0.00     0.012 C 
ENDBRANCH   6   8
ENDBRANCH   5   6
ENDBRANCH   1   5
TORSDOF 5
ENDMDL
MODEL 8
REMARK VINA RESULT:    -3.408      2.000      2.246
REMARK INTER + INTRA:          -4.898
REMARK INTER:                  -4.642
REMARK INTRA:                  -0.256
REMARK UNBOUND:                -0.494
REMARK SMILES C=CC(=O)CCCCC
REMARK SMILES IDX 6 1 7 2 8 3 9 4 5 5 3 6 4 7 2 8 1 9
REMARK H PARENT
REMARK Flexibility Score: inf
ROOT
ATOM      1  C   UNL     1     -13.975   7.842  26.270  1.00  0.00     0.008 C 
ENDROOT
BRANCH   1   2
ATOM      2  C   UNL     1     -15.485   7.564  26.373  1.00  0.00     0.000 C 
BRANCH   2   3
ATOM      3  C   UNL     1     -15.864   6.848  27.680  1.00  0.00    -0.003 C 
ATOM      4  C   UNL     1     -16.704   5.594  27.446  1.00  0.00     0.004 C 
ENDBRANCH   2   3
ENDBRANCH   1   2
BRANCH   1   5
ATOM      5  C   UNL     1     -13.285   6.928  25.248  1.00  0.00     0.080 C 
BRANCH   5   6
ATOM      6  C   UNL     1     -12.492   5.839  25.914  1.00  0.00     0.155 C 
ATOM      7  O   UNL     1     -13.103   4.902  26.497  1.00  0.00    -0.295 OA
BRANCH   6   8
ATOM      8  C   UNL     1     -11.017   5.883  25.908  1.00  0.00     0.039 C 
ATOM      9  C   UNL     1     -10.268   4.782  25.911  1.00  0.00     0.012 C 
ENDBRANCH   6   8
ENDBRANCH   5   6
ENDBRANCH   1   5
TORSDOF 5
ENDMDL
MODEL 9
REMARK VINA RESULT:    -3.306      2.585      4.640
REMARK INTER + INTRA:          -4.766
REMARK INTER:                  -4.479
REMARK INTRA:                  -0.288
REMARK UNBOUND:                -0.494
REMARK SMILES C=CC(=O)CCCCC
REMARK SMILES IDX 6 1 7 2 8 3 9 4 5 5 3 6 4 7 2 8 1 9
REMARK H PARENT
REMARK Flexibility Score: inf
ROOT
ATOM      1  C   UNL     1     -13.134   5.963  26.724  1.00  0.00     0.008 C 
ENDROOT
BRANCH   1   2
ATOM      2  C   UNL     1     -12.566   6.790  25.558  1.00  0.00     0.000 C 
BRANCH   2   3
ATOM      3  C   UNL     1     -11.095   6.456  25.260  1.00  0.00    -0.003 C 
ATOM      4  C   UNL     1     -10.618   5.194  25.978  1.00  0.00     0.004 C 
ENDBRANCH   2   3
ENDBRANCH   1   2
BRANCH   1   5
ATOM      5  C   UNL     1     -14.332   5.103  26.297  1.00  0.00     0.080 C 
BRANCH   5   6
ATOM      6  C   UNL     1     -15.612   5.574  26.927  1.00  0.00     0.155 C 
ATOM      7  O   UNL     1     -16.546   4.748  27.115  1.00  0.00    -0.295 OA
BRANCH   6   8
ATOM      8  C   UNL     1     -15.781   6.993  27.297  1.00  0.00     0.039 C 
ATOM      9  C   UNL     1     -16.340   7.883  26.480  1.00  0.00     0.012 C 
ENDBRANCH   6   8
ENDBRANCH   5   6
ENDBRANCH   1   5
TORSDOF 5
ENDMDL
