MODEL 1
REMARK VINA RESULT:    -4.262      0.000      0.000
REMARK INTER + INTRA:         -11.297
REMARK INTER:                  -8.249
REMARK INTRA:                  -3.048
REMARK UNBOUND:                -3.048
REMARK SMILES CCCCCCCCCCCCCCCCCC(=O)[O-]
REMARK SMILES IDX 10 1 11 2 12 3 13 4 14 5 15 6 16 7 17 8 18 9 19 10 20 11
REMARK SMILES IDX 9 12 8 13 7 14 6 15 5 16 4 17 3 18 2 19 1 20
REMARK H PARENT
REMARK Flexibility Score: inf
ROOT
ATOM      1  C   UNL     1      17.082 -15.272  36.349  1.00  0.00     0.000 C 
ENDROOT
BRANCH   1   2
ATOM      2  C   UNL     1      15.633 -15.712  36.054  1.00  0.00     0.000 C 
BRANCH   2   3
ATOM      3  C   UNL     1      15.263 -17.015  36.785  1.00  0.00     0.000 C 
BRANCH   3   4
ATOM      4  C   UNL     1      16.396 -17.530  37.687  1.00  0.00     0.000 C 
BRANCH   4   5
ATOM      5  C   UNL     1      15.871 -18.328  38.895  1.00  0.00     0.000 C 
BRANCH   5   6
ATOM      6  C   UNL     1      14.349 -18.537  38.850  1.00  0.00     0.000 C 
BRANCH   6   7
ATOM      7  C   UNL     1      13.793 -19.123  40.160  1.00  0.00     0.006 C 
BRANCH   7   8
ATOM      8  C   UNL     1      12.880 -20.331  39.910  1.00  0.00     0.053 C 
BRANCH   8   9
ATOM      9  C   UNL     1      13.607 -21.445  39.221  1.00  0.00     0.041 C 
ATOM     10  O   UNL     1      13.252 -21.821  38.074  1.00  0.00    -0.550 OA
ATOM     11  O   UNL     1      14.663 -22.084  39.858  1.00  0.00    -0.550 OA
ENDBRANCH   8   9
ENDBRANCH   7   8
ENDBRANCH   6   7
ENDBRANCH   5   6
ENDBRANCH   4   5
ENDBRANCH   3   4
ENDBRANCH   2   3
ENDBRANCH   1   2
BRANCH   1  12
ATOM     12  C   UNL     1      17.178 -13.990  37.194  1.00  0.00     0.000 C 
BRANCH  12  13
ATOM     13  C   UNL     1      15.912 -13.126  37.114  1.00  0.00    -0.000 C 
BRANCH  13  14
ATOM     14  C   UNL     1      15.267 -12.964  38.499  1.00  0.00    -0.000 C 
BRANCH  14  15
ATOM     15  C   UNL     1      15.907 -13.876  39.559  1.00  0.00    -0.000 C 
BRANCH  15  16
ATOM     16  C   UNL     1      14.951 -14.971  40.053  1.00  0.00    -0.000 C 
BRANCH  16  17
ATOM     17  C   UNL     1      13.615 -14.914  39.296  1.00  0.00    -0.000 C 
BRANCH  17  18
ATOM     18  C   UNL     1      12.467 -15.583  40.068  1.00  0.00    -0.000 C 
BRANCH  18  19
ATOM     19  C   UNL     1      11.477 -16.307  39.143  1.00  0.00    -0.003 C 
ATOM     20  C   UNL     1      11.766 -15.995  37.677  1.00  0.00     0.004 C 
ENDBRANCH  18  19
ENDBRANCH  17  18
ENDBRANCH  16  17
ENDBRANCH  15  16
ENDBRANCH  14  15
ENDBRANCH  13  14
ENDBRANCH  12  13
ENDBRANCH   1  12
TORSDOF 16
ENDMDL
MODEL 2
REMARK VINA RESULT:    -4.246     11.826     13.608
REMARK INTER + INTRA:         -11.265
REMARK INTER:                  -9.282
REMARK INTRA:                  -1.983
REMARK UNBOUND:                -3.048
REMARK SMILES CCCCCCCCCCCCCCCCCC(=O)[O-]
REMARK SMILES IDX 10 1 11 2 12 3 13 4 14 5 15 6 16 7 17 8 18 9 19 10 20 11
REMARK SMILES IDX 9 12 8 13 7 14 6 15 5 16 4 17 3 18 2 19 1 20
REMARK H PARENT
REMARK Flexibility Score: inf
ROOT
ATOM      1  C   UNL     1      24.965 -23.372  30.353  1.00  0.00     0.000 C 
ENDROOT
BRANCH   1   2
ATOM      2  C   UNL     1      26.464 -23.159  30.054  1.00  0.00     0.000 C 
BRANCH   2   3
ATOM      3  C   UNL     1      27.235 -24.489  29.982  1.00  0.00     0.000 C 
BRANCH   3   4
ATOM      4  C   UNL     1      27.142 -25.299  31.284  1.00  0.00     0.000 C 
BRANCH   4   5
ATOM      5  C   UNL     1      27.027 -26.814  31.029  1.00  0.00     0.000 C 
BRANCH   5   6
ATOM      6  C   UNL     1      25.652 -27.218  30.475  1.00  0.00     0.000 C 
BRANCH   6   7
ATOM      7  C   UNL     1      24.497 -26.823  31.414  1.00  0.00     0.006 C 
BRANCH   7   8
ATOM      8  C   UNL     1      24.602 -27.513  32.780  1.00  0.00     0.053 C 
BRANCH   8   9
ATOM      9  C   UNL     1      24.173 -26.608  33.895  1.00  0.00     0.041 C 
ATOM     10  O   UNL     1      25.029 -26.097  34.663  1.00  0.00    -0.550 OA
ATOM     11  O   UNL     1      22.823 -26.350  34.099  1.00  0.00    -0.550 OA
ENDBRANCH   8   9
ENDBRANCH   7   8
ENDBRANCH   6   7
ENDBRANCH   5   6
ENDBRANCH   4   5
ENDBRANCH   3   4
ENDBRANCH   2   3
ENDBRANCH   1   2
BRANCH   1  12
ATOM     12  C   UNL     1      24.433 -22.489  31.495  1.00  0.00     0.000 C 
BRANCH  12  13
ATOM     13  C   UNL     1      24.850 -22.991  32.884  1.00  0.00    -0.000 C 
BRANCH  13  14
ATOM     14  C   UNL     1      23.685 -22.890  33.879  1.00  0.00    -0.000 C 
BRANCH  14  15
ATOM     15  C   UNL     1      22.415 -22.298  33.245  1.00  0.00    -0.000 C 
BRANCH  15  16
ATOM     16  C   UNL     1      21.245 -23.293  33.225  1.00  0.00    -0.000 C 
BRANCH  16  17
ATOM     17  C   UNL     1      19.914 -22.565  32.981  1.00  0.00    -0.000 C 
BRANCH  17  18
ATOM     18  C   UNL     1      20.025 -21.045  33.177  1.00  0.00    -0.000 C 
BRANCH  18  19
ATOM     19  C   UNL     1      19.518 -20.255  31.961  1.00  0.00    -0.003 C 
ATOM     20  C   UNL     1      20.676 -19.822  31.066  1.00  0.00     0.004 C 
ENDBRANCH  18  19
ENDBRANCH  17  18
ENDBRANCH  16  17
ENDBRANCH  15  16
ENDBRANCH  14  15
ENDBRANCH  13  14
ENDBRANCH  12  13
ENDBRANCH   1  12
TORSDOF 16
ENDMDL
MODEL 3
REMARK VINA RESULT:    -4.205      3.305      5.127
REMARK INTER + INTRA:         -11.186
REMARK INTER:                  -8.004
REMARK INTRA:                  -3.182
REMARK UNBOUND:                -3.048
REMARK SMILES CCCCCCCCCCCCCCCCCC(=O)[O-]
REMARK SMILES IDX 10 1 11 2 12 3 13 4 14 5 15 6 16 7 17 8 18 9 19 10 20 11
REMARK SMILES IDX 9 12 8 13 7 14 6 15 5 16 4 17 3 18 2 19 1 20
REMARK H PARENT
REMARK Flexibility Score: inf
ROOT
ATOM      1  C   UNL     1      15.240 -13.148  38.618  1.00  0.00     0.000 C 
ENDROOT
BRANCH   1   2
ATOM      2  C   UNL     1      15.636 -14.252  39.619  1.00  0.00     0.000 C 
BRANCH   2   3
ATOM      3  C   UNL     1      14.738 -15.496  39.496  1.00  0.00     0.000 C 
BRANCH   3   4
ATOM      4  C   UNL     1      15.434 -16.660  38.773  1.00  0.00     0.000 C 
BRANCH   4   5
ATOM      5  C   UNL     1      14.562 -17.266  37.658  1.00  0.00     0.000 C 
BRANCH   5   6
ATOM      6  C   UNL     1      14.948 -16.754  36.261  1.00  0.00     0.000 C 
BRANCH   6   7
ATOM      7  C   UNL     1      16.420 -16.313  36.179  1.00  0.00     0.006 C 
BRANCH   7   8
ATOM      8  C   UNL     1      16.575 -14.938  35.517  1.00  0.00     0.053 C 
BRANCH   8   9
ATOM      9  C   UNL     1      17.803 -14.224  35.994  1.00  0.00     0.041 C 
ATOM     10  O   UNL     1      18.417 -13.437  35.229  1.00  0.00    -0.550 OA
ATOM     11  O   UNL     1      18.281 -14.450  37.279  1.00  0.00    -0.550 OA
ENDBRANCH   8   9
ENDBRANCH   7   8
ENDBRANCH   6   7
ENDBRANCH   5   6
ENDBRANCH   4   5
ENDBRANCH   3   4
ENDBRANCH   2   3
ENDBRANCH   1   2
BRANCH   1  12
ATOM     12  C   UNL     1      14.023 -13.511  37.749  1.00  0.00     0.000 C 
BRANCH  12  13
ATOM     13  C   UNL     1      12.761 -12.724  38.129  1.00  0.00    -0.000 C 
BRANCH  13  14
ATOM     14  C   UNL     1      11.594 -13.672  38.442  1.00  0.00    -0.000 C 
BRANCH  14  15
ATOM     15  C   UNL     1      11.622 -14.947  37.583  1.00  0.00    -0.000 C 
BRANCH  15  16
ATOM     16  C   UNL     1      11.037 -16.166  38.313  1.00  0.00    -0.000 C 
BRANCH  16  17
ATOM     17  C   UNL     1      10.973 -15.917  39.828  1.00  0.00    -0.000 C 
BRANCH  17  18
ATOM     18  C   UNL     1      11.509 -17.103  40.646  1.00  0.00    -0.000 C 
BRANCH  18  19
ATOM     19  C   UNL     1      11.895 -18.300  39.765  1.00  0.00    -0.003 C 
ATOM     20  C   UNL     1      12.909 -19.196  40.470  1.00  0.00     0.004 C 
ENDBRANCH  18  19
ENDBRANCH  17  18
ENDBRANCH  16  17
ENDBRANCH  15  16
ENDBRANCH  14  15
ENDBRANCH  13  14
ENDBRANCH  12  13
ENDBRANCH   1  12
TORSDOF 16
ENDMDL
MODEL 4
REMARK VINA RESULT:    -4.178      3.174      5.904
REMARK INTER + INTRA:         -11.135
REMARK INTER:                  -8.352
REMARK INTRA:                  -2.782
REMARK UNBOUND:                -3.048
REMARK SMILES CCCCCCCCCCCCCCCCCC(=O)[O-]
REMARK SMILES IDX 10 1 11 2 12 3 13 4 14 5 15 6 16 7 17 8 18 9 19 10 20 11
REMARK SMILES IDX 9 12 8 13 7 14 6 15 5 16 4 17 3 18 2 19 1 20
REMARK H PARENT
REMARK Flexibility Score: inf
ROOT
ATOM      1  C   UNL     1      12.240 -20.566  38.640  1.00  0.00     0.000 C 
ENDROOT
BRANCH   1   2
ATOM      2  C   UNL     1      12.331 -20.829  37.123  1.00  0.00     0.000 C 
BRANCH   2   3
ATOM      3  C   UNL     1      12.308 -19.524  36.306  1.00  0.00     0.000 C 
BRANCH   3   4
ATOM      4  C   UNL     1      12.308 -18.270  37.194  1.00  0.00     0.000 C 
BRANCH   4   5
ATOM      5  C   UNL     1      13.034 -17.082  36.535  1.00  0.00     0.000 C 
BRANCH   5   6
ATOM      6  C   UNL     1      14.503 -17.393  36.211  1.00  0.00     0.000 C 
BRANCH   6   7
ATOM      7  C   UNL     1      15.327 -16.124  35.924  1.00  0.00     0.006 C 
BRANCH   7   8
ATOM      8  C   UNL     1      16.696 -16.156  36.616  1.00  0.00     0.053 C 
BRANCH   8   9
ATOM      9  C   UNL     1      17.435 -14.864  36.446  1.00  0.00     0.041 C 
ATOM     10  O   UNL     1      18.481 -14.639  37.109  1.00  0.00    -0.550 OA
ATOM     11  O   UNL     1      16.954 -13.898  35.572  1.00  0.00    -0.550 OA
ENDBRANCH   8   9
ENDBRANCH   7   8
ENDBRANCH   6   7
ENDBRANCH   5   6
ENDBRANCH   4   5
ENDBRANCH   3   4
ENDBRANCH   2   3
ENDBRANCH   1   2
BRANCH   1  12
ATOM     12  C   UNL     1      13.490 -21.011  39.419  1.00  0.00     0.000 C 
BRANCH  12  13
ATOM     13  C   UNL     1      14.137 -19.868  40.214  1.00  0.00    -0.000 C 
BRANCH  13  14
ATOM     14  C   UNL     1      15.237 -19.178  39.392  1.00  0.00    -0.000 C 
BRANCH  14  15
ATOM     15  C   UNL     1      15.303 -17.664  39.646  1.00  0.00    -0.000 C 
BRANCH  15  16
ATOM     16  C   UNL     1      13.927 -17.054  39.951  1.00  0.00    -0.000 C 
BRANCH  16  17
ATOM     17  C   UNL     1      13.981 -15.520  39.879  1.00  0.00    -0.000 C 
BRANCH  17  18
ATOM     18  C   UNL     1      15.309 -14.949  40.400  1.00  0.00    -0.000 C 
BRANCH  18  19
ATOM     19  C   UNL     1      15.865 -13.836  39.500  1.00  0.00    -0.003 C 
ATOM     20  C   UNL     1      14.797 -13.321  38.539  1.00  0.00     0.004 C 
ENDBRANCH  18  19
ENDBRANCH  17  18
ENDBRANCH  16  17
ENDBRANCH  15  16
ENDBRANCH  14  15
ENDBRANCH  13  14
ENDBRANCH  12  13
ENDBRANCH   1  12
TORSDOF 16
ENDMDL
MODEL 5
REMARK VINA RESULT:    -4.131      1.511      4.275
REMARK INTER + INTRA:         -11.044
REMARK INTER:                  -8.016
REMARK INTRA:                  -3.028
REMARK UNBOUND:                -3.048
REMARK SMILES CCCCCCCCCCCCCCCCCC(=O)[O-]
REMARK SMILES IDX 10 1 11 2 12 3 13 4 14 5 15 6 16 7 17 8 18 9 19 10 20 11
REMARK SMILES IDX 9 12 8 13 7 14 6 15 5 16 4 17 3 18 2 19 1 20
REMARK H PARENT
REMARK Flexibility Score: inf
ROOT
ATOM      1  C   UNL     1      13.841 -13.305  37.863  1.00  0.00     0.000 C 
ENDROOT
BRANCH   1   2
ATOM      2  C   UNL     1      12.551 -12.731  38.484  1.00  0.00     0.000 C 
BRANCH   2   3
ATOM      3  C   UNL     1      11.478 -13.815  38.695  1.00  0.00     0.000 C 
BRANCH   3   4
ATOM      4  C   UNL     1      11.546 -14.928  37.637  1.00  0.00     0.000 C 
BRANCH   4   5
ATOM      5  C   UNL     1      11.266 -16.322  38.230  1.00  0.00     0.000 C 
BRANCH   5   6
ATOM      6  C   UNL     1      11.538 -16.388  39.741  1.00  0.00     0.000 C 
BRANCH   6   7
ATOM      7  C   UNL     1      11.961 -17.793  40.205  1.00  0.00     0.006 C 
BRANCH   7   8
ATOM      8  C   UNL     1      12.420 -18.673  39.036  1.00  0.00     0.053 C 
BRANCH   8   9
ATOM      9  C   UNL     1      13.602 -19.518  39.406  1.00  0.00     0.041 C 
ATOM     10  O   UNL     1      14.369 -19.163  40.338  1.00  0.00    -0.550 OA
ATOM     11  O   UNL     1      13.867 -20.686  38.703  1.00  0.00    -0.550 OA
ENDBRANCH   8   9
ENDBRANCH   7   8
ENDBRANCH   6   7
ENDBRANCH   5   6
ENDBRANCH   4   5
ENDBRANCH   3   4
ENDBRANCH   2   3
ENDBRANCH   1   2
BRANCH   1  12
ATOM     12  C   UNL     1      15.115 -12.949  38.650  1.00  0.00     0.000 C 
BRANCH  12  13
ATOM     13  C   UNL     1      15.692 -14.143  39.424  1.00  0.00    -0.000 C 
BRANCH  13  14
ATOM     14  C   UNL     1      14.838 -15.402  39.212  1.00  0.00    -0.000 C 
BRANCH  14  15
ATOM     15  C   UNL     1      15.576 -16.489  38.414  1.00  0.00    -0.000 C 
BRANCH  15  16
ATOM     16  C   UNL     1      15.204 -16.486  36.924  1.00  0.00    -0.000 C 
BRANCH  16  17
ATOM     17  C   UNL     1      16.416 -16.106  36.059  1.00  0.00    -0.000 C 
BRANCH  17  18
ATOM     18  C   UNL     1      16.284 -14.708  35.436  1.00  0.00    -0.000 C 
BRANCH  18  19
ATOM     19  C   UNL     1      17.472 -13.796  35.774  1.00  0.00    -0.003 C 
ATOM     20  C   UNL     1      18.311 -14.384  36.906  1.00  0.00     0.004 C 
ENDBRANCH  18  19
ENDBRANCH  17  18
ENDBRANCH  16  17
ENDBRANCH  15  16
ENDBRANCH  14  15
ENDBRANCH  13  14
ENDBRANCH  12  13
ENDBRANCH   1  12
TORSDOF 16
ENDMDL
MODEL 6
REMARK VINA RESULT:    -4.089      3.207      5.815
REMARK INTER + INTRA:         -10.963
REMARK INTER:                  -7.786
REMARK INTRA:                  -3.177
REMARK UNBOUND:                -3.048
REMARK SMILES CCCCCCCCCCCCCCCCCC(=O)[O-]
REMARK SMILES IDX 10 1 11 2 12 3 13 4 14 5 15 6 16 7 17 8 18 9 19 10 20 11
REMARK SMILES IDX 9 12 8 13 7 14 6 15 5 16 4 17 3 18 2 19 1 20
REMARK H PARENT
REMARK Flexibility Score: inf
ROOT
ATOM      1  C   UNL     1      13.807 -16.351  37.003  1.00  0.00     0.000 C 
ENDROOT
BRANCH   1   2
ATOM      2  C   UNL     1      12.550 -16.424  37.894  1.00  0.00     0.000 C 
BRANCH   2   3
ATOM      3  C   UNL     1      12.753 -15.712  39.243  1.00  0.00     0.000 C 
BRANCH   3   4
ATOM      4  C   UNL     1      13.747 -14.544  39.152  1.00  0.00     0.000 C 
BRANCH   4   5
ATOM      5  C   UNL     1      14.935 -14.705  40.119  1.00  0.00     0.000 C 
BRANCH   5   6
ATOM      6  C   UNL     1      16.206 -14.003  39.616  1.00  0.00     0.000 C 
BRANCH   6   7
ATOM      7  C   UNL     1      16.195 -13.778  38.093  1.00  0.00     0.006 C 
BRANCH   7   8
ATOM      8  C   UNL     1      17.465 -14.312  37.420  1.00  0.00     0.053 C 
BRANCH   8   9
ATOM      9  C   UNL     1      17.411 -14.164  35.930  1.00  0.00     0.041 C 
ATOM     10  O   UNL     1      18.351 -13.600  35.313  1.00  0.00    -0.550 OA
ATOM     11  O   UNL     1      16.308 -14.630  35.226  1.00  0.00    -0.550 OA
ENDBRANCH   8   9
ENDBRANCH   7   8
ENDBRANCH   6   7
ENDBRANCH   5   6
ENDBRANCH   4   5
ENDBRANCH   3   4
ENDBRANCH   2   3
ENDBRANCH   1   2
BRANCH   1  12
ATOM     12  C   UNL     1      14.650 -17.638  37.017  1.00  0.00     0.000 C 
BRANCH  12  13
ATOM     13  C   UNL     1      15.880 -17.537  37.929  1.00  0.00    -0.000 C 
BRANCH  13  14
ATOM     14  C   UNL     1      15.572 -18.084  39.332  1.00  0.00    -0.000 C 
BRANCH  14  15
ATOM     15  C   UNL     1      14.778 -19.400  39.291  1.00  0.00    -0.000 C 
BRANCH  15  16
ATOM     16  C   UNL     1      13.434 -19.304  40.028  1.00  0.00    -0.000 C 
BRANCH  16  17
ATOM     17  C   UNL     1      12.354 -20.122  39.304  1.00  0.00    -0.000 C 
BRANCH  17  18
ATOM     18  C   UNL     1      12.888 -20.830  38.050  1.00  0.00    -0.000 C 
BRANCH  18  19
ATOM     19  C   UNL     1      12.232 -20.320  36.759  1.00  0.00    -0.003 C 
ATOM     20  C   UNL     1      10.897 -19.642  37.052  1.00  0.00     0.004 C 
ENDBRANCH  18  19
ENDBRANCH  17  18
ENDBRANCH  16  17
ENDBRANCH  15  16
ENDBRANCH  14  15
ENDBRANCH  13  14
ENDBRANCH  12  13
ENDBRANCH   1  12
TORSDOF 16
ENDMDL
MODEL 7
REMARK VINA RESULT:    -4.067      1.384      3.545
REMARK INTER + INTRA:         -10.920
REMARK INTER:                  -8.863
REMARK INTRA:                  -2.057
REMARK UNBOUND:                -3.048
REMARK SMILES CCCCCCCCCCCCCCCCCC(=O)[O-]
REMARK SMILES IDX 10 1 11 2 12 3 13 4 14 5 15 6 16 7 17 8 18 9 19 10 20 11
REMARK SMILES IDX 9 12 8 13 7 14 6 15 5 16 4 17 3 18 2 19 1 20
REMARK H PARENT
REMARK Flexibility Score: inf
ROOT
ATOM      1  C   UNL     1      15.120 -15.270  39.855  1.00  0.00     0.000 C 
ENDROOT
BRANCH   1   2
ATOM      2  C   UNL     1      13.584 -15.237  39.988  1.00  0.00     0.000 C 
BRANCH   2   3
ATOM      3  C   UNL     1      12.933 -16.548  39.511  1.00  0.00     0.000 C 
BRANCH   3   4
ATOM      4  C   UNL     1      13.831 -17.773  39.740  1.00  0.00     0.000 C 
BRANCH   4   5
ATOM      5  C   UNL     1      13.065 -18.960  40.353  1.00  0.00     0.000 C 
BRANCH   5   6
ATOM      6  C   UNL     1      13.973 -20.165  40.640  1.00  0.00     0.000 C 
BRANCH   6   7
ATOM      7  C   UNL     1      14.743 -20.636  39.394  1.00  0.00     0.006 C 
BRANCH   7   8
ATOM      8  C   UNL     1      14.365 -22.067  38.987  1.00  0.00     0.053 C 
BRANCH   8   9
ATOM      9  C   UNL     1      13.197 -22.089  38.049  1.00  0.00     0.041 C 
ATOM     10  O   UNL     1      12.582 -23.163  37.827  1.00  0.00    -0.550 OA
ATOM     11  O   UNL     1      12.805 -20.924  37.401  1.00  0.00    -0.550 OA
ENDBRANCH   8   9
ENDBRANCH   7   8
ENDBRANCH   6   7
ENDBRANCH   5   6
ENDBRANCH   4   5
ENDBRANCH   3   4
ENDBRANCH   2   3
ENDBRANCH   1   2
BRANCH   1  12
ATOM     12  C   UNL     1      15.736 -13.912  39.479  1.00  0.00     0.000 C 
BRANCH  12  13
ATOM     13  C   UNL     1      14.777 -13.023  38.675  1.00  0.00    -0.000 C 
BRANCH  13  14
ATOM     14  C   UNL     1      14.904 -13.296  37.169  1.00  0.00    -0.000 C 
BRANCH  14  15
ATOM     15  C   UNL     1      16.234 -12.789  36.586  1.00  0.00    -0.000 C 
BRANCH  15  16
ATOM     16  C   UNL     1      17.040 -13.899  35.896  1.00  0.00    -0.000 C 
BRANCH  16  17
ATOM     17  C   UNL     1      17.802 -14.744  36.929  1.00  0.00    -0.000 C 
BRANCH  17  18
ATOM     18  C   UNL     1      17.306 -16.198  36.987  1.00  0.00    -0.000 C 
BRANCH  18  19
ATOM     19  C   UNL     1      16.352 -16.542  35.834  1.00  0.00    -0.003 C 
ATOM     20  C   UNL     1      14.967 -16.911  36.359  1.00  0.00     0.004 C 
ENDBRANCH  18  19
ENDBRANCH  17  18
ENDBRANCH  16  17
ENDBRANCH  15  16
ENDBRANCH  14  15
ENDBRANCH  13  14
ENDBRANCH  12  13
ENDBRANCH   1  12
TORSDOF 16
ENDMDL
MODEL 8
REMARK VINA RESULT:    -4.049      1.770      2.612
REMARK INTER + INTRA:         -10.884
REMARK INTER:                  -8.207
REMARK INTRA:                  -2.677
REMARK UNBOUND:                -3.048
REMARK SMILES CCCCCCCCCCCCCCCCCC(=O)[O-]
REMARK SMILES IDX 10 1 11 2 12 3 13 4 14 5 15 6 16 7 17 8 18 9 19 10 20 11
REMARK SMILES IDX 9 12 8 13 7 14 6 15 5 16 4 17 3 18 2 19 1 20
REMARK H PARENT
REMARK Flexibility Score: inf
ROOT
ATOM      1  C   UNL     1      14.915 -16.645  35.964  1.00  0.00     0.000 C 
ENDROOT
BRANCH   1   2
ATOM      2  C   UNL     1      14.636 -17.538  37.190  1.00  0.00     0.000 C 
BRANCH   2   3
ATOM      3  C   UNL     1      15.855 -17.637  38.125  1.00  0.00     0.000 C 
BRANCH   3   4
ATOM      4  C   UNL     1      15.477 -18.085  39.545  1.00  0.00     0.000 C 
BRANCH   4   5
ATOM      5  C   UNL     1      13.958 -18.273  39.719  1.00  0.00     0.000 C 
BRANCH   5   6
ATOM      6  C   UNL     1      13.606 -19.534  40.523  1.00  0.00     0.000 C 
BRANCH   6   7
ATOM      7  C   UNL     1      12.530 -20.393  39.835  1.00  0.00     0.006 C 
BRANCH   7   8
ATOM      8  C   UNL     1      13.012 -20.956  38.492  1.00  0.00     0.053 C 
BRANCH   8   9
ATOM      9  C   UNL     1      12.041 -20.669  37.387  1.00  0.00     0.041 C 
ATOM     10  O   UNL     1      10.849 -21.064  37.472  1.00  0.00    -0.550 OA
ATOM     11  O   UNL     1      12.461 -19.988  36.252  1.00  0.00    -0.550 OA
ENDBRANCH   8   9
ENDBRANCH   7   8
ENDBRANCH   6   7
ENDBRANCH   5   6
ENDBRANCH   4   5
ENDBRANCH   3   4
ENDBRANCH   2   3
ENDBRANCH   1   2
BRANCH   1  12
ATOM     12  C   UNL     1      16.373 -16.161  35.873  1.00  0.00     0.000 C 
BRANCH  12  13
ATOM     13  C   UNL     1      16.492 -14.716  35.370  1.00  0.00    -0.000 C 
BRANCH  13  14
ATOM     14  C   UNL     1      17.422 -13.892  36.274  1.00  0.00    -0.000 C 
BRANCH  14  15
ATOM     15  C   UNL     1      17.328 -14.307  37.752  1.00  0.00    -0.000 C 
BRANCH  15  16
ATOM     16  C   UNL     1      16.273 -13.504  38.527  1.00  0.00    -0.000 C 
BRANCH  16  17
ATOM     17  C   UNL     1      15.536 -14.400  39.534  1.00  0.00    -0.000 C 
BRANCH  17  18
ATOM     18  C   UNL     1      14.040 -14.543  39.214  1.00  0.00    -0.000 C 
BRANCH  18  19
ATOM     19  C   UNL     1      13.648 -13.851  37.901  1.00  0.00    -0.003 C 
ATOM     20  C   UNL     1      12.620 -12.750  38.145  1.00  0.00     0.004 C 
ENDBRANCH  18  19
ENDBRANCH  17  18
ENDBRANCH  16  17
ENDBRANCH  15  16
ENDBRANCH  14  15
ENDBRANCH  13  14
ENDBRANCH  12  13
ENDBRANCH   1  12
TORSDOF 16
ENDMDL
MODEL 9
REMARK VINA RESULT:    -3.993      3.372      6.360
REMARK INTER + INTRA:         -10.776
REMARK INTER:                  -8.079
REMARK INTRA:                  -2.698
REMARK UNBOUND:                -3.048
REMARK SMILES CCCCCCCCCCCCCCCCCC(=O)[O-]
REMARK SMILES IDX 10 1 11 2 12 3 13 4 14 5 15 6 16 7 17 8 18 9 19 10 20 11
REMARK SMILES IDX 9 12 8 13 7 14 6 15 5 16 4 17 3 18 2 19 1 20
REMARK H PARENT
REMARK Flexibility Score: inf
ROOT
ATOM      1  C   UNL     1      15.498 -18.620  38.829  1.00  0.00     0.000 C 
ENDROOT
BRANCH   1   2
ATOM      2  C   UNL     1      14.998 -17.331  38.145  1.00  0.00     0.000 C 
BRANCH   2   3
ATOM      3  C   UNL     1      13.718 -16.785  38.802  1.00  0.00     0.000 C 
BRANCH   3   4
ATOM      4  C   UNL     1      13.874 -15.336  39.288  1.00  0.00     0.000 C 
BRANCH   4   5
ATOM      5  C   UNL     1      15.162 -15.124  40.106  1.00  0.00     0.000 C 
BRANCH   5   6
ATOM      6  C   UNL     1      15.984 -13.922  39.615  1.00  0.00     0.000 C 
BRANCH   6   7
ATOM      7  C   UNL     1      15.993 -13.798  38.081  1.00  0.00     0.006 C 
BRANCH   7   8
ATOM      8  C   UNL     1      17.342 -14.210  37.477  1.00  0.00     0.053 C 
BRANCH   8   9
ATOM      9  C   UNL     1      17.380 -13.986  35.996  1.00  0.00     0.041 C 
ATOM     10  O   UNL     1      18.463 -13.696  35.426  1.00  0.00    -0.550 OA
ATOM     11  O   UNL     1      16.212 -14.075  35.250  1.00  0.00    -0.550 OA
ENDBRANCH   8   9
ENDBRANCH   7   8
ENDBRANCH   6   7
ENDBRANCH   5   6
ENDBRANCH   4   5
ENDBRANCH   3   4
ENDBRANCH   2   3
ENDBRANCH   1   2
BRANCH   1  12
ATOM     12  C   UNL     1      14.701 -18.998  40.090  1.00  0.00     0.000 C 
BRANCH  12  13
ATOM     13  C   UNL     1      14.375 -20.496  40.165  1.00  0.00    -0.000 C 
BRANCH  13  14
ATOM     14  C   UNL     1      12.930 -20.722  40.636  1.00  0.00    -0.000 C 
BRANCH  14  15
ATOM     15  C   UNL     1      12.220 -19.412  41.014  1.00  0.00    -0.000 C 
BRANCH  15  16
ATOM     16  C   UNL     1      10.946 -19.170  40.192  1.00  0.00    -0.000 C 
BRANCH  16  17
ATOM     17  C   UNL     1      10.957 -20.012  38.906  1.00  0.00    -0.000 C 
BRANCH  17  18
ATOM     18  C   UNL     1      11.203 -19.166  37.647  1.00  0.00    -0.000 C 
BRANCH  18  19
ATOM     19  C   UNL     1      12.354 -19.709  36.788  1.00  0.00    -0.003 C 
ATOM     20  C   UNL     1      12.507 -21.217  36.963  1.00  0.00     0.004 C 
ENDBRANCH  18  19
ENDBRANCH  17  18
ENDBRANCH  16  17
ENDBRANCH  15  16
ENDBRANCH  14  15
ENDBRANCH  13  14
ENDBRANCH  12  13
ENDBRANCH   1  12
TORSDOF 16
ENDMDL
