MODEL 1
REMARK VINA RESULT:    -5.340      0.000      0.000
REMARK INTER + INTRA:          -9.330
REMARK INTER:                  -7.837
REMARK INTRA:                  -1.493
REMARK UNBOUND:                -1.493
REMARK SMILES Cc1cc2c(C(C)C)c(O)c(O)c(C=O)c2c(O)c1-c1c(C)cc2c(C(C)C)c(O)c(O)c(C=O)c2c1O
REMARK SMILES IDX 1 1 2 2 3 3 4 4 16 5 13 6 11 7 9 8 5 9 17 10 19 11 20 12
REMARK SMILES IDX 37 13 21 14 36 15 23 16 22 17 24 18 33 19 25 20 31 21 29 22
REMARK SMILES IDX 38 23 34 25 35 26 26 27 27 28 28 29 32 30 30 32 18 34 6 36
REMARK SMILES IDX 7 37 8 38 14 39 15 40 10 41 12 43
REMARK H PARENT 38 24 32 31 30 33 18 35 10 42 12 44
REMARK Flexibility Score: inf
ROOT
ATOM      1  C   UNL     1      63.296  23.515  51.716  1.00  0.00     0.045 C 
ATOM      2  C   UNL     1      62.410  24.603  51.159  1.00  0.00    -0.039 A 
ATOM      3  C   UNL     1      62.963  25.844  50.844  1.00  0.00     0.013 A 
ATOM      4  C   UNL     1      62.191  26.898  50.316  1.00  0.00    -0.006 A 
ATOM      5  C   UNL     1      60.779  26.712  50.190  1.00  0.00     0.039 A 
ATOM      6  C   UNL     1      59.964  27.825  49.821  1.00  0.00     0.072 A 
ATOM      7  C   UNL     1      60.560  29.076  49.564  1.00  0.00     0.169 A 
ATOM      8  C   UNL     1      61.951  29.221  49.590  1.00  0.00     0.162 A 
ATOM      9  C   UNL     1      62.792  28.134  49.918  1.00  0.00     0.008 A 
ATOM     10  C   UNL     1      60.232  25.413  50.422  1.00  0.00     0.132 A 
ATOM     11  C   UNL     1      61.045  24.376  50.927  1.00  0.00     0.031 A 
ENDROOT
BRANCH  11  12
ATOM     12  C   UNL     1      60.460  23.040  51.220  1.00  0.00     0.031 A 
ATOM     13  C   UNL     1      59.884  22.777  52.481  1.00  0.00     0.132 A 
ATOM     14  C   UNL     1      60.462  22.048  50.229  1.00  0.00    -0.039 A 
ATOM     15  C   UNL     1      59.307  21.500  52.763  1.00  0.00     0.039 A 
ATOM     16  C   UNL     1      59.843  20.824  50.480  1.00  0.00     0.013 A 
ATOM     17  C   UNL     1      61.085  22.300  48.877  1.00  0.00     0.045 C 
ATOM     18  C   UNL     1      59.238  20.524  51.718  1.00  0.00    -0.006 A 
ATOM     19  C   UNL     1      58.770  21.180  54.046  1.00  0.00     0.072 A 
ATOM     20  C   UNL     1      58.566  19.277  51.937  1.00  0.00     0.008 A 
ATOM     21  C   UNL     1      58.140  19.938  54.256  1.00  0.00     0.169 A 
ATOM     22  C   UNL     1      58.013  19.018  53.211  1.00  0.00     0.162 A 
BRANCH  13  23
ATOM     23  O   UNL     1      59.866  23.794  53.442  1.00  0.00    -0.507 OA
ATOM     24  H   UNL     1      59.351  23.744  54.310  1.00  0.00     0.293 HD
ENDBRANCH  13  23
BRANCH  19  25
ATOM     25  C   UNL     1      58.894  22.097  55.197  1.00  0.00     0.264 C 
ATOM     26  O   UNL     1      57.893  22.736  55.620  1.00  0.00    -0.298 OA
ENDBRANCH  19  25
BRANCH  20  27
ATOM     27  C   UNL     1      58.380  18.200  50.845  1.00  0.00     0.017 C 
ATOM     28  C   UNL     1      59.069  16.876  51.208  1.00  0.00     0.012 C 
ATOM     29  C   UNL     1      56.917  18.021  50.386  1.00  0.00     0.012 C 
ENDBRANCH  20  27
BRANCH  21  30
ATOM     30  O   UNL     1      57.642  19.571  55.513  1.00  0.00    -0.504 OA
ATOM     31  H   UNL     1      57.839  20.067  56.371  1.00  0.00     0.293 HD
ENDBRANCH  21  30
BRANCH  22  32
ATOM     32  O   UNL     1      57.335  17.816  53.448  1.00  0.00    -0.504 OA
ATOM     33  H   UNL     1      56.517  17.527  52.926  1.00  0.00     0.293 HD
ENDBRANCH  22  32
ENDBRANCH  11  12
BRANCH  10  34
ATOM     34  O   UNL     1      58.891  25.144  50.126  1.00  0.00    -0.507 OA
ATOM     35  H   UNL     1      58.153  25.835  50.162  1.00  0.00     0.293 HD
ENDBRANCH  10  34
BRANCH   9  36
ATOM     36  C   UNL     1      64.314  28.362  49.816  1.00  0.00     0.017 C 
ATOM     37  C   UNL     1      64.972  28.519  51.194  1.00  0.00     0.012 C 
ATOM     38  C   UNL     1      65.048  27.357  48.905  1.00  0.00     0.012 C 
ENDBRANCH   9  36
BRANCH   6  39
ATOM     39  C   UNL     1      58.489  27.732  49.776  1.00  0.00     0.264 C 
ATOM     40  O   UNL     1      57.791  28.137  50.742  1.00  0.00    -0.298 OA
ENDBRANCH   6  39
BRANCH   8  41
ATOM     41  O   UNL     1      62.511  30.471  49.307  1.00  0.00    -0.504 OA
ATOM     42  H   UNL     1      62.530  30.871  48.376  1.00  0.00     0.293 HD
ENDBRANCH   8  41
BRANCH   7  43
ATOM     43  O   UNL     1      59.790  30.216  49.300  1.00  0.00    -0.504 OA
ATOM     44  H   UNL     1      59.838  30.747  48.441  1.00  0.00     0.293 HD
ENDBRANCH   7  43
TORSDOF 11
ENDMDL
MODEL 2
REMARK VINA RESULT:    -5.318      1.580      8.987
REMARK INTER + INTRA:          -9.299
REMARK INTER:                  -7.636
REMARK INTRA:                  -1.663
REMARK UNBOUND:                -1.493
REMARK SMILES Cc1cc2c(C(C)C)c(O)c(O)c(C=O)c2c(O)c1-c1c(C)cc2c(C(C)C)c(O)c(O)c(C=O)c2c1O
REMARK SMILES IDX 1 1 2 2 3 3 4 4 16 5 13 6 11 7 9 8 5 9 17 10 19 11 20 12
REMARK SMILES IDX 37 13 21 14 36 15 23 16 22 17 24 18 33 19 25 20 31 21 29 22
REMARK SMILES IDX 38 23 34 25 35 26 26 27 27 28 28 29 32 30 30 32 18 34 6 36
REMARK SMILES IDX 7 37 8 38 14 39 15 40 10 41 12 43
REMARK H PARENT 38 24 32 31 30 33 18 35 10 42 12 44
REMARK Flexibility Score: inf
ROOT
ATOM      1  C   UNL     1      60.171  23.893  53.920  1.00  0.00     0.045 C 
ATOM      2  C   UNL     1      60.016  22.776  52.915  1.00  0.00    -0.039 A 
ATOM      3  C   UNL     1      59.498  21.549  53.328  1.00  0.00     0.013 A 
ATOM      4  C   UNL     1      59.323  20.470  52.438  1.00  0.00    -0.006 A 
ATOM      5  C   UNL     1      59.782  20.615  51.091  1.00  0.00     0.039 A 
ATOM      6  C   UNL     1      59.771  19.478  50.230  1.00  0.00     0.072 A 
ATOM      7  C   UNL     1      59.288  18.242  50.705  1.00  0.00     0.169 A 
ATOM      8  C   UNL     1      58.748  18.136  51.990  1.00  0.00     0.162 A 
ATOM      9  C   UNL     1      58.711  19.248  52.861  1.00  0.00     0.008 A 
ATOM     10  C   UNL     1      60.223  21.901  50.649  1.00  0.00     0.132 A 
ATOM     11  C   UNL     1      60.359  22.964  51.567  1.00  0.00     0.031 A 
ENDROOT
BRANCH  11  12
ATOM     12  C   UNL     1      60.870  24.285  51.115  1.00  0.00     0.031 A 
ATOM     13  C   UNL     1      59.972  25.311  50.755  1.00  0.00     0.132 A 
ATOM     14  C   UNL     1      62.253  24.515  51.069  1.00  0.00    -0.039 A 
ATOM     15  C   UNL     1      60.458  26.588  50.334  1.00  0.00     0.039 A 
ATOM     16  C   UNL     1      62.728  25.779  50.721  1.00  0.00     0.013 A 
ATOM     17  C   UNL     1      63.236  23.429  51.435  1.00  0.00     0.045 C 
ATOM     18  C   UNL     1      61.867  26.840  50.372  1.00  0.00    -0.006 A 
ATOM     19  C   UNL     1      59.580  27.628  49.906  1.00  0.00     0.072 A 
ATOM     20  C   UNL     1      62.377  28.144  50.063  1.00  0.00     0.008 A 
ATOM     21  C   UNL     1      60.097  28.895  49.576  1.00  0.00     0.169 A 
ATOM     22  C   UNL     1      61.466  29.156  49.684  1.00  0.00     0.162 A 
BRANCH  13  23
ATOM     23  O   UNL     1      58.596  25.066  50.841  1.00  0.00    -0.507 OA
ATOM     24  H   UNL     1      57.959  25.605  51.413  1.00  0.00     0.293 HD
ENDBRANCH  13  23
BRANCH  19  25
ATOM     25  C   UNL     1      58.127  27.410  49.747  1.00  0.00     0.264 C 
ATOM     26  O   UNL     1      57.306  27.960  50.529  1.00  0.00    -0.298 OA
ENDBRANCH  19  25
BRANCH  20  27
ATOM     27  C   UNL     1      63.872  28.523  50.151  1.00  0.00     0.017 C 
ATOM     28  C   UNL     1      64.400  28.486  51.594  1.00  0.00     0.012 C 
ATOM     29  C   UNL     1      64.769  27.763  49.152  1.00  0.00     0.012 C 
ENDBRANCH  20  27
BRANCH  21  30
ATOM     30  O   UNL     1      59.272  29.926  49.109  1.00  0.00    -0.504 OA
ATOM     31  H   UNL     1      58.267  29.945  49.217  1.00  0.00     0.293 HD
ENDBRANCH  21  30
BRANCH  22  32
ATOM     32  O   UNL     1      61.934  30.443  49.394  1.00  0.00    -0.504 OA
ATOM     33  H   UNL     1      61.325  31.247  49.298  1.00  0.00     0.293 HD
ENDBRANCH  22  32
ENDBRANCH  11  12
BRANCH  10  34
ATOM     34  O   UNL     1      60.498  22.131  49.297  1.00  0.00    -0.507 OA
ATOM     35  H   UNL     1      59.956  21.743  48.535  1.00  0.00     0.293 HD
ENDBRANCH  10  34
BRANCH   9  36
ATOM     36  C   UNL     1      57.999  19.062  54.217  1.00  0.00     0.017 C 
ATOM     37  C   UNL     1      58.987  19.017  55.390  1.00  0.00     0.012 C 
ATOM     38  C   UNL     1      56.819  20.027  54.453  1.00  0.00     0.012 C 
ENDBRANCH   9  36
BRANCH   6  39
ATOM     39  C   UNL     1      60.329  19.530  48.861  1.00  0.00     0.264 C 
ATOM     40  O   UNL     1      59.576  19.438  47.857  1.00  0.00    -0.298 OA
ENDBRANCH   6  39
BRANCH   8  41
ATOM     41  O   UNL     1      58.256  16.900  52.422  1.00  0.00    -0.504 OA
ATOM     42  H   UNL     1      58.031  16.701  53.390  1.00  0.00     0.293 HD
ENDBRANCH   8  41
BRANCH   7  43
ATOM     43  O   UNL     1      59.355  17.079  49.927  1.00  0.00    -0.504 OA
ATOM     44  H   UNL     1      60.048  16.915  49.210  1.00  0.00     0.293 HD
ENDBRANCH   7  43
TORSDOF 11
ENDMDL
MODEL 3
REMARK VINA RESULT:    -5.199      1.599      3.009
REMARK INTER + INTRA:          -9.124
REMARK INTER:                  -7.732
REMARK INTRA:                  -1.392
REMARK UNBOUND:                -1.493
REMARK SMILES Cc1cc2c(C(C)C)c(O)c(O)c(C=O)c2c(O)c1-c1c(C)cc2c(C(C)C)c(O)c(O)c(C=O)c2c1O
REMARK SMILES IDX 1 1 2 2 3 3 4 4 16 5 13 6 11 7 9 8 5 9 17 10 19 11 20 12
REMARK SMILES IDX 37 13 21 14 36 15 23 16 22 17 24 18 33 19 25 20 31 21 29 22
REMARK SMILES IDX 38 23 34 25 35 26 26 27 27 28 28 29 32 30 30 32 18 34 6 36
REMARK SMILES IDX 7 37 8 38 14 39 15 40 10 41 12 43
REMARK H PARENT 38 24 32 31 30 33 18 35 10 42 12 44
REMARK Flexibility Score: inf
ROOT
ATOM      1  C   UNL     1      63.205  23.605  52.049  1.00  0.00     0.045 C 
ATOM      2  C   UNL     1      62.312  24.645  51.416  1.00  0.00    -0.039 A 
ATOM      3  C   UNL     1      62.854  25.870  51.028  1.00  0.00     0.013 A 
ATOM      4  C   UNL     1      62.075  26.878  50.426  1.00  0.00    -0.006 A 
ATOM      5  C   UNL     1      60.666  26.668  50.299  1.00  0.00     0.039 A 
ATOM      6  C   UNL     1      59.842  27.744  49.853  1.00  0.00     0.072 A 
ATOM      7  C   UNL     1      60.426  28.984  49.523  1.00  0.00     0.169 A 
ATOM      8  C   UNL     1      61.814  29.148  49.553  1.00  0.00     0.162 A 
ATOM      9  C   UNL     1      62.665  28.095  49.957  1.00  0.00     0.008 A 
ATOM     10  C   UNL     1      60.132  25.378  50.609  1.00  0.00     0.132 A 
ATOM     11  C   UNL     1      60.953  24.386  51.186  1.00  0.00     0.031 A 
ENDROOT
BRANCH  11  12
ATOM     12  C   UNL     1      60.381  23.064  51.558  1.00  0.00     0.031 A 
ATOM     13  C   UNL     1      60.409  21.993  50.641  1.00  0.00     0.132 A 
ATOM     14  C   UNL     1      59.834  22.880  52.836  1.00  0.00    -0.039 A 
ATOM     15  C   UNL     1      59.875  20.716  50.999  1.00  0.00     0.039 A 
ATOM     16  C   UNL     1      59.371  21.619  53.210  1.00  0.00     0.013 A 
ATOM     17  C   UNL     1      59.779  24.015  53.831  1.00  0.00     0.045 C 
ATOM     18  C   UNL     1      59.397  20.514  52.334  1.00  0.00    -0.006 A 
ATOM     19  C   UNL     1      59.833  19.628  50.077  1.00  0.00     0.072 A 
ATOM     20  C   UNL     1      58.959  19.217  52.757  1.00  0.00     0.008 A 
ATOM     21  C   UNL     1      59.371  18.366  50.497  1.00  0.00     0.169 A 
ATOM     22  C   UNL     1      58.972  18.158  51.820  1.00  0.00     0.162 A 
BRANCH  13  23
ATOM     23  O   UNL     1      60.990  22.194  49.384  1.00  0.00    -0.507 OA
ATOM     24  H   UNL     1      61.116  21.465  48.694  1.00  0.00     0.293 HD
ENDBRANCH  13  23
BRANCH  19  25
ATOM     25  C   UNL     1      60.216  19.789  48.659  1.00  0.00     0.264 C 
ATOM     26  O   UNL     1      59.535  19.250  47.746  1.00  0.00    -0.298 OA
ENDBRANCH  19  25
BRANCH  20  27
ATOM     27  C   UNL     1      58.499  18.893  54.195  1.00  0.00     0.017 C 
ATOM     28  C   UNL     1      59.612  19.122  55.230  1.00  0.00     0.012 C 
ATOM     29  C   UNL     1      57.158  19.549  54.586  1.00  0.00     0.012 C 
ENDBRANCH  20  27
BRANCH  21  30
ATOM     30  O   UNL     1      59.272  17.287  49.609  1.00  0.00    -0.504 OA
ATOM     31  H   UNL     1      60.023  16.972  49.010  1.00  0.00     0.293 HD
ENDBRANCH  21  30
BRANCH  22  32
ATOM     32  O   UNL     1      58.568  16.876  52.210  1.00  0.00    -0.504 OA
ATOM     33  H   UNL     1      57.779  16.392  51.798  1.00  0.00     0.293 HD
ENDBRANCH  22  32
ENDBRANCH  11  12
BRANCH  10  34
ATOM     34  O   UNL     1      58.798  25.074  50.318  1.00  0.00    -0.507 OA
ATOM     35  H   UNL     1      58.027  25.247  50.950  1.00  0.00     0.293 HD
ENDBRANCH  10  34
BRANCH   9  36
ATOM     36  C   UNL     1      64.185  28.335  49.855  1.00  0.00     0.017 C 
ATOM     37  C   UNL     1      64.842  28.489  51.233  1.00  0.00     0.012 C 
ATOM     38  C   UNL     1      64.926  27.340  48.937  1.00  0.00     0.012 C 
ENDBRANCH   9  36
BRANCH   6  39
ATOM     39  C   UNL     1      58.369  27.630  49.800  1.00  0.00     0.264 C 
ATOM     40  O   UNL     1      57.638  28.469  50.389  1.00  0.00    -0.298 OA
ENDBRANCH   6  39
BRANCH   8  41
ATOM     41  O   UNL     1      62.362  30.384  49.196  1.00  0.00    -0.504 OA
ATOM     42  H   UNL     1      62.153  30.850  48.320  1.00  0.00     0.293 HD
ENDBRANCH   8  41
BRANCH   7  43
ATOM     43  O   UNL     1      59.645  30.095  49.180  1.00  0.00    -0.504 OA
ATOM     44  H   UNL     1      59.993  30.900  48.677  1.00  0.00     0.293 HD
ENDBRANCH   7  43
TORSDOF 11
ENDMDL
MODEL 4
REMARK VINA RESULT:    -5.171      0.716      8.927
REMARK INTER + INTRA:          -9.083
REMARK INTER:                  -7.387
REMARK INTRA:                  -1.695
REMARK UNBOUND:                -1.493
REMARK SMILES Cc1cc2c(C(C)C)c(O)c(O)c(C=O)c2c(O)c1-c1c(C)cc2c(C(C)C)c(O)c(O)c(C=O)c2c1O
REMARK SMILES IDX 1 1 2 2 3 3 4 4 16 5 13 6 11 7 9 8 5 9 17 10 19 11 20 12
REMARK SMILES IDX 37 13 21 14 36 15 23 16 22 17 24 18 33 19 25 20 31 21 29 22
REMARK SMILES IDX 38 23 34 25 35 26 26 27 27 28 28 29 32 30 30 32 18 34 6 36
REMARK SMILES IDX 7 37 8 38 14 39 15 40 10 41 12 43
REMARK H PARENT 38 24 32 31 30 33 18 35 10 42 12 44
REMARK Flexibility Score: inf
ROOT
ATOM      1  C   UNL     1      60.773  21.778  48.875  1.00  0.00     0.045 C 
ATOM      2  C   UNL     1      60.303  21.531  50.288  1.00  0.00    -0.039 A 
ATOM      3  C   UNL     1      59.806  20.275  50.636  1.00  0.00     0.013 A 
ATOM      4  C   UNL     1      59.358  19.980  51.939  1.00  0.00    -0.006 A 
ATOM      5  C   UNL     1      59.327  21.033  52.905  1.00  0.00     0.039 A 
ATOM      6  C   UNL     1      58.716  20.793  54.172  1.00  0.00     0.072 A 
ATOM      7  C   UNL     1      58.177  19.523  54.462  1.00  0.00     0.169 A 
ATOM      8  C   UNL     1      58.304  18.471  53.549  1.00  0.00     0.162 A 
ATOM      9  C   UNL     1      58.932  18.662  52.298  1.00  0.00     0.008 A 
ATOM     10  C   UNL     1      59.924  22.289  52.574  1.00  0.00     0.132 A 
ATOM     11  C   UNL     1      60.386  22.536  51.263  1.00  0.00     0.031 A 
ENDROOT
BRANCH  11  12
ATOM     12  C   UNL     1      60.956  23.863  50.907  1.00  0.00     0.031 A 
ATOM     13  C   UNL     1      60.111  24.911  50.488  1.00  0.00     0.132 A 
ATOM     14  C   UNL     1      62.338  24.075  51.013  1.00  0.00    -0.039 A 
ATOM     15  C   UNL     1      60.652  26.193  50.159  1.00  0.00     0.039 A 
ATOM     16  C   UNL     1      62.860  25.343  50.756  1.00  0.00     0.013 A 
ATOM     17  C   UNL     1      63.266  22.966  51.447  1.00  0.00     0.045 C 
ATOM     18  C   UNL     1      62.051  26.425  50.352  1.00  0.00    -0.006 A 
ATOM     19  C   UNL     1      59.834  27.258  49.674  1.00  0.00     0.072 A 
ATOM     20  C   UNL     1      62.604  27.730  50.139  1.00  0.00     0.008 A 
ATOM     21  C   UNL     1      60.396  28.527  49.439  1.00  0.00     0.169 A 
ATOM     22  C   UNL     1      61.749  28.765  49.697  1.00  0.00     0.162 A 
BRANCH  13  23
ATOM     23  O   UNL     1      58.731  24.683  50.422  1.00  0.00    -0.507 OA
ATOM     24  H   UNL     1      58.255  23.941  50.917  1.00  0.00     0.293 HD
ENDBRANCH  13  23
BRANCH  19  25
ATOM     25  C   UNL     1      58.404  27.063  49.358  1.00  0.00     0.264 C 
ATOM     26  O   UNL     1      57.510  27.541  50.107  1.00  0.00    -0.298 OA
ENDBRANCH  19  25
BRANCH  20  27
ATOM     27  C   UNL     1      64.085  28.087  50.394  1.00  0.00     0.017 C 
ATOM     28  C   UNL     1      64.463  27.985  51.880  1.00  0.00     0.012 C 
ATOM     29  C   UNL     1      65.074  27.356  49.461  1.00  0.00     0.012 C 
ENDBRANCH  20  27
BRANCH  21  30
ATOM     30  O   UNL     1      59.635  29.582  48.920  1.00  0.00    -0.504 OA
ATOM     31  H   UNL     1      59.115  29.537  48.055  1.00  0.00     0.293 HD
ENDBRANCH  21  30
BRANCH  22  32
ATOM     32  O   UNL     1      62.257  30.054  49.498  1.00  0.00    -0.504 OA
ATOM     33  H   UNL     1      62.505  30.678  50.257  1.00  0.00     0.293 HD
ENDBRANCH  22  32
ENDBRANCH  11  12
BRANCH  10  34
ATOM     34  O   UNL     1      60.085  23.278  53.550  1.00  0.00    -0.507 OA
ATOM     35  H   UNL     1      59.409  23.470  54.278  1.00  0.00     0.293 HD
ENDBRANCH  10  34
BRANCH   9  36
ATOM     36  C   UNL     1      59.120  17.418  51.405  1.00  0.00     0.017 C 
ATOM     37  C   UNL     1      58.093  17.362  50.266  1.00  0.00     0.012 C 
ATOM     38  C   UNL     1      60.569  17.192  50.927  1.00  0.00     0.012 C 
ENDBRANCH   9  36
BRANCH   6  39
ATOM     39  C   UNL     1      58.554  21.866  55.177  1.00  0.00     0.264 C 
ATOM     40  O   UNL     1      59.239  21.866  56.233  1.00  0.00    -0.298 OA
ENDBRANCH   6  39
BRANCH   8  41
ATOM     41  O   UNL     1      57.778  17.217  53.879  1.00  0.00    -0.504 OA
ATOM     42  H   UNL     1      58.306  16.510  54.376  1.00  0.00     0.293 HD
ENDBRANCH   8  41
BRANCH   7  43
ATOM     43  O   UNL     1      57.480  19.276  55.651  1.00  0.00    -0.504 OA
ATOM     44  H   UNL     1      57.278  19.980  56.348  1.00  0.00     0.293 HD
ENDBRANCH   7  43
TORSDOF 11
ENDMDL
MODEL 5
REMARK VINA RESULT:    -5.169      2.910      4.665
REMARK INTER + INTRA:          -9.080
REMARK INTER:                  -7.544
REMARK INTRA:                  -1.536
REMARK UNBOUND:                -1.493
REMARK SMILES Cc1cc2c(C(C)C)c(O)c(O)c(C=O)c2c(O)c1-c1c(C)cc2c(C(C)C)c(O)c(O)c(C=O)c2c1O
REMARK SMILES IDX 1 1 2 2 3 3 4 4 16 5 13 6 11 7 9 8 5 9 17 10 19 11 20 12
REMARK SMILES IDX 37 13 21 14 36 15 23 16 22 17 24 18 33 19 25 20 31 21 29 22
REMARK SMILES IDX 38 23 34 25 35 26 26 27 27 28 28 29 32 30 30 32 18 34 6 36
REMARK SMILES IDX 7 37 8 38 14 39 15 40 10 41 12 43
REMARK H PARENT 38 24 32 31 30 33 18 35 10 42 12 44
REMARK Flexibility Score: inf
ROOT
ATOM      1  C   UNL     1      58.488  24.553  51.892  1.00  0.00     0.045 C 
ATOM      2  C   UNL     1      59.633  25.409  51.407  1.00  0.00    -0.039 A 
ATOM      3  C   UNL     1      59.416  26.762  51.147  1.00  0.00     0.013 A 
ATOM      4  C   UNL     1      60.444  27.615  50.698  1.00  0.00    -0.006 A 
ATOM      5  C   UNL     1      61.725  27.047  50.411  1.00  0.00     0.039 A 
ATOM      6  C   UNL     1      62.721  27.862  49.795  1.00  0.00     0.072 A 
ATOM      7  C   UNL     1      62.440  29.211  49.499  1.00  0.00     0.169 A 
ATOM      8  C   UNL     1      61.221  29.783  49.876  1.00  0.00     0.162 A 
ATOM      9  C   UNL     1      60.223  29.017  50.519  1.00  0.00     0.008 A 
ATOM     10  C   UNL     1      61.970  25.685  50.769  1.00  0.00     0.132 A 
ATOM     11  C   UNL     1      60.918  24.871  51.241  1.00  0.00     0.031 A 
ENDROOT
BRANCH  11  12
ATOM     12  C   UNL     1      61.164  23.439  51.559  1.00  0.00     0.031 A 
ATOM     13  C   UNL     1      60.990  22.451  50.568  1.00  0.00     0.132 A 
ATOM     14  C   UNL     1      61.593  23.077  52.844  1.00  0.00    -0.039 A 
ATOM     15  C   UNL     1      61.239  21.074  50.864  1.00  0.00     0.039 A 
ATOM     16  C   UNL     1      61.899  21.744  53.116  1.00  0.00     0.013 A 
ATOM     17  C   UNL     1      61.774  24.115  53.925  1.00  0.00     0.045 C 
ATOM     18  C   UNL     1      61.759  20.725  52.151  1.00  0.00    -0.006 A 
ATOM     19  C   UNL     1      61.016  20.042  49.904  1.00  0.00     0.072 A 
ATOM     20  C   UNL     1      62.124  19.369  52.440  1.00  0.00     0.008 A 
ATOM     21  C   UNL     1      61.351  18.709  50.212  1.00  0.00     0.169 A 
ATOM     22  C   UNL     1      61.923  18.386  51.445  1.00  0.00     0.162 A 
BRANCH  13  23
ATOM     23  O   UNL     1      60.592  22.841  49.284  1.00  0.00    -0.507 OA
ATOM     24  H   UNL     1      59.979  23.623  49.094  1.00  0.00     0.293 HD
ENDBRANCH  13  23
BRANCH  19  25
ATOM     25  C   UNL     1      60.391  20.314  48.593  1.00  0.00     0.264 C 
ATOM     26  O   UNL     1      59.493  19.554  48.141  1.00  0.00    -0.298 OA
ENDBRANCH  19  25
BRANCH  20  27
ATOM     27  C   UNL     1      62.759  18.918  53.774  1.00  0.00     0.017 C 
ATOM     28  C   UNL     1      64.145  19.542  54.001  1.00  0.00     0.012 C 
ATOM     29  C   UNL     1      61.821  19.054  54.992  1.00  0.00     0.012 C 
ENDBRANCH  20  27
BRANCH  21  30
ATOM     30  O   UNL     1      61.103  17.664  49.313  1.00  0.00    -0.504 OA
ATOM     31  H   UNL     1      60.181  17.341  49.056  1.00  0.00     0.293 HD
ENDBRANCH  21  30
BRANCH  22  32
ATOM     32  O   UNL     1      62.288  17.057  51.693  1.00  0.00    -0.504 OA
ATOM     33  H   UNL     1      62.792  16.764  52.521  1.00  0.00     0.293 HD
ENDBRANCH  22  32
ENDBRANCH  11  12
BRANCH  10  34
ATOM     34  O   UNL     1      63.259  25.150  50.683  1.00  0.00    -0.507 OA
ATOM     35  H   UNL     1      64.096  25.705  50.564  1.00  0.00     0.293 HD
ENDBRANCH  10  34
BRANCH   9  36
ATOM     36  C   UNL     1      58.956  29.760  50.992  1.00  0.00     0.017 C 
ATOM     37  C   UNL     1      57.709  29.340  50.204  1.00  0.00     0.012 C 
ATOM     38  C   UNL     1      58.743  29.744  52.520  1.00  0.00     0.012 C 
ENDBRANCH   9  36
BRANCH   6  39
ATOM     39  C   UNL     1      64.028  27.313  49.374  1.00  0.00     0.264 C 
ATOM     40  O   UNL     1      65.082  27.620  49.990  1.00  0.00    -0.298 OA
ENDBRANCH   6  39
BRANCH   8  41
ATOM     41  O   UNL     1      60.984  31.132  49.589  1.00  0.00    -0.504 OA
ATOM     42  H   UNL     1      60.210  31.448  49.017  1.00  0.00     0.293 HD
ENDBRANCH   8  41
BRANCH   7  43
ATOM     43  O   UNL     1      63.351  30.016  48.803  1.00  0.00    -0.504 OA
ATOM     44  H   UNL     1      64.262  30.276  49.154  1.00  0.00     0.293 HD
ENDBRANCH   7  43
TORSDOF 11
ENDMDL
MODEL 6
REMARK VINA RESULT:    -4.907      2.646      8.850
REMARK INTER + INTRA:          -8.695
REMARK INTER:                  -7.182
REMARK INTRA:                  -1.513
REMARK UNBOUND:                -1.493
REMARK SMILES Cc1cc2c(C(C)C)c(O)c(O)c(C=O)c2c(O)c1-c1c(C)cc2c(C(C)C)c(O)c(O)c(C=O)c2c1O
REMARK SMILES IDX 1 1 2 2 3 3 4 4 16 5 13 6 11 7 9 8 5 9 17 10 19 11 20 12
REMARK SMILES IDX 37 13 21 14 36 15 23 16 22 17 24 18 33 19 25 20 31 21 29 22
REMARK SMILES IDX 38 23 34 25 35 26 26 27 27 28 28 29 32 30 30 32 18 34 6 36
REMARK SMILES IDX 7 37 8 38 14 39 15 40 10 41 12 43
REMARK H PARENT 38 24 32 31 30 33 18 35 10 42 12 44
REMARK Flexibility Score: inf
ROOT
ATOM      1  C   UNL     1      61.819  24.113  54.180  1.00  0.00     0.045 C 
ATOM      2  C   UNL     1      61.512  23.077  53.126  1.00  0.00    -0.039 A 
ATOM      3  C   UNL     1      61.713  21.726  53.413  1.00  0.00     0.013 A 
ATOM      4  C   UNL     1      61.440  20.711  52.474  1.00  0.00    -0.006 A 
ATOM      5  C   UNL     1      61.035  21.091  51.157  1.00  0.00     0.039 A 
ATOM      6  C   UNL     1      60.924  20.085  50.150  1.00  0.00     0.072 A 
ATOM      7  C   UNL     1      61.189  18.739  50.470  1.00  0.00     0.169 A 
ATOM      8  C   UNL     1      61.485  18.365  51.785  1.00  0.00     0.162 A 
ATOM      9  C   UNL     1      61.571  19.327  52.816  1.00  0.00     0.008 A 
ATOM     10  C   UNL     1      60.740  22.465  50.897  1.00  0.00     0.132 A 
ATOM     11  C   UNL     1      61.002  23.449  51.873  1.00  0.00     0.031 A 
ENDROOT
BRANCH  11  12
ATOM     12  C   UNL     1      60.746  24.884  51.579  1.00  0.00     0.031 A 
ATOM     13  C   UNL     1      61.741  25.673  50.966  1.00  0.00     0.132 A 
ATOM     14  C   UNL     1      59.499  25.445  51.893  1.00  0.00    -0.039 A 
ATOM     15  C   UNL     1      61.494  27.050  50.667  1.00  0.00     0.039 A 
ATOM     16  C   UNL     1      59.234  26.768  51.544  1.00  0.00     0.013 A 
ATOM     17  C   UNL     1      58.423  24.624  52.562  1.00  0.00     0.045 C 
ATOM     18  C   UNL     1      60.191  27.590  50.913  1.00  0.00    -0.006 A 
ATOM     19  C   UNL     1      62.498  27.892  50.102  1.00  0.00     0.072 A 
ATOM     20  C   UNL     1      59.879  28.933  50.521  1.00  0.00     0.008 A 
ATOM     21  C   UNL     1      62.186  29.220  49.750  1.00  0.00     0.169 A 
ATOM     22  C   UNL     1      60.893  29.719  49.928  1.00  0.00     0.162 A 
BRANCH  13  23
ATOM     23  O   UNL     1      62.964  25.081  50.633  1.00  0.00    -0.507 OA
ATOM     24  H   UNL     1      63.852  25.565  50.650  1.00  0.00     0.293 HD
ENDBRANCH  13  23
BRANCH  19  25
ATOM     25  C   UNL     1      63.889  27.433  49.913  1.00  0.00     0.264 C 
ATOM     26  O   UNL     1      64.364  27.287  48.755  1.00  0.00    -0.298 OA
ENDBRANCH  19  25
BRANCH  20  27
ATOM     27  C   UNL     1      58.481  29.570  50.681  1.00  0.00     0.017 C 
ATOM     28  C   UNL     1      57.369  28.696  50.081  1.00  0.00     0.012 C 
ATOM     29  C   UNL     1      58.173  30.052  52.114  1.00  0.00     0.012 C 
ENDBRANCH  20  27
BRANCH  21  30
ATOM     30  O   UNL     1      63.156  30.090  49.236  1.00  0.00    -0.504 OA
ATOM     31  H   UNL     1      63.306  30.258  48.251  1.00  0.00     0.293 HD
ENDBRANCH  21  30
BRANCH  22  32
ATOM     32  O   UNL     1      60.612  31.028  49.519  1.00  0.00    -0.504 OA
ATOM     33  H   UNL     1      60.683  31.830  50.134  1.00  0.00     0.293 HD
ENDBRANCH  22  32
ENDBRANCH  11  12
BRANCH  10  34
ATOM     34  O   UNL     1      60.160  22.848  49.682  1.00  0.00    -0.507 OA
ATOM     35  H   UNL     1      60.122  23.803  49.350  1.00  0.00     0.293 HD
ENDBRANCH  10  34
BRANCH   9  36
ATOM     36  C   UNL     1      61.795  18.808  54.251  1.00  0.00     0.017 C 
ATOM     37  C   UNL     1      63.205  19.123  54.768  1.00  0.00     0.012 C 
ATOM     38  C   UNL     1      60.683  19.194  55.248  1.00  0.00     0.012 C 
ENDBRANCH   9  36
BRANCH   6  39
ATOM     39  C   UNL     1      60.614  20.420  48.743  1.00  0.00     0.264 C 
ATOM     40  O   UNL     1      59.691  19.824  48.129  1.00  0.00    -0.298 OA
ENDBRANCH   6  39
BRANCH   8  41
ATOM     41  O   UNL     1      61.719  17.016  52.073  1.00  0.00    -0.504 OA
ATOM     42  H   UNL     1      62.417  16.461  51.592  1.00  0.00     0.293 HD
ENDBRANCH   8  41
BRANCH   7  43
ATOM     43  O   UNL     1      61.191  17.737  49.491  1.00  0.00    -0.504 OA
ATOM     44  H   UNL     1      60.398  17.147  49.281  1.00  0.00     0.293 HD
ENDBRANCH   7  43
TORSDOF 11
ENDMDL
MODEL 7
REMARK VINA RESULT:    -4.870      7.353      9.891
REMARK INTER + INTRA:          -8.640
REMARK INTER:                  -6.947
REMARK INTRA:                  -1.693
REMARK UNBOUND:                -1.493
REMARK SMILES Cc1cc2c(C(C)C)c(O)c(O)c(C=O)c2c(O)c1-c1c(C)cc2c(C(C)C)c(O)c(O)c(C=O)c2c1O
REMARK SMILES IDX 1 1 2 2 3 3 4 4 16 5 13 6 11 7 9 8 5 9 17 10 19 11 20 12
REMARK SMILES IDX 37 13 21 14 36 15 23 16 22 17 24 18 33 19 25 20 31 21 29 22
REMARK SMILES IDX 38 23 34 25 35 26 26 27 27 28 28 29 32 30 30 32 18 34 6 36
REMARK SMILES IDX 7 37 8 38 14 39 15 40 10 41 12 43
REMARK H PARENT 38 24 32 31 30 33 18 35 10 42 12 44
REMARK Flexibility Score: inf
ROOT
ATOM      1  C   UNL     1      57.640  26.984  55.016  1.00  0.00     0.045 C 
ATOM      2  C   UNL     1      56.832  28.251  54.874  1.00  0.00    -0.039 A 
ATOM      3  C   UNL     1      56.174  28.515  53.672  1.00  0.00     0.013 A 
ATOM      4  C   UNL     1      55.400  29.676  53.479  1.00  0.00    -0.006 A 
ATOM      5  C   UNL     1      55.369  30.656  54.520  1.00  0.00     0.039 A 
ATOM      6  C   UNL     1      54.733  31.910  54.272  1.00  0.00     0.072 A 
ATOM      7  C   UNL     1      54.128  32.154  53.023  1.00  0.00     0.169 A 
ATOM      8  C   UNL     1      54.074  31.152  52.049  1.00  0.00     0.162 A 
ATOM      9  C   UNL     1      54.663  29.887  52.271  1.00  0.00     0.008 A 
ATOM     10  C   UNL     1      55.963  30.340  55.781  1.00  0.00     0.132 A 
ATOM     11  C   UNL     1      56.708  29.153  55.942  1.00  0.00     0.031 A 
ENDROOT
BRANCH  11  12
ATOM     12  C   UNL     1      57.372  28.854  57.239  1.00  0.00     0.031 A 
ATOM     13  C   UNL     1      56.694  28.118  58.232  1.00  0.00     0.132 A 
ATOM     14  C   UNL     1      58.687  29.288  57.461  1.00  0.00    -0.039 A 
ATOM     15  C   UNL     1      57.332  27.815  59.475  1.00  0.00     0.039 A 
ATOM     16  C   UNL     1      59.335  28.938  58.646  1.00  0.00     0.013 A 
ATOM     17  C   UNL     1      59.430  30.089  56.419  1.00  0.00     0.045 C 
ATOM     18  C   UNL     1      58.702  28.187  59.659  1.00  0.00    -0.006 A 
ATOM     19  C   UNL     1      56.655  27.125  60.524  1.00  0.00     0.072 A 
ATOM     20  C   UNL     1      59.404  27.800  60.847  1.00  0.00     0.008 A 
ATOM     21  C   UNL     1      57.348  26.777  61.700  1.00  0.00     0.169 A 
ATOM     22  C   UNL     1      58.704  27.082  61.844  1.00  0.00     0.162 A 
BRANCH  13  23
ATOM     23  O   UNL     1      55.394  27.669  57.972  1.00  0.00    -0.507 OA
ATOM     24  H   UNL     1      54.837  27.135  58.626  1.00  0.00     0.293 HD
ENDBRANCH  13  23
BRANCH  19  25
ATOM     25  C   UNL     1      55.217  26.797  60.445  1.00  0.00     0.264 C 
ATOM     26  O   UNL     1      54.839  25.609  60.267  1.00  0.00    -0.298 OA
ENDBRANCH  19  25
BRANCH  20  27
ATOM     27  C   UNL     1      60.900  28.094  61.095  1.00  0.00     0.017 C 
ATOM     28  C   UNL     1      61.814  27.320  60.134  1.00  0.00     0.012 C 
ATOM     29  C   UNL     1      61.236  29.598  61.179  1.00  0.00     0.012 C 
ENDBRANCH  20  27
BRANCH  21  30
ATOM     30  O   UNL     1      56.705  26.141  62.769  1.00  0.00    -0.504 OA
ATOM     31  H   UNL     1      56.745  26.458  63.728  1.00  0.00     0.293 HD
ENDBRANCH  21  30
BRANCH  22  32
ATOM     32  O   UNL     1      59.368  26.674  63.007  1.00  0.00    -0.504 OA
ATOM     33  H   UNL     1      59.185  27.073  63.920  1.00  0.00     0.293 HD
ENDBRANCH  22  32
ENDBRANCH  11  12
BRANCH  10  34
ATOM     34  O   UNL     1      55.789  31.189  56.880  1.00  0.00    -0.507 OA
ATOM     35  H   UNL     1      55.212  32.020  56.868  1.00  0.00     0.293 HD
ENDBRANCH  10  34
BRANCH   9  36
ATOM     36  C   UNL     1      54.460  28.812  51.183  1.00  0.00     0.017 C 
ATOM     37  C   UNL     1      55.769  28.461  50.463  1.00  0.00     0.012 C 
ATOM     38  C   UNL     1      53.675  27.571  51.654  1.00  0.00     0.012 C 
ENDBRANCH   9  36
BRANCH   6  39
ATOM     39  C   UNL     1      54.757  33.007  55.264  1.00  0.00     0.264 C 
ATOM     40  O   UNL     1      53.711  33.335  55.883  1.00  0.00    -0.298 OA
ENDBRANCH   6  39
BRANCH   8  41
ATOM     41  O   UNL     1      53.445  31.421  50.829  1.00  0.00    -0.504 OA
ATOM     42  H   UNL     1      53.451  32.335  50.393  1.00  0.00     0.293 HD
ENDBRANCH   8  41
BRANCH   7  43
ATOM     43  O   UNL     1      53.584  33.405  52.703  1.00  0.00    -0.504 OA
ATOM     44  H   UNL     1      54.003  34.288  52.960  1.00  0.00     0.293 HD
ENDBRANCH   7  43
TORSDOF 11
ENDMDL
MODEL 8
REMARK VINA RESULT:    -4.850      5.672     10.010
REMARK INTER + INTRA:          -8.612
REMARK INTER:                  -6.989
REMARK INTRA:                  -1.623
REMARK UNBOUND:                -1.493
REMARK SMILES Cc1cc2c(C(C)C)c(O)c(O)c(C=O)c2c(O)c1-c1c(C)cc2c(C(C)C)c(O)c(O)c(C=O)c2c1O
REMARK SMILES IDX 1 1 2 2 3 3 4 4 16 5 13 6 11 7 9 8 5 9 17 10 19 11 20 12
REMARK SMILES IDX 37 13 21 14 36 15 23 16 22 17 24 18 33 19 25 20 31 21 29 22
REMARK SMILES IDX 38 23 34 25 35 26 26 27 27 28 28 29 32 30 30 32 18 34 6 36
REMARK SMILES IDX 7 37 8 38 14 39 15 40 10 41 12 43
REMARK H PARENT 38 24 32 31 30 33 18 35 10 42 12 44
REMARK Flexibility Score: inf
ROOT
ATOM      1  C   UNL     1      58.871  29.625  48.500  1.00  0.00     0.045 C 
ATOM      2  C   UNL     1      58.719  29.435  49.990  1.00  0.00    -0.039 A 
ATOM      3  C   UNL     1      57.444  29.294  50.537  1.00  0.00     0.013 A 
ATOM      4  C   UNL     1      57.235  29.109  51.918  1.00  0.00    -0.006 A 
ATOM      5  C   UNL     1      58.366  29.163  52.792  1.00  0.00     0.039 A 
ATOM      6  C   UNL     1      58.152  29.150  54.203  1.00  0.00     0.072 A 
ATOM      7  C   UNL     1      56.842  29.061  54.713  1.00  0.00     0.169 A 
ATOM      8  C   UNL     1      55.751  28.906  53.851  1.00  0.00     0.162 A 
ATOM      9  C   UNL     1      55.927  28.880  52.450  1.00  0.00     0.008 A 
ATOM     10  C   UNL     1      59.676  29.211  52.221  1.00  0.00     0.132 A 
ATOM     11  C   UNL     1      59.842  29.371  50.829  1.00  0.00     0.031 A 
ENDROOT
BRANCH  11  12
ATOM     12  C   UNL     1      61.205  29.477  50.244  1.00  0.00     0.031 A 
ATOM     13  C   UNL     1      61.821  30.738  50.101  1.00  0.00     0.132 A 
ATOM     14  C   UNL     1      61.887  28.315  49.856  1.00  0.00    -0.039 A 
ATOM     15  C   UNL     1      63.138  30.845  49.554  1.00  0.00     0.039 A 
ATOM     16  C   UNL     1      63.195  28.411  49.382  1.00  0.00     0.013 A 
ATOM     17  C   UNL     1      61.243  26.955  49.986  1.00  0.00     0.045 C 
ATOM     18  C   UNL     1      63.858  29.648  49.241  1.00  0.00    -0.006 A 
ATOM     19  C   UNL     1      63.768  32.107  49.339  1.00  0.00     0.072 A 
ATOM     20  C   UNL     1      65.219  29.717  48.796  1.00  0.00     0.008 A 
ATOM     21  C   UNL     1      65.095  32.162  48.873  1.00  0.00     0.169 A 
ATOM     22  C   UNL     1      65.816  30.988  48.636  1.00  0.00     0.162 A 
BRANCH  13  23
ATOM     23  O   UNL     1      61.133  31.880  50.526  1.00  0.00    -0.507 OA
ATOM     24  H   UNL     1      61.502  32.552  51.185  1.00  0.00     0.293 HD
ENDBRANCH  13  23
BRANCH  19  25
ATOM     25  C   UNL     1      63.052  33.383  49.546  1.00  0.00     0.264 C 
ATOM     26  O   UNL     1      62.493  33.968  48.580  1.00  0.00    -0.298 OA
ENDBRANCH  19  25
BRANCH  20  27
ATOM     27  C   UNL     1      66.092  28.476  48.508  1.00  0.00     0.017 C 
ATOM     28  C   UNL     1      66.195  27.540  49.722  1.00  0.00     0.012 C 
ATOM     29  C   UNL     1      65.723  27.742  47.201  1.00  0.00     0.012 C 
ENDBRANCH  20  27
BRANCH  21  30
ATOM     30  O   UNL     1      65.730  33.382  48.607  1.00  0.00    -0.504 OA
ATOM     31  H   UNL     1      65.348  34.287  48.846  1.00  0.00     0.293 HD
ENDBRANCH  21  30
BRANCH  22  32
ATOM     32  O   UNL     1      67.149  31.086  48.221  1.00  0.00    -0.504 OA
ATOM     33  H   UNL     1      67.441  30.973  47.257  1.00  0.00     0.293 HD
ENDBRANCH  22  32
ENDBRANCH  11  12
BRANCH  10  34
ATOM     34  O   UNL     1      60.808  29.073  53.030  1.00  0.00    -0.507 OA
ATOM     35  H   UNL     1      61.423  29.837  53.278  1.00  0.00     0.293 HD
ENDBRANCH  10  34
BRANCH   9  36
ATOM     36  C   UNL     1      54.680  28.597  51.586  1.00  0.00     0.017 C 
ATOM     37  C   UNL     1      54.182  29.852  50.858  1.00  0.00     0.012 C 
ATOM     38  C   UNL     1      54.813  27.371  50.660  1.00  0.00     0.012 C 
ENDBRANCH   9  36
BRANCH   6  39
ATOM     39  C   UNL     1      59.266  29.310  55.163  1.00  0.00     0.264 C 
ATOM     40  O   UNL     1      59.652  28.341  55.866  1.00  0.00    -0.298 OA
ENDBRANCH   6  39
BRANCH   8  41
ATOM     41  O   UNL     1      54.466  28.796  54.392  1.00  0.00    -0.504 OA
ATOM     42  H   UNL     1      54.249  28.207  55.188  1.00  0.00     0.293 HD
ENDBRANCH   8  41
BRANCH   7  43
ATOM     43  O   UNL     1      56.581  29.148  56.086  1.00  0.00    -0.504 OA
ATOM     44  H   UNL     1      55.995  29.856  56.509  1.00  0.00     0.293 HD
ENDBRANCH   7  43
TORSDOF 11
ENDMDL
MODEL 9
REMARK VINA RESULT:    -4.837      5.450      8.372
REMARK INTER + INTRA:          -8.593
REMARK INTER:                  -6.884
REMARK INTRA:                  -1.709
REMARK UNBOUND:                -1.493
REMARK SMILES Cc1cc2c(C(C)C)c(O)c(O)c(C=O)c2c(O)c1-c1c(C)cc2c(C(C)C)c(O)c(O)c(C=O)c2c1O
REMARK SMILES IDX 1 1 2 2 3 3 4 4 16 5 13 6 11 7 9 8 5 9 17 10 19 11 20 12
REMARK SMILES IDX 37 13 21 14 36 15 23 16 22 17 24 18 33 19 25 20 31 21 29 22
REMARK SMILES IDX 38 23 34 25 35 26 26 27 27 28 28 29 32 30 30 32 18 34 6 36
REMARK SMILES IDX 7 37 8 38 14 39 15 40 10 41 12 43
REMARK H PARENT 38 24 32 31 30 33 18 35 10 42 12 44
REMARK Flexibility Score: inf
ROOT
ATOM      1  C   UNL     1      58.202  29.571  55.489  1.00  0.00     0.045 C 
ATOM      2  C   UNL     1      58.732  28.409  54.684  1.00  0.00    -0.039 A 
ATOM      3  C   UNL     1      58.554  28.394  53.300  1.00  0.00     0.013 A 
ATOM      4  C   UNL     1      59.030  27.342  52.493  1.00  0.00    -0.006 A 
ATOM      5  C   UNL     1      59.630  26.211  53.130  1.00  0.00     0.039 A 
ATOM      6  C   UNL     1      59.959  25.067  52.343  1.00  0.00     0.072 A 
ATOM      7  C   UNL     1      59.712  25.075  50.955  1.00  0.00     0.169 A 
ATOM      8  C   UNL     1      59.220  26.223  50.327  1.00  0.00     0.162 A 
ATOM      9  C   UNL     1      58.914  27.387  51.067  1.00  0.00     0.008 A 
ATOM     10  C   UNL     1      59.896  26.272  54.533  1.00  0.00     0.132 A 
ATOM     11  C   UNL     1      59.425  27.357  55.302  1.00  0.00     0.031 A 
ENDROOT
BRANCH  11  12
ATOM     12  C   UNL     1      59.655  27.390  56.771  1.00  0.00     0.031 A 
ATOM     13  C   UNL     1      58.714  26.816  57.651  1.00  0.00     0.132 A 
ATOM     14  C   UNL     1      60.825  27.973  57.278  1.00  0.00    -0.039 A 
ATOM     15  C   UNL     1      58.937  26.831  59.064  1.00  0.00     0.039 A 
ATOM     16  C   UNL     1      61.076  27.932  58.649  1.00  0.00     0.013 A 
ATOM     17  C   UNL     1      61.841  28.606  56.358  1.00  0.00     0.045 C 
ATOM     18  C   UNL     1      60.173  27.352  59.565  1.00  0.00    -0.006 A 
ATOM     19  C   UNL     1      57.979  26.314  59.986  1.00  0.00     0.072 A 
ATOM     20  C   UNL     1      60.474  27.280  60.964  1.00  0.00     0.008 A 
ATOM     21  C   UNL     1      58.275  26.277  61.362  1.00  0.00     0.169 A 
ATOM     22  C   UNL     1      59.512  26.722  61.837  1.00  0.00     0.162 A 
BRANCH  13  23
ATOM     23  O   UNL     1      57.570  26.212  57.118  1.00  0.00    -0.507 OA
ATOM     24  H   UNL     1      57.367  25.223  57.185  1.00  0.00     0.293 HD
ENDBRANCH  13  23
BRANCH  19  25
ATOM     25  C   UNL     1      56.644  25.853  59.552  1.00  0.00     0.264 C 
ATOM     26  O   UNL     1      56.370  24.624  59.519  1.00  0.00    -0.298 OA
ENDBRANCH  19  25
BRANCH  20  27
ATOM     27  C   UNL     1      61.811  27.748  61.580  1.00  0.00     0.017 C 
ATOM     28  C   UNL     1      63.009  26.943  61.055  1.00  0.00     0.012 C 
ATOM     29  C   UNL     1      62.027  29.275  61.517  1.00  0.00     0.012 C 
ENDBRANCH  20  27
BRANCH  21  30
ATOM     30  O   UNL     1      57.342  25.820  62.302  1.00  0.00    -0.504 OA
ATOM     31  H   UNL     1      56.922  26.399  63.015  1.00  0.00     0.293 HD
ENDBRANCH  21  30
BRANCH  22  32
ATOM     32  O   UNL     1      59.786  26.622  63.206  1.00  0.00    -0.504 OA
ATOM     33  H   UNL     1      59.784  25.743  63.711  1.00  0.00     0.293 HD
ENDBRANCH  22  32
ENDBRANCH  11  12
BRANCH  10  34
ATOM     34  O   UNL     1      60.650  25.272  55.156  1.00  0.00    -0.507 OA
ATOM     35  H   UNL     1      60.251  24.516  55.697  1.00  0.00     0.293 HD
ENDBRANCH  10  34
BRANCH   9  36
ATOM     36  C   UNL     1      58.479  28.637  50.274  1.00  0.00     0.017 C 
ATOM     37  C   UNL     1      57.019  29.019  50.548  1.00  0.00     0.012 C 
ATOM     38  C   UNL     1      59.450  29.830  50.385  1.00  0.00     0.012 C 
ENDBRANCH   9  36
BRANCH   6  39
ATOM     39  C   UNL     1      60.482  23.825  52.951  1.00  0.00     0.264 C 
ATOM     40  O   UNL     1      61.683  23.485  52.785  1.00  0.00    -0.298 OA
ENDBRANCH   6  39
BRANCH   8  41
ATOM     41  O   UNL     1      59.008  26.206  48.944  1.00  0.00    -0.504 OA
ATOM     42  H   UNL     1      58.171  25.826  48.517  1.00  0.00     0.293 HD
ENDBRANCH   8  41
BRANCH   7  43
ATOM     43  O   UNL     1      59.924  23.939  50.165  1.00  0.00    -0.504 OA
ATOM     44  H   UNL     1      59.680  23.875  49.186  1.00  0.00     0.293 HD
ENDBRANCH   7  43
TORSDOF 11
ENDMDL
