MODEL 1
REMARK VINA RESULT:    -6.476      0.000      0.000
REMARK INTER + INTRA:         -10.277
REMARK INTER:                  -8.937
REMARK INTRA:                  -1.340
REMARK UNBOUND:                -1.340
REMARK SMILES O=C([O-])[C@@H]1O[C@H](Oc2cc3oc(-c4ccccc4)cc(=O)c3c(O)c2O)[C@@H](O)[C@@H](O)[C@H]1O
REMARK SMILES IDX 7 1 6 2 4 3 31 4 5 5 29 6 27 7 2 8 1 9 3 10 32 11 30 13
REMARK SMILES IDX 28 15 8 17 25 18 9 19 23 20 10 21 22 22 11 23 20 24 12 25
REMARK SMILES IDX 19 26 21 27 26 28 24 30 13 32 14 33 18 34 15 35 17 36 16 37
REMARK H PARENT 32 12 30 14 28 16 26 29 24 31
REMARK Flexibility Score: inf
ROOT
ATOM      1  O   UNL     1     142.944 147.813 144.354  1.00  0.00    -0.458 OA
ENDROOT
BRANCH   1   2
ATOM      2  C   UNL     1     141.631 147.337 144.045  1.00  0.00     0.339 C 
ATOM      3  C   UNL     1     141.278 148.748 142.151  1.00  0.00     0.199 C 
ATOM      4  C   UNL     1     141.400 147.564 141.154  1.00  0.00     0.180 C 
ATOM      5  O   UNL     1     140.831 148.350 143.443  1.00  0.00    -0.328 OA
ATOM      6  C   UNL     1     142.208 146.403 141.760  1.00  0.00     0.181 C 
ATOM      7  C   UNL     1     141.721 146.067 143.177  1.00  0.00     0.214 C 
BRANCH   3   8
ATOM      8  C   UNL     1     142.496 149.636 142.224  1.00  0.00     0.073 C 
ATOM      9  O   UNL     1     143.560 149.342 141.616  1.00  0.00    -0.547 OA
ATOM     10  O   UNL     1     142.450 150.794 142.990  1.00  0.00    -0.547 OA
ENDBRANCH   3   8
BRANCH   4  11
ATOM     11  O   UNL     1     140.119 147.111 140.790  1.00  0.00    -0.387 OA
ATOM     12  H   UNL     1     139.476 147.822 141.049  1.00  0.00     0.211 HD
ENDBRANCH   4  11
BRANCH   6  13
ATOM     13  O   UNL     1     142.120 145.262 140.945  1.00  0.00    -0.387 OA
ATOM     14  H   UNL     1     141.885 144.503 141.540  1.00  0.00     0.211 HD
ENDBRANCH   6  13
BRANCH   7  15
ATOM     15  O   UNL     1     140.499 145.364 143.150  1.00  0.00    -0.384 OA
ATOM     16  H   UNL     1     140.330 145.060 142.221  1.00  0.00     0.211 HD
ENDBRANCH   7  15
ENDBRANCH   1   2
BRANCH   1  17
ATOM     17  C   UNL     1     143.362 148.496 145.512  1.00  0.00     0.172 A 
ATOM     18  C   UNL     1     144.404 149.458 145.548  1.00  0.00     0.201 A 
ATOM     19  C   UNL     1     142.685 148.176 146.689  1.00  0.00     0.098 A 
ATOM     20  C   UNL     1     144.771 150.054 146.785  1.00  0.00     0.176 A 
ATOM     21  C   UNL     1     143.015 148.775 147.900  1.00  0.00     0.146 A 
ATOM     22  C   UNL     1     144.061 149.721 147.964  1.00  0.00     0.111 A 
ATOM     23  O   UNL     1     142.334 148.440 148.991  1.00  0.00    -0.456 OA
ATOM     24  C   UNL     1     144.352 150.281 149.227  1.00  0.00     0.197 A 
ATOM     25  C   UNL     1     142.576 148.958 150.193  1.00  0.00     0.138 A 
ATOM     26  C   UNL     1     143.607 149.896 150.343  1.00  0.00     0.100 A 
ATOM     27  O   UNL     1     145.277 151.125 149.377  1.00  0.00    -0.289 OA
BRANCH  18  28
ATOM     28  O   UNL     1     145.044 149.816 144.359  1.00  0.00    -0.502 OA
ATOM     29  H   UNL     1     145.265 150.761 144.084  1.00  0.00     0.293 HD
ENDBRANCH  18  28
BRANCH  20  30
ATOM     30  O   UNL     1     145.834 150.960 146.870  1.00  0.00    -0.504 OA
ATOM     31  H   UNL     1     145.813 151.827 147.386  1.00  0.00     0.293 HD
ENDBRANCH  20  30
BRANCH  25  32
ATOM     32  C   UNL     1     141.751 148.509 151.343  1.00  0.00     0.017 A 
ATOM     33  C   UNL     1     141.719 149.223 152.557  1.00  0.00     0.012 A 
ATOM     34  C   UNL     1     140.952 147.356 151.214  1.00  0.00     0.012 A 
ATOM     35  C   UNL     1     140.924 148.780 153.620  1.00  0.00     0.001 A 
ATOM     36  C   UNL     1     140.160 146.918 152.279  1.00  0.00     0.001 A 
ATOM     37  C   UNL     1     140.147 147.628 153.482  1.00  0.00     0.000 A 
ENDBRANCH  25  32
ENDBRANCH   1  17
TORSDOF 9
ENDMDL
MODEL 2
REMARK VINA RESULT:    -6.282      3.319      6.946
REMARK INTER + INTRA:         -10.009
REMARK INTER:                  -9.024
REMARK INTRA:                  -0.985
REMARK UNBOUND:                -1.340
REMARK SMILES O=C([O-])[C@@H]1O[C@H](Oc2cc3oc(-c4ccccc4)cc(=O)c3c(O)c2O)[C@@H](O)[C@@H](O)[C@H]1O
REMARK SMILES IDX 7 1 6 2 4 3 31 4 5 5 29 6 27 7 2 8 1 9 3 10 32 11 30 13
REMARK SMILES IDX 28 15 8 17 25 18 9 19 23 20 10 21 22 22 11 23 20 24 12 25
REMARK SMILES IDX 19 26 21 27 26 28 24 30 13 32 14 33 18 34 15 35 17 36 16 37
REMARK H PARENT 32 12 30 14 28 16 26 29 24 31
REMARK Flexibility Score: inf
ROOT
ATOM      1  O   UNL     1     143.580 143.364 140.950  1.00  0.00    -0.458 OA
ENDROOT
BRANCH   1   2
ATOM      2  C   UNL     1     142.873 142.121 140.923  1.00  0.00     0.339 C 
ATOM      3  C   UNL     1     144.500 140.868 142.142  1.00  0.00     0.199 C 
ATOM      4  C   UNL     1     143.598 140.782 143.403  1.00  0.00     0.180 C 
ATOM      5  O   UNL     1     143.763 141.008 140.932  1.00  0.00    -0.328 OA
ATOM      6  C   UNL     1     142.567 141.924 143.433  1.00  0.00     0.181 C 
ATOM      7  C   UNL     1     141.856 142.067 142.080  1.00  0.00     0.214 C 
BRANCH   3   8
ATOM      8  C   UNL     1     145.622 141.873 142.241  1.00  0.00     0.073 C 
ATOM      9  O   UNL     1     146.479 141.991 141.325  1.00  0.00    -0.547 OA
ATOM     10  O   UNL     1     145.723 142.673 143.372  1.00  0.00    -0.547 OA
ENDBRANCH   3   8
BRANCH   4  11
ATOM     11  O   UNL     1     142.933 139.543 143.430  1.00  0.00    -0.387 OA
ATOM     12  H   UNL     1     143.371 138.994 144.131  1.00  0.00     0.211 HD
ENDBRANCH   4  11
BRANCH   6  13
ATOM     13  O   UNL     1     141.620 141.709 144.447  1.00  0.00    -0.387 OA
ATOM     14  H   UNL     1     141.277 140.785 144.328  1.00  0.00     0.211 HD
ENDBRANCH   6  13
BRANCH   7  15
ATOM     15  O   UNL     1     140.901 141.047 141.889  1.00  0.00    -0.384 OA
ATOM     16  H   UNL     1     140.943 140.747 140.945  1.00  0.00     0.211 HD
ENDBRANCH   7  15
ENDBRANCH   1   2
BRANCH   1  17
ATOM     17  C   UNL     1     143.041 144.657 141.099  1.00  0.00     0.172 A 
ATOM     18  C   UNL     1     142.371 145.373 140.074  1.00  0.00     0.201 A 
ATOM     19  C   UNL     1     143.199 145.245 142.354  1.00  0.00     0.098 A 
ATOM     20  C   UNL     1     141.905 146.692 140.325  1.00  0.00     0.176 A 
ATOM     21  C   UNL     1     142.721 146.523 142.621  1.00  0.00     0.146 A 
ATOM     22  C   UNL     1     142.068 147.263 141.611  1.00  0.00     0.111 A 
ATOM     23  O   UNL     1     142.892 147.035 143.836  1.00  0.00    -0.456 OA
ATOM     24  C   UNL     1     141.619 148.559 141.945  1.00  0.00     0.197 A 
ATOM     25  C   UNL     1     142.469 148.248 144.186  1.00  0.00     0.138 A 
ATOM     26  C   UNL     1     141.822 149.051 143.235  1.00  0.00     0.100 A 
ATOM     27  O   UNL     1     141.035 149.292 141.101  1.00  0.00    -0.289 OA
BRANCH  18  28
ATOM     28  O   UNL     1     142.167 144.761 138.836  1.00  0.00    -0.502 OA
ATOM     29  H   UNL     1     141.981 145.251 137.973  1.00  0.00     0.293 HD
ENDBRANCH  18  28
BRANCH  20  30
ATOM     30  O   UNL     1     141.295 147.453 139.321  1.00  0.00    -0.504 OA
ATOM     31  H   UNL     1     141.788 147.938 138.587  1.00  0.00     0.293 HD
ENDBRANCH  20  30
BRANCH  25  32
ATOM     32  C   UNL     1     142.715 148.716 145.572  1.00  0.00     0.017 A 
ATOM     33  C   UNL     1     142.578 150.072 145.933  1.00  0.00     0.012 A 
ATOM     34  C   UNL     1     143.066 147.783 146.567  1.00  0.00     0.012 A 
ATOM     35  C   UNL     1     142.807 150.482 147.251  1.00  0.00     0.001 A 
ATOM     36  C   UNL     1     143.294 148.198 147.882  1.00  0.00     0.001 A 
ATOM     37  C   UNL     1     143.168 149.547 148.223  1.00  0.00     0.000 A 
ENDBRANCH  25  32
ENDBRANCH   1  17
TORSDOF 9
ENDMDL
MODEL 3
REMARK VINA RESULT:    -6.253      3.942      8.951
REMARK INTER + INTRA:          -9.969
REMARK INTER:                  -8.718
REMARK INTRA:                  -1.251
REMARK UNBOUND:                -1.340
REMARK SMILES O=C([O-])[C@@H]1O[C@H](Oc2cc3oc(-c4ccccc4)cc(=O)c3c(O)c2O)[C@@H](O)[C@@H](O)[C@H]1O
REMARK SMILES IDX 7 1 6 2 4 3 31 4 5 5 29 6 27 7 2 8 1 9 3 10 32 11 30 13
REMARK SMILES IDX 28 15 8 17 25 18 9 19 23 20 10 21 22 22 11 23 20 24 12 25
REMARK SMILES IDX 19 26 21 27 26 28 24 30 13 32 14 33 18 34 15 35 17 36 16 37
REMARK H PARENT 32 12 30 14 28 16 26 29 24 31
REMARK Flexibility Score: inf
ROOT
ATOM      1  O   UNL     1     142.313 148.071 142.991  1.00  0.00    -0.458 OA
ENDROOT
BRANCH   1   2
ATOM      2  C   UNL     1     143.199 148.136 144.112  1.00  0.00     0.339 C 
ATOM      3  C   UNL     1     144.165 150.250 143.563  1.00  0.00     0.199 C 
ATOM      4  C   UNL     1     143.437 150.968 144.731  1.00  0.00     0.180 C 
ATOM      5  O   UNL     1     144.385 148.864 143.807  1.00  0.00    -0.328 OA
ATOM      6  C   UNL     1     142.171 150.205 145.156  1.00  0.00     0.181 C 
ATOM      7  C   UNL     1     142.458 148.708 145.337  1.00  0.00     0.214 C 
BRANCH   3   8
ATOM      8  C   UNL     1     143.563 150.495 142.201  1.00  0.00     0.073 C 
ATOM      9  O   UNL     1     142.448 151.068 142.070  1.00  0.00    -0.547 OA
ATOM     10  O   UNL     1     144.243 150.067 141.068  1.00  0.00    -0.547 OA
ENDBRANCH   3   8
BRANCH   4  11
ATOM     11  O   UNL     1     144.305 151.095 145.830  1.00  0.00    -0.387 OA
ATOM     12  H   UNL     1     144.908 150.306 145.816  1.00  0.00     0.211 HD
ENDBRANCH   4  11
BRANCH   6  13
ATOM     13  O   UNL     1     141.650 150.736 146.348  1.00  0.00    -0.387 OA
ATOM     14  H   UNL     1     142.028 150.196 147.091  1.00  0.00     0.211 HD
ENDBRANCH   6  13
BRANCH   7  15
ATOM     15  O   UNL     1     143.159 148.458 146.535  1.00  0.00    -0.384 OA
ATOM     16  H   UNL     1     143.256 147.478 146.646  1.00  0.00     0.211 HD
ENDBRANCH   7  15
ENDBRANCH   1   2
BRANCH   1  17
ATOM     17  C   UNL     1     142.351 147.164 141.915  1.00  0.00     0.172 A 
ATOM     18  C   UNL     1     142.015 147.489 140.576  1.00  0.00     0.201 A 
ATOM     19  C   UNL     1     142.748 145.863 142.225  1.00  0.00     0.098 A 
ATOM     20  C   UNL     1     142.048 146.479 139.576  1.00  0.00     0.176 A 
ATOM     21  C   UNL     1     142.814 144.874 141.249  1.00  0.00     0.146 A 
ATOM     22  C   UNL     1     142.465 145.169 139.913  1.00  0.00     0.111 A 
ATOM     23  O   UNL     1     143.205 143.652 141.596  1.00  0.00    -0.456 OA
ATOM     24  C   UNL     1     142.542 144.115 138.976  1.00  0.00     0.197 A 
ATOM     25  C   UNL     1     143.300 142.641 140.735  1.00  0.00     0.138 A 
ATOM     26  C   UNL     1     142.959 142.849 139.391  1.00  0.00     0.100 A 
ATOM     27  O   UNL     1     142.239 144.287 137.765  1.00  0.00    -0.289 OA
BRANCH  18  28
ATOM     28  O   UNL     1     141.670 148.804 140.259  1.00  0.00    -0.502 OA
ATOM     29  H   UNL     1     142.160 149.386 139.595  1.00  0.00     0.293 HD
ENDBRANCH  18  28
BRANCH  20  30
ATOM     30  O   UNL     1     141.663 146.747 138.257  1.00  0.00    -0.504 OA
ATOM     31  H   UNL     1     142.089 146.338 137.439  1.00  0.00     0.293 HD
ENDBRANCH  20  30
BRANCH  25  32
ATOM     32  C   UNL     1     143.748 141.317 141.236  1.00  0.00     0.017 A 
ATOM     33  C   UNL     1     143.204 140.741 142.401  1.00  0.00     0.012 A 
ATOM     34  C   UNL     1     144.722 140.598 140.515  1.00  0.00     0.012 A 
ATOM     35  C   UNL     1     143.640 139.487 142.842  1.00  0.00     0.001 A 
ATOM     36  C   UNL     1     145.154 139.346 140.961  1.00  0.00     0.001 A 
ATOM     37  C   UNL     1     144.616 138.792 142.125  1.00  0.00     0.000 A 
ENDBRANCH  25  32
ENDBRANCH   1  17
TORSDOF 9
ENDMDL
MODEL 4
REMARK VINA RESULT:    -6.093      4.933      8.600
REMARK INTER + INTRA:          -9.748
REMARK INTER:                  -8.394
REMARK INTRA:                  -1.354
REMARK UNBOUND:                -1.340
REMARK SMILES O=C([O-])[C@@H]1O[C@H](Oc2cc3oc(-c4ccccc4)cc(=O)c3c(O)c2O)[C@@H](O)[C@@H](O)[C@H]1O
REMARK SMILES IDX 7 1 6 2 4 3 31 4 5 5 29 6 27 7 2 8 1 9 3 10 32 11 30 13
REMARK SMILES IDX 28 15 8 17 25 18 9 19 23 20 10 21 22 22 11 23 20 24 12 25
REMARK SMILES IDX 19 26 21 27 26 28 24 30 13 32 14 33 18 34 15 35 17 36 16 37
REMARK H PARENT 32 12 30 14 28 16 26 29 24 31
REMARK Flexibility Score: inf
ROOT
ATOM      1  O   UNL     1     142.669 145.864 142.351  1.00  0.00    -0.458 OA
ENDROOT
BRANCH   1   2
ATOM      2  C   UNL     1     143.471 147.031 142.550  1.00  0.00     0.339 C 
ATOM      3  C   UNL     1     142.205 148.467 141.123  1.00  0.00     0.199 C 
ATOM      4  C   UNL     1     141.627 149.270 142.320  1.00  0.00     0.180 C 
ATOM      5  O   UNL     1     143.470 147.875 141.403  1.00  0.00    -0.328 OA
ATOM      6  C   UNL     1     141.650 148.438 143.614  1.00  0.00     0.181 C 
ATOM      7  C   UNL     1     143.017 147.773 143.824  1.00  0.00     0.214 C 
BRANCH   3   8
ATOM      8  C   UNL     1     141.244 147.482 140.503  1.00  0.00     0.073 C 
ATOM      9  O   UNL     1     141.571 146.784 139.507  1.00  0.00    -0.547 OA
ATOM     10  O   UNL     1     139.966 147.354 141.032  1.00  0.00    -0.547 OA
ENDBRANCH   3   8
BRANCH   4  11
ATOM     11  O   UNL     1     142.365 150.453 142.503  1.00  0.00    -0.387 OA
ATOM     12  H   UNL     1     142.117 150.815 143.393  1.00  0.00     0.211 HD
ENDBRANCH   4  11
BRANCH   6  13
ATOM     13  O   UNL     1     141.339 149.242 144.724  1.00  0.00    -0.387 OA
ATOM     14  H   UNL     1     140.457 149.658 144.537  1.00  0.00     0.211 HD
ENDBRANCH   6  13
BRANCH   7  15
ATOM     15  O   UNL     1     143.983 148.703 144.260  1.00  0.00    -0.384 OA
ATOM     16  H   UNL     1     144.105 148.596 145.238  1.00  0.00     0.211 HD
ENDBRANCH   7  15
ENDBRANCH   1   2
BRANCH   1  17
ATOM     17  C   UNL     1     143.098 144.580 141.964  1.00  0.00     0.172 A 
ATOM     18  C   UNL     1     143.727 144.279 140.729  1.00  0.00     0.201 A 
ATOM     19  C   UNL     1     142.871 143.556 142.884  1.00  0.00     0.098 A 
ATOM     20  C   UNL     1     144.079 142.936 140.426  1.00  0.00     0.176 A 
ATOM     21  C   UNL     1     143.239 142.243 142.612  1.00  0.00     0.146 A 
ATOM     22  C   UNL     1     143.848 141.916 141.381  1.00  0.00     0.111 A 
ATOM     23  O   UNL     1     143.006 141.306 143.525  1.00  0.00    -0.456 OA
ATOM     24  C   UNL     1     144.185 140.562 141.164  1.00  0.00     0.197 A 
ATOM     25  C   UNL     1     143.322 140.024 143.357  1.00  0.00     0.138 A 
ATOM     26  C   UNL     1     143.920 139.616 142.155  1.00  0.00     0.100 A 
ATOM     27  O   UNL     1     144.722 140.180 140.089  1.00  0.00    -0.289 OA
BRANCH  18  28
ATOM     28  O   UNL     1     144.001 145.315 139.833  1.00  0.00    -0.502 OA
ATOM     29  H   UNL     1     144.727 146.006 139.955  1.00  0.00     0.293 HD
ENDBRANCH  18  28
BRANCH  20  30
ATOM     30  O   UNL     1     144.644 142.591 139.193  1.00  0.00    -0.504 OA
ATOM     31  H   UNL     1     144.482 141.721 138.709  1.00  0.00     0.293 HD
ENDBRANCH  20  30
BRANCH  25  32
ATOM     32  C   UNL     1     143.015 139.064 144.446  1.00  0.00     0.017 A 
ATOM     33  C   UNL     1     143.217 139.390 145.802  1.00  0.00     0.012 A 
ATOM     34  C   UNL     1     142.477 137.802 144.126  1.00  0.00     0.012 A 
ATOM     35  C   UNL     1     142.909 138.467 146.807  1.00  0.00     0.001 A 
ATOM     36  C   UNL     1     142.171 136.884 145.134  1.00  0.00     0.001 A 
ATOM     37  C   UNL     1     142.389 137.215 146.474  1.00  0.00     0.000 A 
ENDBRANCH  25  32
ENDBRANCH   1  17
TORSDOF 9
ENDMDL
MODEL 5
REMARK VINA RESULT:    -6.076      5.469      8.263
REMARK INTER + INTRA:          -9.724
REMARK INTER:                  -8.434
REMARK INTRA:                  -1.290
REMARK UNBOUND:                -1.340
REMARK SMILES O=C([O-])[C@@H]1O[C@H](Oc2cc3oc(-c4ccccc4)cc(=O)c3c(O)c2O)[C@@H](O)[C@@H](O)[C@H]1O
REMARK SMILES IDX 7 1 6 2 4 3 31 4 5 5 29 6 27 7 2 8 1 9 3 10 32 11 30 13
REMARK SMILES IDX 28 15 8 17 25 18 9 19 23 20 10 21 22 22 11 23 20 24 12 25
REMARK SMILES IDX 19 26 21 27 26 28 24 30 13 32 14 33 18 34 15 35 17 36 16 37
REMARK H PARENT 32 12 30 14 28 16 26 29 24 31
REMARK Flexibility Score: inf
ROOT
ATOM      1  O   UNL     1     143.698 145.979 142.969  1.00  0.00    -0.458 OA
ENDROOT
BRANCH   1   2
ATOM      2  C   UNL     1     142.476 146.655 143.276  1.00  0.00     0.339 C 
ATOM      3  C   UNL     1     143.099 148.761 142.338  1.00  0.00     0.199 C 
ATOM      4  C   UNL     1     142.126 148.599 141.139  1.00  0.00     0.180 C 
ATOM      5  O   UNL     1     142.685 148.047 143.498  1.00  0.00    -0.328 OA
ATOM      6  C   UNL     1     141.807 147.117 140.874  1.00  0.00     0.181 C 
ATOM      7  C   UNL     1     141.433 146.388 142.172  1.00  0.00     0.214 C 
BRANCH   3   8
ATOM      8  C   UNL     1     144.551 148.510 142.008  1.00  0.00     0.073 C 
ATOM      9  O   UNL     1     144.910 148.157 140.853  1.00  0.00    -0.547 OA
ATOM     10  O   UNL     1     145.510 148.655 143.003  1.00  0.00    -0.547 OA
ENDBRANCH   3   8
BRANCH   4  11
ATOM     11  O   UNL     1     140.935 149.303 141.392  1.00  0.00    -0.387 OA
ATOM     12  H   UNL     1     140.767 149.247 142.368  1.00  0.00     0.211 HD
ENDBRANCH   4  11
BRANCH   6  13
ATOM     13  O   UNL     1     140.762 146.996 139.944  1.00  0.00    -0.387 OA
ATOM     14  H   UNL     1     140.518 146.034 139.911  1.00  0.00     0.211 HD
ENDBRANCH   6  13
BRANCH   7  15
ATOM     15  O   UNL     1     140.129 146.720 142.593  1.00  0.00    -0.384 OA
ATOM     16  H   UNL     1     139.745 147.371 141.951  1.00  0.00     0.211 HD
ENDBRANCH   7  15
ENDBRANCH   1   2
BRANCH   1  17
ATOM     17  C   UNL     1     143.856 144.670 142.474  1.00  0.00     0.172 A 
ATOM     18  C   UNL     1     144.291 144.353 141.162  1.00  0.00     0.201 A 
ATOM     19  C   UNL     1     143.552 143.638 143.362  1.00  0.00     0.098 A 
ATOM     20  C   UNL     1     144.374 142.993 140.756  1.00  0.00     0.176 A 
ATOM     21  C   UNL     1     143.658 142.303 142.986  1.00  0.00     0.146 A 
ATOM     22  C   UNL     1     144.070 141.964 141.679  1.00  0.00     0.111 A 
ATOM     23  O   UNL     1     143.362 141.359 143.873  1.00  0.00    -0.456 OA
ATOM     24  C   UNL     1     144.144 140.590 141.360  1.00  0.00     0.197 A 
ATOM     25  C   UNL     1     143.433 140.056 143.608  1.00  0.00     0.138 A 
ATOM     26  C   UNL     1     143.823 139.637 142.327  1.00  0.00     0.100 A 
ATOM     27  O   UNL     1     144.493 140.198 140.214  1.00  0.00    -0.289 OA
BRANCH  18  28
ATOM     28  O   UNL     1     144.646 145.386 140.292  1.00  0.00    -0.502 OA
ATOM     29  H   UNL     1     145.496 145.928 140.355  1.00  0.00     0.293 HD
ENDBRANCH  18  28
BRANCH  20  30
ATOM     30  O   UNL     1     144.739 142.643 139.451  1.00  0.00    -0.504 OA
ATOM     31  H   UNL     1     144.271 142.964 138.616  1.00  0.00     0.293 HD
ENDBRANCH  20  30
BRANCH  25  32
ATOM     32  C   UNL     1     143.079 139.089 144.677  1.00  0.00     0.017 A 
ATOM     33  C   UNL     1     143.189 139.420 146.042  1.00  0.00     0.012 A 
ATOM     34  C   UNL     1     142.591 137.816 144.325  1.00  0.00     0.012 A 
ATOM     35  C   UNL     1     142.838 138.491 147.027  1.00  0.00     0.001 A 
ATOM     36  C   UNL     1     142.243 136.891 145.314  1.00  0.00     0.001 A 
ATOM     37  C   UNL     1     142.368 137.227 146.664  1.00  0.00     0.000 A 
ENDBRANCH  25  32
ENDBRANCH   1  17
TORSDOF 9
ENDMDL
MODEL 6
REMARK VINA RESULT:    -6.063      6.333     10.272
REMARK INTER + INTRA:          -9.707
REMARK INTER:                  -8.612
REMARK INTRA:                  -1.095
REMARK UNBOUND:                -1.340
REMARK SMILES O=C([O-])[C@@H]1O[C@H](Oc2cc3oc(-c4ccccc4)cc(=O)c3c(O)c2O)[C@@H](O)[C@@H](O)[C@H]1O
REMARK SMILES IDX 7 1 6 2 4 3 31 4 5 5 29 6 27 7 2 8 1 9 3 10 32 11 30 13
REMARK SMILES IDX 28 15 8 17 25 18 9 19 23 20 10 21 22 22 11 23 20 24 12 25
REMARK SMILES IDX 19 26 21 27 26 28 24 30 13 32 14 33 18 34 15 35 17 36 16 37
REMARK H PARENT 32 12 30 14 28 16 26 29 24 31
REMARK Flexibility Score: inf
ROOT
ATOM      1  O   UNL     1     141.971 145.161 140.769  1.00  0.00    -0.458 OA
ENDROOT
BRANCH   1   2
ATOM      2  C   UNL     1     142.823 145.951 139.935  1.00  0.00     0.339 C 
ATOM      3  C   UNL     1     142.031 148.074 140.688  1.00  0.00     0.199 C 
ATOM      4  C   UNL     1     143.343 148.373 141.461  1.00  0.00     0.180 C 
ATOM      5  O   UNL     1     142.217 147.191 139.586  1.00  0.00    -0.328 OA
ATOM      6  C   UNL     1     144.087 147.076 141.824  1.00  0.00     0.181 C 
ATOM      7  C   UNL     1     144.195 146.139 140.613  1.00  0.00     0.214 C 
BRANCH   3   8
ATOM      8  C   UNL     1     140.870 147.656 141.558  1.00  0.00     0.073 C 
ATOM      9  O   UNL     1     139.719 147.481 141.076  1.00  0.00    -0.547 OA
ATOM     10  O   UNL     1     141.070 147.477 142.920  1.00  0.00    -0.547 OA
ENDBRANCH   3   8
BRANCH   4  11
ATOM     11  O   UNL     1     144.178 149.197 140.685  1.00  0.00    -0.387 OA
ATOM     12  H   UNL     1     143.615 149.589 139.968  1.00  0.00     0.211 HD
ENDBRANCH   4  11
BRANCH   6  13
ATOM     13  O   UNL     1     145.370 147.363 142.318  1.00  0.00    -0.387 OA
ATOM     14  H   UNL     1     145.564 148.307 142.080  1.00  0.00     0.211 HD
ENDBRANCH   6  13
BRANCH   7  15
ATOM     15  O   UNL     1     145.172 146.587 139.700  1.00  0.00    -0.384 OA
ATOM     16  H   UNL     1     145.760 145.824 139.467  1.00  0.00     0.211 HD
ENDBRANCH   7  15
ENDBRANCH   1   2
BRANCH   1  17
ATOM     17  C   UNL     1     142.286 143.956 141.426  1.00  0.00     0.172 A 
ATOM     18  C   UNL     1     141.898 143.637 142.752  1.00  0.00     0.201 A 
ATOM     19  C   UNL     1     143.035 143.036 140.692  1.00  0.00     0.098 A 
ATOM     20  C   UNL     1     142.309 142.405 143.330  1.00  0.00     0.176 A 
ATOM     21  C   UNL     1     143.417 141.814 141.236  1.00  0.00     0.146 A 
ATOM     22  C   UNL     1     143.060 141.483 142.561  1.00  0.00     0.111 A 
ATOM     23  O   UNL     1     144.125 140.971 140.491  1.00  0.00    -0.456 OA
ATOM     24  C   UNL     1     143.492 140.233 143.055  1.00  0.00     0.197 A 
ATOM     25  C   UNL     1     144.537 139.781 140.923  1.00  0.00     0.138 A 
ATOM     26  C   UNL     1     144.233 139.383 142.233  1.00  0.00     0.100 A 
ATOM     27  O   UNL     1     143.226 139.861 144.230  1.00  0.00    -0.289 OA
BRANCH  18  28
ATOM     28  O   UNL     1     141.103 144.536 143.466  1.00  0.00    -0.502 OA
ATOM     29  H   UNL     1     141.434 145.142 144.202  1.00  0.00     0.293 HD
ENDBRANCH  18  28
BRANCH  20  30
ATOM     30  O   UNL     1     141.999 142.083 144.656  1.00  0.00    -0.504 OA
ATOM     31  H   UNL     1     141.109 141.726 144.969  1.00  0.00     0.293 HD
ENDBRANCH  20  30
BRANCH  25  32
ATOM     32  C   UNL     1     145.322 138.921 140.003  1.00  0.00     0.017 A 
ATOM     33  C   UNL     1     146.239 137.964 140.483  1.00  0.00     0.012 A 
ATOM     34  C   UNL     1     145.128 139.035 138.613  1.00  0.00     0.012 A 
ATOM     35  C   UNL     1     146.958 137.161 139.592  1.00  0.00     0.001 A 
ATOM     36  C   UNL     1     145.850 138.230 137.727  1.00  0.00     0.001 A 
ATOM     37  C   UNL     1     146.766 137.296 138.215  1.00  0.00     0.000 A 
ENDBRANCH  25  32
ENDBRANCH   1  17
TORSDOF 9
ENDMDL
MODEL 7
REMARK VINA RESULT:    -6.054      5.327      7.936
REMARK INTER + INTRA:          -9.694
REMARK INTER:                  -8.351
REMARK INTRA:                  -1.343
REMARK UNBOUND:                -1.340
REMARK SMILES O=C([O-])[C@@H]1O[C@H](Oc2cc3oc(-c4ccccc4)cc(=O)c3c(O)c2O)[C@@H](O)[C@@H](O)[C@H]1O
REMARK SMILES IDX 7 1 6 2 4 3 31 4 5 5 29 6 27 7 2 8 1 9 3 10 32 11 30 13
REMARK SMILES IDX 28 15 8 17 25 18 9 19 23 20 10 21 22 22 11 23 20 24 12 25
REMARK SMILES IDX 19 26 21 27 26 28 24 30 13 32 14 33 18 34 15 35 17 36 16 37
REMARK H PARENT 32 12 30 14 28 16 26 29 24 31
REMARK Flexibility Score: inf
ROOT
ATOM      1  O   UNL     1     142.905 145.388 143.123  1.00  0.00    -0.458 OA
ENDROOT
BRANCH   1   2
ATOM      2  C   UNL     1     141.938 146.415 143.360  1.00  0.00     0.339 C 
ATOM      3  C   UNL     1     143.184 148.185 142.354  1.00  0.00     0.199 C 
ATOM      4  C   UNL     1     142.230 148.261 141.131  1.00  0.00     0.180 C 
ATOM      5  O   UNL     1     142.552 147.688 143.529  1.00  0.00    -0.328 OA
ATOM      6  C   UNL     1     141.485 146.932 140.920  1.00  0.00     0.181 C 
ATOM      7  C   UNL     1     140.884 146.416 142.235  1.00  0.00     0.214 C 
BRANCH   3   8
ATOM      8  C   UNL     1     144.499 147.494 142.083  1.00  0.00     0.073 C 
ATOM      9  O   UNL     1     144.754 146.986 140.959  1.00  0.00    -0.547 OA
ATOM     10  O   UNL     1     145.441 147.400 143.100  1.00  0.00    -0.547 OA
ENDBRANCH   3   8
BRANCH   4  11
ATOM     11  O   UNL     1     141.302 149.302 141.313  1.00  0.00    -0.387 OA
ATOM     12  H   UNL     1     140.403 148.924 141.131  1.00  0.00     0.211 HD
ENDBRANCH   4  11
BRANCH   6  13
ATOM     13  O   UNL     1     140.469 147.082 139.961  1.00  0.00    -0.387 OA
ATOM     14  H   UNL     1     139.606 147.031 140.448  1.00  0.00     0.211 HD
ENDBRANCH   6  13
BRANCH   7  15
ATOM     15  O   UNL     1     139.733 147.145 142.598  1.00  0.00    -0.384 OA
ATOM     16  H   UNL     1     140.009 147.908 143.168  1.00  0.00     0.211 HD
ENDBRANCH   7  15
ENDBRANCH   1   2
BRANCH   1  17
ATOM     17  C   UNL     1     143.392 144.436 144.040  1.00  0.00     0.172 A 
ATOM     18  C   UNL     1     144.198 144.742 145.166  1.00  0.00     0.201 A 
ATOM     19  C   UNL     1     143.040 143.109 143.791  1.00  0.00     0.098 A 
ATOM     20  C   UNL     1     144.670 143.694 146.001  1.00  0.00     0.176 A 
ATOM     21  C   UNL     1     143.470 142.078 144.619  1.00  0.00     0.146 A 
ATOM     22  C   UNL     1     144.290 142.356 145.734  1.00  0.00     0.111 A 
ATOM     23  O   UNL     1     143.101 140.832 144.340  1.00  0.00    -0.456 OA
ATOM     24  C   UNL     1     144.701 141.261 146.525  1.00  0.00     0.197 A 
ATOM     25  C   UNL     1     143.461 139.780 145.072  1.00  0.00     0.138 A 
ATOM     26  C   UNL     1     144.286 139.971 146.190  1.00  0.00     0.100 A 
ATOM     27  O   UNL     1     145.443 141.417 147.533  1.00  0.00    -0.289 OA
BRANCH  18  28
ATOM     28  O   UNL     1     144.505 146.076 145.444  1.00  0.00    -0.502 OA
ATOM     29  H   UNL     1     144.109 146.614 146.201  1.00  0.00     0.293 HD
ENDBRANCH  18  28
BRANCH  20  30
ATOM     30  O   UNL     1     145.519 143.951 147.085  1.00  0.00    -0.504 OA
ATOM     31  H   UNL     1     145.219 144.306 147.980  1.00  0.00     0.293 HD
ENDBRANCH  20  30
BRANCH  25  32
ATOM     32  C   UNL     1     142.989 138.433 144.666  1.00  0.00     0.017 A 
ATOM     33  C   UNL     1     143.142 137.959 143.348  1.00  0.00     0.012 A 
ATOM     34  C   UNL     1     142.399 137.587 145.626  1.00  0.00     0.012 A 
ATOM     35  C   UNL     1     142.695 136.680 142.998  1.00  0.00     0.001 A 
ATOM     36  C   UNL     1     141.954 136.311 145.270  1.00  0.00     0.001 A 
ATOM     37  C   UNL     1     142.099 135.858 143.957  1.00  0.00     0.000 A 
ENDBRANCH  25  32
ENDBRANCH   1  17
TORSDOF 9
ENDMDL
MODEL 8
REMARK VINA RESULT:    -5.918      1.716      2.804
REMARK INTER + INTRA:          -9.507
REMARK INTER:                  -8.202
REMARK INTRA:                  -1.305
REMARK UNBOUND:                -1.340
REMARK SMILES O=C([O-])[C@@H]1O[C@H](Oc2cc3oc(-c4ccccc4)cc(=O)c3c(O)c2O)[C@@H](O)[C@@H](O)[C@H]1O
REMARK SMILES IDX 7 1 6 2 4 3 31 4 5 5 29 6 27 7 2 8 1 9 3 10 32 11 30 13
REMARK SMILES IDX 28 15 8 17 25 18 9 19 23 20 10 21 22 22 11 23 20 24 12 25
REMARK SMILES IDX 19 26 21 27 26 28 24 30 13 32 14 33 18 34 15 35 17 36 16 37
REMARK H PARENT 32 12 30 14 28 16 26 29 24 31
REMARK Flexibility Score: inf
ROOT
ATOM      1  O   UNL     1     142.729 147.605 143.589  1.00  0.00    -0.458 OA
ENDROOT
BRANCH   1   2
ATOM      2  C   UNL     1     142.689 148.392 142.396  1.00  0.00     0.339 C 
ATOM      3  C   UNL     1     142.880 146.566 140.869  1.00  0.00     0.199 C 
ATOM      4  C   UNL     1     141.402 146.698 140.411  1.00  0.00     0.180 C 
ATOM      5  O   UNL     1     143.433 147.791 141.341  1.00  0.00    -0.328 OA
ATOM      6  C   UNL     1     140.544 147.395 141.481  1.00  0.00     0.181 C 
ATOM      7  C   UNL     1     141.226 148.670 141.997  1.00  0.00     0.214 C 
BRANCH   3   8
ATOM      8  C   UNL     1     143.144 145.423 141.820  1.00  0.00     0.073 C 
ATOM      9  O   UNL     1     142.213 144.674 142.218  1.00  0.00    -0.547 OA
ATOM     10  O   UNL     1     144.436 145.203 142.278  1.00  0.00    -0.547 OA
ENDBRANCH   3   8
BRANCH   4  11
ATOM     11  O   UNL     1     141.338 147.423 139.207  1.00  0.00    -0.387 OA
ATOM     12  H   UNL     1     142.138 148.010 139.179  1.00  0.00     0.211 HD
ENDBRANCH   4  11
BRANCH   6  13
ATOM     13  O   UNL     1     139.274 147.709 140.970  1.00  0.00    -0.387 OA
ATOM     14  H   UNL     1     138.867 146.854 140.672  1.00  0.00     0.211 HD
ENDBRANCH   6  13
BRANCH   7  15
ATOM     15  O   UNL     1     141.129 149.721 141.062  1.00  0.00    -0.384 OA
ATOM     16  H   UNL     1     141.068 149.330 140.152  1.00  0.00     0.211 HD
ENDBRANCH   7  15
ENDBRANCH   1   2
BRANCH   1  17
ATOM     17  C   UNL     1     143.540 147.802 144.724  1.00  0.00     0.172 A 
ATOM     18  C   UNL     1     144.947 147.630 144.748  1.00  0.00     0.201 A 
ATOM     19  C   UNL     1     142.877 148.192 145.888  1.00  0.00     0.098 A 
ATOM     20  C   UNL     1     145.659 147.816 145.964  1.00  0.00     0.176 A 
ATOM     21  C   UNL     1     143.567 148.407 147.077  1.00  0.00     0.146 A 
ATOM     22  C   UNL     1     144.965 148.222 147.130  1.00  0.00     0.111 A 
ATOM     23  O   UNL     1     142.889 148.784 148.156  1.00  0.00    -0.456 OA
ATOM     24  C   UNL     1     145.601 148.444 148.372  1.00  0.00     0.197 A 
ATOM     25  C   UNL     1     143.459 149.013 149.336  1.00  0.00     0.138 A 
ATOM     26  C   UNL     1     144.844 148.839 149.476  1.00  0.00     0.100 A 
ATOM     27  O   UNL     1     146.845 148.292 148.512  1.00  0.00    -0.289 OA
BRANCH  18  28
ATOM     28  O   UNL     1     145.614 147.292 143.569  1.00  0.00    -0.502 OA
ATOM     29  H   UNL     1     145.503 147.769 142.686  1.00  0.00     0.293 HD
ENDBRANCH  18  28
BRANCH  20  30
ATOM     30  O   UNL     1     147.039 147.594 146.043  1.00  0.00    -0.504 OA
ATOM     31  H   UNL     1     147.723 148.001 145.424  1.00  0.00     0.293 HD
ENDBRANCH  20  30
BRANCH  25  32
ATOM     32  C   UNL     1     142.602 149.430 150.474  1.00  0.00     0.017 A 
ATOM     33  C   UNL     1     142.610 150.752 150.964  1.00  0.00     0.012 A 
ATOM     34  C   UNL     1     141.733 148.493 151.067  1.00  0.00     0.012 A 
ATOM     35  C   UNL     1     141.784 151.117 152.031  1.00  0.00     0.001 A 
ATOM     36  C   UNL     1     140.910 148.864 152.134  1.00  0.00     0.001 A 
ATOM     37  C   UNL     1     140.937 150.174 152.618  1.00  0.00     0.000 A 
ENDBRANCH  25  32
ENDBRANCH   1  17
TORSDOF 9
ENDMDL
MODEL 9
REMARK VINA RESULT:    -5.787      4.474      8.112
REMARK INTER + INTRA:          -9.326
REMARK INTER:                  -8.081
REMARK INTRA:                  -1.245
REMARK UNBOUND:                -1.340
REMARK SMILES O=C([O-])[C@@H]1O[C@H](Oc2cc3oc(-c4ccccc4)cc(=O)c3c(O)c2O)[C@@H](O)[C@@H](O)[C@H]1O
REMARK SMILES IDX 7 1 6 2 4 3 31 4 5 5 29 6 27 7 2 8 1 9 3 10 32 11 30 13
REMARK SMILES IDX 28 15 8 17 25 18 9 19 23 20 10 21 22 22 11 23 20 24 12 25
REMARK SMILES IDX 19 26 21 27 26 28 24 30 13 32 14 33 18 34 15 35 17 36 16 37
REMARK H PARENT 32 12 30 14 28 16 26 29 24 31
REMARK Flexibility Score: inf
ROOT
ATOM      1  O   UNL     1     143.543 142.002 142.926  1.00  0.00    -0.458 OA
ENDROOT
BRANCH   1   2
ATOM      2  C   UNL     1     142.756 141.031 143.621  1.00  0.00     0.339 C 
ATOM      3  C   UNL     1     143.875 139.111 142.749  1.00  0.00     0.199 C 
ATOM      4  C   UNL     1     144.557 138.799 144.109  1.00  0.00     0.180 C 
ATOM      5  O   UNL     1     142.646 139.816 142.886  1.00  0.00    -0.328 OA
ATOM      6  C   UNL     1     144.660 140.059 144.986  1.00  0.00     0.181 C 
ATOM      7  C   UNL     1     143.322 140.810 145.039  1.00  0.00     0.214 C 
BRANCH   3   8
ATOM      8  C   UNL     1     144.781 139.748 141.723  1.00  0.00     0.073 C 
ATOM      9  O   UNL     1     146.001 139.952 141.962  1.00  0.00    -0.547 OA
ATOM     10  O   UNL     1     144.256 140.133 140.496  1.00  0.00    -0.547 OA
ENDBRANCH   3   8
BRANCH   4  11
ATOM     11  O   UNL     1     143.832 137.805 144.790  1.00  0.00    -0.387 OA
ATOM     12  H   UNL     1     143.591 137.112 144.122  1.00  0.00     0.211 HD
ENDBRANCH   4  11
BRANCH   6  13
ATOM     13  O   UNL     1     145.067 139.724 146.287  1.00  0.00    -0.387 OA
ATOM     14  H   UNL     1     144.400 140.120 146.907  1.00  0.00     0.211 HD
ENDBRANCH   6  13
BRANCH   7  15
ATOM     15  O   UNL     1     142.395 140.155 145.875  1.00  0.00    -0.384 OA
ATOM     16  H   UNL     1     142.876 139.466 146.402  1.00  0.00     0.211 HD
ENDBRANCH   7  15
ENDBRANCH   1   2
BRANCH   1  17
ATOM     17  C   UNL     1     143.125 143.249 142.423  1.00  0.00     0.172 A 
ATOM     18  C   UNL     1     142.713 143.480 141.085  1.00  0.00     0.201 A 
ATOM     19  C   UNL     1     143.133 144.309 143.330  1.00  0.00     0.098 A 
ATOM     20  C   UNL     1     142.352 144.792 140.676  1.00  0.00     0.176 A 
ATOM     21  C   UNL     1     142.753 145.591 142.949  1.00  0.00     0.146 A 
ATOM     22  C   UNL     1     142.358 145.849 141.618  1.00  0.00     0.111 A 
ATOM     23  O   UNL     1     142.772 146.564 143.854  1.00  0.00    -0.456 OA
ATOM     24  C   UNL     1     141.997 147.176 141.296  1.00  0.00     0.197 A 
ATOM     25  C   UNL     1     142.426 147.821 143.585  1.00  0.00     0.138 A 
ATOM     26  C   UNL     1     142.033 148.162 142.283  1.00  0.00     0.100 A 
ATOM     27  O   UNL     1     141.641 147.498 140.130  1.00  0.00    -0.289 OA
BRANCH  18  28
ATOM     28  O   UNL     1     142.655 142.407 140.194  1.00  0.00    -0.502 OA
ATOM     29  H   UNL     1     142.327 142.465 139.241  1.00  0.00     0.293 HD
ENDBRANCH  18  28
BRANCH  20  30
ATOM     30  O   UNL     1     142.001 145.071 139.350  1.00  0.00    -0.504 OA
ATOM     31  H   UNL     1     141.248 145.681 139.071  1.00  0.00     0.293 HD
ENDBRANCH  20  30
BRANCH  25  32
ATOM     32  C   UNL     1     142.486 148.827 144.676  1.00  0.00     0.017 A 
ATOM     33  C   UNL     1     142.295 150.201 144.429  1.00  0.00     0.012 A 
ATOM     34  C   UNL     1     142.708 148.400 145.999  1.00  0.00     0.012 A 
ATOM     35  C   UNL     1     142.347 151.124 145.479  1.00  0.00     0.001 A 
ATOM     36  C   UNL     1     142.760 149.327 147.044  1.00  0.00     0.001 A 
ATOM     37  C   UNL     1     142.582 150.688 146.785  1.00  0.00     0.000 A 
ENDBRANCH  25  32
ENDBRANCH   1  17
TORSDOF 9
ENDMDL
