MODEL 1
REMARK VINA RESULT:    -6.819      0.000      0.000
REMARK INTER + INTRA:          -6.819
REMARK INTER:                  -6.819
REMARK INTRA:                   0.000
REMARK UNBOUND:                 0.000
REMARK SMILES C=C1CCC[C@@]2(C)CC(=O)C(=C(C)C)C[C@H]12
REMARK SMILES IDX 13 1 12 2 11 3 15 4 16 5 2 6 1 7 3 8 4 9 5 10 6 11 8 12 9 13
REMARK SMILES IDX 10 14 7 15 14 16
REMARK H PARENT
REMARK Flexibility Score: inf
ROOT
ATOM      1  C   UNL     1     -13.857 -15.716  33.854  1.00  0.00     0.039 C 
ATOM      2  C   UNL     1     -14.181 -15.367  32.420  1.00  0.00    -0.070 C 
ATOM      3  C   UNL     1     -13.379 -15.746  31.376  1.00  0.00    -0.006 C 
ATOM      4  C   UNL     1     -13.848 -15.524  29.945  1.00  0.00     0.047 C 
ATOM      5  C   UNL     1     -12.894 -16.060  28.846  1.00  0.00     0.025 C 
ATOM      6  C   UNL     1     -13.523 -16.113  27.449  1.00  0.00    -0.073 C 
ATOM      7  C   UNL     1     -14.634 -15.428  27.112  1.00  0.00     0.008 C 
ATOM      8  C   UNL     1     -12.800 -16.869  26.360  1.00  0.00     0.031 C 
ATOM      9  C   UNL     1     -11.377 -17.224  26.784  1.00  0.00     0.005 C 
ATOM     10  C   UNL     1     -11.367 -18.031  28.086  1.00  0.00     0.008 C 
ATOM     11  C   UNL     1     -12.275 -17.445  29.233  1.00  0.00    -0.018 C 
ATOM     12  C   UNL     1     -11.399 -17.228  30.493  1.00  0.00     0.088 C 
ATOM     13  C   UNL     1     -12.073 -16.447  31.588  1.00  0.00     0.159 C 
ATOM     14  O   UNL     1     -11.452 -16.339  32.678  1.00  0.00    -0.295 OA
ATOM     15  C   UNL     1     -13.387 -18.486  29.546  1.00  0.00     0.012 C 
ATOM     16  C   UNL     1     -15.522 -14.692  32.219  1.00  0.00     0.039 C 
ENDROOT
TORSDOF 0
ENDMDL
MODEL 2
REMARK VINA RESULT:    -6.368      1.832      5.134
REMARK INTER + INTRA:          -6.368
REMARK INTER:                  -6.368
REMARK INTRA:                   0.000
REMARK UNBOUND:                 0.000
REMARK SMILES C=C1CCC[C@@]2(C)CC(=O)C(=C(C)C)C[C@H]12
REMARK SMILES IDX 13 1 12 2 11 3 15 4 16 5 2 6 1 7 3 8 4 9 5 10 6 11 8 12 9 13
REMARK SMILES IDX 10 14 7 15 14 16
REMARK H PARENT
REMARK Flexibility Score: inf
ROOT
ATOM      1  C   UNL     1     -14.374 -15.866  26.505  1.00  0.00     0.039 C 
ATOM      2  C   UNL     1     -13.164 -16.301  27.297  1.00  0.00    -0.070 C 
ATOM      3  C   UNL     1     -12.991 -15.961  28.613  1.00  0.00    -0.006 C 
ATOM      4  C   UNL     1     -11.847 -16.577  29.407  1.00  0.00     0.047 C 
ATOM      5  C   UNL     1     -11.793 -16.179  30.905  1.00  0.00     0.025 C 
ATOM      6  C   UNL     1     -10.845 -17.044  31.744  1.00  0.00    -0.073 C 
ATOM      7  C   UNL     1      -9.875 -17.812  31.208  1.00  0.00     0.008 C 
ATOM      8  C   UNL     1     -10.914 -16.941  33.249  1.00  0.00     0.031 C 
ATOM      9  C   UNL     1     -11.754 -15.741  33.682  1.00  0.00     0.005 C 
ATOM     10  C   UNL     1     -13.165 -15.802  33.090  1.00  0.00     0.008 C 
ATOM     11  C   UNL     1     -13.219 -16.128  31.549  1.00  0.00    -0.018 C 
ATOM     12  C   UNL     1     -14.012 -15.005  30.834  1.00  0.00     0.088 C 
ATOM     13  C   UNL     1     -13.938 -15.053  29.333  1.00  0.00     0.159 C 
ATOM     14  O   UNL     1     -14.655 -14.235  28.699  1.00  0.00    -0.295 OA
ATOM     15  C   UNL     1     -13.962 -17.483  31.369  1.00  0.00     0.012 C 
ATOM     16  C   UNL     1     -12.234 -17.249  26.567  1.00  0.00     0.039 C 
ENDROOT
TORSDOF 0
ENDMDL
MODEL 3
REMARK VINA RESULT:    -5.883      1.988      4.972
REMARK INTER + INTRA:          -5.883
REMARK INTER:                  -5.883
REMARK INTRA:                   0.000
REMARK UNBOUND:                 0.000
REMARK SMILES C=C1CCC[C@@]2(C)CC(=O)C(=C(C)C)C[C@H]12
REMARK SMILES IDX 13 1 12 2 11 3 15 4 16 5 2 6 1 7 3 8 4 9 5 10 6 11 8 12 9 13
REMARK SMILES IDX 10 14 7 15 14 16
REMARK H PARENT
REMARK Flexibility Score: inf
ROOT
ATOM      1  C   UNL     1     -11.773 -16.882  25.624  1.00  0.00     0.039 C 
ATOM      2  C   UNL     1     -12.577 -16.714  26.891  1.00  0.00    -0.070 C 
ATOM      3  C   UNL     1     -12.047 -16.957  28.131  1.00  0.00    -0.006 C 
ATOM      4  C   UNL     1     -12.844 -16.598  29.377  1.00  0.00     0.047 C 
ATOM      5  C   UNL     1     -12.115 -16.847  30.723  1.00  0.00     0.025 C 
ATOM      6  C   UNL     1     -12.797 -16.191  31.929  1.00  0.00    -0.073 C 
ATOM      7  C   UNL     1     -14.077 -15.768  31.916  1.00  0.00     0.008 C 
ATOM      8  C   UNL     1     -12.044 -16.125  33.237  1.00  0.00     0.031 C 
ATOM      9  C   UNL     1     -10.798 -17.007  33.202  1.00  0.00     0.005 C 
ATOM     10  C   UNL     1      -9.876 -16.627  32.040  1.00  0.00     0.008 C 
ATOM     11  C   UNL     1     -10.603 -16.450  30.652  1.00  0.00    -0.018 C 
ATOM     12  C   UNL     1      -9.925 -17.383  29.617  1.00  0.00     0.088 C 
ATOM     13  C   UNL     1     -10.665 -17.504  28.314  1.00  0.00     0.159 C 
ATOM     14  O   UNL     1     -10.102 -18.156  27.396  1.00  0.00    -0.295 OA
ATOM     15  C   UNL     1     -10.434 -14.970  30.205  1.00  0.00     0.012 C 
ATOM     16  C   UNL     1     -13.960 -16.126  26.694  1.00  0.00     0.039 C 
ENDROOT
TORSDOF 0
ENDMDL
MODEL 4
REMARK VINA RESULT:    -5.839      2.027      4.616
REMARK INTER + INTRA:          -5.839
REMARK INTER:                  -5.839
REMARK INTRA:                   0.000
REMARK UNBOUND:                 0.000
REMARK SMILES C=C1CCC[C@@]2(C)CC(=O)C(=C(C)C)C[C@H]12
REMARK SMILES IDX 13 1 12 2 11 3 15 4 16 5 2 6 1 7 3 8 4 9 5 10 6 11 8 12 9 13
REMARK SMILES IDX 10 14 7 15 14 16
REMARK H PARENT
REMARK Flexibility Score: inf
ROOT
ATOM      1  C   UNL     1     -14.078 -15.535  26.851  1.00  0.00     0.039 C 
ATOM      2  C   UNL     1     -14.006 -15.381  28.352  1.00  0.00    -0.070 C 
ATOM      3  C   UNL     1     -13.247 -16.208  29.137  1.00  0.00    -0.006 C 
ATOM      4  C   UNL     1     -13.072 -15.894  30.616  1.00  0.00     0.047 C 
ATOM      5  C   UNL     1     -12.131 -16.855  31.390  1.00  0.00     0.025 C 
ATOM      6  C   UNL     1     -11.722 -16.342  32.775  1.00  0.00    -0.073 C 
ATOM      7  C   UNL     1     -12.383 -15.365  33.428  1.00  0.00     0.008 C 
ATOM      8  C   UNL     1     -10.600 -17.044  33.503  1.00  0.00     0.031 C 
ATOM      9  C   UNL     1     -10.246 -18.367  32.826  1.00  0.00     0.005 C 
ATOM     10  C   UNL     1      -9.875 -18.161  31.354  1.00  0.00     0.008 C 
ATOM     11  C   UNL     1     -10.873 -17.247  30.545  1.00  0.00    -0.018 C 
ATOM     12  C   UNL     1     -11.371 -18.037  29.308  1.00  0.00     0.088 C 
ATOM     13  C   UNL     1     -12.513 -17.386  28.577  1.00  0.00     0.159 C 
ATOM     14  O   UNL     1     -12.881 -17.924  27.499  1.00  0.00    -0.295 OA
ATOM     15  C   UNL     1     -10.097 -15.984  30.077  1.00  0.00     0.012 C 
ATOM     16  C   UNL     1     -14.724 -14.164  28.901  1.00  0.00     0.039 C 
ENDROOT
TORSDOF 0
ENDMDL
MODEL 5
REMARK VINA RESULT:    -5.700      2.139      4.353
REMARK INTER + INTRA:          -5.700
REMARK INTER:                  -5.700
REMARK INTRA:                   0.000
REMARK UNBOUND:                 0.000
REMARK SMILES C=C1CCC[C@@]2(C)CC(=O)C(=C(C)C)C[C@H]12
REMARK SMILES IDX 13 1 12 2 11 3 15 4 16 5 2 6 1 7 3 8 4 9 5 10 6 11 8 12 9 13
REMARK SMILES IDX 10 14 7 15 14 16
REMARK H PARENT
REMARK Flexibility Score: inf
ROOT
ATOM      1  C   UNL     1     -14.749 -14.294  27.174  1.00  0.00     0.039 C 
ATOM      2  C   UNL     1     -14.466 -14.625  28.621  1.00  0.00    -0.070 C 
ATOM      3  C   UNL     1     -13.581 -15.604  28.988  1.00  0.00    -0.006 C 
ATOM      4  C   UNL     1     -13.202 -15.769  30.454  1.00  0.00     0.047 C 
ATOM      5  C   UNL     1     -12.136 -16.857  30.742  1.00  0.00     0.025 C 
ATOM      6  C   UNL     1     -11.545 -16.788  32.155  1.00  0.00    -0.073 C 
ATOM      7  C   UNL     1     -12.131 -16.123  33.171  1.00  0.00     0.008 C 
ATOM      8  C   UNL     1     -10.312 -17.605  32.463  1.00  0.00     0.031 C 
ATOM      9  C   UNL     1     -10.025 -18.612  31.351  1.00  0.00     0.005 C 
ATOM     10  C   UNL     1      -9.875 -17.918  29.994  1.00  0.00     0.008 C 
ATOM     11  C   UNL     1     -11.003 -16.868  29.663  1.00  0.00    -0.018 C 
ATOM     12  C   UNL     1     -11.652 -17.252  28.309  1.00  0.00     0.088 C 
ATOM     13  C   UNL     1     -12.904 -16.484  27.983  1.00  0.00     0.159 C 
ATOM     14  O   UNL     1     -13.410 -16.673  26.846  1.00  0.00    -0.295 OA
ATOM     15  C   UNL     1     -10.336 -15.468  29.540  1.00  0.00     0.012 C 
ATOM     16  C   UNL     1     -15.129 -13.703  29.625  1.00  0.00     0.039 C 
ENDROOT
TORSDOF 0
ENDMDL
MODEL 6
REMARK VINA RESULT:    -5.631      2.001      4.857
REMARK INTER + INTRA:          -5.631
REMARK INTER:                  -5.631
REMARK INTRA:                   0.000
REMARK UNBOUND:                 0.000
REMARK SMILES C=C1CCC[C@@]2(C)CC(=O)C(=C(C)C)C[C@H]12
REMARK SMILES IDX 13 1 12 2 11 3 15 4 16 5 2 6 1 7 3 8 4 9 5 10 6 11 8 12 9 13
REMARK SMILES IDX 10 14 7 15 14 16
REMARK H PARENT
REMARK Flexibility Score: inf
ROOT
ATOM      1  C   UNL     1      -9.891 -18.019  29.223  1.00  0.00     0.039 C 
ATOM      2  C   UNL     1     -11.036 -17.034  29.238  1.00  0.00    -0.070 C 
ATOM      3  C   UNL     1     -12.077 -17.136  30.122  1.00  0.00    -0.006 C 
ATOM      4  C   UNL     1     -13.105 -16.017  30.211  1.00  0.00     0.047 C 
ATOM      5  C   UNL     1     -14.195 -16.205  31.298  1.00  0.00     0.025 C 
ATOM      6  C   UNL     1     -15.014 -14.941  31.582  1.00  0.00    -0.073 C 
ATOM      7  C   UNL     1     -15.066 -13.889  30.741  1.00  0.00     0.008 C 
ATOM      8  C   UNL     1     -15.906 -14.916  32.800  1.00  0.00     0.031 C 
ATOM      9  C   UNL     1     -16.056 -16.311  33.404  1.00  0.00     0.005 C 
ATOM     10  C   UNL     1     -14.694 -16.917  33.756  1.00  0.00     0.008 C 
ATOM     11  C   UNL     1     -13.606 -16.797  32.622  1.00  0.00    -0.018 C 
ATOM     12  C   UNL     1     -13.071 -18.216  32.300  1.00  0.00     0.088 C 
ATOM     13  C   UNL     1     -12.207 -18.288  31.071  1.00  0.00     0.159 C 
ATOM     14  O   UNL     1     -11.653 -19.391  30.826  1.00  0.00    -0.295 OA
ATOM     15  C   UNL     1     -12.444 -15.915  33.160  1.00  0.00     0.012 C 
ATOM     16  C   UNL     1     -10.872 -15.855  28.299  1.00  0.00     0.039 C 
ENDROOT
TORSDOF 0
ENDMDL
MODEL 7
REMARK VINA RESULT:    -5.327      1.800      3.567
REMARK INTER + INTRA:          -5.327
REMARK INTER:                  -5.327
REMARK INTRA:                   0.000
REMARK UNBOUND:                 0.000
REMARK SMILES C=C1CCC[C@@]2(C)CC(=O)C(=C(C)C)C[C@H]12
REMARK SMILES IDX 13 1 12 2 11 3 15 4 16 5 2 6 1 7 3 8 4 9 5 10 6 11 8 12 9 13
REMARK SMILES IDX 10 14 7 15 14 16
REMARK H PARENT
REMARK Flexibility Score: inf
ROOT
ATOM      1  C   UNL     1     -16.130 -13.688  30.304  1.00  0.00     0.039 C 
ATOM      2  C   UNL     1     -14.849 -14.226  29.712  1.00  0.00    -0.070 C 
ATOM      3  C   UNL     1     -14.003 -15.041  30.418  1.00  0.00    -0.006 C 
ATOM      4  C   UNL     1     -12.823 -15.695  29.713  1.00  0.00     0.047 C 
ATOM      5  C   UNL     1     -11.979 -16.657  30.590  1.00  0.00     0.025 C 
ATOM      6  C   UNL     1     -11.009 -17.535  29.792  1.00  0.00    -0.073 C 
ATOM      7  C   UNL     1     -10.634 -17.262  28.527  1.00  0.00     0.008 C 
ATOM      8  C   UNL     1     -10.342 -18.695  30.493  1.00  0.00     0.031 C 
ATOM      9  C   UNL     1     -10.543 -18.617  32.005  1.00  0.00     0.005 C 
ATOM     10  C   UNL     1     -12.029 -18.562  32.369  1.00  0.00     0.008 C 
ATOM     11  C   UNL     1     -12.875 -17.528  31.532  1.00  0.00    -0.018 C 
ATOM     12  C   UNL     1     -13.590 -16.566  32.515  1.00  0.00     0.088 C 
ATOM     13  C   UNL     1     -14.237 -15.378  31.858  1.00  0.00     0.159 C 
ATOM     14  O   UNL     1     -14.929 -14.625  32.592  1.00  0.00    -0.295 OA
ATOM     15  C   UNL     1     -13.937 -18.321  30.718  1.00  0.00     0.012 C 
ATOM     16  C   UNL     1     -14.644 -13.907  28.245  1.00  0.00     0.039 C 
ENDROOT
TORSDOF 0
ENDMDL
MODEL 8
REMARK VINA RESULT:    -4.767      1.359      2.048
REMARK INTER + INTRA:          -4.767
REMARK INTER:                  -4.767
REMARK INTRA:                   0.000
REMARK UNBOUND:                 0.000
REMARK SMILES C=C1CCC[C@@]2(C)CC(=O)C(=C(C)C)C[C@H]12
REMARK SMILES IDX 13 1 12 2 11 3 15 4 16 5 2 6 1 7 3 8 4 9 5 10 6 11 8 12 9 13
REMARK SMILES IDX 10 14 7 15 14 16
REMARK H PARENT
REMARK Flexibility Score: inf
ROOT
ATOM      1  C   UNL     1     -13.646 -14.914  34.914  1.00  0.00     0.039 C 
ATOM      2  C   UNL     1     -13.833 -15.114  33.429  1.00  0.00    -0.070 C 
ATOM      3  C   UNL     1     -12.832 -15.589  32.623  1.00  0.00    -0.006 C 
ATOM      4  C   UNL     1     -13.133 -15.940  31.173  1.00  0.00     0.047 C 
ATOM      5  C   UNL     1     -11.944 -16.540  30.378  1.00  0.00     0.025 C 
ATOM      6  C   UNL     1     -12.348 -17.173  29.040  1.00  0.00    -0.073 C 
ATOM      7  C   UNL     1     -13.519 -16.916  28.424  1.00  0.00     0.008 C 
ATOM      8  C   UNL     1     -11.338 -18.028  28.312  1.00  0.00     0.031 C 
ATOM      9  C   UNL     1      -9.945 -17.878  28.921  1.00  0.00     0.005 C 
ATOM     10  C   UNL     1      -9.948 -18.217  30.415  1.00  0.00     0.008 C 
ATOM     11  C   UNL     1     -11.110 -17.544  31.241  1.00  0.00    -0.018 C 
ATOM     12  C   UNL     1     -10.484 -16.744  32.411  1.00  0.00     0.088 C 
ATOM     13  C   UNL     1     -11.451 -15.851  33.139  1.00  0.00     0.159 C 
ATOM     14  O   UNL     1     -11.024 -15.266  34.168  1.00  0.00    -0.295 OA
ATOM     15  C   UNL     1     -12.013 -18.675  31.811  1.00  0.00     0.012 C 
ATOM     16  C   UNL     1     -15.245 -14.880  32.929  1.00  0.00     0.039 C 
ENDROOT
TORSDOF 0
ENDMDL
