MODEL 1
REMARK VINA RESULT:    -3.467      0.000      0.000
REMARK INTER + INTRA:          -7.059
REMARK INTER:                  -5.291
REMARK INTRA:                  -1.768
REMARK UNBOUND:                -1.768
REMARK SMILES OC[C@@H]1O[C@@H](O[C@]2(CO)O[C@H](CO)[C@@H](O)[C@@H]2O)[C@@H](O)[C@@H](O)[C@H]1O
REMARK SMILES IDX 6 1 5 2 3 3 22 4 4 5 20 6 18 7 2 8 1 9 23 11 21 13 19 15
REMARK SMILES IDX 7 17 16 18 10 19 14 20 11 21 8 22 9 23 17 25 15 27 12 29
REMARK SMILES IDX 13 30
REMARK H PARENT 1 10 23 12 21 14 19 16 9 24 17 26 15 28 13 31
REMARK Flexibility Score: inf
ROOT
ATOM      1  O   UNL     1      18.006  -8.343   1.726  1.00  0.00    -0.313 OA
ENDROOT
BRANCH   1   2
ATOM      2  C   UNL     1      17.658  -8.076   3.085  1.00  0.00     0.285 C 
ATOM      3  C   UNL     1      18.765  -5.996   3.001  1.00  0.00     0.178 C 
ATOM      4  C   UNL     1      19.854  -6.429   4.012  1.00  0.00     0.177 C 
ATOM      5  O   UNL     1      17.541  -6.672   3.265  1.00  0.00    -0.341 OA
ATOM      6  C   UNL     1      20.041  -7.956   3.962  1.00  0.00     0.179 C 
ATOM      7  C   UNL     1      18.674  -8.644   4.107  1.00  0.00     0.202 C 
BRANCH   3   8
ATOM      8  C   UNL     1      18.508  -4.488   3.083  1.00  0.00     0.191 C 
BRANCH   8   9
ATOM      9  O   UNL     1      19.365  -3.816   2.202  1.00  0.00    -0.394 OA
ATOM     10  H   UNL     1      20.112  -3.467   2.753  1.00  0.00     0.210 HD
ENDBRANCH   8   9
ENDBRANCH   3   8
BRANCH   4  11
ATOM     11  O   UNL     1      21.077  -5.799   3.720  1.00  0.00    -0.387 OA
ATOM     12  H   UNL     1      21.173  -5.038   4.350  1.00  0.00     0.211 HD
ENDBRANCH   4  11
BRANCH   6  13
ATOM     13  O   UNL     1      20.643  -8.343   2.752  1.00  0.00    -0.387 OA
ATOM     14  H   UNL     1      21.424  -7.747   2.612  1.00  0.00     0.211 HD
ENDBRANCH   6  13
BRANCH   7  15
ATOM     15  O   UNL     1      18.796 -10.035   3.980  1.00  0.00    -0.385 OA
ATOM     16  H   UNL     1      19.747 -10.223   3.764  1.00  0.00     0.211 HD
ENDBRANCH   7  15
ENDBRANCH   1   2
BRANCH   1  17
ATOM     17  C   UNL     1      17.157  -9.190   0.938  1.00  0.00     0.224 C 
ATOM     18  C   UNL     1      18.038 -10.361   0.417  1.00  0.00     0.208 C 
ATOM     19  O   UNL     1      16.165  -9.745   1.785  1.00  0.00    -0.337 OA
ATOM     20  C   UNL     1      17.704 -11.500   1.349  1.00  0.00     0.180 C 
ATOM     21  C   UNL     1      16.277 -11.150   1.740  1.00  0.00     0.179 C 
BRANCH  17  22
ATOM     22  C   UNL     1      16.446  -8.494  -0.261  1.00  0.00     0.225 C 
BRANCH  22  23
ATOM     23  O   UNL     1      17.387  -7.976  -1.163  1.00  0.00    -0.391 OA
ATOM     24  H   UNL     1      17.613  -8.713  -1.788  1.00  0.00     0.210 HD
ENDBRANCH  22  23
ENDBRANCH  17  22
BRANCH  18  25
ATOM     25  O   UNL     1      19.416 -10.059   0.389  1.00  0.00    -0.385 OA
ATOM     26  H   UNL     1      19.532  -9.074   0.411  1.00  0.00     0.211 HD
ENDBRANCH  18  25
BRANCH  20  27
ATOM     27  O   UNL     1      17.767 -12.730   0.676  1.00  0.00    -0.387 OA
ATOM     28  H   UNL     1      17.274 -12.612  -0.176  1.00  0.00     0.211 HD
ENDBRANCH  20  27
BRANCH  21  29
ATOM     29  C   UNL     1      15.857 -11.760   3.081  1.00  0.00     0.191 C 
BRANCH  29  30
ATOM     30  O   UNL     1      16.937 -12.412   3.687  1.00  0.00    -0.394 OA
ATOM     31  H   UNL     1      17.717 -11.806   3.585  1.00  0.00     0.210 HD
ENDBRANCH  29  30
ENDBRANCH  21  29
ENDBRANCH   1  17
TORSDOF 13
ENDMDL
MODEL 2
REMARK VINA RESULT:    -3.270      4.444      6.247
REMARK INTER + INTRA:          -6.758
REMARK INTER:                  -4.937
REMARK INTRA:                  -1.821
REMARK UNBOUND:                -1.768
REMARK SMILES OC[C@@H]1O[C@@H](O[C@]2(CO)O[C@H](CO)[C@@H](O)[C@@H]2O)[C@@H](O)[C@@H](O)[C@H]1O
REMARK SMILES IDX 6 1 5 2 3 3 22 4 4 5 20 6 18 7 2 8 1 9 23 11 21 13 19 15
REMARK SMILES IDX 7 17 16 18 10 19 14 20 11 21 8 22 9 23 17 25 15 27 12 29
REMARK SMILES IDX 13 30
REMARK H PARENT 1 10 23 12 21 14 19 16 9 24 17 26 15 28 13 31
REMARK Flexibility Score: inf
ROOT
ATOM      1  O   UNL     1      15.241 -11.509  -2.262  1.00  0.00    -0.313 OA
ENDROOT
BRANCH   1   2
ATOM      2  C   UNL     1      14.999 -11.659  -0.863  1.00  0.00     0.285 C 
ATOM      3  C   UNL     1      16.569  -9.972  -0.368  1.00  0.00     0.178 C 
ATOM      4  C   UNL     1      17.546 -10.953   0.324  1.00  0.00     0.177 C 
ATOM      5  O   UNL     1      15.226 -10.415  -0.217  1.00  0.00    -0.341 OA
ATOM      6  C   UNL     1      17.361 -12.370  -0.247  1.00  0.00     0.179 C 
ATOM      7  C   UNL     1      15.872 -12.752  -0.197  1.00  0.00     0.202 C 
BRANCH   3   8
ATOM      8  C   UNL     1      16.684  -8.568   0.234  1.00  0.00     0.191 C 
BRANCH   8   9
ATOM      9  O   UNL     1      17.727  -7.872  -0.390  1.00  0.00    -0.394 OA
ATOM     10  H   UNL     1      18.569  -8.237  -0.012  1.00  0.00     0.210 HD
ENDBRANCH   8   9
ENDBRANCH   3   8
BRANCH   4  11
ATOM     11  O   UNL     1      18.877 -10.543   0.132  1.00  0.00    -0.387 OA
ATOM     12  H   UNL     1      19.254 -10.338   1.026  1.00  0.00     0.211 HD
ENDBRANCH   4  11
BRANCH   6  13
ATOM     13  O   UNL     1      17.825 -12.436  -1.573  1.00  0.00    -0.387 OA
ATOM     14  H   UNL     1      17.925 -11.502  -1.893  1.00  0.00     0.211 HD
ENDBRANCH   6  13
BRANCH   7  15
ATOM     15  O   UNL     1      15.655 -14.004  -0.788  1.00  0.00    -0.385 OA
ATOM     16  H   UNL     1      16.312 -14.093  -1.526  1.00  0.00     0.211 HD
ENDBRANCH   7  15
ENDBRANCH   1   2
BRANCH   1  17
ATOM     17  C   UNL     1      14.203 -11.845  -3.193  1.00  0.00     0.224 C 
ATOM     18  C   UNL     1      14.879 -12.593  -4.378  1.00  0.00     0.208 C 
ATOM     19  O   UNL     1      13.313 -12.752  -2.567  1.00  0.00    -0.337 OA
ATOM     20  C   UNL     1      14.595 -14.047  -4.089  1.00  0.00     0.180 C 
ATOM     21  C   UNL     1      13.287 -13.943  -3.321  1.00  0.00     0.179 C 
BRANCH  17  22
ATOM     22  C   UNL     1      13.377 -10.640  -3.736  1.00  0.00     0.225 C 
BRANCH  22  23
ATOM     23  O   UNL     1      13.775 -10.313  -5.041  1.00  0.00    -0.391 OA
ATOM     24  H   UNL     1      14.408 -11.021  -5.327  1.00  0.00     0.210 HD
ENDBRANCH  22  23
ENDBRANCH  17  22
BRANCH  18  25
ATOM     25  O   UNL     1      16.257 -12.317  -4.506  1.00  0.00    -0.385 OA
ATOM     26  H   UNL     1      16.370 -11.404  -4.878  1.00  0.00     0.211 HD
ENDBRANCH  18  25
BRANCH  20  27
ATOM     27  O   UNL     1      14.437 -14.771  -5.281  1.00  0.00    -0.387 OA
ATOM     28  H   UNL     1      15.299 -15.234  -5.447  1.00  0.00     0.211 HD
ENDBRANCH  20  27
BRANCH  21  29
ATOM     29  C   UNL     1      13.032 -15.146  -2.407  1.00  0.00     0.191 C 
BRANCH  29  30
ATOM     30  O   UNL     1      14.127 -16.019  -2.423  1.00  0.00    -0.394 OA
ATOM     31  H   UNL     1      14.892 -15.494  -2.777  1.00  0.00     0.210 HD
ENDBRANCH  29  30
ENDBRANCH  21  29
ENDBRANCH   1  17
TORSDOF 13
ENDMDL
MODEL 3
REMARK VINA RESULT:    -3.259      5.849      8.365
REMARK INTER + INTRA:          -6.742
REMARK INTER:                  -4.887
REMARK INTRA:                  -1.855
REMARK UNBOUND:                -1.768
REMARK SMILES OC[C@@H]1O[C@@H](O[C@]2(CO)O[C@H](CO)[C@@H](O)[C@@H]2O)[C@@H](O)[C@@H](O)[C@H]1O
REMARK SMILES IDX 6 1 5 2 3 3 22 4 4 5 20 6 18 7 2 8 1 9 23 11 21 13 19 15
REMARK SMILES IDX 7 17 16 18 10 19 14 20 11 21 8 22 9 23 17 25 15 27 12 29
REMARK SMILES IDX 13 30
REMARK H PARENT 1 10 23 12 21 14 19 16 9 24 17 26 15 28 13 31
REMARK Flexibility Score: inf
ROOT
ATOM      1  O   UNL     1      15.099 -10.419  -4.477  1.00  0.00    -0.313 OA
ENDROOT
BRANCH   1   2
ATOM      2  C   UNL     1      14.318 -11.025  -3.446  1.00  0.00     0.285 C 
ATOM      3  C   UNL     1      15.915 -10.415  -1.823  1.00  0.00     0.178 C 
ATOM      4  C   UNL     1      16.314 -11.881  -1.528  1.00  0.00     0.177 C 
ATOM      5  O   UNL     1      14.552 -10.340  -2.225  1.00  0.00    -0.341 OA
ATOM      6  C   UNL     1      16.051 -12.756  -2.767  1.00  0.00     0.179 C 
ATOM      7  C   UNL     1      14.610 -12.535  -3.254  1.00  0.00     0.202 C 
BRANCH   3   8
ATOM      8  C   UNL     1      16.099  -9.536  -0.581  1.00  0.00     0.191 C 
BRANCH   8   9
ATOM      9  O   UNL     1      17.445  -9.165  -0.462  1.00  0.00    -0.394 OA
ATOM     10  H   UNL     1      17.448  -8.262  -0.052  1.00  0.00     0.210 HD
ENDBRANCH   8   9
ENDBRANCH   3   8
BRANCH   4  11
ATOM     11  O   UNL     1      17.674 -11.962  -1.180  1.00  0.00    -0.387 OA
ATOM     12  H   UNL     1      18.185 -12.096  -2.019  1.00  0.00     0.211 HD
ENDBRANCH   4  11
BRANCH   6  13
ATOM     13  O   UNL     1      16.956 -12.444  -3.796  1.00  0.00    -0.387 OA
ATOM     14  H   UNL     1      17.369 -11.572  -3.567  1.00  0.00     0.211 HD
ENDBRANCH   6  13
BRANCH   7  15
ATOM     15  O   UNL     1      14.362 -13.252  -4.432  1.00  0.00    -0.385 OA
ATOM     16  H   UNL     1      14.826 -12.771  -5.166  1.00  0.00     0.211 HD
ENDBRANCH   7  15
ENDBRANCH   1   2
BRANCH   1  17
ATOM     17  C   UNL     1      14.443  -9.914  -5.648  1.00  0.00     0.224 C 
ATOM     18  C   UNL     1      15.268 -10.394  -6.876  1.00  0.00     0.208 C 
ATOM     19  O   UNL     1      13.159 -10.508  -5.736  1.00  0.00    -0.337 OA
ATOM     20  C   UNL     1      14.486 -11.579  -7.389  1.00  0.00     0.180 C 
ATOM     21  C   UNL     1      13.076 -11.208  -6.957  1.00  0.00     0.179 C 
BRANCH  17  22
ATOM     22  C   UNL     1      14.273  -8.366  -5.703  1.00  0.00     0.225 C 
BRANCH  22  23
ATOM     23  O   UNL     1      15.421  -7.759  -6.234  1.00  0.00    -0.391 OA
ATOM     24  H   UNL     1      15.951  -7.435  -5.460  1.00  0.00     0.210 HD
ENDBRANCH  22  23
ENDBRANCH  17  22
BRANCH  18  25
ATOM     25  O   UNL     1      16.607 -10.712  -6.565  1.00  0.00    -0.385 OA
ATOM     26  H   UNL     1      17.022  -9.942  -6.097  1.00  0.00     0.211 HD
ENDBRANCH  18  25
BRANCH  20  27
ATOM     27  O   UNL     1      14.588 -11.679  -8.785  1.00  0.00    -0.387 OA
ATOM     28  H   UNL     1      14.717 -12.640  -8.991  1.00  0.00     0.211 HD
ENDBRANCH  20  27
BRANCH  21  29
ATOM     29  C   UNL     1      12.155 -12.425  -6.811  1.00  0.00     0.191 C 
BRANCH  29  30
ATOM     30  O   UNL     1      12.863 -13.610  -7.041  1.00  0.00    -0.394 OA
ATOM     31  H   UNL     1      13.738 -13.339  -7.427  1.00  0.00     0.210 HD
ENDBRANCH  29  30
ENDBRANCH  21  29
ENDBRANCH   1  17
TORSDOF 13
ENDMDL
MODEL 4
REMARK VINA RESULT:    -3.251      2.110      3.622
REMARK INTER + INTRA:          -6.730
REMARK INTER:                  -4.980
REMARK INTRA:                  -1.750
REMARK UNBOUND:                -1.768
REMARK SMILES OC[C@@H]1O[C@@H](O[C@]2(CO)O[C@H](CO)[C@@H](O)[C@@H]2O)[C@@H](O)[C@@H](O)[C@H]1O
REMARK SMILES IDX 6 1 5 2 3 3 22 4 4 5 20 6 18 7 2 8 1 9 23 11 21 13 19 15
REMARK SMILES IDX 7 17 16 18 10 19 14 20 11 21 8 22 9 23 17 25 15 27 12 29
REMARK SMILES IDX 13 30
REMARK H PARENT 1 10 23 12 21 14 19 16 9 24 17 26 15 28 13 31
REMARK Flexibility Score: inf
ROOT
ATOM      1  O   UNL     1      17.036  -5.830   2.305  1.00  0.00    -0.313 OA
ENDROOT
BRANCH   1   2
ATOM      2  C   UNL     1      17.136  -5.370   3.653  1.00  0.00     0.285 C 
ATOM      3  C   UNL     1      16.677  -3.160   2.975  1.00  0.00     0.178 C 
ATOM      4  C   UNL     1      18.090  -2.651   3.349  1.00  0.00     0.177 C 
ATOM      5  O   UNL     1      16.294  -4.239   3.820  1.00  0.00    -0.341 OA
ATOM      6  C   UNL     1      19.103  -3.807   3.267  1.00  0.00     0.179 C 
ATOM      7  C   UNL     1      18.581  -5.005   4.077  1.00  0.00     0.202 C 
BRANCH   3   8
ATOM      8  C   UNL     1      15.637  -2.044   3.120  1.00  0.00     0.191 C 
BRANCH   8   9
ATOM      9  O   UNL     1      15.660  -1.228   1.981  1.00  0.00    -0.394 OA
ATOM     10  H   UNL     1      16.523  -1.411   1.527  1.00  0.00     0.210 HD
ENDBRANCH   8   9
ENDBRANCH   3   8
BRANCH   4  11
ATOM     11  O   UNL     1      18.489  -1.618   2.482  1.00  0.00    -0.387 OA
ATOM     12  H   UNL     1      18.018  -0.794   2.770  1.00  0.00     0.211 HD
ENDBRANCH   4  11
BRANCH   6  13
ATOM     13  O   UNL     1      19.312  -4.190   1.930  1.00  0.00    -0.387 OA
ATOM     14  H   UNL     1      20.209  -4.611   1.885  1.00  0.00     0.211 HD
ENDBRANCH   6  13
BRANCH   7  15
ATOM     15  O   UNL     1      19.438  -6.106   3.954  1.00  0.00    -0.385 OA
ATOM     16  H   UNL     1      19.674  -6.393   4.875  1.00  0.00     0.211 HD
ENDBRANCH   7  15
ENDBRANCH   1   2
BRANCH   1  17
ATOM     17  C   UNL     1      16.610  -7.177   2.053  1.00  0.00     0.224 C 
ATOM     18  C   UNL     1      17.322  -7.644   0.752  1.00  0.00     0.208 C 
ATOM     19  O   UNL     1      17.069  -7.999   3.112  1.00  0.00    -0.337 OA
ATOM     20  C   UNL     1      18.470  -8.484   1.257  1.00  0.00     0.180 C 
ATOM     21  C   UNL     1      17.901  -9.000   2.569  1.00  0.00     0.179 C 
BRANCH  17  22
ATOM     22  C   UNL     1      15.071  -7.374   1.909  1.00  0.00     0.225 C 
BRANCH  22  23
ATOM     23  O   UNL     1      14.689  -7.330   0.560  1.00  0.00    -0.391 OA
ATOM     24  H   UNL     1      14.255  -6.449   0.420  1.00  0.00     0.210 HD
ENDBRANCH  22  23
ENDBRANCH  17  22
BRANCH  18  25
ATOM     25  O   UNL     1      17.741  -6.580  -0.075  1.00  0.00    -0.385 OA
ATOM     26  H   UNL     1      18.433  -6.053   0.404  1.00  0.00     0.211 HD
ENDBRANCH  18  25
BRANCH  20  27
ATOM     27  O   UNL     1      18.750  -9.534   0.368  1.00  0.00    -0.387 OA
ATOM     28  H   UNL     1      19.734  -9.546   0.246  1.00  0.00     0.211 HD
ENDBRANCH  20  27
BRANCH  21  29
ATOM     29  C   UNL     1      18.985  -9.396   3.577  1.00  0.00     0.191 C 
BRANCH  29  30
ATOM     30  O   UNL     1      20.247  -8.990   3.129  1.00  0.00    -0.394 OA
ATOM     31  H   UNL     1      20.440  -8.131   3.589  1.00  0.00     0.210 HD
ENDBRANCH  29  30
ENDBRANCH  21  29
ENDBRANCH   1  17
TORSDOF 13
ENDMDL
MODEL 5
REMARK VINA RESULT:    -3.214      5.158      7.187
REMARK INTER + INTRA:          -6.673
REMARK INTER:                  -4.870
REMARK INTRA:                  -1.803
REMARK UNBOUND:                -1.768
REMARK SMILES OC[C@@H]1O[C@@H](O[C@]2(CO)O[C@H](CO)[C@@H](O)[C@@H]2O)[C@@H](O)[C@@H](O)[C@H]1O
REMARK SMILES IDX 6 1 5 2 3 3 22 4 4 5 20 6 18 7 2 8 1 9 23 11 21 13 19 15
REMARK SMILES IDX 7 17 16 18 10 19 14 20 11 21 8 22 9 23 17 25 15 27 12 29
REMARK SMILES IDX 13 30
REMARK H PARENT 1 10 23 12 21 14 19 16 9 24 17 26 15 28 13 31
REMARK Flexibility Score: inf
ROOT
ATOM      1  O   UNL     1      15.205 -10.142  -4.063  1.00  0.00    -0.313 OA
ENDROOT
BRANCH   1   2
ATOM      2  C   UNL     1      14.358  -9.435  -3.157  1.00  0.00     0.285 C 
ATOM      3  C   UNL     1      16.187  -8.176  -2.366  1.00  0.00     0.178 C 
ATOM      4  C   UNL     1      16.132  -8.807  -0.954  1.00  0.00     0.177 C 
ATOM      5  O   UNL     1      14.889  -8.135  -2.946  1.00  0.00    -0.341 OA
ATOM      6  C   UNL     1      15.513 -10.215  -1.031  1.00  0.00     0.179 C 
ATOM      7  C   UNL     1      14.179 -10.146  -1.792  1.00  0.00     0.202 C 
BRANCH   3   8
ATOM      8  C   UNL     1      16.733  -6.746  -2.307  1.00  0.00     0.191 C 
BRANCH   8   9
ATOM      9  O   UNL     1      18.134  -6.777  -2.277  1.00  0.00    -0.394 OA
ATOM     10  H   UNL     1      18.392  -7.728  -2.396  1.00  0.00     0.210 HD
ENDBRANCH   8   9
ENDBRANCH   3   8
BRANCH   4  11
ATOM     11  O   UNL     1      17.422  -8.895  -0.401  1.00  0.00    -0.387 OA
ATOM     12  H   UNL     1      18.030  -9.207  -1.120  1.00  0.00     0.211 HD
ENDBRANCH   4  11
BRANCH   6  13
ATOM     13  O   UNL     1      16.386 -11.106  -1.679  1.00  0.00    -0.387 OA
ATOM     14  H   UNL     1      17.122 -11.306  -1.045  1.00  0.00     0.211 HD
ENDBRANCH   6  13
BRANCH   7  15
ATOM     15  O   UNL     1      13.628 -11.425  -1.956  1.00  0.00    -0.385 OA
ATOM     16  H   UNL     1      12.645 -11.330  -1.859  1.00  0.00     0.211 HD
ENDBRANCH   7  15
ENDBRANCH   1   2
BRANCH   1  17
ATOM     17  C   UNL     1      14.666 -10.610  -5.308  1.00  0.00     0.224 C 
ATOM     18  C   UNL     1      14.832 -12.156  -5.324  1.00  0.00     0.208 C 
ATOM     19  O   UNL     1      13.277 -10.328  -5.330  1.00  0.00    -0.337 OA
ATOM     20  C   UNL     1      13.460 -12.665  -4.951  1.00  0.00     0.180 C 
ATOM     21  C   UNL     1      12.579 -11.544  -5.479  1.00  0.00     0.179 C 
BRANCH  17  22
ATOM     22  C   UNL     1      15.312  -9.999  -6.587  1.00  0.00     0.225 C 
BRANCH  22  23
ATOM     23  O   UNL     1      16.587 -10.541  -6.807  1.00  0.00    -0.391 OA
ATOM     24  H   UNL     1      16.460 -11.327  -7.399  1.00  0.00     0.210 HD
ENDBRANCH  22  23
ENDBRANCH  17  22
BRANCH  18  25
ATOM     25  O   UNL     1      15.845 -12.623  -4.460  1.00  0.00    -0.385 OA
ATOM     26  H   UNL     1      16.140 -13.521  -4.764  1.00  0.00     0.211 HD
ENDBRANCH  18  25
BRANCH  20  27
ATOM     27  O   UNL     1      13.188 -13.882  -5.596  1.00  0.00    -0.387 OA
ATOM     28  H   UNL     1      13.754 -14.568  -5.156  1.00  0.00     0.211 HD
ENDBRANCH  20  27
BRANCH  21  29
ATOM     29  C   UNL     1      11.221 -11.468  -4.772  1.00  0.00     0.191 C 
BRANCH  29  30
ATOM     30  O   UNL     1      11.205 -12.297  -3.644  1.00  0.00    -0.394 OA
ATOM     31  H   UNL     1      10.840 -11.746  -2.902  1.00  0.00     0.210 HD
ENDBRANCH  29  30
ENDBRANCH  21  29
ENDBRANCH   1  17
TORSDOF 13
ENDMDL
MODEL 6
REMARK VINA RESULT:    -3.191      3.281      4.769
REMARK INTER + INTRA:          -6.639
REMARK INTER:                  -4.810
REMARK INTRA:                  -1.829
REMARK UNBOUND:                -1.768
REMARK SMILES OC[C@@H]1O[C@@H](O[C@]2(CO)O[C@H](CO)[C@@H](O)[C@@H]2O)[C@@H](O)[C@@H](O)[C@H]1O
REMARK SMILES IDX 6 1 5 2 3 3 22 4 4 5 20 6 18 7 2 8 1 9 23 11 21 13 19 15
REMARK SMILES IDX 7 17 16 18 10 19 14 20 11 21 8 22 9 23 17 25 15 27 12 29
REMARK SMILES IDX 13 30
REMARK H PARENT 1 10 23 12 21 14 19 16 9 24 17 26 15 28 13 31
REMARK Flexibility Score: inf
ROOT
ATOM      1  O   UNL     1      17.786 -12.723   0.599  1.00  0.00    -0.313 OA
ENDROOT
BRANCH   1   2
ATOM      2  C   UNL     1      17.494 -12.187   1.890  1.00  0.00     0.285 C 
ATOM      3  C   UNL     1      19.524 -10.988   1.893  1.00  0.00     0.178 C 
ATOM      4  C   UNL     1      20.122 -11.818   3.054  1.00  0.00     0.177 C 
ATOM      5  O   UNL     1      18.108 -10.912   2.011  1.00  0.00    -0.341 OA
ATOM      6  C   UNL     1      19.490 -13.222   3.076  1.00  0.00     0.179 C 
ATOM      7  C   UNL     1      17.959 -13.094   3.057  1.00  0.00     0.202 C 
BRANCH   3   8
ATOM      8  C   UNL     1      20.084  -9.562   1.894  1.00  0.00     0.191 C 
BRANCH   8   9
ATOM      9  O   UNL     1      21.366  -9.559   1.329  1.00  0.00    -0.394 OA
ATOM     10  H   UNL     1      21.269  -9.943   0.419  1.00  0.00     0.210 HD
ENDBRANCH   8   9
ENDBRANCH   3   8
BRANCH   4  11
ATOM     11  O   UNL     1      21.516 -11.936   2.911  1.00  0.00    -0.387 OA
ATOM     12  H   UNL     1      21.878 -11.020   2.789  1.00  0.00     0.211 HD
ENDBRANCH   4  11
BRANCH   6  13
ATOM     13  O   UNL     1      19.920 -13.977   1.971  1.00  0.00    -0.387 OA
ATOM     14  H   UNL     1      19.808 -13.406   1.167  1.00  0.00     0.211 HD
ENDBRANCH   6  13
BRANCH   7  15
ATOM     15  O   UNL     1      17.351 -14.355   2.990  1.00  0.00    -0.385 OA
ATOM     16  H   UNL     1      17.055 -14.485   2.051  1.00  0.00     0.211 HD
ENDBRANCH   7  15
ENDBRANCH   1   2
BRANCH   1  17
ATOM     17  C   UNL     1      16.705 -13.018  -0.297  1.00  0.00     0.224 C 
ATOM     18  C   UNL     1      16.889 -14.490  -0.765  1.00  0.00     0.208 C 
ATOM     19  O   UNL     1      15.488 -12.947   0.426  1.00  0.00    -0.337 OA
ATOM     20  C   UNL     1      15.912 -15.259   0.091  1.00  0.00     0.180 C 
ATOM     21  C   UNL     1      14.850 -14.202   0.347  1.00  0.00     0.179 C 
BRANCH  17  22
ATOM     22  C   UNL     1      16.594 -12.083  -1.539  1.00  0.00     0.225 C 
BRANCH  22  23
ATOM     23  O   UNL     1      17.055 -12.733  -2.693  1.00  0.00    -0.391 OA
ATOM     24  H   UNL     1      16.338 -12.641  -3.373  1.00  0.00     0.210 HD
ENDBRANCH  22  23
ENDBRANCH  17  22
BRANCH  18  25
ATOM     25  O   UNL     1      18.214 -14.958  -0.643  1.00  0.00    -0.385 OA
ATOM     26  H   UNL     1      18.276 -15.861  -1.051  1.00  0.00     0.211 HD
ENDBRANCH  18  25
BRANCH  20  27
ATOM     27  O   UNL     1      15.389 -16.357  -0.612  1.00  0.00    -0.387 OA
ATOM     28  H   UNL     1      14.570 -16.637  -0.128  1.00  0.00     0.211 HD
ENDBRANCH  20  27
BRANCH  21  29
ATOM     29  C   UNL     1      14.036 -14.466   1.618  1.00  0.00     0.191 C 
BRANCH  29  30
ATOM     30  O   UNL     1      14.622 -15.488   2.375  1.00  0.00    -0.394 OA
ATOM     31  H   UNL     1      13.886 -16.111   2.613  1.00  0.00     0.210 HD
ENDBRANCH  29  30
ENDBRANCH  21  29
ENDBRANCH   1  17
TORSDOF 13
ENDMDL
MODEL 7
REMARK VINA RESULT:    -3.168      2.054      4.015
REMARK INTER + INTRA:          -6.603
REMARK INTER:                  -4.886
REMARK INTRA:                  -1.717
REMARK UNBOUND:                -1.768
REMARK SMILES OC[C@@H]1O[C@@H](O[C@]2(CO)O[C@H](CO)[C@@H](O)[C@@H]2O)[C@@H](O)[C@@H](O)[C@H]1O
REMARK SMILES IDX 6 1 5 2 3 3 22 4 4 5 20 6 18 7 2 8 1 9 23 11 21 13 19 15
REMARK SMILES IDX 7 17 16 18 10 19 14 20 11 21 8 22 9 23 17 25 15 27 12 29
REMARK SMILES IDX 13 30
REMARK H PARENT 1 10 23 12 21 14 19 16 9 24 17 26 15 28 13 31
REMARK Flexibility Score: inf
ROOT
ATOM      1  O   UNL     1      17.454  -7.042   0.791  1.00  0.00    -0.313 OA
ENDROOT
BRANCH   1   2
ATOM      2  C   UNL     1      17.124  -7.673   2.029  1.00  0.00     0.285 C 
ATOM      3  C   UNL     1      19.380  -7.610   2.708  1.00  0.00     0.178 C 
ATOM      4  C   UNL     1      19.531  -9.150   2.674  1.00  0.00     0.177 C 
ATOM      5  O   UNL     1      18.041  -7.247   3.025  1.00  0.00    -0.341 OA
ATOM      6  C   UNL     1      18.539  -9.754   1.665  1.00  0.00     0.179 C 
ATOM      7  C   UNL     1      17.126  -9.221   1.955  1.00  0.00     0.202 C 
BRANCH   3   8
ATOM      8  C   UNL     1      20.308  -6.991   3.759  1.00  0.00     0.191 C 
BRANCH   8   9
ATOM      9  O   UNL     1      21.620  -6.960   3.269  1.00  0.00    -0.394 OA
ATOM     10  H   UNL     1      22.185  -6.621   4.011  1.00  0.00     0.210 HD
ENDBRANCH   8   9
ENDBRANCH   3   8
BRANCH   4  11
ATOM     11  O   UNL     1      20.842  -9.509   2.312  1.00  0.00    -0.387 OA
ATOM     12  H   UNL     1      21.090  -8.960   1.525  1.00  0.00     0.211 HD
ENDBRANCH   4  11
BRANCH   6  13
ATOM     13  O   UNL     1      18.910  -9.428   0.348  1.00  0.00    -0.387 OA
ATOM     14  H   UNL     1      19.516  -8.645   0.402  1.00  0.00     0.211 HD
ENDBRANCH   6  13
BRANCH   7  15
ATOM     15  O   UNL     1      16.209  -9.684   1.001  1.00  0.00    -0.385 OA
ATOM     16  H   UNL     1      16.704  -9.779   0.146  1.00  0.00     0.211 HD
ENDBRANCH   7  15
ENDBRANCH   1   2
BRANCH   1  17
ATOM     17  C   UNL     1      16.477  -6.214   0.144  1.00  0.00     0.224 C 
ATOM     18  C   UNL     1      16.549  -6.529  -1.378  1.00  0.00     0.208 C 
ATOM     19  O   UNL     1      15.190  -6.596   0.600  1.00  0.00    -0.337 OA
ATOM     20  C   UNL     1      15.383  -7.460  -1.604  1.00  0.00     0.180 C 
ATOM     21  C   UNL     1      14.426  -7.002  -0.514  1.00  0.00     0.179 C 
BRANCH  17  22
ATOM     22  C   UNL     1      16.644  -4.682   0.372  1.00  0.00     0.225 C 
BRANCH  22  23
ATOM     23  O   UNL     1      17.724  -4.422   1.230  1.00  0.00    -0.391 OA
ATOM     24  H   UNL     1      17.852  -5.241   1.775  1.00  0.00     0.210 HD
ENDBRANCH  22  23
ENDBRANCH  17  22
BRANCH  18  25
ATOM     25  O   UNL     1      17.782  -7.084  -1.780  1.00  0.00    -0.385 OA
ATOM     26  H   UNL     1      18.139  -7.646  -1.045  1.00  0.00     0.211 HD
ENDBRANCH  18  25
BRANCH  20  27
ATOM     27  O   UNL     1      14.835  -7.271  -2.883  1.00  0.00    -0.387 OA
ATOM     28  H   UNL     1      15.542  -7.522  -3.532  1.00  0.00     0.211 HD
ENDBRANCH  20  27
BRANCH  21  29
ATOM     29  C   UNL     1      13.423  -8.086  -0.105  1.00  0.00     0.191 C 
BRANCH  29  30
ATOM     30  O   UNL     1      13.759  -9.314  -0.686  1.00  0.00    -0.394 OA
ATOM     31  H   UNL     1      14.594  -9.612  -0.239  1.00  0.00     0.210 HD
ENDBRANCH  29  30
ENDBRANCH  21  29
ENDBRANCH   1  17
TORSDOF 13
ENDMDL
MODEL 8
REMARK VINA RESULT:    -3.160      2.911      6.726
REMARK INTER + INTRA:          -6.592
REMARK INTER:                  -4.885
REMARK INTRA:                  -1.706
REMARK UNBOUND:                -1.768
REMARK SMILES OC[C@@H]1O[C@@H](O[C@]2(CO)O[C@H](CO)[C@@H](O)[C@@H]2O)[C@@H](O)[C@@H](O)[C@H]1O
REMARK SMILES IDX 6 1 5 2 3 3 22 4 4 5 20 6 18 7 2 8 1 9 23 11 21 13 19 15
REMARK SMILES IDX 7 17 16 18 10 19 14 20 11 21 8 22 9 23 17 25 15 27 12 29
REMARK SMILES IDX 13 30
REMARK H PARENT 1 10 23 12 21 14 19 16 9 24 17 26 15 28 13 31
REMARK Flexibility Score: inf
ROOT
ATOM      1  O   UNL     1      16.819 -11.262   0.682  1.00  0.00    -0.313 OA
ENDROOT
BRANCH   1   2
ATOM      2  C   UNL     1      15.733 -12.145   0.398  1.00  0.00     0.285 C 
ATOM      3  C   UNL     1      17.120 -14.022   0.732  1.00  0.00     0.178 C 
ATOM      4  C   UNL     1      17.050 -14.455  -0.751  1.00  0.00     0.177 C 
ATOM      5  O   UNL     1      15.922 -13.356   1.115  1.00  0.00    -0.341 OA
ATOM      6  C   UNL     1      16.786 -13.230  -1.645  1.00  0.00     0.179 C 
ATOM      7  C   UNL     1      15.568 -12.459  -1.110  1.00  0.00     0.202 C 
BRANCH   3   8
ATOM      8  C   UNL     1      17.310 -15.234   1.650  1.00  0.00     0.191 C 
BRANCH   8   9
ATOM      9  O   UNL     1      18.608 -15.739   1.499  1.00  0.00    -0.394 OA
ATOM     10  H   UNL     1      18.976 -15.319   0.679  1.00  0.00     0.210 HD
ENDBRANCH   8   9
ENDBRANCH   3   8
BRANCH   4  11
ATOM     11  O   UNL     1      18.253 -15.069  -1.144  1.00  0.00    -0.387 OA
ATOM     12  H   UNL     1      18.939 -14.828  -0.469  1.00  0.00     0.211 HD
ENDBRANCH   4  11
BRANCH   6  13
ATOM     13  O   UNL     1      17.909 -12.386  -1.675  1.00  0.00    -0.387 OA
ATOM     14  H   UNL     1      18.294 -12.446  -2.588  1.00  0.00     0.211 HD
ENDBRANCH   6  13
BRANCH   7  15
ATOM     15  O   UNL     1      15.350 -11.289  -1.850  1.00  0.00    -0.385 OA
ATOM     16  H   UNL     1      14.412 -11.322  -2.173  1.00  0.00     0.211 HD
ENDBRANCH   7  15
ENDBRANCH   1   2
BRANCH   1  17
ATOM     17  C   UNL     1      16.545  -9.975   1.254  1.00  0.00     0.224 C 
ATOM     18  C   UNL     1      17.672  -9.015   0.776  1.00  0.00     0.208 C 
ATOM     19  O   UNL     1      15.322  -9.497   0.722  1.00  0.00    -0.337 OA
ATOM     20  C   UNL     1      17.030  -8.248  -0.355  1.00  0.00     0.180 C 
ATOM     21  C   UNL     1      15.569  -8.274   0.065  1.00  0.00     0.179 C 
BRANCH  17  22
ATOM     22  C   UNL     1      16.452  -9.942   2.809  1.00  0.00     0.225 C 
BRANCH  22  23
ATOM     23  O   UNL     1      17.731  -9.904   3.383  1.00  0.00    -0.391 OA
ATOM     24  H   UNL     1      17.968  -8.946   3.478  1.00  0.00     0.210 HD
ENDBRANCH  22  23
ENDBRANCH  17  22
BRANCH  18  25
ATOM     25  O   UNL     1      18.853  -9.681   0.388  1.00  0.00    -0.385 OA
ATOM     26  H   UNL     1      19.415  -9.060  -0.145  1.00  0.00     0.211 HD
ENDBRANCH  18  25
BRANCH  20  27
ATOM     27  O   UNL     1      17.527  -6.937  -0.414  1.00  0.00    -0.387 OA
ATOM     28  H   UNL     1      18.253  -6.880   0.259  1.00  0.00     0.211 HD
ENDBRANCH  20  27
BRANCH  21  29
ATOM     29  C   UNL     1      14.605  -8.098  -1.112  1.00  0.00     0.191 C 
BRANCH  29  30
ATOM     30  O   UNL     1      15.284  -8.221  -2.330  1.00  0.00    -0.394 OA
ATOM     31  H   UNL     1      16.184  -7.826  -2.185  1.00  0.00     0.210 HD
ENDBRANCH  29  30
ENDBRANCH  21  29
ENDBRANCH   1  17
TORSDOF 13
ENDMDL
MODEL 9
REMARK VINA RESULT:    -3.151      3.704      5.091
REMARK INTER + INTRA:          -6.576
REMARK INTER:                  -4.831
REMARK INTRA:                  -1.745
REMARK UNBOUND:                -1.768
REMARK SMILES OC[C@@H]1O[C@@H](O[C@]2(CO)O[C@H](CO)[C@@H](O)[C@@H]2O)[C@@H](O)[C@@H](O)[C@H]1O
REMARK SMILES IDX 6 1 5 2 3 3 22 4 4 5 20 6 18 7 2 8 1 9 23 11 21 13 19 15
REMARK SMILES IDX 7 17 16 18 10 19 14 20 11 21 8 22 9 23 17 25 15 27 12 29
REMARK SMILES IDX 13 30
REMARK H PARENT 1 10 23 12 21 14 19 16 9 24 17 26 15 28 13 31
REMARK Flexibility Score: inf
ROOT
ATOM      1  O   UNL     1      15.911 -11.024  -1.847  1.00  0.00    -0.313 OA
ENDROOT
BRANCH   1   2
ATOM      2  C   UNL     1      14.996 -10.107  -1.245  1.00  0.00     0.285 C 
ATOM      3  C   UNL     1      16.055  -8.290  -2.308  1.00  0.00     0.178 C 
ATOM      4  C   UNL     1      16.570  -7.689  -0.978  1.00  0.00     0.177 C 
ATOM      5  O   UNL     1      14.832  -8.987  -2.101  1.00  0.00    -0.341 OA
ATOM      6  C   UNL     1      16.737  -8.803   0.071  1.00  0.00     0.179 C 
ATOM      7  C   UNL     1      15.439  -9.623   0.159  1.00  0.00     0.202 C 
BRANCH   3   8
ATOM      8  C   UNL     1      15.811  -7.190  -3.348  1.00  0.00     0.191 C 
BRANCH   8   9
ATOM      9  O   UNL     1      17.022  -6.845  -3.961  1.00  0.00    -0.394 OA
ATOM     10  H   UNL     1      17.571  -7.672  -3.976  1.00  0.00     0.210 HD
ENDBRANCH   8   9
ENDBRANCH   3   8
BRANCH   4  11
ATOM     11  O   UNL     1      17.803  -7.043  -1.173  1.00  0.00    -0.387 OA
ATOM     12  H   UNL     1      18.515  -7.681  -0.908  1.00  0.00     0.211 HD
ENDBRANCH   4  11
BRANCH   6  13
ATOM     13  O   UNL     1      17.811  -9.645  -0.266  1.00  0.00    -0.387 OA
ATOM     14  H   UNL     1      18.493  -9.082  -0.714  1.00  0.00     0.211 HD
ENDBRANCH   6  13
BRANCH   7  15
ATOM     15  O   UNL     1      15.584 -10.699   1.044  1.00  0.00    -0.385 OA
ATOM     16  H   UNL     1      15.311 -11.517   0.552  1.00  0.00     0.211 HD
ENDBRANCH   7  15
ENDBRANCH   1   2
BRANCH   1  17
ATOM     17  C   UNL     1      15.485 -12.368  -2.112  1.00  0.00     0.224 C 
ATOM     18  C   UNL     1      16.682 -13.301  -1.771  1.00  0.00     0.208 C 
ATOM     19  O   UNL     1      14.426 -12.687  -1.225  1.00  0.00    -0.337 OA
ATOM     20  C   UNL     1      16.332 -13.843  -0.406  1.00  0.00     0.180 C 
ATOM     21  C   UNL     1      14.813 -13.803  -0.455  1.00  0.00     0.179 C 
BRANCH  17  22
ATOM     22  C   UNL     1      15.005 -12.641  -3.569  1.00  0.00     0.225 C 
BRANCH  22  23
ATOM     23  O   UNL     1      16.033 -12.381  -4.487  1.00  0.00    -0.391 OA
ATOM     24  H   UNL     1      15.637 -11.818  -5.201  1.00  0.00     0.210 HD
ENDBRANCH  22  23
ENDBRANCH  17  22
BRANCH  18  25
ATOM     25  O   UNL     1      17.932 -12.648  -1.800  1.00  0.00    -0.385 OA
ATOM     26  H   UNL     1      17.791 -11.675  -1.662  1.00  0.00     0.211 HD
ENDBRANCH  18  25
BRANCH  20  27
ATOM     27  O   UNL     1      16.809 -15.154  -0.252  1.00  0.00    -0.387 OA
ATOM     28  H   UNL     1      17.503 -15.121   0.456  1.00  0.00     0.211 HD
ENDBRANCH  20  27
BRANCH  21  29
ATOM     29  C   UNL     1      14.171 -13.738   0.935  1.00  0.00     0.191 C 
BRANCH  29  30
ATOM     30  O   UNL     1      15.149 -13.574   1.923  1.00  0.00    -0.394 OA
ATOM     31  H   UNL     1      15.658 -12.758   1.674  1.00  0.00     0.210 HD
ENDBRANCH  29  30
ENDBRANCH  21  29
ENDBRANCH   1  17
TORSDOF 13
ENDMDL
