MODEL 1
REMARK VINA RESULT:    -3.769      0.000      0.000
REMARK INTER + INTRA:          -6.596
REMARK INTER:                  -5.751
REMARK INTRA:                  -0.845
REMARK UNBOUND:                -0.845
REMARK SMILES C=CCCCCCCCCCC
REMARK SMILES IDX 7 1 8 2 9 3 10 4 11 5 12 6 6 7 5 8 4 9 3 10 2 11 1 12
REMARK H PARENT
REMARK Flexibility Score: inf
ROOT
ATOM      1  C   UNL     1     136.688 138.887 136.058  1.00  0.00     0.000 C 
ENDROOT
BRANCH   1   2
ATOM      2  C   UNL     1     135.749 139.659 136.998  1.00  0.00    -0.000 C 
BRANCH   2   3
ATOM      3  C   UNL     1     134.982 140.781 136.279  1.00  0.00    -0.000 C 
BRANCH   3   4
ATOM      4  C   UNL     1     133.911 140.229 135.314  1.00  0.00    -0.000 C 
BRANCH   4   5
ATOM      5  C   UNL     1     132.895 139.295 135.992  1.00  0.00    -0.003 C 
ATOM      6  C   UNL     1     132.515 138.095 135.127  1.00  0.00     0.004 C 
ENDBRANCH   4   5
ENDBRANCH   3   4
ENDBRANCH   2   3
ENDBRANCH   1   2
BRANCH   1   7
ATOM      7  C   UNL     1     137.713 139.803 135.364  1.00  0.00     0.000 C 
BRANCH   7   8
ATOM      8  C   UNL     1     139.083 139.788 136.060  1.00  0.00     0.000 C 
BRANCH   8   9
ATOM      9  C   UNL     1     140.106 138.899 135.331  1.00  0.00     0.004 C 
BRANCH   9  10
ATOM     10  C   UNL     1     140.669 137.801 136.243  1.00  0.00     0.027 C 
BRANCH  10  11
ATOM     11  C   UNL     1     139.897 137.703 137.531  1.00  0.00    -0.035 C 
ATOM     12  C   UNL     1     139.199 136.610 137.854  1.00  0.00     0.004 C 
ENDBRANCH  10  11
ENDBRANCH   9  10
ENDBRANCH   8   9
ENDBRANCH   7   8
ENDBRANCH   1   7
TORSDOF 9
ENDMDL
MODEL 2
REMARK VINA RESULT:    -3.754      1.563      5.083
REMARK INTER + INTRA:          -6.575
REMARK INTER:                  -5.336
REMARK INTRA:                  -1.239
REMARK UNBOUND:                -0.845
REMARK SMILES C=CCCCCCCCCCC
REMARK SMILES IDX 7 1 8 2 9 3 10 4 11 5 12 6 6 7 5 8 4 9 3 10 2 11 1 12
REMARK H PARENT
REMARK Flexibility Score: inf
ROOT
ATOM      1  C   UNL     1     140.647 137.764 136.316  1.00  0.00     0.000 C 
ENDROOT
BRANCH   1   2
ATOM      2  C   UNL     1     139.588 136.660 136.468  1.00  0.00    -0.000 C 
BRANCH   2   3
ATOM      3  C   UNL     1     138.892 136.692 137.839  1.00  0.00    -0.000 C 
BRANCH   3   4
ATOM      4  C   UNL     1     139.629 137.601 138.846  1.00  0.00    -0.000 C 
BRANCH   4   5
ATOM      5  C   UNL     1     138.787 138.793 139.328  1.00  0.00    -0.003 C 
ATOM      6  C   UNL     1     137.310 138.669 138.961  1.00  0.00     0.004 C 
ENDBRANCH   4   5
ENDBRANCH   3   4
ENDBRANCH   2   3
ENDBRANCH   1   2
BRANCH   1   7
ATOM      7  C   UNL     1     140.242 138.834 135.287  1.00  0.00     0.000 C 
BRANCH   7   8
ATOM      8  C   UNL     1     139.278 139.879 135.871  1.00  0.00     0.000 C 
BRANCH   8   9
ATOM      9  C   UNL     1     138.076 140.153 134.950  1.00  0.00     0.004 C 
BRANCH   9  10
ATOM     10  C   UNL     1     136.781 139.535 135.493  1.00  0.00     0.027 C 
BRANCH  10  11
ATOM     11  C   UNL     1     135.668 140.546 135.551  1.00  0.00    -0.035 C 
ATOM     12  C   UNL     1     134.901 140.691 136.635  1.00  0.00     0.004 C 
ENDBRANCH  10  11
ENDBRANCH   9  10
ENDBRANCH   8   9
ENDBRANCH   7   8
ENDBRANCH   1   7
TORSDOF 9
ENDMDL
MODEL 3
REMARK VINA RESULT:    -3.740      3.207      5.557
REMARK INTER + INTRA:          -6.552
REMARK INTER:                  -5.401
REMARK INTRA:                  -1.151
REMARK UNBOUND:                -0.845
REMARK SMILES C=CCCCCCCCCCC
REMARK SMILES IDX 7 1 8 2 9 3 10 4 11 5 12 6 6 7 5 8 4 9 3 10 2 11 1 12
REMARK H PARENT
REMARK Flexibility Score: inf
ROOT
ATOM      1  C   UNL     1     133.704 138.904 137.209  1.00  0.00     0.000 C 
ENDROOT
BRANCH   1   2
ATOM      2  C   UNL     1     134.850 139.916 137.374  1.00  0.00    -0.000 C 
BRANCH   2   3
ATOM      3  C   UNL     1     134.975 140.869 136.173  1.00  0.00    -0.000 C 
BRANCH   3   4
ATOM      4  C   UNL     1     136.155 140.493 135.251  1.00  0.00    -0.000 C 
BRANCH   4   5
ATOM      5  C   UNL     1     135.724 140.113 133.825  1.00  0.00    -0.003 C 
ATOM      6  C   UNL     1     136.083 138.675 133.455  1.00  0.00     0.004 C 
ENDBRANCH   4   5
ENDBRANCH   3   4
ENDBRANCH   2   3
ENDBRANCH   1   2
BRANCH   1   7
ATOM      7  C   UNL     1     132.715 139.307 136.101  1.00  0.00     0.000 C 
BRANCH   7   8
ATOM      8  C   UNL     1     132.679 138.292 134.946  1.00  0.00     0.000 C 
BRANCH   8   9
ATOM      9  C   UNL     1     133.085 136.877 135.392  1.00  0.00     0.004 C 
BRANCH   9  10
ATOM     10  C   UNL     1     131.969 135.853 135.144  1.00  0.00     0.027 C 
BRANCH  10  11
ATOM     11  C   UNL     1     131.825 134.901 136.300  1.00  0.00    -0.035 C 
ATOM     12  C   UNL     1     132.640 134.945 137.358  1.00  0.00     0.004 C 
ENDBRANCH  10  11
ENDBRANCH   9  10
ENDBRANCH   8   9
ENDBRANCH   7   8
ENDBRANCH   1   7
TORSDOF 9
ENDMDL
MODEL 4
REMARK VINA RESULT:    -3.733      3.741      6.272
REMARK INTER + INTRA:          -6.542
REMARK INTER:                  -5.833
REMARK INTRA:                  -0.709
REMARK UNBOUND:                -0.845
REMARK SMILES C=CCCCCCCCCCC
REMARK SMILES IDX 7 1 8 2 9 3 10 4 11 5 12 6 6 7 5 8 4 9 3 10 2 11 1 12
REMARK H PARENT
REMARK Flexibility Score: inf
ROOT
ATOM      1  C   UNL     1     139.884 133.283 135.778  1.00  0.00     0.000 C 
ENDROOT
BRANCH   1   2
ATOM      2  C   UNL     1     138.836 132.270 135.291  1.00  0.00    -0.000 C 
BRANCH   2   3
ATOM      3  C   UNL     1     137.910 131.786 136.419  1.00  0.00    -0.000 C 
BRANCH   3   4
ATOM      4  C   UNL     1     137.230 132.959 137.158  1.00  0.00    -0.000 C 
BRANCH   4   5
ATOM      5  C   UNL     1     137.509 132.978 138.669  1.00  0.00    -0.003 C 
ATOM      6  C   UNL     1     138.600 133.972 139.063  1.00  0.00     0.004 C 
ENDBRANCH   4   5
ENDBRANCH   3   4
ENDBRANCH   2   3
ENDBRANCH   1   2
BRANCH   1   7
ATOM      7  C   UNL     1     139.980 134.519 134.867  1.00  0.00     0.000 C 
BRANCH   7   8
ATOM      8  C   UNL     1     139.572 135.815 135.587  1.00  0.00     0.000 C 
BRANCH   8   9
ATOM      9  C   UNL     1     140.547 136.974 135.313  1.00  0.00     0.004 C 
BRANCH   9  10
ATOM     10  C   UNL     1     140.734 137.871 136.544  1.00  0.00     0.027 C 
BRANCH  10  11
ATOM     11  C   UNL     1     139.528 138.739 136.783  1.00  0.00    -0.035 C 
ATOM     12  C   UNL     1     139.204 139.741 135.959  1.00  0.00     0.004 C 
ENDBRANCH  10  11
ENDBRANCH   9  10
ENDBRANCH   8   9
ENDBRANCH   7   8
ENDBRANCH   1   7
TORSDOF 9
ENDMDL
MODEL 5
REMARK VINA RESULT:    -3.728      1.584      5.370
REMARK INTER + INTRA:          -6.534
REMARK INTER:                  -5.492
REMARK INTRA:                  -1.042
REMARK UNBOUND:                -0.845
REMARK SMILES C=CCCCCCCCCCC
REMARK SMILES IDX 7 1 8 2 9 3 10 4 11 5 12 6 6 7 5 8 4 9 3 10 2 11 1 12
REMARK H PARENT
REMARK Flexibility Score: inf
ROOT
ATOM      1  C   UNL     1     138.183 140.076 135.102  1.00  0.00     0.000 C 
ENDROOT
BRANCH   1   2
ATOM      2  C   UNL     1     139.220 139.928 136.226  1.00  0.00    -0.000 C 
BRANCH   2   3
ATOM      3  C   UNL     1     138.837 138.842 137.246  1.00  0.00    -0.000 C 
BRANCH   3   4
ATOM      4  C   UNL     1     139.940 137.772 137.400  1.00  0.00    -0.000 C 
BRANCH   4   5
ATOM      5  C   UNL     1     140.883 137.683 136.190  1.00  0.00    -0.003 C 
ATOM      6  C   UNL     1     140.476 136.600 135.193  1.00  0.00     0.004 C 
ENDBRANCH   4   5
ENDBRANCH   3   4
ENDBRANCH   2   3
ENDBRANCH   1   2
BRANCH   1   7
ATOM      7  C   UNL     1     136.808 139.502 135.487  1.00  0.00     0.000 C 
BRANCH   7   8
ATOM      8  C   UNL     1     135.682 140.542 135.372  1.00  0.00     0.000 C 
BRANCH   8   9
ATOM      9  C   UNL     1     134.866 140.674 136.669  1.00  0.00     0.004 C 
BRANCH   9  10
ATOM     10  C   UNL     1     134.989 139.428 137.556  1.00  0.00     0.027 C 
BRANCH  10  11
ATOM     11  C   UNL     1     135.224 139.796 138.996  1.00  0.00    -0.035 C 
ATOM     12  C   UNL     1     136.142 139.175 139.743  1.00  0.00     0.004 C 
ENDBRANCH  10  11
ENDBRANCH   9  10
ENDBRANCH   8   9
ENDBRANCH   7   8
ENDBRANCH   1   7
TORSDOF 9
ENDMDL
MODEL 6
REMARK VINA RESULT:    -3.718      5.198      6.464
REMARK INTER + INTRA:          -6.520
REMARK INTER:                  -5.406
REMARK INTRA:                  -1.114
REMARK UNBOUND:                -0.845
REMARK SMILES C=CCCCCCCCCCC
REMARK SMILES IDX 7 1 8 2 9 3 10 4 11 5 12 6 6 7 5 8 4 9 3 10 2 11 1 12
REMARK H PARENT
REMARK Flexibility Score: inf
ROOT
ATOM      1  C   UNL     1     132.264 133.804 135.340  1.00  0.00     0.000 C 
ENDROOT
BRANCH   1   2
ATOM      2  C   UNL     1     131.935 134.859 136.408  1.00  0.00    -0.000 C 
BRANCH   2   3
ATOM      3  C   UNL     1     133.006 135.959 136.502  1.00  0.00    -0.000 C 
BRANCH   3   4
ATOM      4  C   UNL     1     133.841 135.850 137.796  1.00  0.00    -0.000 C 
BRANCH   4   5
ATOM      5  C   UNL     1     133.238 134.894 138.838  1.00  0.00    -0.003 C 
ATOM      6  C   UNL     1     134.198 133.782 139.256  1.00  0.00     0.004 C 
ENDBRANCH   4   5
ENDBRANCH   3   4
ENDBRANCH   2   3
ENDBRANCH   1   2
BRANCH   1   7
ATOM      7  C   UNL     1     133.262 132.746 135.842  1.00  0.00     0.000 C 
BRANCH   7   8
ATOM      8  C   UNL     1     134.486 132.607 134.923  1.00  0.00     0.000 C 
BRANCH   8   9
ATOM      9  C   UNL     1     135.787 133.075 135.598  1.00  0.00     0.004 C 
BRANCH   9  10
ATOM     10  C   UNL     1     136.907 132.033 135.476  1.00  0.00     0.027 C 
BRANCH  10  11
ATOM     11  C   UNL     1     137.838 132.081 136.657  1.00  0.00    -0.035 C 
ATOM     12  C   UNL     1     137.522 132.734 137.779  1.00  0.00     0.004 C 
ENDBRANCH  10  11
ENDBRANCH   9  10
ENDBRANCH   8   9
ENDBRANCH   7   8
ENDBRANCH   1   7
TORSDOF 9
ENDMDL
MODEL 7
REMARK VINA RESULT:    -3.718      3.249      5.783
REMARK INTER + INTRA:          -6.519
REMARK INTER:                  -5.479
REMARK INTRA:                  -1.040
REMARK UNBOUND:                -0.845
REMARK SMILES C=CCCCCCCCCCC
REMARK SMILES IDX 7 1 8 2 9 3 10 4 11 5 12 6 6 7 5 8 4 9 3 10 2 11 1 12
REMARK H PARENT
REMARK Flexibility Score: inf
ROOT
ATOM      1  C   UNL     1     132.551 138.250 135.110  1.00  0.00     0.000 C 
ENDROOT
BRANCH   1   2
ATOM      2  C   UNL     1     132.703 139.290 136.231  1.00  0.00    -0.000 C 
BRANCH   2   3
ATOM      3  C   UNL     1     133.734 138.869 137.293  1.00  0.00    -0.000 C 
BRANCH   3   4
ATOM      4  C   UNL     1     134.882 139.892 137.428  1.00  0.00    -0.000 C 
BRANCH   4   5
ATOM      5  C   UNL     1     134.975 140.872 136.247  1.00  0.00    -0.003 C 
ATOM      6  C   UNL     1     136.054 140.490 135.236  1.00  0.00     0.004 C 
ENDBRANCH   4   5
ENDBRANCH   3   4
ENDBRANCH   2   3
ENDBRANCH   1   2
BRANCH   1   7
ATOM      7  C   UNL     1     133.126 136.876 135.496  1.00  0.00     0.000 C 
BRANCH   7   8
ATOM      8  C   UNL     1     132.101 135.742 135.338  1.00  0.00     0.000 C 
BRANCH   8   9
ATOM      9  C   UNL     1     131.964 134.889 136.611  1.00  0.00     0.004 C 
BRANCH   9  10
ATOM     10  C   UNL     1     133.223 134.953 137.485  1.00  0.00     0.027 C 
BRANCH  10  11
ATOM     11  C   UNL     1     132.886 135.262 138.919  1.00  0.00    -0.035 C 
ATOM     12  C   UNL     1     133.622 136.104 139.651  1.00  0.00     0.004 C 
ENDBRANCH  10  11
ENDBRANCH   9  10
ENDBRANCH   8   9
ENDBRANCH   7   8
ENDBRANCH   1   7
TORSDOF 9
ENDMDL
MODEL 8
REMARK VINA RESULT:    -3.711      3.129      5.851
REMARK INTER + INTRA:          -6.509
REMARK INTER:                  -5.753
REMARK INTRA:                  -0.756
REMARK UNBOUND:                -0.845
REMARK SMILES C=CCCCCCCCCCC
REMARK SMILES IDX 7 1 8 2 9 3 10 4 11 5 12 6 6 7 5 8 4 9 3 10 2 11 1 12
REMARK H PARENT
REMARK Flexibility Score: inf
ROOT
ATOM      1  C   UNL     1     139.331 135.842 134.962  1.00  0.00     0.000 C 
ENDROOT
BRANCH   1   2
ATOM      2  C   UNL     1     139.619 136.500 136.321  1.00  0.00    -0.000 C 
BRANCH   2   3
ATOM      3  C   UNL     1     140.738 137.552 136.243  1.00  0.00    -0.000 C 
BRANCH   3   4
ATOM      4  C   UNL     1     140.355 138.745 135.340  1.00  0.00    -0.000 C 
BRANCH   4   5
ATOM      5  C   UNL     1     139.375 139.727 136.003  1.00  0.00    -0.003 C 
ATOM      6  C   UNL     1     138.213 140.118 135.093  1.00  0.00     0.004 C 
ENDBRANCH   4   5
ENDBRANCH   3   4
ENDBRANCH   2   3
ENDBRANCH   1   2
BRANCH   1   7
ATOM      7  C   UNL     1     140.115 134.533 134.761  1.00  0.00     0.000 C 
BRANCH   7   8
ATOM      8  C   UNL     1     139.855 133.512 135.880  1.00  0.00     0.000 C 
BRANCH   8   9
ATOM      9  C   UNL     1     138.859 132.418 135.460  1.00  0.00     0.004 C 
BRANCH   9  10
ATOM     10  C   UNL     1     137.881 132.065 136.589  1.00  0.00     0.027 C 
BRANCH  10  11
ATOM     11  C   UNL     1     138.005 133.021 137.745  1.00  0.00    -0.035 C 
ATOM     12  C   UNL     1     137.138 133.015 138.762  1.00  0.00     0.004 C 
ENDBRANCH  10  11
ENDBRANCH   9  10
ENDBRANCH   8   9
ENDBRANCH   7   8
ENDBRANCH   1   7
TORSDOF 9
ENDMDL
MODEL 9
REMARK VINA RESULT:    -3.706      4.370      8.231
REMARK INTER + INTRA:          -6.501
REMARK INTER:                  -5.625
REMARK INTRA:                  -0.876
REMARK UNBOUND:                -0.845
REMARK SMILES C=CCCCCCCCCCC
REMARK SMILES IDX 7 1 8 2 9 3 10 4 11 5 12 6 6 7 5 8 4 9 3 10 2 11 1 12
REMARK H PARENT
REMARK Flexibility Score: inf
ROOT
ATOM      1  C   UNL     1     135.712 133.623 135.479  1.00  0.00     0.000 C 
ENDROOT
BRANCH   1   2
ATOM      2  C   UNL     1     136.244 132.209 135.197  1.00  0.00    -0.000 C 
BRANCH   2   3
ATOM      3  C   UNL     1     137.524 131.889 135.988  1.00  0.00    -0.000 C 
BRANCH   3   4
ATOM      4  C   UNL     1     138.781 132.504 135.337  1.00  0.00    -0.000 C 
BRANCH   4   5
ATOM      5  C   UNL     1     139.654 133.302 136.318  1.00  0.00    -0.003 C 
ATOM      6  C   UNL     1     138.893 133.760 137.560  1.00  0.00     0.004 C 
ENDBRANCH   4   5
ENDBRANCH   3   4
ENDBRANCH   2   3
ENDBRANCH   1   2
BRANCH   1   7
ATOM      7  C   UNL     1     134.714 133.655 136.651  1.00  0.00     0.000 C 
BRANCH   7   8
ATOM      8  C   UNL     1     133.417 132.891 136.342  1.00  0.00     0.000 C 
BRANCH   8   9
ATOM      9  C   UNL     1     132.503 133.651 135.364  1.00  0.00     0.004 C 
BRANCH   9  10
ATOM     10  C   UNL     1     131.850 134.875 136.020  1.00  0.00     0.027 C 
BRANCH  10  11
ATOM     11  C   UNL     1     132.189 136.143 135.284  1.00  0.00    -0.035 C 
ATOM     12  C   UNL     1     133.074 137.023 135.763  1.00  0.00     0.004 C 
ENDBRANCH  10  11
ENDBRANCH   9  10
ENDBRANCH   8   9
ENDBRANCH   7   8
ENDBRANCH   1   7
TORSDOF 9
ENDMDL
