MODEL 1
REMARK VINA RESULT:    -3.507      0.000      0.000
REMARK INTER + INTRA:          -4.975
REMARK INTER:                  -4.737
REMARK INTRA:                  -0.237
REMARK UNBOUND:                -0.237
REMARK SMILES CCCCCCCC(=O)[O-]
REMARK SMILES IDX 5 1 6 2 7 3 8 4 9 5 10 6 4 7 3 8 2 9 1 10
REMARK H PARENT
REMARK Flexibility Score: inf
ROOT
ATOM      1  C   UNL     1      16.746 126.653  63.403  1.00  0.00     0.000 C 
ENDROOT
BRANCH   1   2
ATOM      2  C   UNL     1      17.741 127.816  63.531  1.00  0.00     0.006 C 
BRANCH   2   3
ATOM      3  C   UNL     1      17.496 128.909  62.482  1.00  0.00     0.053 C 
BRANCH   3   4
ATOM      4  C   UNL     1      18.720 129.174  61.662  1.00  0.00     0.041 C 
ATOM      5  O   UNL     1      19.779 128.525  61.873  1.00  0.00    -0.550 OA
ATOM      6  O   UNL     1      18.682 130.116  60.641  1.00  0.00    -0.550 OA
ENDBRANCH   3   4
ENDBRANCH   2   3
ENDBRANCH   1   2
BRANCH   1   7
ATOM      7  C   UNL     1      17.428 125.410  62.812  1.00  0.00     0.000 C 
BRANCH   7   8
ATOM      8  C   UNL     1      18.962 125.499  62.855  1.00  0.00    -0.000 C 
BRANCH   8   9
ATOM      9  C   UNL     1      19.642 124.178  62.465  1.00  0.00    -0.003 C 
ATOM     10  C   UNL     1      20.763 123.830  63.440  1.00  0.00     0.004 C 
ENDBRANCH   8   9
ENDBRANCH   7   8
ENDBRANCH   1   7
TORSDOF 6
ENDMDL
MODEL 2
REMARK VINA RESULT:    -3.434      7.310      8.661
REMARK INTER + INTRA:          -4.876
REMARK INTER:                  -4.453
REMARK INTRA:                  -0.424
REMARK UNBOUND:                -0.237
REMARK SMILES CCCCCCCC(=O)[O-]
REMARK SMILES IDX 5 1 6 2 7 3 8 4 9 5 10 6 4 7 3 8 2 9 1 10
REMARK H PARENT
REMARK Flexibility Score: inf
ROOT
ATOM      1  C   UNL     1      15.895 128.110  55.722  1.00  0.00     0.000 C 
ENDROOT
BRANCH   1   2
ATOM      2  C   UNL     1      16.763 127.466  54.632  1.00  0.00     0.006 C 
BRANCH   2   3
ATOM      3  C   UNL     1      16.213 127.723  53.222  1.00  0.00     0.053 C 
BRANCH   3   4
ATOM      4  C   UNL     1      17.137 128.580  52.414  1.00  0.00     0.041 C 
ATOM      5  O   UNL     1      17.986 129.314  52.987  1.00  0.00    -0.550 OA
ATOM      6  O   UNL     1      17.082 128.546  51.027  1.00  0.00    -0.550 OA
ENDBRANCH   3   4
ENDBRANCH   2   3
ENDBRANCH   1   2
BRANCH   1   7
ATOM      7  C   UNL     1      16.750 128.534  56.926  1.00  0.00     0.000 C 
BRANCH   7   8
ATOM      8  C   UNL     1      17.555 129.815  56.658  1.00  0.00    -0.000 C 
BRANCH   8   9
ATOM      9  C   UNL     1      19.015 129.704  57.123  1.00  0.00    -0.003 C 
ATOM     10  C   UNL     1      19.937 129.356  55.957  1.00  0.00     0.004 C 
ENDBRANCH   8   9
ENDBRANCH   7   8
ENDBRANCH   1   7
TORSDOF 6
ENDMDL
MODEL 3
REMARK VINA RESULT:    -3.360      6.773      8.175
REMARK INTER + INTRA:          -4.776
REMARK INTER:                  -4.341
REMARK INTRA:                  -0.435
REMARK UNBOUND:                -0.237
REMARK SMILES CCCCCCCC(=O)[O-]
REMARK SMILES IDX 5 1 6 2 7 3 8 4 9 5 10 6 4 7 3 8 2 9 1 10
REMARK H PARENT
REMARK Flexibility Score: inf
ROOT
ATOM      1  C   UNL     1      16.767 128.331  56.748  1.00  0.00     0.000 C 
ENDROOT
BRANCH   1   2
ATOM      2  C   UNL     1      17.491 129.605  56.289  1.00  0.00     0.006 C 
BRANCH   2   3
ATOM      3  C   UNL     1      18.889 129.734  56.907  1.00  0.00     0.053 C 
BRANCH   3   4
ATOM      4  C   UNL     1      19.962 129.709  55.862  1.00  0.00     0.041 C 
ATOM      5  O   UNL     1      20.359 130.782  55.334  1.00  0.00    -0.550 OA
ATOM      6  O   UNL     1      20.546 128.504  55.494  1.00  0.00    -0.550 OA
ENDBRANCH   3   4
ENDBRANCH   2   3
ENDBRANCH   1   2
BRANCH   1   7
ATOM      7  C   UNL     1      16.254 127.527  55.544  1.00  0.00     0.000 C 
BRANCH   7   8
ATOM      8  C   UNL     1      17.094 127.756  54.277  1.00  0.00    -0.000 C 
BRANCH   8   9
ATOM      9  C   UNL     1      16.231 128.026  53.037  1.00  0.00    -0.003 C 
ATOM     10  C   UNL     1      15.005 128.862  53.392  1.00  0.00     0.004 C 
ENDBRANCH   8   9
ENDBRANCH   7   8
ENDBRANCH   1   7
TORSDOF 6
ENDMDL
MODEL 4
REMARK VINA RESULT:    -3.280      9.676     10.890
REMARK INTER + INTRA:          -4.668
REMARK INTER:                  -4.182
REMARK INTRA:                  -0.486
REMARK UNBOUND:                -0.237
REMARK SMILES CCCCCCCC(=O)[O-]
REMARK SMILES IDX 5 1 6 2 7 3 8 4 9 5 10 6 4 7 3 8 2 9 1 10
REMARK H PARENT
REMARK Flexibility Score: inf
ROOT
ATOM      1  C   UNL     1      15.662 128.983  52.986  1.00  0.00     0.000 C 
ENDROOT
BRANCH   1   2
ATOM      2  C   UNL     1      16.497 129.657  51.887  1.00  0.00     0.006 C 
BRANCH   2   3
ATOM      3  C   UNL     1      17.444 128.671  51.189  1.00  0.00     0.053 C 
BRANCH   3   4
ATOM      4  C   UNL     1      17.385 128.806  49.699  1.00  0.00     0.041 C 
ATOM      5  O   UNL     1      16.334 129.219  49.140  1.00  0.00    -0.550 OA
ATOM      6  O   UNL     1      18.501 128.506  48.929  1.00  0.00    -0.550 OA
ENDBRANCH   3   4
ENDBRANCH   2   3
ENDBRANCH   1   2
BRANCH   1   7
ATOM      7  C   UNL     1      16.271 127.630  53.386  1.00  0.00     0.000 C 
BRANCH   7   8
ATOM      8  C   UNL     1      16.538 127.524  54.896  1.00  0.00    -0.000 C 
BRANCH   8   9
ATOM      9  C   UNL     1      17.311 128.732  55.445  1.00  0.00    -0.003 C 
ATOM     10  C   UNL     1      18.764 128.711  54.979  1.00  0.00     0.004 C 
ENDBRANCH   8   9
ENDBRANCH   7   8
ENDBRANCH   1   7
TORSDOF 6
ENDMDL
MODEL 5
REMARK VINA RESULT:    -3.265      7.520      8.912
REMARK INTER + INTRA:          -4.647
REMARK INTER:                  -4.006
REMARK INTRA:                  -0.641
REMARK UNBOUND:                -0.237
REMARK SMILES CCCCCCCC(=O)[O-]
REMARK SMILES IDX 5 1 6 2 7 3 8 4 9 5 10 6 4 7 3 8 2 9 1 10
REMARK H PARENT
REMARK Flexibility Score: inf
ROOT
ATOM      1  C   UNL     1      15.176 128.741  55.193  1.00  0.00     0.000 C 
ENDROOT
BRANCH   1   2
ATOM      2  C   UNL     1      16.295 127.891  55.811  1.00  0.00     0.006 C 
BRANCH   2   3
ATOM      3  C   UNL     1      17.296 128.737  56.609  1.00  0.00     0.053 C 
BRANCH   3   4
ATOM      4  C   UNL     1      18.323 129.366  55.720  1.00  0.00     0.041 C 
ATOM      5  O   UNL     1      19.091 128.646  55.028  1.00  0.00    -0.550 OA
ATOM      6  O   UNL     1      18.411 130.750  55.631  1.00  0.00    -0.550 OA
ENDBRANCH   3   4
ENDBRANCH   2   3
ENDBRANCH   1   2
BRANCH   1   7
ATOM      7  C   UNL     1      15.061 128.483  53.683  1.00  0.00     0.000 C 
BRANCH   7   8
ATOM      8  C   UNL     1      16.247 127.678  53.127  1.00  0.00    -0.000 C 
BRANCH   8   9
ATOM      9  C   UNL     1      17.018 128.437  52.038  1.00  0.00    -0.003 C 
ATOM     10  C   UNL     1      16.964 129.943  52.276  1.00  0.00     0.004 C 
ENDBRANCH   8   9
ENDBRANCH   7   8
ENDBRANCH   1   7
TORSDOF 6
ENDMDL
MODEL 6
REMARK VINA RESULT:    -3.198      7.138      8.393
REMARK INTER + INTRA:          -4.557
REMARK INTER:                  -4.001
REMARK INTRA:                  -0.556
REMARK UNBOUND:                -0.237
REMARK SMILES CCCCCCCC(=O)[O-]
REMARK SMILES IDX 5 1 6 2 7 3 8 4 9 5 10 6 4 7 3 8 2 9 1 10
REMARK H PARENT
REMARK Flexibility Score: inf
ROOT
ATOM      1  C   UNL     1      16.587 128.589  57.310  1.00  0.00     0.000 C 
ENDROOT
BRANCH   1   2
ATOM      2  C   UNL     1      15.575 128.171  56.235  1.00  0.00     0.006 C 
BRANCH   2   3
ATOM      3  C   UNL     1      16.242 127.448  55.057  1.00  0.00     0.053 C 
BRANCH   3   4
ATOM      4  C   UNL     1      15.818 128.024  53.741  1.00  0.00     0.041 C 
ATOM      5  O   UNL     1      14.815 128.783  53.673  1.00  0.00    -0.550 OA
ATOM      6  O   UNL     1      16.551 127.748  52.593  1.00  0.00    -0.550 OA
ENDBRANCH   3   4
ENDBRANCH   2   3
ENDBRANCH   1   2
BRANCH   1   7
ATOM      7  C   UNL     1      17.335 129.865  56.893  1.00  0.00     0.000 C 
BRANCH   7   8
ATOM      8  C   UNL     1      18.862 129.685  56.900  1.00  0.00    -0.000 C 
BRANCH   8   9
ATOM      9  C   UNL     1      19.417 129.289  55.525  1.00  0.00    -0.003 C 
ATOM     10  C   UNL     1      18.799 130.139  54.418  1.00  0.00     0.004 C 
ENDBRANCH   8   9
ENDBRANCH   7   8
ENDBRANCH   1   7
TORSDOF 6
ENDMDL
MODEL 7
REMARK VINA RESULT:    -3.174      2.441      4.068
REMARK INTER + INTRA:          -4.524
REMARK INTER:                  -4.087
REMARK INTRA:                  -0.437
REMARK UNBOUND:                -0.237
REMARK SMILES CCCCCCCC(=O)[O-]
REMARK SMILES IDX 5 1 6 2 7 3 8 4 9 5 10 6 4 7 3 8 2 9 1 10
REMARK H PARENT
REMARK Flexibility Score: inf
ROOT
ATOM      1  C   UNL     1      17.976 127.612  63.093  1.00  0.00     0.000 C 
ENDROOT
BRANCH   1   2
ATOM      2  C   UNL     1      18.995 128.489  62.352  1.00  0.00     0.006 C 
BRANCH   2   3
ATOM      3  C   UNL     1      18.333 129.384  61.295  1.00  0.00     0.053 C 
BRANCH   3   4
ATOM      4  C   UNL     1      19.299 129.782  60.222  1.00  0.00     0.041 C 
ATOM      5  O   UNL     1      20.485 129.358  60.246  1.00  0.00    -0.550 OA
ATOM      6  O   UNL     1      18.880 130.596  59.177  1.00  0.00    -0.550 OA
ENDBRANCH   3   4
ENDBRANCH   2   3
ENDBRANCH   1   2
BRANCH   1   7
ATOM      7  C   UNL     1      18.055 127.842  64.610  1.00  0.00     0.000 C 
BRANCH   7   8
ATOM      8  C   UNL     1      18.472 129.277  64.971  1.00  0.00    -0.000 C 
BRANCH   8   9
ATOM      9  C   UNL     1      17.271 130.222  65.119  1.00  0.00    -0.003 C 
ATOM     10  C   UNL     1      17.484 131.507  64.324  1.00  0.00     0.004 C 
ENDBRANCH   8   9
ENDBRANCH   7   8
ENDBRANCH   1   7
TORSDOF 6
ENDMDL
MODEL 8
REMARK VINA RESULT:    -3.137      6.984      8.187
REMARK INTER + INTRA:          -4.474
REMARK INTER:                  -4.097
REMARK INTRA:                  -0.377
REMARK UNBOUND:                -0.237
REMARK SMILES CCCCCCCC(=O)[O-]
REMARK SMILES IDX 5 1 6 2 7 3 8 4 9 5 10 6 4 7 3 8 2 9 1 10
REMARK H PARENT
REMARK Flexibility Score: inf
ROOT
ATOM      1  C   UNL     1      17.372 129.326  56.849  1.00  0.00     0.000 C 
ENDROOT
BRANCH   1   2
ATOM      2  C   UNL     1      18.840 129.728  57.047  1.00  0.00     0.006 C 
BRANCH   2   3
ATOM      3  C   UNL     1      19.679 129.508  55.781  1.00  0.00     0.053 C 
BRANCH   3   4
ATOM      4  C   UNL     1      19.760 130.748  54.946  1.00  0.00     0.041 C 
ATOM      5  O   UNL     1      20.753 131.517  55.045  1.00  0.00    -0.550 OA
ATOM      6  O   UNL     1      18.753 131.039  54.034  1.00  0.00    -0.550 OA
ENDBRANCH   3   4
ENDBRANCH   2   3
ENDBRANCH   1   2
BRANCH   1   7
ATOM      7  C   UNL     1      17.252 128.148  55.870  1.00  0.00     0.000 C 
BRANCH   7   8
ATOM      8  C   UNL     1      15.797 127.854  55.472  1.00  0.00    -0.000 C 
BRANCH   8   9
ATOM      9  C   UNL     1      15.467 128.323  54.047  1.00  0.00    -0.003 C 
ATOM     10  C   UNL     1      16.565 127.916  53.068  1.00  0.00     0.004 C 
ENDBRANCH   8   9
ENDBRANCH   7   8
ENDBRANCH   1   7
TORSDOF 6
ENDMDL
MODEL 9
REMARK VINA RESULT:    -3.117     10.621     12.071
REMARK INTER + INTRA:          -4.448
REMARK INTER:                  -4.122
REMARK INTRA:                  -0.326
REMARK UNBOUND:                -0.237
REMARK SMILES CCCCCCCC(=O)[O-]
REMARK SMILES IDX 5 1 6 2 7 3 8 4 9 5 10 6 4 7 3 8 2 9 1 10
REMARK H PARENT
REMARK Flexibility Score: inf
ROOT
ATOM      1  C   UNL     1      16.464 129.756  51.197  1.00  0.00     0.000 C 
ENDROOT
BRANCH   1   2
ATOM      2  C   UNL     1      17.271 128.643  51.881  1.00  0.00     0.006 C 
BRANCH   2   3
ATOM      3  C   UNL     1      16.409 127.796  52.826  1.00  0.00     0.053 C 
BRANCH   3   4
ATOM      4  C   UNL     1      16.818 127.971  54.256  1.00  0.00     0.041 C 
ATOM      5  O   UNL     1      17.631 128.878  54.578  1.00  0.00    -0.550 OA
ATOM      6  O   UNL     1      16.276 127.152  55.239  1.00  0.00    -0.550 OA
ENDBRANCH   3   4
ENDBRANCH   2   3
ENDBRANCH   1   2
BRANCH   1   7
ATOM      7  C   UNL     1      16.994 130.028  49.781  1.00  0.00     0.000 C 
BRANCH   7   8
ATOM      8  C   UNL     1      16.733 128.860  48.817  1.00  0.00    -0.000 C 
BRANCH   8   9
ATOM      9  C   UNL     1      18.025 128.303  48.200  1.00  0.00    -0.003 C 
ATOM     10  C   UNL     1      19.005 129.426  47.874  1.00  0.00     0.004 C 
ENDBRANCH   8   9
ENDBRANCH   7   8
ENDBRANCH   1   7
TORSDOF 6
ENDMDL
