MODEL 1
REMARK VINA RESULT:    -8.195      0.000      0.000
REMARK INTER + INTRA:          -8.913
REMARK INTER:                  -8.913
REMARK INTRA:                   0.000
REMARK UNBOUND:                 0.000
REMARK SMILES Cc1cc(O)c2c(c1)C(=O)c1cc(O)cc(O)c1C2=O
REMARK SMILES IDX 1 1 2 2 8 3 7 4 6 5 4 6 3 7 19 8 20 9 18 10 11 11 9 12 10 13
REMARK SMILES IDX 12 14 13 15 15 16 16 17 5 18 17 20 14 22
REMARK H PARENT 5 19 17 21 14 23
REMARK Flexibility Score: inf
ROOT
ATOM      1  C   UNL     1      61.379 -14.626  -3.519  1.00  0.00     0.044 C 
ATOM      2  C   UNL     1      61.214 -15.374  -2.229  1.00  0.00    -0.047 A 
ATOM      3  C   UNL     1      61.517 -16.738  -2.162  1.00  0.00     0.016 A 
ATOM      4  C   UNL     1      61.332 -17.458  -0.969  1.00  0.00     0.038 A 
ATOM      5  C   UNL     1      60.822 -16.804   0.174  1.00  0.00     0.076 A 
ATOM      6  C   UNL     1      60.497 -15.429   0.094  1.00  0.00     0.127 A 
ATOM      7  C   UNL     1      60.689 -14.730  -1.105  1.00  0.00     0.050 A 
ATOM      8  C   UNL     1      60.632 -17.578   1.435  1.00  0.00     0.201 C 
ATOM      9  O   UNL     1      60.184 -17.000   2.461  1.00  0.00    -0.288 OA
ATOM     10  C   UNL     1      60.970 -19.028   1.492  1.00  0.00     0.076 A 
ATOM     11  C   UNL     1      61.477 -19.666   0.337  1.00  0.00     0.041 A 
ATOM     12  C   UNL     1      61.670 -18.899  -0.914  1.00  0.00     0.194 C 
ATOM     13  O   UNL     1      62.125 -19.476  -1.940  1.00  0.00    -0.289 OA
ATOM     14  C   UNL     1      61.799 -21.036   0.379  1.00  0.00     0.059 A 
ATOM     15  C   UNL     1      61.622 -21.772   1.553  1.00  0.00     0.120 A 
ATOM     16  C   UNL     1      61.122 -21.147   2.694  1.00  0.00     0.093 A 
ATOM     17  C   UNL     1      60.794 -19.785   2.676  1.00  0.00     0.131 A 
ENDROOT
BRANCH   6  18
ATOM     18  O   UNL     1      59.980 -14.750   1.198  1.00  0.00    -0.507 OA
ATOM     19  H   UNL     1      60.509 -14.646   2.057  1.00  0.00     0.293 HD
ENDBRANCH   6  18
BRANCH  17  20
ATOM     20  O   UNL     1      60.296 -19.193   3.836  1.00  0.00    -0.507 OA
ATOM     21  H   UNL     1      60.199 -19.711   4.702  1.00  0.00     0.293 HD
ENDBRANCH  17  20
BRANCH  15  22
ATOM     22  O   UNL     1      61.941 -23.128   1.597  1.00  0.00    -0.508 OA
ATOM     23  H   UNL     1      61.386 -23.785   2.134  1.00  0.00     0.293 HD
ENDBRANCH  15  22
TORSDOF 3
ENDMDL
MODEL 2
REMARK VINA RESULT:    -7.830      1.154      3.451
REMARK INTER + INTRA:          -8.516
REMARK INTER:                  -8.516
REMARK INTRA:                   0.000
REMARK UNBOUND:                 0.000
REMARK SMILES Cc1cc(O)c2c(c1)C(=O)c1cc(O)cc(O)c1C2=O
REMARK SMILES IDX 1 1 2 2 8 3 7 4 6 5 4 6 3 7 19 8 20 9 18 10 11 11 9 12 10 13
REMARK SMILES IDX 12 14 13 15 15 16 16 17 5 18 17 20 14 22
REMARK H PARENT 5 19 17 21 14 23
REMARK Flexibility Score: inf
ROOT
ATOM      1  C   UNL     1      60.680 -14.690  -1.882  1.00  0.00     0.044 C 
ATOM      2  C   UNL     1      60.846 -16.081  -1.344  1.00  0.00    -0.047 A 
ATOM      3  C   UNL     1      60.522 -16.365  -0.013  1.00  0.00     0.016 A 
ATOM      4  C   UNL     1      60.707 -17.655   0.513  1.00  0.00     0.038 A 
ATOM      5  C   UNL     1      61.240 -18.677  -0.304  1.00  0.00     0.076 A 
ATOM      6  C   UNL     1      61.586 -18.378  -1.643  1.00  0.00     0.127 A 
ATOM      7  C   UNL     1      61.393 -17.086  -2.147  1.00  0.00     0.050 A 
ATOM      8  C   UNL     1      61.430 -20.042   0.265  1.00  0.00     0.201 C 
ATOM      9  O   UNL     1      61.898 -20.961  -0.460  1.00  0.00    -0.288 OA
ATOM     10  C   UNL     1      61.069 -20.330   1.682  1.00  0.00     0.076 A 
ATOM     11  C   UNL     1      60.540 -19.295   2.485  1.00  0.00     0.041 A 
ATOM     12  C   UNL     1      60.347 -17.939   1.921  1.00  0.00     0.194 C 
ATOM     13  O   UNL     1      59.872 -17.021   2.645  1.00  0.00    -0.289 OA
ATOM     14  C   UNL     1      60.196 -19.555   3.825  1.00  0.00     0.059 A 
ATOM     15  C   UNL     1      60.374 -20.830   4.370  1.00  0.00     0.120 A 
ATOM     16  C   UNL     1      60.895 -21.853   3.581  1.00  0.00     0.093 A 
ATOM     17  C   UNL     1      61.245 -21.618   2.245  1.00  0.00     0.131 A 
ENDROOT
BRANCH   6  18
ATOM     18  O   UNL     1      62.125 -19.358  -2.479  1.00  0.00    -0.507 OA
ATOM     19  H   UNL     1      62.961 -19.191  -3.027  1.00  0.00     0.293 HD
ENDBRANCH   6  18
BRANCH  17  20
ATOM     20  O   UNL     1      61.764 -22.666   1.486  1.00  0.00    -0.507 OA
ATOM     21  H   UNL     1      61.268 -23.044   0.686  1.00  0.00     0.293 HD
ENDBRANCH  17  20
BRANCH  15  22
ATOM     22  O   UNL     1      60.033 -21.090   5.695  1.00  0.00    -0.508 OA
ATOM     23  H   UNL     1      59.333 -20.540   6.180  1.00  0.00     0.293 HD
ENDBRANCH  15  22
TORSDOF 3
ENDMDL
MODEL 3
REMARK VINA RESULT:    -7.404      5.983      7.433
REMARK INTER + INTRA:          -8.053
REMARK INTER:                  -8.053
REMARK INTRA:                   0.000
REMARK UNBOUND:                 0.000
REMARK SMILES Cc1cc(O)c2c(c1)C(=O)c1cc(O)cc(O)c1C2=O
REMARK SMILES IDX 1 1 2 2 8 3 7 4 6 5 4 6 3 7 19 8 20 9 18 10 11 11 9 12 10 13
REMARK SMILES IDX 12 14 13 15 15 16 16 17 5 18 17 20 14 22
REMARK H PARENT 5 19 17 21 14 23
REMARK Flexibility Score: inf
ROOT
ATOM      1  C   UNL     1      60.680 -19.298   2.606  1.00  0.00     0.044 C 
ATOM      2  C   UNL     1      59.195 -19.095   2.676  1.00  0.00    -0.047 A 
ATOM      3  C   UNL     1      58.364 -20.125   3.129  1.00  0.00     0.016 A 
ATOM      4  C   UNL     1      56.968 -19.960   3.164  1.00  0.00     0.038 A 
ATOM      5  C   UNL     1      56.393 -18.747   2.725  1.00  0.00     0.076 A 
ATOM      6  C   UNL     1      57.238 -17.717   2.248  1.00  0.00     0.127 A 
ATOM      7  C   UNL     1      58.626 -17.902   2.221  1.00  0.00     0.050 A 
ATOM      8  C   UNL     1      54.911 -18.584   2.769  1.00  0.00     0.201 C 
ATOM      9  O   UNL     1      54.391 -17.501   2.386  1.00  0.00    -0.288 OA
ATOM     10  C   UNL     1      54.041 -19.687   3.265  1.00  0.00     0.076 A 
ATOM     11  C   UNL     1      54.635 -20.895   3.697  1.00  0.00     0.041 A 
ATOM     12  C   UNL     1      56.106 -21.058   3.658  1.00  0.00     0.194 C 
ATOM     13  O   UNL     1      56.627 -22.139   4.047  1.00  0.00    -0.289 OA
ATOM     14  C   UNL     1      53.822 -21.944   4.166  1.00  0.00     0.059 A 
ATOM     15  C   UNL     1      52.433 -21.804   4.208  1.00  0.00     0.120 A 
ATOM     16  C   UNL     1      51.844 -20.615   3.783  1.00  0.00     0.093 A 
ATOM     17  C   UNL     1      52.631 -19.556   3.311  1.00  0.00     0.131 A 
ENDROOT
BRANCH   6  18
ATOM     18  O   UNL     1      56.707 -16.508   1.795  1.00  0.00    -0.507 OA
ATOM     19  H   UNL     1      56.923 -16.141   0.875  1.00  0.00     0.293 HD
ENDBRANCH   6  18
BRANCH  17  20
ATOM     20  O   UNL     1      52.008 -18.381   2.893  1.00  0.00    -0.507 OA
ATOM     21  H   UNL     1      51.016 -18.225   3.031  1.00  0.00     0.293 HD
ENDBRANCH  17  20
BRANCH  15  22
ATOM     22  O   UNL     1      51.627 -22.841   4.673  1.00  0.00    -0.508 OA
ATOM     23  H   UNL     1      51.236 -23.531   4.042  1.00  0.00     0.293 HD
ENDBRANCH  15  22
TORSDOF 3
ENDMDL
MODEL 4
REMARK VINA RESULT:    -7.291      5.112      6.359
REMARK INTER + INTRA:          -7.930
REMARK INTER:                  -7.930
REMARK INTRA:                   0.000
REMARK UNBOUND:                 0.000
REMARK SMILES Cc1cc(O)c2c(c1)C(=O)c1cc(O)cc(O)c1C2=O
REMARK SMILES IDX 1 1 2 2 8 3 7 4 6 5 4 6 3 7 19 8 20 9 18 10 11 11 9 12 10 13
REMARK SMILES IDX 12 14 13 15 15 16 16 17 5 18 17 20 14 22
REMARK H PARENT 5 19 17 21 14 23
REMARK Flexibility Score: inf
ROOT
ATOM      1  C   UNL     1      61.264 -17.990   1.597  1.00  0.00     0.044 C 
ATOM      2  C   UNL     1      59.800 -18.012   1.928  1.00  0.00    -0.047 A 
ATOM      3  C   UNL     1      59.216 -19.165   2.463  1.00  0.00     0.016 A 
ATOM      4  C   UNL     1      57.839 -19.211   2.742  1.00  0.00     0.038 A 
ATOM      5  C   UNL     1      57.029 -18.086   2.470  1.00  0.00     0.076 A 
ATOM      6  C   UNL     1      57.623 -16.930   1.909  1.00  0.00     0.127 A 
ATOM      7  C   UNL     1      58.997 -16.906   1.638  1.00  0.00     0.050 A 
ATOM      8  C   UNL     1      55.570 -18.145   2.773  1.00  0.00     0.201 C 
ATOM      9  O   UNL     1      54.843 -17.143   2.539  1.00  0.00    -0.288 OA
ATOM     10  C   UNL     1      54.966 -19.378   3.352  1.00  0.00     0.076 A 
ATOM     11  C   UNL     1      55.792 -20.495   3.616  1.00  0.00     0.041 A 
ATOM     12  C   UNL     1      57.241 -20.437   3.319  1.00  0.00     0.194 C 
ATOM     13  O   UNL     1      57.971 -21.438   3.559  1.00  0.00    -0.289 OA
ATOM     14  C   UNL     1      55.231 -21.665   4.162  1.00  0.00     0.059 A 
ATOM     15  C   UNL     1      53.865 -21.733   4.447  1.00  0.00     0.120 A 
ATOM     16  C   UNL     1      53.048 -20.635   4.188  1.00  0.00     0.093 A 
ATOM     17  C   UNL     1      53.582 -19.459   3.644  1.00  0.00     0.131 A 
ENDROOT
BRANCH   6  18
ATOM     18  O   UNL     1      56.855 -15.802   1.615  1.00  0.00    -0.507 OA
ATOM     19  H   UNL     1      56.268 -15.358   2.313  1.00  0.00     0.293 HD
ENDBRANCH   6  18
BRANCH  17  20
ATOM     20  O   UNL     1      52.735 -18.380   3.398  1.00  0.00    -0.507 OA
ATOM     21  H   UNL     1      52.956 -17.443   3.718  1.00  0.00     0.293 HD
ENDBRANCH  17  20
BRANCH  15  22
ATOM     22  O   UNL     1      53.309 -22.890   4.988  1.00  0.00    -0.508 OA
ATOM     23  H   UNL     1      53.071 -23.686   4.407  1.00  0.00     0.293 HD
ENDBRANCH  15  22
TORSDOF 3
ENDMDL
MODEL 5
REMARK VINA RESULT:    -7.233      5.115      6.819
REMARK INTER + INTRA:          -7.867
REMARK INTER:                  -7.867
REMARK INTRA:                   0.000
REMARK UNBOUND:                 0.000
REMARK SMILES Cc1cc(O)c2c(c1)C(=O)c1cc(O)cc(O)c1C2=O
REMARK SMILES IDX 1 1 2 2 8 3 7 4 6 5 4 6 3 7 19 8 20 9 18 10 11 11 9 12 10 13
REMARK SMILES IDX 12 14 13 15 15 16 16 17 5 18 17 20 14 22
REMARK H PARENT 5 19 17 21 14 23
REMARK Flexibility Score: inf
ROOT
ATOM      1  C   UNL     1      51.368 -20.731   2.825  1.00  0.00     0.044 C 
ATOM      2  C   UNL     1      52.771 -20.206   2.748  1.00  0.00    -0.047 A 
ATOM      3  C   UNL     1      53.848 -21.016   3.124  1.00  0.00     0.016 A 
ATOM      4  C   UNL     1      55.164 -20.523   3.091  1.00  0.00     0.038 A 
ATOM      5  C   UNL     1      55.407 -19.191   2.688  1.00  0.00     0.076 A 
ATOM      6  C   UNL     1      54.311 -18.370   2.330  1.00  0.00     0.127 A 
ATOM      7  C   UNL     1      53.007 -18.881   2.369  1.00  0.00     0.050 A 
ATOM      8  C   UNL     1      56.808 -18.681   2.656  1.00  0.00     0.201 C 
ATOM      9  O   UNL     1      57.032 -17.496   2.290  1.00  0.00    -0.288 OA
ATOM     10  C   UNL     1      57.944 -19.561   3.049  1.00  0.00     0.076 A 
ATOM     11  C   UNL     1      57.682 -20.890   3.452  1.00  0.00     0.041 A 
ATOM     12  C   UNL     1      56.293 -21.400   3.481  1.00  0.00     0.194 C 
ATOM     13  O   UNL     1      56.068 -22.589   3.841  1.00  0.00    -0.289 OA
ATOM     14  C   UNL     1      58.748 -21.730   3.826  1.00  0.00     0.059 A 
ATOM     15  C   UNL     1      60.064 -21.261   3.804  1.00  0.00     0.120 A 
ATOM     16  C   UNL     1      60.327 -19.952   3.407  1.00  0.00     0.093 A 
ATOM     17  C   UNL     1      59.282 -19.097   3.030  1.00  0.00     0.131 A 
ENDROOT
BRANCH   6  18
ATOM     18  O   UNL     1      54.508 -17.046   1.936  1.00  0.00    -0.507 OA
ATOM     19  H   UNL     1      53.796 -16.526   1.434  1.00  0.00     0.293 HD
ENDBRANCH   6  18
BRANCH  17  20
ATOM     20  O   UNL     1      59.582 -17.792   2.639  1.00  0.00    -0.507 OA
ATOM     21  H   UNL     1      60.499 -17.536   2.291  1.00  0.00     0.293 HD
ENDBRANCH  17  20
BRANCH  15  22
ATOM     22  O   UNL     1      61.121 -22.091   4.173  1.00  0.00    -0.508 OA
ATOM     23  H   UNL     1      61.726 -21.863   4.954  1.00  0.00     0.293 HD
ENDBRANCH  15  22
TORSDOF 3
ENDMDL
MODEL 6
REMARK VINA RESULT:    -7.175      3.360      4.908
REMARK INTER + INTRA:          -7.804
REMARK INTER:                  -7.804
REMARK INTRA:                   0.000
REMARK UNBOUND:                 0.000
REMARK SMILES Cc1cc(O)c2c(c1)C(=O)c1cc(O)cc(O)c1C2=O
REMARK SMILES IDX 1 1 2 2 8 3 7 4 6 5 4 6 3 7 19 8 20 9 18 10 11 11 9 12 10 13
REMARK SMILES IDX 12 14 13 15 15 16 16 17 5 18 17 20 14 22
REMARK H PARENT 5 19 17 21 14 23
REMARK Flexibility Score: inf
ROOT
ATOM      1  C   UNL     1      61.380 -14.678   0.350  1.00  0.00     0.044 C 
ATOM      2  C   UNL     1      60.851 -15.983   0.867  1.00  0.00    -0.047 A 
ATOM      3  C   UNL     1      59.508 -16.102   1.240  1.00  0.00     0.016 A 
ATOM      4  C   UNL     1      59.010 -17.309   1.760  1.00  0.00     0.038 A 
ATOM      5  C   UNL     1      59.874 -18.414   1.923  1.00  0.00     0.076 A 
ATOM      6  C   UNL     1      61.237 -18.282   1.563  1.00  0.00     0.127 A 
ATOM      7  C   UNL     1      61.713 -17.070   1.047  1.00  0.00     0.050 A 
ATOM      8  C   UNL     1      59.333 -19.690   2.473  1.00  0.00     0.201 C 
ATOM      9  O   UNL     1      60.096 -20.683   2.614  1.00  0.00    -0.288 OA
ATOM     10  C   UNL     1      57.897 -19.802   2.856  1.00  0.00     0.076 A 
ATOM     11  C   UNL     1      57.047 -18.685   2.689  1.00  0.00     0.041 A 
ATOM     12  C   UNL     1      57.582 -17.418   2.138  1.00  0.00     0.194 C 
ATOM     13  O   UNL     1      56.816 -16.426   1.991  1.00  0.00    -0.289 OA
ATOM     14  C   UNL     1      55.690 -18.779   3.047  1.00  0.00     0.059 A 
ATOM     15  C   UNL     1      55.172 -19.968   3.568  1.00  0.00     0.120 A 
ATOM     16  C   UNL     1      56.006 -21.072   3.734  1.00  0.00     0.093 A 
ATOM     17  C   UNL     1      57.362 -21.002   3.385  1.00  0.00     0.131 A 
ENDROOT
BRANCH   6  18
ATOM     18  O   UNL     1      62.125 -19.347   1.719  1.00  0.00    -0.507 OA
ATOM     19  H   UNL     1      63.113 -19.198   1.885  1.00  0.00     0.293 HD
ENDBRANCH   6  18
BRANCH  17  20
ATOM     20  O   UNL     1      58.167 -22.126   3.565  1.00  0.00    -0.507 OA
ATOM     21  H   UNL     1      58.705 -22.526   2.805  1.00  0.00     0.293 HD
ENDBRANCH  17  20
BRANCH  15  22
ATOM     22  O   UNL     1      53.829 -20.063   3.922  1.00  0.00    -0.508 OA
ATOM     23  H   UNL     1      53.482 -19.680   4.795  1.00  0.00     0.293 HD
ENDBRANCH  15  22
TORSDOF 3
ENDMDL
MODEL 7
REMARK VINA RESULT:    -7.080      3.441      6.371
REMARK INTER + INTRA:          -7.701
REMARK INTER:                  -7.701
REMARK INTRA:                   0.000
REMARK UNBOUND:                 0.000
REMARK SMILES Cc1cc(O)c2c(c1)C(=O)c1cc(O)cc(O)c1C2=O
REMARK SMILES IDX 1 1 2 2 8 3 7 4 6 5 4 6 3 7 19 8 20 9 18 10 11 11 9 12 10 13
REMARK SMILES IDX 12 14 13 15 15 16 16 17 5 18 17 20 14 22
REMARK H PARENT 5 19 17 21 14 23
REMARK Flexibility Score: inf
ROOT
ATOM      1  C   UNL     1      53.667 -19.684   3.856  1.00  0.00     0.044 C 
ATOM      2  C   UNL     1      55.131 -19.707   3.531  1.00  0.00    -0.047 A 
ATOM      3  C   UNL     1      55.742 -18.590   2.951  1.00  0.00     0.016 A 
ATOM      4  C   UNL     1      57.105 -18.612   2.609  1.00  0.00     0.038 A 
ATOM      5  C   UNL     1      57.869 -19.778   2.838  1.00  0.00     0.076 A 
ATOM      6  C   UNL     1      57.240 -20.912   3.406  1.00  0.00     0.127 A 
ATOM      7  C   UNL     1      55.881 -20.869   3.740  1.00  0.00     0.050 A 
ATOM      8  C   UNL     1      59.315 -19.788   2.472  1.00  0.00     0.201 C 
ATOM      9  O   UNL     1      60.004 -20.823   2.682  1.00  0.00    -0.288 OA
ATOM     10  C   UNL     1      59.951 -18.585   1.865  1.00  0.00     0.076 A 
ATOM     11  C   UNL     1      59.171 -17.429   1.641  1.00  0.00     0.041 A 
ATOM     12  C   UNL     1      57.736 -17.415   2.006  1.00  0.00     0.194 C 
ATOM     13  O   UNL     1      57.047 -16.378   1.803  1.00  0.00    -0.289 OA
ATOM     14  C   UNL     1      59.762 -16.288   1.067  1.00  0.00     0.059 A 
ATOM     15  C   UNL     1      61.114 -16.287   0.717  1.00  0.00     0.120 A 
ATOM     16  C   UNL     1      61.887 -17.425   0.937  1.00  0.00     0.093 A 
ATOM     17  C   UNL     1      61.322 -18.574   1.506  1.00  0.00     0.131 A 
ENDROOT
BRANCH   6  18
ATOM     18  O   UNL     1      57.958 -22.087   3.638  1.00  0.00    -0.507 OA
ATOM     19  H   UNL     1      58.759 -22.109   4.259  1.00  0.00     0.293 HD
ENDBRANCH   6  18
BRANCH  17  20
ATOM     20  O   UNL     1      62.125 -19.695   1.711  1.00  0.00    -0.507 OA
ATOM     21  H   UNL     1      62.797 -19.739   2.469  1.00  0.00     0.293 HD
ENDBRANCH  17  20
BRANCH  15  22
ATOM     22  O   UNL     1      61.702 -15.158   0.150  1.00  0.00    -0.508 OA
ATOM     23  H   UNL     1      62.676 -14.931   0.310  1.00  0.00     0.293 HD
ENDBRANCH  15  22
TORSDOF 3
ENDMDL
MODEL 8
REMARK VINA RESULT:    -7.074      5.411      7.302
REMARK INTER + INTRA:          -7.694
REMARK INTER:                  -7.694
REMARK INTRA:                   0.000
REMARK UNBOUND:                 0.000
REMARK SMILES Cc1cc(O)c2c(c1)C(=O)c1cc(O)cc(O)c1C2=O
REMARK SMILES IDX 1 1 2 2 8 3 7 4 6 5 4 6 3 7 19 8 20 9 18 10 11 11 9 12 10 13
REMARK SMILES IDX 12 14 13 15 15 16 16 17 5 18 17 20 14 22
REMARK H PARENT 5 19 17 21 14 23
REMARK Flexibility Score: inf
ROOT
ATOM      1  C   UNL     1      60.459 -17.445   1.630  1.00  0.00     0.044 C 
ATOM      2  C   UNL     1      59.482 -18.436   2.191  1.00  0.00    -0.047 A 
ATOM      3  C   UNL     1      58.116 -18.136   2.228  1.00  0.00     0.016 A 
ATOM      4  C   UNL     1      57.195 -19.040   2.784  1.00  0.00     0.038 A 
ATOM      5  C   UNL     1      57.650 -20.263   3.326  1.00  0.00     0.076 A 
ATOM      6  C   UNL     1      59.036 -20.552   3.305  1.00  0.00     0.127 A 
ATOM      7  C   UNL     1      59.936 -19.637   2.745  1.00  0.00     0.050 A 
ATOM      8  C   UNL     1      56.663 -21.215   3.911  1.00  0.00     0.201 C 
ATOM      9  O   UNL     1      57.062 -22.312   4.389  1.00  0.00    -0.288 OA
ATOM     10  C   UNL     1      55.211 -20.884   3.932  1.00  0.00     0.076 A 
ATOM     11  C   UNL     1      54.774 -19.655   3.389  1.00  0.00     0.041 A 
ATOM     12  C   UNL     1      55.752 -18.709   2.804  1.00  0.00     0.194 C 
ATOM     13  O   UNL     1      55.352 -17.614   2.319  1.00  0.00    -0.289 OA
ATOM     14  C   UNL     1      53.404 -19.331   3.405  1.00  0.00     0.059 A 
ATOM     15  C   UNL     1      52.471 -20.213   3.953  1.00  0.00     0.120 A 
ATOM     16  C   UNL     1      52.898 -21.426   4.491  1.00  0.00     0.093 A 
ATOM     17  C   UNL     1      54.256 -21.771   4.487  1.00  0.00     0.131 A 
ENDROOT
BRANCH   6  18
ATOM     18  O   UNL     1      59.526 -21.744   3.839  1.00  0.00    -0.507 OA
ATOM     19  H   UNL     1      59.752 -21.835   4.823  1.00  0.00     0.293 HD
ENDBRANCH   6  18
BRANCH  17  20
ATOM     20  O   UNL     1      54.647 -22.993   5.034  1.00  0.00    -0.507 OA
ATOM     21  H   UNL     1      54.915 -23.777   4.451  1.00  0.00     0.293 HD
ENDBRANCH  17  20
BRANCH  15  22
ATOM     22  O   UNL     1      51.115 -19.895   3.969  1.00  0.00    -0.508 OA
ATOM     23  H   UNL     1      50.692 -19.343   3.232  1.00  0.00     0.293 HD
ENDBRANCH  15  22
TORSDOF 3
ENDMDL
MODEL 9
REMARK VINA RESULT:    -6.889      4.656      6.630
REMARK INTER + INTRA:          -7.493
REMARK INTER:                  -7.493
REMARK INTRA:                   0.000
REMARK UNBOUND:                 0.000
REMARK SMILES Cc1cc(O)c2c(c1)C(=O)c1cc(O)cc(O)c1C2=O
REMARK SMILES IDX 1 1 2 2 8 3 7 4 6 5 4 6 3 7 19 8 20 9 18 10 11 11 9 12 10 13
REMARK SMILES IDX 12 14 13 15 15 16 16 17 5 18 17 20 14 22
REMARK H PARENT 5 19 17 21 14 23
REMARK Flexibility Score: inf
ROOT
ATOM      1  C   UNL     1      62.012 -20.626   3.073  1.00  0.00     0.044 C 
ATOM      2  C   UNL     1      60.709 -19.899   2.913  1.00  0.00    -0.047 A 
ATOM      3  C   UNL     1      59.507 -20.522   3.263  1.00  0.00     0.016 A 
ATOM      4  C   UNL     1      58.277 -19.865   3.083  1.00  0.00     0.038 A 
ATOM      5  C   UNL     1      58.248 -18.566   2.531  1.00  0.00     0.076 A 
ATOM      6  C   UNL     1      59.467 -17.949   2.158  1.00  0.00     0.127 A 
ATOM      7  C   UNL     1      60.681 -18.621   2.346  1.00  0.00     0.050 A 
ATOM      8  C   UNL     1      56.938 -17.878   2.347  1.00  0.00     0.201 C 
ATOM      9  O   UNL     1      56.905 -16.716   1.862  1.00  0.00    -0.288 OA
ATOM     10  C   UNL     1      55.667 -18.553   2.736  1.00  0.00     0.076 A 
ATOM     11  C   UNL     1      55.715 -19.854   3.285  1.00  0.00     0.041 A 
ATOM     12  C   UNL     1      57.016 -20.537   3.471  1.00  0.00     0.194 C 
ATOM     13  O   UNL     1      57.049 -21.699   3.964  1.00  0.00    -0.289 OA
ATOM     14  C   UNL     1      54.521 -20.501   3.654  1.00  0.00     0.059 A 
ATOM     15  C   UNL     1      53.287 -19.869   3.484  1.00  0.00     0.120 A 
ATOM     16  C   UNL     1      53.236 -18.586   2.943  1.00  0.00     0.093 A 
ATOM     17  C   UNL     1      54.411 -17.921   2.567  1.00  0.00     0.131 A 
ENDROOT
BRANCH   6  18
ATOM     18  O   UNL     1      59.480 -16.670   1.599  1.00  0.00    -0.507 OA
ATOM     19  H   UNL     1      58.936 -16.442   0.775  1.00  0.00     0.293 HD
ENDBRANCH   6  18
BRANCH  17  20
ATOM     20  O   UNL     1      54.321 -16.638   2.028  1.00  0.00    -0.507 OA
ATOM     21  H   UNL     1      54.687 -15.828   2.515  1.00  0.00     0.293 HD
ENDBRANCH  17  20
BRANCH  15  22
ATOM     22  O   UNL     1      52.104 -20.507   3.850  1.00  0.00    -0.508 OA
ATOM     23  H   UNL     1      51.256 -20.403   3.305  1.00  0.00     0.293 HD
ENDBRANCH  15  22
TORSDOF 3
ENDMDL
