MODEL 1
REMARK VINA RESULT:    -4.936      0.000      0.000
REMARK INTER + INTRA:         -10.644
REMARK INTER:                  -8.687
REMARK INTRA:                  -1.958
REMARK UNBOUND:                -1.958
REMARK SMILES CCCCCCC=CCCCCCCCC(=O)[O-]
REMARK SMILES IDX 10 1 11 2 12 3 13 4 14 5 15 6 16 7 17 8 18 9 9 10 8 11 7 12
REMARK SMILES IDX 6 13 5 14 4 15 3 16 2 17 1 18
REMARK H PARENT
REMARK Flexibility Score: inf
ROOT
ATOM      1  C   UNL     1      13.202  13.083   5.428  1.00  0.00     0.004 C 
ENDROOT
BRANCH   1   2
ATOM      2  C   UNL     1      13.163  11.936   4.410  1.00  0.00     0.000 C 
BRANCH   2   3
ATOM      3  C   UNL     1      12.716  12.441   3.030  1.00  0.00     0.000 C 
BRANCH   3   4
ATOM      4  C   UNL     1      13.278  13.831   2.697  1.00  0.00     0.000 C 
BRANCH   4   5
ATOM      5  C   UNL     1      14.516  13.766   1.785  1.00  0.00     0.006 C 
BRANCH   5   6
ATOM      6  C   UNL     1      15.718  13.121   2.488  1.00  0.00     0.053 C 
BRANCH   6   7
ATOM      7  C   UNL     1      16.599  14.144   3.136  1.00  0.00     0.041 C 
ATOM      8  O   UNL     1      17.642  13.788   3.745  1.00  0.00    -0.550 OA
ATOM      9  O   UNL     1      16.286  15.494   3.038  1.00  0.00    -0.550 OA
ENDBRANCH   6   7
ENDBRANCH   5   6
ENDBRANCH   4   5
ENDBRANCH   3   4
ENDBRANCH   2   3
ENDBRANCH   1   2
BRANCH   1  10
ATOM     10  C   UNL     1      11.908  13.135   6.246  1.00  0.00     0.027 C 
BRANCH  10  11
ATOM     11  C   UNL     1      11.192  14.444   6.030  1.00  0.00    -0.031 C 
ATOM     12  C   UNL     1      10.224  14.642   5.116  1.00  0.00    -0.031 C 
BRANCH  12  13
ATOM     13  C   UNL     1       9.649  13.564   4.233  1.00  0.00     0.027 C 
BRANCH  13  14
ATOM     14  C   UNL     1       8.278  13.110   4.752  1.00  0.00     0.004 C 
BRANCH  14  15
ATOM     15  C   UNL     1       8.238  11.610   5.096  1.00  0.00     0.000 C 
BRANCH  15  16
ATOM     16  C   UNL     1       8.989  11.216   6.385  1.00  0.00    -0.000 C 
BRANCH  16  17
ATOM     17  C   UNL     1       9.961  10.033   6.234  1.00  0.00    -0.003 C 
ATOM     18  C   UNL     1      10.384   9.791   4.785  1.00  0.00     0.004 C 
ENDBRANCH  16  17
ENDBRANCH  15  16
ENDBRANCH  14  15
ENDBRANCH  13  14
ENDBRANCH  12  13
ENDBRANCH  10  11
ENDBRANCH   1  10
TORSDOF 13
ENDMDL
MODEL 2
REMARK VINA RESULT:    -4.843      1.328      3.443
REMARK INTER + INTRA:         -10.481
REMARK INTER:                  -8.263
REMARK INTRA:                  -2.218
REMARK UNBOUND:                -1.958
REMARK SMILES CCCCCCC=CCCCCCCCC(=O)[O-]
REMARK SMILES IDX 10 1 11 2 12 3 13 4 14 5 15 6 16 7 17 8 18 9 9 10 8 11 7 12
REMARK SMILES IDX 6 13 5 14 4 15 3 16 2 17 1 18
REMARK H PARENT
REMARK Flexibility Score: inf
ROOT
ATOM      1  C   UNL     1      10.993  10.417   4.581  1.00  0.00     0.004 C 
ENDROOT
BRANCH   1   2
ATOM      2  C   UNL     1      10.756  11.599   3.632  1.00  0.00     0.000 C 
BRANCH   2   3
ATOM      3  C   UNL     1      12.060  12.372   3.381  1.00  0.00     0.000 C 
BRANCH   3   4
ATOM      4  C   UNL     1      13.213  11.897   4.279  1.00  0.00     0.000 C 
BRANCH   4   5
ATOM      5  C   UNL     1      13.867  13.049   5.062  1.00  0.00     0.006 C 
BRANCH   5   6
ATOM      6  C   UNL     1      15.395  12.918   5.115  1.00  0.00     0.053 C 
BRANCH   6   7
ATOM      7  C   UNL     1      16.062  13.771   4.081  1.00  0.00     0.041 C 
ATOM      8  O   UNL     1      15.491  14.807   3.649  1.00  0.00    -0.550 OA
ATOM      9  O   UNL     1      17.330  13.441   3.619  1.00  0.00    -0.550 OA
ENDBRANCH   6   7
ENDBRANCH   5   6
ENDBRANCH   4   5
ENDBRANCH   3   4
ENDBRANCH   2   3
ENDBRANCH   1   2
BRANCH   1  10
ATOM     10  C   UNL     1       9.754  10.146   5.440  1.00  0.00     0.027 C 
BRANCH  10  11
ATOM     11  C   UNL     1       8.622  11.063   5.051  1.00  0.00    -0.031 C 
ATOM     12  C   UNL     1       7.906  11.801   5.919  1.00  0.00    -0.031 C 
BRANCH  12  13
ATOM     13  C   UNL     1       8.184  11.890   7.398  1.00  0.00     0.027 C 
BRANCH  13  14
ATOM     14  C   UNL     1       8.934  13.188   7.732  1.00  0.00     0.004 C 
BRANCH  14  15
ATOM     15  C   UNL     1      10.396  13.172   7.251  1.00  0.00     0.000 C 
BRANCH  15  16
ATOM     16  C   UNL     1      10.837  14.422   6.462  1.00  0.00    -0.000 C 
BRANCH  16  17
ATOM     17  C   UNL     1       9.951  14.771   5.253  1.00  0.00    -0.003 C 
ATOM     18  C   UNL     1      10.633  15.723   4.270  1.00  0.00     0.004 C 
ENDBRANCH  16  17
ENDBRANCH  15  16
ENDBRANCH  14  15
ENDBRANCH  13  14
ENDBRANCH  12  13
ENDBRANCH  10  11
ENDBRANCH   1  10
TORSDOF 13
ENDMDL
MODEL 3
REMARK VINA RESULT:    -4.814      1.273      2.841
REMARK INTER + INTRA:         -10.430
REMARK INTER:                  -8.508
REMARK INTRA:                  -1.923
REMARK UNBOUND:                -1.958
REMARK SMILES CCCCCCC=CCCCCCCCC(=O)[O-]
REMARK SMILES IDX 10 1 11 2 12 3 13 4 14 5 15 6 16 7 17 8 18 9 9 10 8 11 7 12
REMARK SMILES IDX 6 13 5 14 4 15 3 16 2 17 1 18
REMARK H PARENT
REMARK Flexibility Score: inf
ROOT
ATOM      1  C   UNL     1      12.418  12.111   3.633  1.00  0.00     0.004 C 
ENDROOT
BRANCH   1   2
ATOM      2  C   UNL     1      12.697  12.899   2.348  1.00  0.00     0.000 C 
BRANCH   2   3
ATOM      3  C   UNL     1      12.191  14.344   2.468  1.00  0.00     0.000 C 
BRANCH   3   4
ATOM      4  C   UNL     1      13.165  15.251   3.235  1.00  0.00     0.000 C 
BRANCH   4   5
ATOM      5  C   UNL     1      14.564  15.294   2.594  1.00  0.00     0.006 C 
BRANCH   5   6
ATOM      6  C   UNL     1      15.677  15.019   3.614  1.00  0.00     0.053 C 
BRANCH   6   7
ATOM      7  C   UNL     1      16.502  13.831   3.229  1.00  0.00     0.041 C 
ATOM      8  O   UNL     1      17.597  13.604   3.809  1.00  0.00    -0.550 OA
ATOM      9  O   UNL     1      16.047  12.954   2.252  1.00  0.00    -0.550 OA
ENDBRANCH   6   7
ENDBRANCH   5   6
ENDBRANCH   4   5
ENDBRANCH   3   4
ENDBRANCH   2   3
ENDBRANCH   1   2
BRANCH   1  10
ATOM     10  C   UNL     1      10.967  11.621   3.673  1.00  0.00     0.027 C 
BRANCH  10  11
ATOM     11  C   UNL     1      10.781  10.591   4.759  1.00  0.00    -0.031 C 
ATOM     12  C   UNL     1       9.636  10.403   5.442  1.00  0.00    -0.031 C 
BRANCH  12  13
ATOM     13  C   UNL     1       8.345  11.129   5.165  1.00  0.00     0.027 C 
BRANCH  13  14
ATOM     14  C   UNL     1       8.049  12.152   6.270  1.00  0.00     0.004 C 
BRANCH  14  15
ATOM     15  C   UNL     1       8.607  13.551   5.952  1.00  0.00     0.000 C 
BRANCH  15  16
ATOM     16  C   UNL     1       9.701  14.053   6.918  1.00  0.00    -0.000 C 
BRANCH  16  17
ATOM     17  C   UNL     1      11.027  14.451   6.246  1.00  0.00    -0.003 C 
ATOM     18  C   UNL     1      12.229  13.685   6.799  1.00  0.00     0.004 C 
ENDBRANCH  16  17
ENDBRANCH  15  16
ENDBRANCH  14  15
ENDBRANCH  13  14
ENDBRANCH  12  13
ENDBRANCH  10  11
ENDBRANCH   1  10
TORSDOF 13
ENDMDL
MODEL 4
REMARK VINA RESULT:    -4.779      3.614      6.068
REMARK INTER + INTRA:         -10.368
REMARK INTER:                  -7.838
REMARK INTRA:                  -2.530
REMARK UNBOUND:                -1.958
REMARK SMILES CCCCCCC=CCCCCCCCC(=O)[O-]
REMARK SMILES IDX 10 1 11 2 12 3 13 4 14 5 15 6 16 7 17 8 18 9 9 10 8 11 7 12
REMARK SMILES IDX 6 13 5 14 4 15 3 16 2 17 1 18
REMARK H PARENT
REMARK Flexibility Score: inf
ROOT
ATOM      1  C   UNL     1      12.801  11.611   4.379  1.00  0.00     0.004 C 
ENDROOT
BRANCH   1   2
ATOM      2  C   UNL     1      11.701  11.900   3.350  1.00  0.00     0.000 C 
BRANCH   2   3
ATOM      3  C   UNL     1      10.401  11.168   3.714  1.00  0.00     0.000 C 
BRANCH   3   4
ATOM      4  C   UNL     1      10.498  10.419   5.052  1.00  0.00     0.000 C 
BRANCH   4   5
ATOM      5  C   UNL     1       9.442  10.885   6.070  1.00  0.00     0.006 C 
BRANCH   5   6
ATOM      6  C   UNL     1       8.282  11.633   5.398  1.00  0.00     0.053 C 
BRANCH   6   7
ATOM      7  C   UNL     1       7.557  12.517   6.365  1.00  0.00     0.041 C 
ATOM      8  O   UNL     1       6.427  12.180   6.807  1.00  0.00    -0.550 OA
ATOM      9  O   UNL     1       8.144  13.697   6.805  1.00  0.00    -0.550 OA
ENDBRANCH   6   7
ENDBRANCH   5   6
ENDBRANCH   4   5
ENDBRANCH   3   4
ENDBRANCH   2   3
ENDBRANCH   1   2
BRANCH   1  10
ATOM     10  C   UNL     1      13.288  12.905   5.040  1.00  0.00     0.027 C 
BRANCH  10  11
ATOM     11  C   UNL     1      12.375  13.302   6.173  1.00  0.00    -0.031 C 
ATOM     12  C   UNL     1      11.605  14.406   6.180  1.00  0.00    -0.031 C 
BRANCH  12  13
ATOM     13  C   UNL     1      11.470  15.361   5.022  1.00  0.00     0.027 C 
BRANCH  13  14
ATOM     14  C   UNL     1      10.178  15.089   4.240  1.00  0.00     0.004 C 
BRANCH  14  15
ATOM     15  C   UNL     1      10.379  15.155   2.715  1.00  0.00     0.000 C 
BRANCH  15  16
ATOM     16  C   UNL     1      11.826  15.439   2.260  1.00  0.00    -0.000 C 
BRANCH  16  17
ATOM     17  C   UNL     1      12.233  14.767   0.936  1.00  0.00    -0.003 C 
ATOM     18  C   UNL     1      13.613  14.114   1.000  1.00  0.00     0.004 C 
ENDBRANCH  16  17
ENDBRANCH  15  16
ENDBRANCH  14  15
ENDBRANCH  13  14
ENDBRANCH  12  13
ENDBRANCH  10  11
ENDBRANCH   1  10
TORSDOF 13
ENDMDL
MODEL 5
REMARK VINA RESULT:    -4.759      1.409      2.616
REMARK INTER + INTRA:         -10.333
REMARK INTER:                  -7.899
REMARK INTRA:                  -2.434
REMARK UNBOUND:                -1.958
REMARK SMILES CCCCCCC=CCCCCCCCC(=O)[O-]
REMARK SMILES IDX 10 1 11 2 12 3 13 4 14 5 15 6 16 7 17 8 18 9 9 10 8 11 7 12
REMARK SMILES IDX 6 13 5 14 4 15 3 16 2 17 1 18
REMARK H PARENT
REMARK Flexibility Score: inf
ROOT
ATOM      1  C   UNL     1      12.782  14.800   5.432  1.00  0.00     0.004 C 
ENDROOT
BRANCH   1   2
ATOM      2  C   UNL     1      11.787  15.104   4.305  1.00  0.00     0.000 C 
BRANCH   2   3
ATOM      3  C   UNL     1      12.500  15.729   3.096  1.00  0.00     0.000 C 
BRANCH   3   4
ATOM      4  C   UNL     1      12.920  14.683   2.051  1.00  0.00     0.000 C 
BRANCH   4   5
ATOM      5  C   UNL     1      14.376  14.864   1.586  1.00  0.00     0.006 C 
BRANCH   5   6
ATOM      6  C   UNL     1      15.350  14.985   2.766  1.00  0.00     0.053 C 
BRANCH   6   7
ATOM      7  C   UNL     1      16.244  13.788   2.875  1.00  0.00     0.041 C 
ATOM      8  O   UNL     1      15.960  12.727   2.260  1.00  0.00    -0.550 OA
ATOM      9  O   UNL     1      17.409  13.857   3.627  1.00  0.00    -0.550 OA
ENDBRANCH   6   7
ENDBRANCH   5   6
ENDBRANCH   4   5
ENDBRANCH   3   4
ENDBRANCH   2   3
ENDBRANCH   1   2
BRANCH   1  10
ATOM     10  C   UNL     1      12.667  13.342   5.888  1.00  0.00     0.027 C 
BRANCH  10  11
ATOM     11  C   UNL     1      13.410  12.428   4.946  1.00  0.00    -0.031 C 
ATOM     12  C   UNL     1      12.820  11.589   4.075  1.00  0.00    -0.031 C 
BRANCH  12  13
ATOM     13  C   UNL     1      11.333  11.501   3.845  1.00  0.00     0.027 C 
BRANCH  13  14
ATOM     14  C   UNL     1      10.712  10.401   4.717  1.00  0.00     0.004 C 
BRANCH  14  15
ATOM     15  C   UNL     1       9.347  10.804   5.304  1.00  0.00     0.000 C 
BRANCH  15  16
ATOM     16  C   UNL     1       8.910  12.252   5.003  1.00  0.00    -0.000 C 
BRANCH  16  17
ATOM     17  C   UNL     1       9.014  13.222   6.193  1.00  0.00    -0.003 C 
ATOM     18  C   UNL     1       9.413  12.526   7.495  1.00  0.00     0.004 C 
ENDBRANCH  16  17
ENDBRANCH  15  16
ENDBRANCH  14  15
ENDBRANCH  13  14
ENDBRANCH  12  13
ENDBRANCH  10  11
ENDBRANCH   1  10
TORSDOF 13
ENDMDL
MODEL 6
REMARK VINA RESULT:    -4.739      4.134      7.210
REMARK INTER + INTRA:         -10.298
REMARK INTER:                  -8.866
REMARK INTRA:                  -1.432
REMARK UNBOUND:                -1.958
REMARK SMILES CCCCCCC=CCCCCCCCC(=O)[O-]
REMARK SMILES IDX 10 1 11 2 12 3 13 4 14 5 15 6 16 7 17 8 18 9 9 10 8 11 7 12
REMARK SMILES IDX 6 13 5 14 4 15 3 16 2 17 1 18
REMARK H PARENT
REMARK Flexibility Score: inf
ROOT
ATOM      1  C   UNL     1      11.882  12.928   3.846  1.00  0.00     0.004 C 
ENDROOT
BRANCH   1   2
ATOM      2  C   UNL     1      10.631  12.041   3.841  1.00  0.00     0.000 C 
BRANCH   2   3
ATOM      3  C   UNL     1      10.953  10.632   4.362  1.00  0.00     0.000 C 
BRANCH   3   4
ATOM      4  C   UNL     1      10.205  10.296   5.662  1.00  0.00     0.000 C 
BRANCH   4   5
ATOM      5  C   UNL     1       8.929  11.137   5.845  1.00  0.00     0.006 C 
BRANCH   5   6
ATOM      6  C   UNL     1       8.674  11.488   7.316  1.00  0.00     0.053 C 
BRANCH   6   7
ATOM      7  C   UNL     1       7.219  11.717   7.589  1.00  0.00     0.041 C 
ATOM      8  O   UNL     1       6.706  11.320   8.669  1.00  0.00    -0.550 OA
ATOM      9  O   UNL     1       6.437  12.399   6.666  1.00  0.00    -0.550 OA
ENDBRANCH   6   7
ENDBRANCH   5   6
ENDBRANCH   4   5
ENDBRANCH   3   4
ENDBRANCH   2   3
ENDBRANCH   1   2
BRANCH   1  10
ATOM     10  C   UNL     1      13.147  12.092   4.064  1.00  0.00     0.027 C 
BRANCH  10  11
ATOM     11  C   UNL     1      14.153  12.850   4.894  1.00  0.00    -0.031 C 
ATOM     12  C   UNL     1      15.310  13.348   4.421  1.00  0.00    -0.031 C 
BRANCH  12  13
ATOM     13  C   UNL     1      15.735  13.300   2.976  1.00  0.00     0.027 C 
BRANCH  13  14
ATOM     14  C   UNL     1      15.378  14.611   2.261  1.00  0.00     0.004 C 
BRANCH  14  15
ATOM     15  C   UNL     1      14.162  14.469   1.327  1.00  0.00     0.000 C 
BRANCH  15  16
ATOM     16  C   UNL     1      13.087  15.563   1.485  1.00  0.00    -0.000 C 
BRANCH  16  17
ATOM     17  C   UNL     1      11.811  15.344   0.653  1.00  0.00    -0.003 C 
ATOM     18  C   UNL     1      10.537  15.737   1.401  1.00  0.00     0.004 C 
ENDBRANCH  16  17
ENDBRANCH  15  16
ENDBRANCH  14  15
ENDBRANCH  13  14
ENDBRANCH  12  13
ENDBRANCH  10  11
ENDBRANCH   1  10
TORSDOF 13
ENDMDL
MODEL 7
REMARK VINA RESULT:    -4.731      2.072      2.763
REMARK INTER + INTRA:         -10.284
REMARK INTER:                  -8.176
REMARK INTRA:                  -2.108
REMARK UNBOUND:                -1.958
REMARK SMILES CCCCCCC=CCCCCCCCC(=O)[O-]
REMARK SMILES IDX 10 1 11 2 12 3 13 4 14 5 15 6 16 7 17 8 18 9 9 10 8 11 7 12
REMARK SMILES IDX 6 13 5 14 4 15 3 16 2 17 1 18
REMARK H PARENT
REMARK Flexibility Score: inf
ROOT
ATOM      1  C   UNL     1      13.501  12.344   4.461  1.00  0.00     0.004 C 
ENDROOT
BRANCH   1   2
ATOM      2  C   UNL     1      14.018  12.925   3.139  1.00  0.00     0.000 C 
BRANCH   2   3
ATOM      3  C   UNL     1      12.871  13.114   2.135  1.00  0.00     0.000 C 
BRANCH   3   4
ATOM      4  C   UNL     1      12.865  14.513   1.500  1.00  0.00     0.000 C 
BRANCH   4   5
ATOM      5  C   UNL     1      14.091  14.761   0.603  1.00  0.00     0.006 C 
BRANCH   5   6
ATOM      6  C   UNL     1      14.682  16.163   0.806  1.00  0.00     0.053 C 
BRANCH   6   7
ATOM      7  C   UNL     1      15.270  16.707  -0.459  1.00  0.00     0.041 C 
ATOM      8  O   UNL     1      16.219  17.534  -0.413  1.00  0.00    -0.550 OA
ATOM      9  O   UNL     1      14.793  16.275  -1.691  1.00  0.00    -0.550 OA
ENDBRANCH   6   7
ENDBRANCH   5   6
ENDBRANCH   4   5
ENDBRANCH   3   4
ENDBRANCH   2   3
ENDBRANCH   1   2
BRANCH   1  10
ATOM     10  C   UNL     1      13.347  13.440   5.520  1.00  0.00     0.027 C 
BRANCH  10  11
ATOM     11  C   UNL     1      12.055  13.271   6.280  1.00  0.00    -0.031 C 
ATOM     12  C   UNL     1      10.920  13.940   6.011  1.00  0.00    -0.031 C 
BRANCH  12  13
ATOM     13  C   UNL     1      10.741  14.891   4.855  1.00  0.00     0.027 C 
BRANCH  13  14
ATOM     14  C   UNL     1       9.861  14.263   3.765  1.00  0.00     0.004 C 
BRANCH  14  15
ATOM     15  C   UNL     1       8.797  13.308   4.336  1.00  0.00     0.000 C 
BRANCH  15  16
ATOM     16  C   UNL     1       8.774  11.902   3.701  1.00  0.00    -0.000 C 
BRANCH  16  17
ATOM     17  C   UNL     1      10.090  11.113   3.826  1.00  0.00    -0.003 C 
ATOM     18  C   UNL     1      10.140  10.233   5.075  1.00  0.00     0.004 C 
ENDBRANCH  16  17
ENDBRANCH  15  16
ENDBRANCH  14  15
ENDBRANCH  13  14
ENDBRANCH  12  13
ENDBRANCH  10  11
ENDBRANCH   1  10
TORSDOF 13
ENDMDL
MODEL 8
REMARK VINA RESULT:    -4.697      2.591      5.818
REMARK INTER + INTRA:         -10.224
REMARK INTER:                  -8.295
REMARK INTRA:                  -1.929
REMARK UNBOUND:                -1.958
REMARK SMILES CCCCCCC=CCCCCCCCC(=O)[O-]
REMARK SMILES IDX 10 1 11 2 12 3 13 4 14 5 15 6 16 7 17 8 18 9 9 10 8 11 7 12
REMARK SMILES IDX 6 13 5 14 4 15 3 16 2 17 1 18
REMARK H PARENT
REMARK Flexibility Score: inf
ROOT
ATOM      1  C   UNL     1       8.274  11.439   7.656  1.00  0.00     0.004 C 
ENDROOT
BRANCH   1   2
ATOM      2  C   UNL     1       7.306  11.996   6.604  1.00  0.00     0.000 C 
BRANCH   2   3
ATOM      3  C   UNL     1       7.647  13.453   6.260  1.00  0.00     0.000 C 
BRANCH   3   4
ATOM      4  C   UNL     1       8.227  13.607   4.845  1.00  0.00     0.000 C 
BRANCH   4   5
ATOM      5  C   UNL     1       9.245  14.757   4.745  1.00  0.00     0.006 C 
BRANCH   5   6
ATOM      6  C   UNL     1      10.337  14.658   5.819  1.00  0.00     0.053 C 
BRANCH   6   7
ATOM      7  C   UNL     1      10.513  15.951   6.553  1.00  0.00     0.041 C 
ATOM      8  O   UNL     1       9.508  16.590   6.963  1.00  0.00    -0.550 OA
ATOM      9  O   UNL     1      11.790  16.434   6.815  1.00  0.00    -0.550 OA
ENDBRANCH   6   7
ENDBRANCH   5   6
ENDBRANCH   4   5
ENDBRANCH   3   4
ENDBRANCH   2   3
ENDBRANCH   1   2
BRANCH   1  10
ATOM     10  C   UNL     1       9.661  11.194   7.052  1.00  0.00     0.027 C 
BRANCH  10  11
ATOM     11  C   UNL     1       9.568  10.282   5.855  1.00  0.00    -0.031 C 
ATOM     12  C   UNL     1      10.380  10.346   4.783  1.00  0.00    -0.031 C 
BRANCH  12  13
ATOM     13  C   UNL     1      11.558  11.278   4.657  1.00  0.00     0.027 C 
BRANCH  13  14
ATOM     14  C   UNL     1      11.536  12.001   3.304  1.00  0.00     0.004 C 
BRANCH  14  15
ATOM     15  C   UNL     1      12.856  12.732   2.997  1.00  0.00     0.000 C 
BRANCH  15  16
ATOM     16  C   UNL     1      13.869  12.765   4.160  1.00  0.00    -0.000 C 
BRANCH  16  17
ATOM     17  C   UNL     1      15.208  13.450   3.835  1.00  0.00    -0.003 C 
ATOM     18  C   UNL     1      15.732  13.103   2.442  1.00  0.00     0.004 C 
ENDBRANCH  16  17
ENDBRANCH  15  16
ENDBRANCH  14  15
ENDBRANCH  13  14
ENDBRANCH  12  13
ENDBRANCH  10  11
ENDBRANCH   1  10
TORSDOF 13
ENDMDL
MODEL 9
REMARK VINA RESULT:    -4.696      3.845      6.595
REMARK INTER + INTRA:         -10.222
REMARK INTER:                  -8.034
REMARK INTRA:                  -2.188
REMARK UNBOUND:                -1.958
REMARK SMILES CCCCCCC=CCCCCCCCC(=O)[O-]
REMARK SMILES IDX 10 1 11 2 12 3 13 4 14 5 15 6 16 7 17 8 18 9 9 10 8 11 7 12
REMARK SMILES IDX 6 13 5 14 4 15 3 16 2 17 1 18
REMARK H PARENT
REMARK Flexibility Score: inf
ROOT
ATOM      1  C   UNL     1      11.521  11.758   4.600  1.00  0.00     0.004 C 
ENDROOT
BRANCH   1   2
ATOM      2  C   UNL     1      10.437  10.677   4.523  1.00  0.00     0.000 C 
BRANCH   2   3
ATOM      3  C   UNL     1       9.040  11.283   4.725  1.00  0.00     0.000 C 
BRANCH   3   4
ATOM      4  C   UNL     1       8.707  12.364   3.686  1.00  0.00     0.000 C 
BRANCH   4   5
ATOM      5  C   UNL     1       8.178  13.659   4.327  1.00  0.00     0.006 C 
BRANCH   5   6
ATOM      6  C   UNL     1       8.491  13.731   5.827  1.00  0.00     0.053 C 
BRANCH   6   7
ATOM      7  C   UNL     1       7.294  14.147   6.626  1.00  0.00     0.041 C 
ATOM      8  O   UNL     1       6.464  13.285   7.020  1.00  0.00    -0.550 OA
ATOM      9  O   UNL     1       7.112  15.482   6.964  1.00  0.00    -0.550 OA
ENDBRANCH   6   7
ENDBRANCH   5   6
ENDBRANCH   4   5
ENDBRANCH   3   4
ENDBRANCH   2   3
ENDBRANCH   1   2
BRANCH   1  10
ATOM     10  C   UNL     1      12.171  11.984   3.231  1.00  0.00     0.027 C 
BRANCH  10  11
ATOM     11  C   UNL     1      13.488  12.704   3.377  1.00  0.00    -0.031 C 
ATOM     12  C   UNL     1      14.091  13.398   2.394  1.00  0.00    -0.031 C 
BRANCH  12  13
ATOM     13  C   UNL     1      13.499  13.635   1.028  1.00  0.00     0.027 C 
BRANCH  13  14
ATOM     14  C   UNL     1      13.112  15.110   0.852  1.00  0.00     0.004 C 
BRANCH  14  15
ATOM     15  C   UNL     1      11.590  15.321   0.772  1.00  0.00     0.000 C 
BRANCH  15  16
ATOM     16  C   UNL     1      10.848  15.240   2.122  1.00  0.00    -0.000 C 
BRANCH  16  17
ATOM     17  C   UNL     1      11.374  16.192   3.210  1.00  0.00    -0.003 C 
ATOM     18  C   UNL     1      11.484  15.526   4.582  1.00  0.00     0.004 C 
ENDBRANCH  16  17
ENDBRANCH  15  16
ENDBRANCH  14  15
ENDBRANCH  13  14
ENDBRANCH  12  13
ENDBRANCH  10  11
ENDBRANCH   1  10
TORSDOF 13
ENDMDL
