MODEL 1
REMARK VINA RESULT:    -4.009      0.000      0.000
REMARK INTER + INTRA:          -5.384
REMARK INTER:                  -5.181
REMARK INTRA:                  -0.203
REMARK UNBOUND:                -0.203
REMARK SMILES CCCCCCC(=O)[O-]
REMARK SMILES IDX 5 1 6 2 7 3 8 4 9 5 4 6 3 7 2 8 1 9
REMARK H PARENT
REMARK Flexibility Score: inf
ROOT
ATOM      1  C   UNL     1       9.418  11.680   6.390  1.00  0.00     0.006 C 
ENDROOT
BRANCH   1   2
ATOM      2  C   UNL     1       8.787  11.855   7.781  1.00  0.00     0.053 C 
BRANCH   2   3
ATOM      3  C   UNL     1       7.298  11.701   7.743  1.00  0.00     0.041 C 
ATOM      4  O   UNL     1       6.691  11.171   8.712  1.00  0.00    -0.550 OA
ATOM      5  O   UNL     1       6.583  12.111   6.625  1.00  0.00    -0.550 OA
ENDBRANCH   2   3
ENDBRANCH   1   2
BRANCH   1   6
ATOM      6  C   UNL     1       9.782  10.226   6.029  1.00  0.00     0.000 C 
BRANCH   6   7
ATOM      7  C   UNL     1      10.634  10.063   4.758  1.00  0.00    -0.000 C 
BRANCH   7   8
ATOM      8  C   UNL     1      10.955  11.401   4.078  1.00  0.00    -0.003 C 
ATOM      9  C   UNL     1      12.453  11.692   4.119  1.00  0.00     0.004 C 
ENDBRANCH   7   8
ENDBRANCH   6   7
ENDBRANCH   1   6
TORSDOF 5
ENDMDL
MODEL 2
REMARK VINA RESULT:    -3.990      5.599      7.354
REMARK INTER + INTRA:          -5.359
REMARK INTER:                  -5.273
REMARK INTRA:                  -0.086
REMARK UNBOUND:                -0.203
REMARK SMILES CCCCCCC(=O)[O-]
REMARK SMILES IDX 5 1 6 2 7 3 8 4 9 5 4 6 3 7 2 8 1 9
REMARK H PARENT
REMARK Flexibility Score: inf
ROOT
ATOM      1  C   UNL     1      13.888  13.028   3.771  1.00  0.00     0.006 C 
ENDROOT
BRANCH   1   2
ATOM      2  C   UNL     1      15.239  13.465   4.358  1.00  0.00     0.053 C 
BRANCH   2   3
ATOM      3  C   UNL     1      16.336  13.408   3.341  1.00  0.00     0.041 C 
ATOM      4  O   UNL     1      16.119  12.918   2.201  1.00  0.00    -0.550 OA
ATOM      5  O   UNL     1      17.608  13.865   3.662  1.00  0.00    -0.550 OA
ENDBRANCH   2   3
ENDBRANCH   1   2
BRANCH   1   6
ATOM      6  C   UNL     1      13.130  11.984   4.616  1.00  0.00     0.000 C 
BRANCH   6   7
ATOM      7  C   UNL     1      11.844  11.435   3.974  1.00  0.00    -0.000 C 
BRANCH   7   8
ATOM      8  C   UNL     1      10.673  11.346   4.964  1.00  0.00    -0.003 C 
ATOM      9  C   UNL     1      10.219   9.900   5.149  1.00  0.00     0.004 C 
ENDBRANCH   7   8
ENDBRANCH   6   7
ENDBRANCH   1   6
TORSDOF 5
ENDMDL
MODEL 3
REMARK VINA RESULT:    -3.906      5.468      7.461
REMARK INTER + INTRA:          -5.251
REMARK INTER:                  -5.086
REMARK INTRA:                  -0.165
REMARK UNBOUND:                -0.203
REMARK SMILES CCCCCCC(=O)[O-]
REMARK SMILES IDX 5 1 6 2 7 3 8 4 9 5 4 6 3 7 2 8 1 9
REMARK H PARENT
REMARK Flexibility Score: inf
ROOT
ATOM      1  C   UNL     1      14.122  13.897   2.583  1.00  0.00     0.006 C 
ENDROOT
BRANCH   1   2
ATOM      2  C   UNL     1      15.476  13.180   2.462  1.00  0.00     0.053 C 
BRANCH   2   3
ATOM      3  C   UNL     1      16.332  13.393   3.671  1.00  0.00     0.041 C 
ATOM      4  O   UNL     1      17.537  13.736   3.542  1.00  0.00    -0.550 OA
ATOM      5  O   UNL     1      15.811  13.178   4.941  1.00  0.00    -0.550 OA
ENDBRANCH   2   3
ENDBRANCH   1   2
BRANCH   1   6
ATOM      6  C   UNL     1      12.894  12.969   2.480  1.00  0.00     0.000 C 
BRANCH   6   7
ATOM      7  C   UNL     1      12.665  12.052   3.694  1.00  0.00    -0.000 C 
BRANCH   7   8
ATOM      8  C   UNL     1      11.190  11.976   4.115  1.00  0.00    -0.003 C 
ATOM      9  C   UNL     1      10.825  10.570   4.583  1.00  0.00     0.004 C 
ENDBRANCH   7   8
ENDBRANCH   6   7
ENDBRANCH   1   6
TORSDOF 5
ENDMDL
MODEL 4
REMARK VINA RESULT:    -3.872      1.156      1.681
REMARK INTER + INTRA:          -5.207
REMARK INTER:                  -4.996
REMARK INTRA:                  -0.210
REMARK UNBOUND:                -0.203
REMARK SMILES CCCCCCC(=O)[O-]
REMARK SMILES IDX 5 1 6 2 7 3 8 4 9 5 4 6 3 7 2 8 1 9
REMARK H PARENT
REMARK Flexibility Score: inf
ROOT
ATOM      1  C   UNL     1       9.596  10.288   5.536  1.00  0.00     0.006 C 
ENDROOT
BRANCH   1   2
ATOM      2  C   UNL     1       8.452  11.297   5.353  1.00  0.00     0.053 C 
BRANCH   2   3
ATOM      3  C   UNL     1       7.862  11.720   6.662  1.00  0.00     0.041 C 
ATOM      4  O   UNL     1       8.557  11.681   7.712  1.00  0.00    -0.550 OA
ATOM      5  O   UNL     1       6.535  12.125   6.730  1.00  0.00    -0.550 OA
ENDBRANCH   2   3
ENDBRANCH   1   2
BRANCH   1   6
ATOM      6  C   UNL     1      10.866  10.604   4.719  1.00  0.00     0.000 C 
BRANCH   6   7
ATOM      7  C   UNL     1      10.693  11.684   3.636  1.00  0.00    -0.000 C 
BRANCH   7   8
ATOM      8  C   UNL     1      11.983  12.471   3.365  1.00  0.00    -0.003 C 
ATOM      9  C   UNL     1      13.146  11.918   4.184  1.00  0.00     0.004 C 
ENDBRANCH   7   8
ENDBRANCH   6   7
ENDBRANCH   1   6
TORSDOF 5
ENDMDL
MODEL 5
REMARK VINA RESULT:    -3.778      3.740      5.288
REMARK INTER + INTRA:          -5.085
REMARK INTER:                  -4.818
REMARK INTRA:                  -0.267
REMARK UNBOUND:                -0.203
REMARK SMILES CCCCCCC(=O)[O-]
REMARK SMILES IDX 5 1 6 2 7 3 8 4 9 5 4 6 3 7 2 8 1 9
REMARK H PARENT
REMARK Flexibility Score: inf
ROOT
ATOM      1  C   UNL     1      11.823  12.564   3.681  1.00  0.00     0.006 C 
ENDROOT
BRANCH   1   2
ATOM      2  C   UNL     1      13.193  11.998   4.087  1.00  0.00     0.053 C 
BRANCH   2   3
ATOM      3  C   UNL     1      13.760  12.705   5.278  1.00  0.00     0.041 C 
ATOM      4  O   UNL     1      12.994  13.240   6.122  1.00  0.00    -0.550 OA
ATOM      5  O   UNL     1      15.137  12.803   5.439  1.00  0.00    -0.550 OA
ENDBRANCH   2   3
ENDBRANCH   1   2
BRANCH   1   6
ATOM      6  C   UNL     1      10.661  11.555   3.770  1.00  0.00     0.000 C 
BRANCH   6   7
ATOM      7  C   UNL     1      10.915  10.347   4.690  1.00  0.00    -0.000 C 
BRANCH   7   8
ATOM      8  C   UNL     1       9.822  10.165   5.754  1.00  0.00    -0.003 C 
ATOM      9  C   UNL     1       8.655  11.118   5.510  1.00  0.00     0.004 C 
ENDBRANCH   7   8
ENDBRANCH   6   7
ENDBRANCH   1   6
TORSDOF 5
ENDMDL
MODEL 6
REMARK VINA RESULT:    -3.770      5.034      6.756
REMARK INTER + INTRA:          -5.075
REMARK INTER:                  -4.991
REMARK INTRA:                  -0.084
REMARK UNBOUND:                -0.203
REMARK SMILES CCCCCCC(=O)[O-]
REMARK SMILES IDX 5 1 6 2 7 3 8 4 9 5 4 6 3 7 2 8 1 9
REMARK H PARENT
REMARK Flexibility Score: inf
ROOT
ATOM      1  C   UNL     1      12.752  12.447   3.326  1.00  0.00     0.006 C 
ENDROOT
BRANCH   1   2
ATOM      2  C   UNL     1      14.178  12.914   3.656  1.00  0.00     0.053 C 
BRANCH   2   3
ATOM      3  C   UNL     1      14.962  13.234   2.421  1.00  0.00     0.041 C 
ATOM      4  O   UNL     1      16.220  13.166   2.433  1.00  0.00    -0.550 OA
ATOM      5  O   UNL     1      14.307  13.642   1.266  1.00  0.00    -0.550 OA
ENDBRANCH   2   3
ENDBRANCH   1   2
BRANCH   1   6
ATOM      6  C   UNL     1      12.101  11.563   4.409  1.00  0.00     0.000 C 
BRANCH   6   7
ATOM      7  C   UNL     1      10.732  10.970   4.030  1.00  0.00    -0.000 C 
BRANCH   7   8
ATOM      8  C   UNL     1      10.275   9.862   4.991  1.00  0.00    -0.003 C 
ATOM      9  C   UNL     1       9.841  10.443   6.333  1.00  0.00     0.004 C 
ENDBRANCH   7   8
ENDBRANCH   6   7
ENDBRANCH   1   6
TORSDOF 5
ENDMDL
MODEL 7
REMARK VINA RESULT:    -3.760      7.619      9.004
REMARK INTER + INTRA:          -5.062
REMARK INTER:                  -4.892
REMARK INTRA:                  -0.170
REMARK UNBOUND:                -0.203
REMARK SMILES CCCCCCC(=O)[O-]
REMARK SMILES IDX 5 1 6 2 7 3 8 4 9 5 4 6 3 7 2 8 1 9
REMARK H PARENT
REMARK Flexibility Score: inf
ROOT
ATOM      1  C   UNL     1      14.334  14.073   2.146  1.00  0.00     0.006 C 
ENDROOT
BRANCH   1   2
ATOM      2  C   UNL     1      15.523  13.116   2.324  1.00  0.00     0.053 C 
BRANCH   2   3
ATOM      3  C   UNL     1      16.357  13.474   3.515  1.00  0.00     0.041 C 
ATOM      4  O   UNL     1      15.915  13.281   4.678  1.00  0.00    -0.550 OA
ATOM      5  O   UNL     1      17.608  14.052   3.341  1.00  0.00    -0.550 OA
ENDBRANCH   2   3
ENDBRANCH   1   2
BRANCH   1   6
ATOM      6  C   UNL     1      14.659  15.360   1.362  1.00  0.00     0.000 C 
BRANCH   6   7
ATOM      7  C   UNL     1      13.873  15.541   0.051  1.00  0.00    -0.000 C 
BRANCH   7   8
ATOM      8  C   UNL     1      14.684  16.258  -1.038  1.00  0.00    -0.003 C 
ATOM      9  C   UNL     1      15.694  17.224  -0.425  1.00  0.00     0.004 C 
ENDBRANCH   7   8
ENDBRANCH   6   7
ENDBRANCH   1   6
TORSDOF 5
ENDMDL
MODEL 8
REMARK VINA RESULT:    -3.713      3.108      4.256
REMARK INTER + INTRA:          -5.001
REMARK INTER:                  -4.614
REMARK INTRA:                  -0.387
REMARK UNBOUND:                -0.203
REMARK SMILES CCCCCCC(=O)[O-]
REMARK SMILES IDX 5 1 6 2 7 3 8 4 9 5 4 6 3 7 2 8 1 9
REMARK H PARENT
REMARK Flexibility Score: inf
ROOT
ATOM      1  C   UNL     1      12.656  12.009   4.688  1.00  0.00     0.006 C 
ENDROOT
BRANCH   1   2
ATOM      2  C   UNL     1      12.435  13.457   5.155  1.00  0.00     0.053 C 
BRANCH   2   3
ATOM      3  C   UNL     1      12.122  13.532   6.617  1.00  0.00     0.041 C 
ATOM      4  O   UNL     1      10.963  13.265   7.032  1.00  0.00    -0.550 OA
ATOM      5  O   UNL     1      13.100  13.931   7.519  1.00  0.00    -0.550 OA
ENDBRANCH   2   3
ENDBRANCH   1   2
BRANCH   1   6
ATOM      6  C   UNL     1      11.428  11.356   4.023  1.00  0.00     0.000 C 
BRANCH   6   7
ATOM      7  C   UNL     1      10.754  10.245   4.846  1.00  0.00    -0.000 C 
BRANCH   7   8
ATOM      8  C   UNL     1       9.358  10.639   5.352  1.00  0.00    -0.003 C 
ATOM      9  C   UNL     1       8.731  11.704   4.459  1.00  0.00     0.004 C 
ENDBRANCH   7   8
ENDBRANCH   6   7
ENDBRANCH   1   6
TORSDOF 5
ENDMDL
MODEL 9
REMARK VINA RESULT:    -3.688      7.135      8.262
REMARK INTER + INTRA:          -4.969
REMARK INTER:                  -4.600
REMARK INTRA:                  -0.369
REMARK UNBOUND:                -0.203
REMARK SMILES CCCCCCC(=O)[O-]
REMARK SMILES IDX 5 1 6 2 7 3 8 4 9 5 4 6 3 7 2 8 1 9
REMARK H PARENT
REMARK Flexibility Score: inf
ROOT
ATOM      1  C   UNL     1      14.225  12.939   3.176  1.00  0.00     0.006 C 
ENDROOT
BRANCH   1   2
ATOM      2  C   UNL     1      15.585  13.084   2.475  1.00  0.00     0.053 C 
BRANCH   2   3
ATOM      3  C   UNL     1      16.457  14.097   3.149  1.00  0.00     0.041 C 
ATOM      4  O   UNL     1      17.627  13.793   3.501  1.00  0.00    -0.550 OA
ATOM      5  O   UNL     1      15.966  15.369   3.419  1.00  0.00    -0.550 OA
ENDBRANCH   2   3
ENDBRANCH   1   2
BRANCH   1   6
ATOM      6  C   UNL     1      13.005  13.149   2.256  1.00  0.00     0.000 C 
BRANCH   6   7
ATOM      7  C   UNL     1      12.704  14.615   1.897  1.00  0.00    -0.000 C 
BRANCH   7   8
ATOM      8  C   UNL     1      12.819  14.898   0.392  1.00  0.00    -0.003 C 
ATOM      9  C   UNL     1      14.142  15.582   0.061  1.00  0.00     0.004 C 
ENDBRANCH   7   8
ENDBRANCH   6   7
ENDBRANCH   1   6
TORSDOF 5
ENDMDL
