MODEL 1
REMARK VINA RESULT:    76.732      0.000      0.000
REMARK INTER + INTRA:          84.929
REMARK INTER:                  83.461
REMARK INTRA:                   1.468
REMARK UNBOUND:                 1.468
REMARK SMILES C[C@H]1[C@H](C)CC[C@@]2(C(=O)[O-])CC[C@]3(C)C(=CC[C@H]4[C@]5(C)CC[C@H](O)C(C)(C)[C@H]5CC[C@]43C)[C@H]12
REMARK SMILES IDX 7 1 6 2 11 3 33 4 5 5 12 6 15 7 2 8 3 9 13 10 16 11 1 12
REMARK SMILES IDX 4 13 14 14 31 15 17 16 18 17 30 18 32 19 19 20 29 21 28 22
REMARK SMILES IDX 21 23 20 24 25 25 22 26 23 27 26 28 27 29 8 30 9 31 10 32
REMARK SMILES IDX 24 33
REMARK H PARENT 24 34
REMARK Flexibility Score: inf
ROOT
ATOM      1  C   UNL     1      57.270   9.720  52.313  1.00  0.00     0.017 C 
ATOM      2  C   UNL     1      56.022   8.884  52.690  1.00  0.00     0.014 C 
ATOM      3  C   UNL     1      58.576   8.911  52.536  1.00  0.00     0.014 C 
ATOM      4  C   UNL     1      57.186   9.971  50.765  1.00  0.00     0.030 C 
ATOM      5  C   UNL     1      54.723   9.639  52.330  1.00  0.00     0.004 C 
ATOM      6  C   UNL     1      59.861   9.702  52.133  1.00  0.00     0.013 C 
ATOM      7  C   UNL     1      58.554  10.255  50.095  1.00  0.00    -0.063 C 
ATOM      8  C   UNL     1      55.948  10.815  50.338  1.00  0.00    -0.003 C 
ATOM      9  C   UNL     1      54.647  10.094  50.846  1.00  0.00    -0.011 C 
ATOM     10  C   UNL     1      59.728  10.753  50.940  1.00  0.00    -0.006 C 
ATOM     11  C   UNL     1      58.781   9.607  48.939  1.00  0.00    -0.027 C 
ATOM     12  C   UNL     1      55.894  11.019  48.812  1.00  0.00     0.008 C 
ATOM     13  C   UNL     1      53.395  10.970  50.656  1.00  0.00     0.008 C 
ATOM     14  C   UNL     1      59.352  12.166  51.523  1.00  0.00     0.017 C 
ATOM     15  C   UNL     1      61.123  10.891  50.108  1.00  0.00    -0.020 C 
ATOM     16  C   UNL     1      60.108   9.410  48.301  1.00  0.00     0.032 C 
ATOM     17  C   UNL     1      61.372   9.613  49.200  1.00  0.00     0.006 C 
ATOM     18  C   UNL     1      61.126  12.144  49.129  1.00  0.00     0.008 C 
ATOM     19  C   UNL     1      62.242  11.073  51.203  1.00  0.00     0.012 C 
ATOM     20  C   UNL     1      62.733   9.630  48.311  1.00  0.00    -0.025 C 
ATOM     21  C   UNL     1      62.047  12.060  47.868  1.00  0.00     0.005 C 
ATOM     22  C   UNL     1      63.230  11.104  48.102  1.00  0.00     0.003 C 
ATOM     23  C   UNL     1      63.894   8.877  49.027  1.00  0.00     0.010 C 
ATOM     24  C   UNL     1      62.491   8.876  46.957  1.00  0.00     0.012 C 
ATOM     25  C   UNL     1      64.559  11.306  47.277  1.00  0.00    -0.006 C 
ATOM     26  C   UNL     1      65.248   8.976  48.277  1.00  0.00     0.033 C 
ATOM     27  C   UNL     1      65.684  10.427  47.947  1.00  0.00     0.120 C 
ATOM     28  C   UNL     1      64.421  10.978  45.765  1.00  0.00     0.014 C 
ATOM     29  C   UNL     1      65.009  12.798  47.358  1.00  0.00     0.014 C 
ENDROOT
BRANCH   1  30
ATOM     30  C   UNL     1      57.270  10.928  53.258  1.00  0.00     0.048 C 
ATOM     31  O   UNL     1      58.287  11.167  53.965  1.00  0.00    -0.550 OA
ATOM     32  O   UNL     1      56.143  11.710  53.466  1.00  0.00    -0.550 OA
ENDBRANCH   1  30
BRANCH  27  33
ATOM     33  O   UNL     1      66.124  11.035  49.141  1.00  0.00    -0.393 OA
ATOM     34  H   UNL     1      66.962  10.575  49.412  1.00  0.00     0.210 HD
ENDBRANCH  27  33
TORSDOF 2
ENDMDL
