MODEL 1
REMARK VINA RESULT:    -7.894      0.000      0.000
REMARK INTER + INTRA:         -12.649
REMARK INTER:                 -11.355
REMARK INTRA:                  -1.294
REMARK UNBOUND:                -1.294
REMARK SMILES O=c1c(O[C@@H]2O[C@H](CO)[C@H](O)[C@@H](O)[C@H]2O)c(-c2ccc(O)cc2)oc2cc(O)cc(O)c12
REMARK SMILES IDX 4 1 3 2 16 3 24 4 2 5 25 6 1 7 32 8 26 9 30 10 27 11 29 12
REMARK SMILES IDX 17 13 18 14 19 15 20 16 23 17 22 18 21 19 31 21 28 23 5 25
REMARK SMILES IDX 14 26 6 27 12 28 7 29 10 30 15 31 13 33 8 35 9 36 11 38
REMARK H PARENT 21 20 31 22 28 24 15 32 13 34 9 37 11 39
REMARK Flexibility Score: inf
ROOT
ATOM      1  O   UNL     1     -37.661   5.323  82.100  1.00  0.00    -0.454 OA
ENDROOT
BRANCH   1   2
ATOM      2  C   UNL     1     -38.463   4.856  81.041  1.00  0.00     0.214 A 
ATOM      3  C   UNL     1     -37.916   4.830  79.742  1.00  0.00     0.180 A 
ATOM      4  O   UNL     1     -38.627   4.352  78.726  1.00  0.00    -0.452 OA
ATOM      5  C   UNL     1     -39.785   4.393  81.219  1.00  0.00     0.239 A 
ATOM      6  C   UNL     1     -39.867   3.900  78.852  1.00  0.00     0.146 A 
ATOM      7  O   UNL     1     -40.320   4.428  82.359  1.00  0.00    -0.285 OA
ATOM      8  C   UNL     1     -40.509   3.903  80.111  1.00  0.00     0.111 A 
ATOM      9  C   UNL     1     -40.535   3.422  77.721  1.00  0.00     0.094 A 
ATOM     10  C   UNL     1     -41.836   3.416  80.208  1.00  0.00     0.134 A 
ATOM     11  C   UNL     1     -41.844   2.943  77.822  1.00  0.00     0.123 A 
ATOM     12  C   UNL     1     -42.490   2.942  79.060  1.00  0.00     0.093 A 
BRANCH   3  13
ATOM     13  C   UNL     1     -36.533   5.280  79.466  1.00  0.00     0.021 A 
ATOM     14  C   UNL     1     -36.287   6.639  79.213  1.00  0.00     0.016 A 
ATOM     15  C   UNL     1     -34.988   7.087  78.954  1.00  0.00     0.047 A 
ATOM     16  C   UNL     1     -33.918   6.182  78.959  1.00  0.00     0.115 A 
ATOM     17  C   UNL     1     -35.452   4.383  79.492  1.00  0.00     0.016 A 
ATOM     18  C   UNL     1     -34.153   4.832  79.231  1.00  0.00     0.047 A 
BRANCH  16  19
ATOM     19  O   UNL     1     -32.620   6.616  78.700  1.00  0.00    -0.508 OA
ATOM     20  H   UNL     1     -32.354   6.976  77.790  1.00  0.00     0.293 HD
ENDBRANCH  16  19
ENDBRANCH   3  13
BRANCH  10  21
ATOM     21  O   UNL     1     -42.510   3.399  81.430  1.00  0.00    -0.507 OA
ATOM     22  H   UNL     1     -43.079   2.611  81.715  1.00  0.00     0.293 HD
ENDBRANCH  10  21
BRANCH  11  23
ATOM     23  O   UNL     1     -42.514   2.466  76.698  1.00  0.00    -0.508 OA
ATOM     24  H   UNL     1     -43.313   2.954  76.310  1.00  0.00     0.293 HD
ENDBRANCH  11  23
ENDBRANCH   1   2
BRANCH   1  25
ATOM     25  C   UNL     1     -37.402   4.642  83.330  1.00  0.00     0.339 C 
ATOM     26  C   UNL     1     -36.266   3.619  83.131  1.00  0.00     0.214 C 
ATOM     27  O   UNL     1     -37.140   5.546  84.399  1.00  0.00    -0.332 OA
ATOM     28  C   UNL     1     -34.916   4.334  82.958  1.00  0.00     0.180 C 
ATOM     29  C   UNL     1     -35.919   6.270  84.278  1.00  0.00     0.179 C 
ATOM     30  C   UNL     1     -34.686   5.349  84.094  1.00  0.00     0.177 C 
BRANCH  26  31
ATOM     31  O   UNL     1     -36.233   2.683  84.183  1.00  0.00    -0.384 OA
ATOM     32  H   UNL     1     -35.291   2.402  84.320  1.00  0.00     0.211 HD
ENDBRANCH  26  31
BRANCH  28  33
ATOM     33  O   UNL     1     -33.860   3.408  82.871  1.00  0.00    -0.387 OA
ATOM     34  H   UNL     1     -34.102   2.730  82.187  1.00  0.00     0.211 HD
ENDBRANCH  28  33
BRANCH  29  35
ATOM     35  C   UNL     1     -36.025   7.417  83.246  1.00  0.00     0.191 C 
BRANCH  35  36
ATOM     36  O   UNL     1     -37.267   8.064  83.345  1.00  0.00    -0.394 OA
ATOM     37  H   UNL     1     -37.883   7.597  82.723  1.00  0.00     0.210 HD
ENDBRANCH  35  36
ENDBRANCH  29  35
BRANCH  30  38
ATOM     38  O   UNL     1     -33.540   6.119  83.832  1.00  0.00    -0.387 OA
ATOM     39  H   UNL     1     -33.840   6.931  83.345  1.00  0.00     0.211 HD
ENDBRANCH  30  38
ENDBRANCH   1  25
TORSDOF 11
ENDMDL
MODEL 2
REMARK VINA RESULT:    -7.063      1.924      6.084
REMARK INTER + INTRA:         -11.454
REMARK INTER:                  -9.905
REMARK INTRA:                  -1.548
REMARK UNBOUND:                -1.294
REMARK SMILES O=c1c(O[C@@H]2O[C@H](CO)[C@H](O)[C@@H](O)[C@H]2O)c(-c2ccc(O)cc2)oc2cc(O)cc(O)c12
REMARK SMILES IDX 4 1 3 2 16 3 24 4 2 5 25 6 1 7 32 8 26 9 30 10 27 11 29 12
REMARK SMILES IDX 17 13 18 14 19 15 20 16 23 17 22 18 21 19 31 21 28 23 5 25
REMARK SMILES IDX 14 26 6 27 12 28 7 29 10 30 15 31 13 33 8 35 9 36 11 38
REMARK H PARENT 21 20 31 22 28 24 15 32 13 34 9 37 11 39
REMARK Flexibility Score: inf
ROOT
ATOM      1  O   UNL     1     -37.752   4.033  81.485  1.00  0.00    -0.454 OA
ENDROOT
BRANCH   1   2
ATOM      2  C   UNL     1     -37.085   4.849  80.550  1.00  0.00     0.214 A 
ATOM      3  C   UNL     1     -37.617   4.959  79.250  1.00  0.00     0.180 A 
ATOM      4  O   UNL     1     -37.040   5.756  78.356  1.00  0.00    -0.452 OA
ATOM      5  C   UNL     1     -35.917   5.579  80.859  1.00  0.00     0.239 A 
ATOM      6  C   UNL     1     -35.948   6.464  78.608  1.00  0.00     0.146 A 
ATOM      7  O   UNL     1     -35.393   5.484  82.000  1.00  0.00    -0.285 OA
ATOM      8  C   UNL     1     -35.330   6.406  79.877  1.00  0.00     0.111 A 
ATOM      9  C   UNL     1     -35.413   7.271  77.598  1.00  0.00     0.094 A 
ATOM     10  C   UNL     1     -34.162   7.174  80.109  1.00  0.00     0.134 A 
ATOM     11  C   UNL     1     -34.260   8.026  77.833  1.00  0.00     0.123 A 
ATOM     12  C   UNL     1     -33.639   7.975  79.083  1.00  0.00     0.093 A 
BRANCH   3  13
ATOM     13  C   UNL     1     -38.847   4.243  78.844  1.00  0.00     0.021 A 
ATOM     14  C   UNL     1     -40.076   4.923  78.849  1.00  0.00     0.016 A 
ATOM     15  C   UNL     1     -41.249   4.267  78.465  1.00  0.00     0.047 A 
ATOM     16  C   UNL     1     -41.205   2.927  78.058  1.00  0.00     0.115 A 
ATOM     17  C   UNL     1     -38.808   2.906  78.412  1.00  0.00     0.016 A 
ATOM     18  C   UNL     1     -39.983   2.251  78.030  1.00  0.00     0.047 A 
BRANCH  16  19
ATOM     19  O   UNL     1     -42.369   2.263  77.676  1.00  0.00    -0.508 OA
ATOM     20  H   UNL     1     -43.038   1.932  78.361  1.00  0.00     0.293 HD
ENDBRANCH  16  19
ENDBRANCH   3  13
BRANCH  10  21
ATOM     21  O   UNL     1     -33.517   7.148  81.346  1.00  0.00    -0.507 OA
ATOM     22  H   UNL     1     -32.584   6.768  81.455  1.00  0.00     0.293 HD
ENDBRANCH  10  21
BRANCH  11  23
ATOM     23  O   UNL     1     -33.723   8.830  76.831  1.00  0.00    -0.508 OA
ATOM     24  H   UNL     1     -33.913   8.654  75.851  1.00  0.00     0.293 HD
ENDBRANCH  11  23
ENDBRANCH   1   2
BRANCH   1  25
ATOM     25  C   UNL     1     -38.761   4.453  82.407  1.00  0.00     0.339 C 
ATOM     26  C   UNL     1     -39.943   3.465  82.374  1.00  0.00     0.214 C 
ATOM     27  O   UNL     1     -38.241   4.638  83.720  1.00  0.00    -0.332 OA
ATOM     28  C   UNL     1     -39.552   2.130  83.030  1.00  0.00     0.180 C 
ATOM     29  C   UNL     1     -37.824   3.440  84.368  1.00  0.00     0.179 C 
ATOM     30  C   UNL     1     -38.938   2.364  84.423  1.00  0.00     0.177 C 
BRANCH  26  31
ATOM     31  O   UNL     1     -41.092   4.024  82.967  1.00  0.00    -0.384 OA
ATOM     32  H   UNL     1     -40.946   5.001  83.067  1.00  0.00     0.211 HD
ENDBRANCH  26  31
BRANCH  28  33
ATOM     33  O   UNL     1     -40.653   1.255  83.090  1.00  0.00    -0.387 OA
ATOM     34  H   UNL     1     -41.324   1.559  82.425  1.00  0.00     0.211 HD
ENDBRANCH  28  33
BRANCH  29  35
ATOM     35  C   UNL     1     -36.465   2.934  83.832  1.00  0.00     0.191 C 
BRANCH  35  36
ATOM     36  O   UNL     1     -35.406   3.675  84.378  1.00  0.00    -0.394 OA
ATOM     37  H   UNL     1     -35.812   4.428  84.880  1.00  0.00     0.210 HD
ENDBRANCH  35  36
ENDBRANCH  29  35
BRANCH  30  38
ATOM     38  O   UNL     1     -38.426   1.161  84.936  1.00  0.00    -0.387 OA
ATOM     39  H   UNL     1     -38.731   1.094  85.880  1.00  0.00     0.211 HD
ENDBRANCH  30  38
ENDBRANCH   1  25
TORSDOF 11
ENDMDL
MODEL 3
REMARK VINA RESULT:    -6.447      1.663      2.977
REMARK INTER + INTRA:         -10.567
REMARK INTER:                  -9.867
REMARK INTRA:                  -0.701
REMARK UNBOUND:                -1.294
REMARK SMILES O=c1c(O[C@@H]2O[C@H](CO)[C@H](O)[C@@H](O)[C@H]2O)c(-c2ccc(O)cc2)oc2cc(O)cc(O)c12
REMARK SMILES IDX 4 1 3 2 16 3 24 4 2 5 25 6 1 7 32 8 26 9 30 10 27 11 29 12
REMARK SMILES IDX 17 13 18 14 19 15 20 16 23 17 22 18 21 19 31 21 28 23 5 25
REMARK SMILES IDX 14 26 6 27 12 28 7 29 10 30 15 31 13 33 8 35 9 36 11 38
REMARK H PARENT 21 20 31 22 28 24 15 32 13 34 9 37 11 39
REMARK Flexibility Score: inf
ROOT
ATOM      1  O   UNL     1     -37.821   5.588  81.832  1.00  0.00    -0.454 OA
ENDROOT
BRANCH   1   2
ATOM      2  C   UNL     1     -38.617   5.024  80.815  1.00  0.00     0.214 A 
ATOM      3  C   UNL     1     -38.059   4.871  79.530  1.00  0.00     0.180 A 
ATOM      4  O   UNL     1     -38.765   4.300  78.559  1.00  0.00    -0.452 OA
ATOM      5  C   UNL     1     -39.942   4.586  81.026  1.00  0.00     0.239 A 
ATOM      6  C   UNL     1     -40.008   3.868  78.717  1.00  0.00     0.146 A 
ATOM      7  O   UNL     1     -40.487   4.734  82.152  1.00  0.00    -0.285 OA
ATOM      8  C   UNL     1     -40.660   3.995  79.964  1.00  0.00     0.111 A 
ATOM      9  C   UNL     1     -40.669   3.286  77.631  1.00  0.00     0.094 A 
ATOM     10  C   UNL     1     -41.991   3.526  80.096  1.00  0.00     0.134 A 
ATOM     11  C   UNL     1     -41.982   2.825  77.767  1.00  0.00     0.123 A 
ATOM     12  C   UNL     1     -42.637   2.947  78.994  1.00  0.00     0.093 A 
BRANCH   3  13
ATOM     13  C   UNL     1     -36.672   5.286  79.223  1.00  0.00     0.021 A 
ATOM     14  C   UNL     1     -35.600   4.509  79.691  1.00  0.00     0.016 A 
ATOM     15  C   UNL     1     -34.282   4.880  79.409  1.00  0.00     0.047 A 
ATOM     16  C   UNL     1     -34.021   6.024  78.644  1.00  0.00     0.115 A 
ATOM     17  C   UNL     1     -36.404   6.419  78.438  1.00  0.00     0.016 A 
ATOM     18  C   UNL     1     -35.084   6.790  78.158  1.00  0.00     0.047 A 
BRANCH  16  19
ATOM     19  O   UNL     1     -32.711   6.406  78.360  1.00  0.00    -0.508 OA
ATOM     20  H   UNL     1     -32.006   6.456  79.085  1.00  0.00     0.293 HD
ENDBRANCH  16  19
ENDBRANCH   3  13
BRANCH  10  21
ATOM     21  O   UNL     1     -42.675   3.630  81.308  1.00  0.00    -0.507 OA
ATOM     22  H   UNL     1     -43.452   3.022  81.536  1.00  0.00     0.293 HD
ENDBRANCH  10  21
BRANCH  11  23
ATOM     23  O   UNL     1     -42.646   2.245  76.688  1.00  0.00    -0.508 OA
ATOM     24  H   UNL     1     -43.474   1.677  76.819  1.00  0.00     0.293 HD
ENDBRANCH  11  23
ENDBRANCH   1   2
BRANCH   1  25
ATOM     25  C   UNL     1     -37.034   6.776  81.730  1.00  0.00     0.339 C 
ATOM     26  C   UNL     1     -37.949   7.989  81.469  1.00  0.00     0.214 C 
ATOM     27  O   UNL     1     -36.194   6.961  82.865  1.00  0.00    -0.332 OA
ATOM     28  C   UNL     1     -38.758   8.338  82.729  1.00  0.00     0.180 C 
ATOM     29  C   UNL     1     -36.887   7.250  84.076  1.00  0.00     0.179 C 
ATOM     30  C   UNL     1     -37.832   8.473  83.953  1.00  0.00     0.177 C 
BRANCH  26  31
ATOM     31  O   UNL     1     -37.212   9.092  80.996  1.00  0.00    -0.384 OA
ATOM     32  H   UNL     1     -36.248   8.857  81.023  1.00  0.00     0.211 HD
ENDBRANCH  26  31
BRANCH  28  33
ATOM     33  O   UNL     1     -39.526   9.501  82.531  1.00  0.00    -0.387 OA
ATOM     34  H   UNL     1     -39.203  10.194  83.163  1.00  0.00     0.211 HD
ENDBRANCH  28  33
BRANCH  29  35
ATOM     35  C   UNL     1     -37.542   5.989  84.684  1.00  0.00     0.191 C 
BRANCH  35  36
ATOM     36  O   UNL     1     -38.924   5.978  84.440  1.00  0.00    -0.394 OA
ATOM     37  H   UNL     1     -39.044   6.118  83.465  1.00  0.00     0.210 HD
ENDBRANCH  35  36
ENDBRANCH  29  35
BRANCH  30  38
ATOM     38  O   UNL     1     -38.594   8.617  85.125  1.00  0.00    -0.387 OA
ATOM     39  H   UNL     1     -38.093   8.165  85.855  1.00  0.00     0.211 HD
ENDBRANCH  30  38
ENDBRANCH   1  25
TORSDOF 11
ENDMDL
MODEL 4
REMARK VINA RESULT:    -6.305      2.746      5.080
REMARK INTER + INTRA:         -10.363
REMARK INTER:                  -8.861
REMARK INTRA:                  -1.502
REMARK UNBOUND:                -1.294
REMARK SMILES O=c1c(O[C@@H]2O[C@H](CO)[C@H](O)[C@@H](O)[C@H]2O)c(-c2ccc(O)cc2)oc2cc(O)cc(O)c12
REMARK SMILES IDX 4 1 3 2 16 3 24 4 2 5 25 6 1 7 32 8 26 9 30 10 27 11 29 12
REMARK SMILES IDX 17 13 18 14 19 15 20 16 23 17 22 18 21 19 31 21 28 23 5 25
REMARK SMILES IDX 14 26 6 27 12 28 7 29 10 30 15 31 13 33 8 35 9 36 11 38
REMARK H PARENT 21 20 31 22 28 24 15 32 13 34 9 37 11 39
REMARK Flexibility Score: inf
ROOT
ATOM      1  O   UNL     1     -38.803   6.332  79.508  1.00  0.00    -0.454 OA
ENDROOT
BRANCH   1   2
ATOM      2  C   UNL     1     -38.757   5.238  80.394  1.00  0.00     0.214 A 
ATOM      3  C   UNL     1     -37.500   4.699  80.734  1.00  0.00     0.180 A 
ATOM      4  O   UNL     1     -37.416   3.697  81.603  1.00  0.00    -0.452 OA
ATOM      5  C   UNL     1     -39.910   4.667  80.975  1.00  0.00     0.239 A 
ATOM      6  C   UNL     1     -38.473   3.138  82.178  1.00  0.00     0.146 A 
ATOM      7  O   UNL     1     -41.053   5.101  80.673  1.00  0.00    -0.285 OA
ATOM      8  C   UNL     1     -39.777   3.597  81.886  1.00  0.00     0.111 A 
ATOM      9  C   UNL     1     -38.280   2.084  83.076  1.00  0.00     0.094 A 
ATOM     10  C   UNL     1     -40.883   2.973  82.514  1.00  0.00     0.134 A 
ATOM     11  C   UNL     1     -39.375   1.472  83.694  1.00  0.00     0.123 A 
ATOM     12  C   UNL     1     -40.669   1.916  83.412  1.00  0.00     0.093 A 
BRANCH   3  13
ATOM     13  C   UNL     1     -36.239   5.246  80.186  1.00  0.00     0.021 A 
ATOM     14  C   UNL     1     -35.337   5.894  81.045  1.00  0.00     0.016 A 
ATOM     15  C   UNL     1     -34.138   6.414  80.550  1.00  0.00     0.047 A 
ATOM     16  C   UNL     1     -33.820   6.279  79.192  1.00  0.00     0.115 A 
ATOM     17  C   UNL     1     -35.903   5.094  78.831  1.00  0.00     0.016 A 
ATOM     18  C   UNL     1     -34.703   5.616  78.336  1.00  0.00     0.047 A 
BRANCH  16  19
ATOM     19  O   UNL     1     -32.629   6.796  78.687  1.00  0.00    -0.508 OA
ATOM     20  H   UNL     1     -31.942   6.201  78.238  1.00  0.00     0.293 HD
ENDBRANCH  16  19
ENDBRANCH   3  13
BRANCH  10  21
ATOM     21  O   UNL     1     -42.189   3.393  82.257  1.00  0.00    -0.507 OA
ATOM     22  H   UNL     1     -42.967   2.744  82.256  1.00  0.00     0.293 HD
ENDBRANCH  10  21
BRANCH  11  23
ATOM     23  O   UNL     1     -39.189   0.421  84.589  1.00  0.00    -0.508 OA
ATOM     24  H   UNL     1     -39.223  -0.545  84.286  1.00  0.00     0.293 HD
ENDBRANCH  11  23
ENDBRANCH   1   2
BRANCH   1  25
ATOM     25  C   UNL     1     -39.108   7.686  79.849  1.00  0.00     0.339 C 
ATOM     26  C   UNL     1     -37.807   8.453  80.156  1.00  0.00     0.214 C 
ATOM     27  O   UNL     1     -39.896   8.326  78.850  1.00  0.00    -0.332 OA
ATOM     28  C   UNL     1     -37.007   8.701  78.866  1.00  0.00     0.180 C 
ATOM     29  C   UNL     1     -39.222   8.549  77.615  1.00  0.00     0.179 C 
ATOM     30  C   UNL     1     -37.898   9.337  77.783  1.00  0.00     0.177 C 
BRANCH  26  31
ATOM     31  O   UNL     1     -38.073   9.652  80.846  1.00  0.00    -0.384 OA
ATOM     32  H   UNL     1     -39.035   9.867  80.738  1.00  0.00     0.211 HD
ENDBRANCH  26  31
BRANCH  28  33
ATOM     33  O   UNL     1     -35.865   9.483  79.122  1.00  0.00    -0.387 OA
ATOM     34  H   UNL     1     -35.996   9.944  79.991  1.00  0.00     0.211 HD
ENDBRANCH  28  33
BRANCH  29  35
ATOM     35  C   UNL     1     -39.098   7.254  76.780  1.00  0.00     0.191 C 
BRANCH  35  36
ATOM     36  O   UNL     1     -39.190   7.534  75.408  1.00  0.00    -0.394 OA
ATOM     37  H   UNL     1     -40.020   8.063  75.279  1.00  0.00     0.210 HD
ENDBRANCH  35  36
ENDBRANCH  29  35
BRANCH  30  38
ATOM     38  O   UNL     1     -37.209   9.396  76.560  1.00  0.00    -0.387 OA
ATOM     39  H   UNL     1     -36.376   9.912  76.721  1.00  0.00     0.211 HD
ENDBRANCH  30  38
ENDBRANCH   1  25
TORSDOF 11
ENDMDL
MODEL 5
REMARK VINA RESULT:    -6.195      1.838      6.182
REMARK INTER + INTRA:         -10.205
REMARK INTER:                  -9.013
REMARK INTRA:                  -1.193
REMARK UNBOUND:                -1.294
REMARK SMILES O=c1c(O[C@@H]2O[C@H](CO)[C@H](O)[C@@H](O)[C@H]2O)c(-c2ccc(O)cc2)oc2cc(O)cc(O)c12
REMARK SMILES IDX 4 1 3 2 16 3 24 4 2 5 25 6 1 7 32 8 26 9 30 10 27 11 29 12
REMARK SMILES IDX 17 13 18 14 19 15 20 16 23 17 22 18 21 19 31 21 28 23 5 25
REMARK SMILES IDX 14 26 6 27 12 28 7 29 10 30 15 31 13 33 8 35 9 36 11 38
REMARK H PARENT 21 20 31 22 28 24 15 32 13 34 9 37 11 39
REMARK Flexibility Score: inf
ROOT
ATOM      1  O   UNL     1     -36.563   4.172  81.598  1.00  0.00    -0.454 OA
ENDROOT
BRANCH   1   2
ATOM      2  C   UNL     1     -36.338   5.162  80.622  1.00  0.00     0.214 A 
ATOM      3  C   UNL     1     -37.370   5.452  79.705  1.00  0.00     0.180 A 
ATOM      4  O   UNL     1     -37.209   6.412  78.800  1.00  0.00    -0.452 OA
ATOM      5  C   UNL     1     -35.135   5.895  80.528  1.00  0.00     0.239 A 
ATOM      6  C   UNL     1     -36.100   7.128  78.685  1.00  0.00     0.146 A 
ATOM      7  O   UNL     1     -34.179   5.645  81.309  1.00  0.00    -0.285 OA
ATOM      8  C   UNL     1     -35.003   6.899  79.546  1.00  0.00     0.111 A 
ATOM      9  C   UNL     1     -36.027   8.114  77.696  1.00  0.00     0.094 A 
ATOM     10  C   UNL     1     -33.831   7.681  79.391  1.00  0.00     0.134 A 
ATOM     11  C   UNL     1     -34.868   8.882  77.547  1.00  0.00     0.123 A 
ATOM     12  C   UNL     1     -33.777   8.664  78.391  1.00  0.00     0.093 A 
BRANCH   3  13
ATOM     13  C   UNL     1     -38.670   4.745  79.740  1.00  0.00     0.021 A 
ATOM     14  C   UNL     1     -39.658   5.163  80.646  1.00  0.00     0.016 A 
ATOM     15  C   UNL     1     -40.895   4.513  80.693  1.00  0.00     0.047 A 
ATOM     16  C   UNL     1     -41.163   3.447  79.824  1.00  0.00     0.115 A 
ATOM     17  C   UNL     1     -38.954   3.691  78.856  1.00  0.00     0.016 A 
ATOM     18  C   UNL     1     -40.192   3.041  78.906  1.00  0.00     0.047 A 
BRANCH  16  19
ATOM     19  O   UNL     1     -42.391   2.790  79.864  1.00  0.00    -0.508 OA
ATOM     20  H   UNL     1     -43.262   3.300  79.950  1.00  0.00     0.293 HD
ENDBRANCH  16  19
ENDBRANCH   3  13
BRANCH  10  21
ATOM     21  O   UNL     1     -32.724   7.491  80.218  1.00  0.00    -0.507 OA
ATOM     22  H   UNL     1     -31.864   8.009  80.086  1.00  0.00     0.293 HD
ENDBRANCH  10  21
BRANCH  11  23
ATOM     23  O   UNL     1     -34.790   9.865  76.564  1.00  0.00    -0.508 OA
ATOM     24  H   UNL     1     -33.903  10.272  76.291  1.00  0.00     0.293 HD
ENDBRANCH  11  23
ENDBRANCH   1   2
BRANCH   1  25
ATOM     25  C   UNL     1     -36.195   4.243  82.977  1.00  0.00     0.339 C 
ATOM     26  C   UNL     1     -36.845   5.480  83.628  1.00  0.00     0.214 C 
ATOM     27  O   UNL     1     -36.495   3.038  83.675  1.00  0.00    -0.332 OA
ATOM     28  C   UNL     1     -38.360   5.273  83.790  1.00  0.00     0.180 C 
ATOM     29  C   UNL     1     -37.885   2.769  83.824  1.00  0.00     0.179 C 
ATOM     30  C   UNL     1     -38.657   3.935  84.493  1.00  0.00     0.177 C 
BRANCH  26  31
ATOM     31  O   UNL     1     -36.225   5.797  84.852  1.00  0.00    -0.384 OA
ATOM     32  H   UNL     1     -35.246   5.853  84.701  1.00  0.00     0.211 HD
ENDBRANCH  26  31
BRANCH  28  33
ATOM     33  O   UNL     1     -38.948   6.357  84.469  1.00  0.00    -0.387 OA
ATOM     34  H   UNL     1     -39.548   5.991  85.170  1.00  0.00     0.211 HD
ENDBRANCH  28  33
BRANCH  29  35
ATOM     35  C   UNL     1     -38.519   2.245  82.515  1.00  0.00     0.191 C 
BRANCH  35  36
ATOM     36  O   UNL     1     -39.372   1.161  82.772  1.00  0.00    -0.394 OA
ATOM     37  H   UNL     1     -39.577   0.744  81.895  1.00  0.00     0.210 HD
ENDBRANCH  35  36
ENDBRANCH  29  35
BRANCH  30  38
ATOM     38  O   UNL     1     -40.038   3.675  84.478  1.00  0.00    -0.387 OA
ATOM     39  H   UNL     1     -40.206   3.043  83.729  1.00  0.00     0.211 HD
ENDBRANCH  30  38
ENDBRANCH   1  25
TORSDOF 11
ENDMDL
MODEL 6
REMARK VINA RESULT:    -6.087      2.307      7.485
REMARK INTER + INTRA:         -10.050
REMARK INTER:                  -8.372
REMARK INTRA:                  -1.679
REMARK UNBOUND:                -1.294
REMARK SMILES O=c1c(O[C@@H]2O[C@H](CO)[C@H](O)[C@@H](O)[C@H]2O)c(-c2ccc(O)cc2)oc2cc(O)cc(O)c12
REMARK SMILES IDX 4 1 3 2 16 3 24 4 2 5 25 6 1 7 32 8 26 9 30 10 27 11 29 12
REMARK SMILES IDX 17 13 18 14 19 15 20 16 23 17 22 18 21 19 31 21 28 23 5 25
REMARK SMILES IDX 14 26 6 27 12 28 7 29 10 30 15 31 13 33 8 35 9 36 11 38
REMARK H PARENT 21 20 31 22 28 24 15 32 13 34 9 37 11 39
REMARK Flexibility Score: inf
ROOT
ATOM      1  O   UNL     1     -37.620   5.814  80.073  1.00  0.00    -0.454 OA
ENDROOT
BRANCH   1   2
ATOM      2  C   UNL     1     -36.438   6.367  80.601  1.00  0.00     0.214 A 
ATOM      3  C   UNL     1     -36.070   6.037  81.921  1.00  0.00     0.180 A 
ATOM      4  O   UNL     1     -34.937   6.503  82.437  1.00  0.00    -0.452 OA
ATOM      5  C   UNL     1     -35.590   7.224  79.865  1.00  0.00     0.239 A 
ATOM      6  C   UNL     1     -34.110   7.302  81.777  1.00  0.00     0.146 A 
ATOM      7  O   UNL     1     -35.900   7.567  78.694  1.00  0.00    -0.285 OA
ATOM      8  C   UNL     1     -34.402   7.705  80.454  1.00  0.00     0.111 A 
ATOM      9  C   UNL     1     -32.944   7.744  82.409  1.00  0.00     0.094 A 
ATOM     10  C   UNL     1     -33.497   8.563  79.781  1.00  0.00     0.134 A 
ATOM     11  C   UNL     1     -32.055   8.591  81.740  1.00  0.00     0.123 A 
ATOM     12  C   UNL     1     -32.333   8.998  80.434  1.00  0.00     0.093 A 
BRANCH   3  13
ATOM     13  C   UNL     1     -36.890   5.133  82.759  1.00  0.00     0.021 A 
ATOM     14  C   UNL     1     -38.120   5.585  83.263  1.00  0.00     0.016 A 
ATOM     15  C   UNL     1     -38.912   4.746  84.053  1.00  0.00     0.047 A 
ATOM     16  C   UNL     1     -38.490   3.441  84.336  1.00  0.00     0.115 A 
ATOM     17  C   UNL     1     -36.483   3.815  83.028  1.00  0.00     0.016 A 
ATOM     18  C   UNL     1     -37.276   2.978  83.820  1.00  0.00     0.047 A 
BRANCH  16  19
ATOM     19  O   UNL     1     -39.269   2.597  85.125  1.00  0.00    -0.508 OA
ATOM     20  H   UNL     1     -40.122   2.922  85.564  1.00  0.00     0.293 HD
ENDBRANCH  16  19
ENDBRANCH   3  13
BRANCH  10  21
ATOM     21  O   UNL     1     -33.742   8.987  78.475  1.00  0.00    -0.507 OA
ATOM     22  H   UNL     1     -33.149   9.666  78.014  1.00  0.00     0.293 HD
ENDBRANCH  10  21
BRANCH  11  23
ATOM     23  O   UNL     1     -30.892   9.035  82.365  1.00  0.00    -0.508 OA
ATOM     24  H   UNL     1     -30.924   9.571  83.225  1.00  0.00     0.293 HD
ENDBRANCH  11  23
ENDBRANCH   1   2
BRANCH   1  25
ATOM     25  C   UNL     1     -37.724   4.612  79.306  1.00  0.00     0.339 C 
ATOM     26  C   UNL     1     -38.542   3.564  80.085  1.00  0.00     0.214 C 
ATOM     27  O   UNL     1     -38.245   4.852  78.002  1.00  0.00    -0.332 OA
ATOM     28  C   UNL     1     -40.028   3.957  80.125  1.00  0.00     0.180 C 
ATOM     29  C   UNL     1     -39.609   5.257  77.973  1.00  0.00     0.179 C 
ATOM     30  C   UNL     1     -40.549   4.269  78.709  1.00  0.00     0.177 C 
BRANCH  26  31
ATOM     31  O   UNL     1     -38.355   2.273  79.554  1.00  0.00    -0.384 OA
ATOM     32  H   UNL     1     -38.795   2.235  78.665  1.00  0.00     0.211 HD
ENDBRANCH  26  31
BRANCH  28  33
ATOM     33  O   UNL     1     -40.798   2.959  80.752  1.00  0.00    -0.387 OA
ATOM     34  H   UNL     1     -40.223   2.500  81.418  1.00  0.00     0.211 HD
ENDBRANCH  28  33
BRANCH  29  35
ATOM     35  C   UNL     1     -39.783   6.738  78.385  1.00  0.00     0.191 C 
BRANCH  35  36
ATOM     36  O   UNL     1     -38.744   7.525  77.865  1.00  0.00    -0.394 OA
ATOM     37  H   UNL     1     -38.282   7.938  78.641  1.00  0.00     0.210 HD
ENDBRANCH  35  36
ENDBRANCH  29  35
BRANCH  30  38
ATOM     38  O   UNL     1     -41.851   4.794  78.776  1.00  0.00    -0.387 OA
ATOM     39  H   UNL     1     -41.928   5.270  79.645  1.00  0.00     0.211 HD
ENDBRANCH  30  38
ENDBRANCH   1  25
TORSDOF 11
ENDMDL
MODEL 7
REMARK VINA RESULT:    -6.074      2.254      6.708
REMARK INTER + INTRA:         -10.031
REMARK INTER:                  -8.544
REMARK INTRA:                  -1.487
REMARK UNBOUND:                -1.294
REMARK SMILES O=c1c(O[C@@H]2O[C@H](CO)[C@H](O)[C@@H](O)[C@H]2O)c(-c2ccc(O)cc2)oc2cc(O)cc(O)c12
REMARK SMILES IDX 4 1 3 2 16 3 24 4 2 5 25 6 1 7 32 8 26 9 30 10 27 11 29 12
REMARK SMILES IDX 17 13 18 14 19 15 20 16 23 17 22 18 21 19 31 21 28 23 5 25
REMARK SMILES IDX 14 26 6 27 12 28 7 29 10 30 15 31 13 33 8 35 9 36 11 38
REMARK H PARENT 21 20 31 22 28 24 15 32 13 34 9 37 11 39
REMARK Flexibility Score: inf
ROOT
ATOM      1  O   UNL     1     -38.192   5.059  81.410  1.00  0.00    -0.454 OA
ENDROOT
BRANCH   1   2
ATOM      2  C   UNL     1     -36.971   5.730  81.615  1.00  0.00     0.214 A 
ATOM      3  C   UNL     1     -36.514   6.617  80.618  1.00  0.00     0.180 A 
ATOM      4  O   UNL     1     -35.390   7.302  80.798  1.00  0.00    -0.452 OA
ATOM      5  C   UNL     1     -36.191   5.574  82.781  1.00  0.00     0.239 A 
ATOM      6  C   UNL     1     -34.633   7.191  81.881  1.00  0.00     0.146 A 
ATOM      7  O   UNL     1     -36.550   4.769  83.680  1.00  0.00    -0.285 OA
ATOM      8  C   UNL     1     -34.998   6.314  82.927  1.00  0.00     0.111 A 
ATOM      9  C   UNL     1     -33.464   7.953  81.974  1.00  0.00     0.094 A 
ATOM     10  C   UNL     1     -34.162   6.217  84.067  1.00  0.00     0.134 A 
ATOM     11  C   UNL     1     -32.643   7.853  83.102  1.00  0.00     0.123 A 
ATOM     12  C   UNL     1     -32.992   6.989  84.141  1.00  0.00     0.093 A 
BRANCH   3  13
ATOM     13  C   UNL     1     -37.276   6.855  79.372  1.00  0.00     0.021 A 
ATOM     14  C   UNL     1     -38.113   7.979  79.279  1.00  0.00     0.016 A 
ATOM     15  C   UNL     1     -38.838   8.226  78.110  1.00  0.00     0.047 A 
ATOM     16  C   UNL     1     -38.725   7.359  77.015  1.00  0.00     0.115 A 
ATOM     17  C   UNL     1     -37.150   6.003  78.262  1.00  0.00     0.016 A 
ATOM     18  C   UNL     1     -37.878   6.250  77.094  1.00  0.00     0.047 A 
BRANCH  16  19
ATOM     19  O   UNL     1     -39.446   7.593  75.846  1.00  0.00    -0.508 OA
ATOM     20  H   UNL     1     -39.091   8.203  75.118  1.00  0.00     0.293 HD
ENDBRANCH  16  19
ENDBRANCH   3  13
BRANCH  10  21
ATOM     21  O   UNL     1     -34.482   5.365  85.125  1.00  0.00    -0.507 OA
ATOM     22  H   UNL     1     -33.768   4.957  85.716  1.00  0.00     0.293 HD
ENDBRANCH  10  21
BRANCH  11  23
ATOM     23  O   UNL     1     -31.477   8.609  83.199  1.00  0.00    -0.508 OA
ATOM     24  H   UNL     1     -31.369   9.483  82.698  1.00  0.00     0.293 HD
ENDBRANCH  11  23
ENDBRANCH   1   2
BRANCH   1  25
ATOM     25  C   UNL     1     -38.363   3.653  81.210  1.00  0.00     0.339 C 
ATOM     26  C   UNL     1     -39.104   3.041  82.415  1.00  0.00     0.214 C 
ATOM     27  O   UNL     1     -39.001   3.362  79.971  1.00  0.00    -0.332 OA
ATOM     28  C   UNL     1     -40.582   3.468  82.416  1.00  0.00     0.180 C 
ATOM     29  C   UNL     1     -40.363   3.769  79.894  1.00  0.00     0.179 C 
ATOM     30  C   UNL     1     -41.230   3.197  81.045  1.00  0.00     0.177 C 
BRANCH  26  31
ATOM     31  O   UNL     1     -38.964   1.639  82.441  1.00  0.00    -0.384 OA
ATOM     32  H   UNL     1     -37.999   1.421  82.360  1.00  0.00     0.211 HD
ENDBRANCH  26  31
BRANCH  28  33
ATOM     33  O   UNL     1     -41.289   2.838  83.456  1.00  0.00    -0.387 OA
ATOM     34  H   UNL     1     -41.338   1.868  83.252  1.00  0.00     0.211 HD
ENDBRANCH  28  33
BRANCH  29  35
ATOM     35  C   UNL     1     -40.501   5.294  79.681  1.00  0.00     0.191 C 
BRANCH  35  36
ATOM     36  O   UNL     1     -41.512   5.579  78.750  1.00  0.00    -0.394 OA
ATOM     37  H   UNL     1     -41.902   6.454  79.009  1.00  0.00     0.210 HD
ENDBRANCH  35  36
ENDBRANCH  29  35
BRANCH  30  38
ATOM     38  O   UNL     1     -42.521   3.750  81.001  1.00  0.00    -0.387 OA
ATOM     39  H   UNL     1     -42.463   4.656  81.406  1.00  0.00     0.211 HD
ENDBRANCH  30  38
ENDBRANCH   1  25
TORSDOF 11
ENDMDL
MODEL 8
REMARK VINA RESULT:    -5.998      2.131      6.650
REMARK INTER + INTRA:          -9.921
REMARK INTER:                  -8.470
REMARK INTRA:                  -1.451
REMARK UNBOUND:                -1.294
REMARK SMILES O=c1c(O[C@@H]2O[C@H](CO)[C@H](O)[C@@H](O)[C@H]2O)c(-c2ccc(O)cc2)oc2cc(O)cc(O)c12
REMARK SMILES IDX 4 1 3 2 16 3 24 4 2 5 25 6 1 7 32 8 26 9 30 10 27 11 29 12
REMARK SMILES IDX 17 13 18 14 19 15 20 16 23 17 22 18 21 19 31 21 28 23 5 25
REMARK SMILES IDX 14 26 6 27 12 28 7 29 10 30 15 31 13 33 8 35 9 36 11 38
REMARK H PARENT 21 20 31 22 28 24 15 32 13 34 9 37 11 39
REMARK Flexibility Score: inf
ROOT
ATOM      1  O   UNL     1     -37.710   4.021  82.703  1.00  0.00    -0.454 OA
ENDROOT
BRANCH   1   2
ATOM      2  C   UNL     1     -36.771   4.868  82.081  1.00  0.00     0.214 A 
ATOM      3  C   UNL     1     -36.890   5.105  80.697  1.00  0.00     0.180 A 
ATOM      4  O   UNL     1     -36.050   5.934  80.086  1.00  0.00    -0.452 OA
ATOM      5  C   UNL     1     -35.727   5.509  82.783  1.00  0.00     0.239 A 
ATOM      6  C   UNL     1     -35.062   6.562  80.709  1.00  0.00     0.146 A 
ATOM      7  O   UNL     1     -35.569   5.299  84.014  1.00  0.00    -0.285 OA
ATOM      8  C   UNL     1     -34.851   6.375  82.094  1.00  0.00     0.111 A 
ATOM      9  C   UNL     1     -34.228   7.412  79.976  1.00  0.00     0.094 A 
ATOM     10  C   UNL     1     -33.783   7.058  82.725  1.00  0.00     0.134 A 
ATOM     11  C   UNL     1     -33.175   8.084  80.605  1.00  0.00     0.123 A 
ATOM     12  C   UNL     1     -32.956   7.906  81.973  1.00  0.00     0.093 A 
BRANCH   3  13
ATOM     13  C   UNL     1     -37.964   4.489  79.886  1.00  0.00     0.021 A 
ATOM     14  C   UNL     1     -39.097   5.247  79.551  1.00  0.00     0.016 A 
ATOM     15  C   UNL     1     -40.121   4.687  78.782  1.00  0.00     0.047 A 
ATOM     16  C   UNL     1     -40.018   3.366  78.327  1.00  0.00     0.115 A 
ATOM     17  C   UNL     1     -37.857   3.172  79.407  1.00  0.00     0.016 A 
ATOM     18  C   UNL     1     -38.883   2.612  78.639  1.00  0.00     0.047 A 
BRANCH  16  19
ATOM     19  O   UNL     1     -41.034   2.796  77.563  1.00  0.00    -0.508 OA
ATOM     20  H   UNL     1     -42.006   3.048  77.702  1.00  0.00     0.293 HD
ENDBRANCH  16  19
ENDBRANCH   3  13
BRANCH  10  21
ATOM     21  O   UNL     1     -33.536   6.904  84.090  1.00  0.00    -0.507 OA
ATOM     22  H   UNL     1     -33.743   6.040  84.576  1.00  0.00     0.293 HD
ENDBRANCH  10  21
BRANCH  11  23
ATOM     23  O   UNL     1     -32.341   8.932  79.880  1.00  0.00    -0.508 OA
ATOM     24  H   UNL     1     -32.354   9.935  80.021  1.00  0.00     0.293 HD
ENDBRANCH  11  23
ENDBRANCH   1   2
BRANCH   1  25
ATOM     25  C   UNL     1     -38.627   4.388  83.736  1.00  0.00     0.339 C 
ATOM     26  C   UNL     1     -39.944   4.890  83.111  1.00  0.00     0.214 C 
ATOM     27  O   UNL     1     -38.834   3.331  84.668  1.00  0.00    -0.332 OA
ATOM     28  C   UNL     1     -40.729   3.722  82.490  1.00  0.00     0.180 C 
ATOM     29  C   UNL     1     -39.523   2.201  84.142  1.00  0.00     0.179 C 
ATOM     30  C   UNL     1     -40.885   2.569  83.500  1.00  0.00     0.177 C 
BRANCH  26  31
ATOM     31  O   UNL     1     -40.716   5.599  84.051  1.00  0.00    -0.384 OA
ATOM     32  H   UNL     1     -41.661   5.592  83.747  1.00  0.00     0.211 HD
ENDBRANCH  26  31
BRANCH  28  33
ATOM     33  O   UNL     1     -41.976   4.154  82.002  1.00  0.00    -0.387 OA
ATOM     34  H   UNL     1     -42.552   4.374  82.780  1.00  0.00     0.211 HD
ENDBRANCH  28  33
BRANCH  29  35
ATOM     35  C   UNL     1     -38.608   1.326  83.254  1.00  0.00     0.191 C 
BRANCH  35  36
ATOM     36  O   UNL     1     -39.037  -0.011  83.261  1.00  0.00    -0.394 OA
ATOM     37  H   UNL     1     -38.533  -0.469  83.981  1.00  0.00     0.210 HD
ENDBRANCH  35  36
ENDBRANCH  29  35
BRANCH  30  38
ATOM     38  O   UNL     1     -41.445   1.445  82.871  1.00  0.00    -0.387 OA
ATOM     39  H   UNL     1     -41.808   0.861  83.589  1.00  0.00     0.211 HD
ENDBRANCH  30  38
ENDBRANCH   1  25
TORSDOF 11
ENDMDL
