MODEL 1
REMARK VINA RESULT:    -7.020      0.000      0.000
REMARK INTER + INTRA:          -8.623
REMARK INTER:                  -8.456
REMARK INTRA:                  -0.166
REMARK UNBOUND:                -0.166
REMARK SMILES O=c1c(O)c(-c2ccc(O)c(O)c2)oc2cc(O)cc(O)c12
REMARK SMILES IDX 5 1 3 2 2 3 1 4 22 5 20 6 19 7 17 8 16 9 15 10 14 11 6 12
REMARK SMILES IDX 7 13 8 14 9 15 13 16 11 17 10 18 12 20 4 22 21 24 18 26
REMARK H PARENT 10 19 12 21 4 23 21 25 18 27
REMARK Flexibility Score: inf
ROOT
ATOM      1  C   UNL     1      15.283 -23.962 -28.389  1.00  0.00     0.180 A 
ATOM      2  C   UNL     1      16.502 -23.567 -27.805  1.00  0.00     0.208 A 
ATOM      3  C   UNL     1      17.546 -24.501 -27.720  1.00  0.00     0.238 A 
ATOM      4  O   UNL     1      18.639 -24.163 -27.189  1.00  0.00    -0.285 OA
ATOM      5  C   UNL     1      17.362 -25.801 -28.233  1.00  0.00     0.111 A 
ATOM      6  C   UNL     1      18.365 -26.800 -28.189  1.00  0.00     0.134 A 
ATOM      7  C   UNL     1      18.108 -28.068 -28.730  1.00  0.00     0.093 A 
ATOM      8  C   UNL     1      16.869 -28.356 -29.315  1.00  0.00     0.123 A 
ATOM      9  C   UNL     1      15.878 -27.375 -29.360  1.00  0.00     0.094 A 
ATOM     10  C   UNL     1      16.114 -26.106 -28.824  1.00  0.00     0.146 A 
ATOM     11  O   UNL     1      15.151 -25.192 -28.876  1.00  0.00    -0.452 OA
ENDROOT
BRANCH   1  12
ATOM     12  C   UNL     1      14.129 -23.040 -28.500  1.00  0.00     0.025 A 
ATOM     13  C   UNL     1      13.607 -22.735 -29.766  1.00  0.00     0.016 A 
ATOM     14  C   UNL     1      12.506 -21.885 -29.893  1.00  0.00     0.051 A 
ATOM     15  C   UNL     1      11.900 -21.340 -28.753  1.00  0.00     0.157 A 
ATOM     16  C   UNL     1      13.505 -22.507 -27.357  1.00  0.00     0.062 A 
ATOM     17  C   UNL     1      12.400 -21.657 -27.479  1.00  0.00     0.158 A 
BRANCH  15  18
ATOM     18  O   UNL     1      10.802 -20.490 -28.883  1.00  0.00    -0.504 OA
ATOM     19  H   UNL     1      10.699 -19.874 -29.681  1.00  0.00     0.293 HD
ENDBRANCH  15  18
BRANCH  17  20
ATOM     20  O   UNL     1      11.810 -21.143 -26.326  1.00  0.00    -0.504 OA
ATOM     21  H   UNL     1      12.346 -20.950 -25.488  1.00  0.00     0.293 HD
ENDBRANCH  17  20
ENDBRANCH   1  12
BRANCH   2  22
ATOM     22  O   UNL     1      16.675 -22.258 -27.349  1.00  0.00    -0.502 OA
ATOM     23  H   UNL     1      17.402 -22.005 -26.690  1.00  0.00     0.293 HD
ENDBRANCH   2  22
BRANCH   6  24
ATOM     24  O   UNL     1      19.610 -26.543 -27.614  1.00  0.00    -0.507 OA
ATOM     25  H   UNL     1      20.237 -25.842 -27.990  1.00  0.00     0.293 HD
ENDBRANCH   6  24
BRANCH   8  26
ATOM     26  O   UNL     1      16.614 -29.615 -29.854  1.00  0.00    -0.508 OA
ATOM     27  H   UNL     1      17.155 -29.979 -30.629  1.00  0.00     0.293 HD
ENDBRANCH   8  26
TORSDOF 6
ENDMDL
MODEL 2
REMARK VINA RESULT:    -6.774      2.127      4.042
REMARK INTER + INTRA:          -8.326
REMARK INTER:                  -8.067
REMARK INTRA:                  -0.259
REMARK UNBOUND:                -0.166
REMARK SMILES O=c1c(O)c(-c2ccc(O)c(O)c2)oc2cc(O)cc(O)c12
REMARK SMILES IDX 5 1 3 2 2 3 1 4 22 5 20 6 19 7 17 8 16 9 15 10 14 11 6 12
REMARK SMILES IDX 7 13 8 14 9 15 13 16 11 17 10 18 12 20 4 22 21 24 18 26
REMARK H PARENT 10 19 12 21 4 23 21 25 18 27
REMARK Flexibility Score: inf
ROOT
ATOM      1  C   UNL     1      15.433 -23.393 -28.145  1.00  0.00     0.180 A 
ATOM      2  C   UNL     1      16.166 -24.473 -28.672  1.00  0.00     0.208 A 
ATOM      3  C   UNL     1      17.538 -24.565 -28.388  1.00  0.00     0.238 A 
ATOM      4  O   UNL     1      18.208 -25.521 -28.863  1.00  0.00    -0.285 OA
ATOM      5  C   UNL     1      18.146 -23.590 -27.570  1.00  0.00     0.111 A 
ATOM      6  C   UNL     1      19.521 -23.611 -27.233  1.00  0.00     0.134 A 
ATOM      7  C   UNL     1      20.050 -22.610 -26.405  1.00  0.00     0.093 A 
ATOM      8  C   UNL     1      19.231 -21.590 -25.908  1.00  0.00     0.123 A 
ATOM      9  C   UNL     1      17.876 -21.565 -26.239  1.00  0.00     0.094 A 
ATOM     10  C   UNL     1      17.330 -22.552 -27.063  1.00  0.00     0.146 A 
ATOM     11  O   UNL     1      16.037 -22.502 -27.366  1.00  0.00    -0.452 OA
ENDROOT
BRANCH   1  12
ATOM     12  C   UNL     1      13.988 -23.217 -28.415  1.00  0.00     0.025 A 
ATOM     13  C   UNL     1      13.569 -22.788 -29.685  1.00  0.00     0.016 A 
ATOM     14  C   UNL     1      12.210 -22.635 -29.968  1.00  0.00     0.051 A 
ATOM     15  C   UNL     1      11.248 -22.924 -28.991  1.00  0.00     0.157 A 
ATOM     16  C   UNL     1      13.018 -23.526 -27.444  1.00  0.00     0.062 A 
ATOM     17  C   UNL     1      11.655 -23.377 -27.725  1.00  0.00     0.158 A 
BRANCH  15  18
ATOM     18  O   UNL     1       9.892 -22.769 -29.277  1.00  0.00    -0.504 OA
ATOM     19  H   UNL     1       9.526 -21.908 -29.666  1.00  0.00     0.293 HD
ENDBRANCH  15  18
BRANCH  17  20
ATOM     20  O   UNL     1      10.722 -23.687 -26.737  1.00  0.00    -0.504 OA
ATOM     21  H   UNL     1      10.972 -23.734 -25.757  1.00  0.00     0.293 HD
ENDBRANCH  17  20
ENDBRANCH   1  12
BRANCH   2  22
ATOM     22  O   UNL     1      15.530 -25.452 -29.440  1.00  0.00    -0.502 OA
ATOM     23  H   UNL     1      14.521 -25.536 -29.485  1.00  0.00     0.293 HD
ENDBRANCH   2  22
BRANCH   6  24
ATOM     24  O   UNL     1      20.363 -24.616 -27.712  1.00  0.00    -0.507 OA
ATOM     25  H   UNL     1      21.352 -24.634 -27.490  1.00  0.00     0.293 HD
ENDBRANCH   6  24
BRANCH   8  26
ATOM     26  O   UNL     1      19.755 -20.596 -25.085  1.00  0.00    -0.508 OA
ATOM     27  H   UNL     1      20.084 -19.715 -25.462  1.00  0.00     0.293 HD
ENDBRANCH   8  26
TORSDOF 6
ENDMDL
MODEL 3
REMARK VINA RESULT:    -6.384      2.880      3.704
REMARK INTER + INTRA:          -7.857
REMARK INTER:                  -7.527
REMARK INTRA:                  -0.330
REMARK UNBOUND:                -0.166
REMARK SMILES O=c1c(O)c(-c2ccc(O)c(O)c2)oc2cc(O)cc(O)c12
REMARK SMILES IDX 5 1 3 2 2 3 1 4 22 5 20 6 19 7 17 8 16 9 15 10 14 11 6 12
REMARK SMILES IDX 7 13 8 14 9 15 13 16 11 17 10 18 12 20 4 22 21 24 18 26
REMARK H PARENT 10 19 12 21 4 23 21 25 18 27
REMARK Flexibility Score: inf
ROOT
ATOM      1  C   UNL     1      15.187 -23.254 -27.945  1.00  0.00     0.180 A 
ATOM      2  C   UNL     1      16.197 -23.172 -28.922  1.00  0.00     0.208 A 
ATOM      3  C   UNL     1      17.539 -23.256 -28.518  1.00  0.00     0.238 A 
ATOM      4  O   UNL     1      18.454 -23.172 -29.382  1.00  0.00    -0.285 OA
ATOM      5  C   UNL     1      17.846 -23.438 -27.154  1.00  0.00     0.111 A 
ATOM      6  C   UNL     1      19.171 -23.536 -26.665  1.00  0.00     0.134 A 
ATOM      7  C   UNL     1      19.395 -23.728 -25.294  1.00  0.00     0.093 A 
ATOM      8  C   UNL     1      18.319 -23.824 -24.403  1.00  0.00     0.123 A 
ATOM      9  C   UNL     1      17.012 -23.727 -24.881  1.00  0.00     0.094 A 
ATOM     10  C   UNL     1      16.768 -23.535 -26.243  1.00  0.00     0.146 A 
ATOM     11  O   UNL     1      15.514 -23.442 -26.670  1.00  0.00    -0.452 OA
ENDROOT
BRANCH   1  12
ATOM     12  C   UNL     1      13.750 -23.156 -28.289  1.00  0.00     0.025 A 
ATOM     13  C   UNL     1      12.995 -24.329 -28.448  1.00  0.00     0.016 A 
ATOM     14  C   UNL     1      11.634 -24.259 -28.752  1.00  0.00     0.051 A 
ATOM     15  C   UNL     1      11.003 -23.016 -28.887  1.00  0.00     0.157 A 
ATOM     16  C   UNL     1      13.107 -21.909 -28.405  1.00  0.00     0.062 A 
ATOM     17  C   UNL     1      11.743 -21.836 -28.707  1.00  0.00     0.158 A 
BRANCH  15  18
ATOM     18  O   UNL     1       9.643 -22.950 -29.193  1.00  0.00    -0.504 OA
ATOM     19  H   UNL     1       9.080 -22.147 -28.939  1.00  0.00     0.293 HD
ENDBRANCH  15  18
BRANCH  17  20
ATOM     20  O   UNL     1      11.141 -20.583 -28.820  1.00  0.00    -0.504 OA
ATOM     21  H   UNL     1      11.324 -19.837 -28.160  1.00  0.00     0.293 HD
ENDBRANCH  17  20
ENDBRANCH   1  12
BRANCH   2  22
ATOM     22  O   UNL     1      15.865 -23.039 -30.272  1.00  0.00    -0.502 OA
ATOM     23  H   UNL     1      16.406 -23.475 -31.010  1.00  0.00     0.293 HD
ENDBRANCH   2  22
BRANCH   6  24
ATOM     24  O   UNL     1      20.264 -23.445 -27.528  1.00  0.00    -0.507 OA
ATOM     25  H   UNL     1      20.772 -24.267 -27.833  1.00  0.00     0.293 HD
ENDBRANCH   6  24
BRANCH   8  26
ATOM     26  O   UNL     1      18.540 -24.015 -23.042  1.00  0.00    -0.508 OA
ATOM     27  H   UNL     1      17.777 -24.200 -22.401  1.00  0.00     0.293 HD
ENDBRANCH   8  26
TORSDOF 6
ENDMDL
MODEL 4
REMARK VINA RESULT:    -6.357      3.868      5.489
REMARK INTER + INTRA:          -7.824
REMARK INTER:                  -7.506
REMARK INTRA:                  -0.318
REMARK UNBOUND:                -0.166
REMARK SMILES O=c1c(O)c(-c2ccc(O)c(O)c2)oc2cc(O)cc(O)c12
REMARK SMILES IDX 5 1 3 2 2 3 1 4 22 5 20 6 19 7 17 8 16 9 15 10 14 11 6 12
REMARK SMILES IDX 7 13 8 14 9 15 13 16 11 17 10 18 12 20 4 22 21 24 18 26
REMARK H PARENT 10 19 12 21 4 23 21 25 18 27
REMARK Flexibility Score: inf
ROOT
ATOM      1  C   UNL     1      18.336 -24.032 -27.877  1.00  0.00     0.180 A 
ATOM      2  C   UNL     1      17.960 -23.800 -29.213  1.00  0.00     0.208 A 
ATOM      3  C   UNL     1      17.364 -24.842 -29.940  1.00  0.00     0.238 A 
ATOM      4  O   UNL     1      17.032 -24.651 -31.142  1.00  0.00    -0.285 OA
ATOM      5  C   UNL     1      17.137 -26.087 -29.316  1.00  0.00     0.111 A 
ATOM      6  C   UNL     1      16.538 -27.186 -29.976  1.00  0.00     0.134 A 
ATOM      7  C   UNL     1      16.337 -28.389 -29.283  1.00  0.00     0.093 A 
ATOM      8  C   UNL     1      16.723 -28.512 -27.943  1.00  0.00     0.123 A 
ATOM      9  C   UNL     1      17.314 -27.431 -27.289  1.00  0.00     0.094 A 
ATOM     10  C   UNL     1      17.524 -26.225 -27.962  1.00  0.00     0.146 A 
ATOM     11  O   UNL     1      18.093 -25.213 -27.317  1.00  0.00    -0.452 OA
ENDROOT
BRANCH   1  12
ATOM     12  C   UNL     1      18.987 -22.989 -27.051  1.00  0.00     0.025 A 
ATOM     13  C   UNL     1      18.193 -22.068 -26.350  1.00  0.00     0.016 A 
ATOM     14  C   UNL     1      18.785 -21.089 -25.549  1.00  0.00     0.051 A 
ATOM     15  C   UNL     1      20.180 -21.027 -25.423  1.00  0.00     0.157 A 
ATOM     16  C   UNL     1      20.385 -22.936 -26.906  1.00  0.00     0.062 A 
ATOM     17  C   UNL     1      20.982 -21.959 -26.101  1.00  0.00     0.158 A 
BRANCH  15  18
ATOM     18  O   UNL     1      20.767 -20.047 -24.623  1.00  0.00    -0.504 OA
ATOM     19  H   UNL     1      21.541 -20.259 -24.005  1.00  0.00     0.293 HD
ENDBRANCH  15  18
BRANCH  17  20
ATOM     20  O   UNL     1      22.371 -21.932 -25.986  1.00  0.00    -0.504 OA
ATOM     21  H   UNL     1      22.972 -21.701 -26.767  1.00  0.00     0.293 HD
ENDBRANCH  17  20
ENDBRANCH   1  12
BRANCH   2  22
ATOM     22  O   UNL     1      18.151 -22.544 -29.794  1.00  0.00    -0.502 OA
ATOM     23  H   UNL     1      18.049 -21.682 -29.270  1.00  0.00     0.293 HD
ENDBRANCH   2  22
BRANCH   6  24
ATOM     24  O   UNL     1      16.142 -27.094 -31.311  1.00  0.00    -0.507 OA
ATOM     25  H   UNL     1      16.064 -26.201 -31.784  1.00  0.00     0.293 HD
ENDBRANCH   6  24
BRANCH   8  26
ATOM     26  O   UNL     1      16.522 -29.706 -27.254  1.00  0.00    -0.508 OA
ATOM     27  H   UNL     1      17.158 -30.011 -26.526  1.00  0.00     0.293 HD
ENDBRANCH   8  26
TORSDOF 6
ENDMDL
MODEL 5
REMARK VINA RESULT:    -6.350      3.671      6.314
REMARK INTER + INTRA:          -7.816
REMARK INTER:                  -7.483
REMARK INTRA:                  -0.332
REMARK UNBOUND:                -0.166
REMARK SMILES O=c1c(O)c(-c2ccc(O)c(O)c2)oc2cc(O)cc(O)c12
REMARK SMILES IDX 5 1 3 2 2 3 1 4 22 5 20 6 19 7 17 8 16 9 15 10 14 11 6 12
REMARK SMILES IDX 7 13 8 14 9 15 13 16 11 17 10 18 12 20 4 22 21 24 18 26
REMARK H PARENT 10 19 12 21 4 23 21 25 18 27
REMARK Flexibility Score: inf
ROOT
ATOM      1  C   UNL     1      18.500 -24.717 -27.628  1.00  0.00     0.180 A 
ATOM      2  C   UNL     1      18.152 -24.016 -26.458  1.00  0.00     0.208 A 
ATOM      3  C   UNL     1      19.057 -23.079 -25.934  1.00  0.00     0.238 A 
ATOM      4  O   UNL     1      18.762 -22.452 -24.881  1.00  0.00    -0.285 OA
ATOM      5  C   UNL     1      20.280 -22.847 -26.596  1.00  0.00     0.111 A 
ATOM      6  C   UNL     1      21.245 -21.918 -26.137  1.00  0.00     0.134 A 
ATOM      7  C   UNL     1      22.435 -21.737 -26.858  1.00  0.00     0.093 A 
ATOM      8  C   UNL     1      22.677 -22.466 -28.028  1.00  0.00     0.123 A 
ATOM      9  C   UNL     1      21.729 -23.382 -28.484  1.00  0.00     0.094 A 
ATOM     10  C   UNL     1      20.538 -23.579 -27.779  1.00  0.00     0.146 A 
ATOM     11  O   UNL     1      19.656 -24.461 -28.233  1.00  0.00    -0.452 OA
ENDROOT
BRANCH   1  12
ATOM     12  C   UNL     1      17.607 -25.734 -28.230  1.00  0.00     0.025 A 
ATOM     13  C   UNL     1      16.706 -25.353 -29.236  1.00  0.00     0.016 A 
ATOM     14  C   UNL     1      15.869 -26.298 -29.833  1.00  0.00     0.051 A 
ATOM     15  C   UNL     1      15.932 -27.643 -29.444  1.00  0.00     0.157 A 
ATOM     16  C   UNL     1      17.682 -27.088 -27.857  1.00  0.00     0.062 A 
ATOM     17  C   UNL     1      16.847 -28.039 -28.454  1.00  0.00     0.158 A 
BRANCH  15  18
ATOM     18  O   UNL     1      15.094 -28.584 -30.040  1.00  0.00    -0.504 OA
ATOM     19  H   UNL     1      15.461 -29.424 -30.473  1.00  0.00     0.293 HD
ENDBRANCH  15  18
BRANCH  17  20
ATOM     20  O   UNL     1      16.944 -29.372 -28.056  1.00  0.00    -0.504 OA
ATOM     21  H   UNL     1      16.526 -30.125 -28.588  1.00  0.00     0.293 HD
ENDBRANCH  17  20
ENDBRANCH   1  12
BRANCH   2  22
ATOM     22  O   UNL     1      16.913 -24.229 -25.848  1.00  0.00    -0.502 OA
ATOM     23  H   UNL     1      16.049 -24.273 -26.375  1.00  0.00     0.293 HD
ENDBRANCH   2  22
BRANCH   6  24
ATOM     24  O   UNL     1      21.032 -21.177 -24.974  1.00  0.00    -0.507 OA
ATOM     25  H   UNL     1      21.109 -20.166 -24.965  1.00  0.00     0.293 HD
ENDBRANCH   6  24
BRANCH   8  26
ATOM     26  O   UNL     1      23.858 -22.285 -28.745  1.00  0.00    -0.508 OA
ATOM     27  H   UNL     1      24.762 -22.289 -28.287  1.00  0.00     0.293 HD
ENDBRANCH   8  26
TORSDOF 6
ENDMDL
MODEL 6
REMARK VINA RESULT:    -6.333      3.319      5.977
REMARK INTER + INTRA:          -7.795
REMARK INTER:                  -7.466
REMARK INTRA:                  -0.329
REMARK UNBOUND:                -0.166
REMARK SMILES O=c1c(O)c(-c2ccc(O)c(O)c2)oc2cc(O)cc(O)c12
REMARK SMILES IDX 5 1 3 2 2 3 1 4 22 5 20 6 19 7 17 8 16 9 15 10 14 11 6 12
REMARK SMILES IDX 7 13 8 14 9 15 13 16 11 17 10 18 12 20 4 22 21 24 18 26
REMARK H PARENT 10 19 12 21 4 23 21 25 18 27
REMARK Flexibility Score: inf
ROOT
ATOM      1  C   UNL     1      17.316 -26.920 -29.908  1.00  0.00     0.180 A 
ATOM      2  C   UNL     1      16.475 -28.049 -29.933  1.00  0.00     0.208 A 
ATOM      3  C   UNL     1      16.310 -28.745 -31.141  1.00  0.00     0.238 A 
ATOM      4  O   UNL     1      15.552 -29.752 -31.179  1.00  0.00    -0.285 OA
ATOM      5  C   UNL     1      16.999 -28.314 -32.293  1.00  0.00     0.111 A 
ATOM      6  C   UNL     1      16.890 -28.961 -33.548  1.00  0.00     0.134 A 
ATOM      7  C   UNL     1      17.616 -28.477 -34.646  1.00  0.00     0.093 A 
ATOM      8  C   UNL     1      18.448 -27.359 -34.513  1.00  0.00     0.123 A 
ATOM      9  C   UNL     1      18.558 -26.718 -33.279  1.00  0.00     0.094 A 
ATOM     10  C   UNL     1      17.842 -27.184 -32.173  1.00  0.00     0.146 A 
ATOM     11  O   UNL     1      17.961 -26.552 -31.011  1.00  0.00    -0.452 OA
ENDROOT
BRANCH   1  12
ATOM     12  C   UNL     1      17.526 -26.123 -28.678  1.00  0.00     0.025 A 
ATOM     13  C   UNL     1      18.576 -26.459 -27.808  1.00  0.00     0.016 A 
ATOM     14  C   UNL     1      18.806 -25.709 -26.653  1.00  0.00     0.051 A 
ATOM     15  C   UNL     1      18.000 -24.601 -26.358  1.00  0.00     0.157 A 
ATOM     16  C   UNL     1      16.733 -24.998 -28.389  1.00  0.00     0.062 A 
ATOM     17  C   UNL     1      16.962 -24.242 -27.234  1.00  0.00     0.158 A 
BRANCH  15  18
ATOM     18  O   UNL     1      18.231 -23.855 -25.202  1.00  0.00    -0.504 OA
ATOM     19  H   UNL     1      17.513 -23.730 -24.498  1.00  0.00     0.293 HD
ENDBRANCH  15  18
BRANCH  17  20
ATOM     20  O   UNL     1      16.152 -23.137 -26.976  1.00  0.00    -0.504 OA
ATOM     21  H   UNL     1      15.151 -23.156 -27.128  1.00  0.00     0.293 HD
ENDBRANCH  17  20
ENDBRANCH   1  12
BRANCH   2  22
ATOM     22  O   UNL     1      15.843 -28.485 -28.766  1.00  0.00    -0.502 OA
ATOM     23  H   UNL     1      16.073 -29.364 -28.318  1.00  0.00     0.293 HD
ENDBRANCH   2  22
BRANCH   6  24
ATOM     24  O   UNL     1      16.070 -30.078 -33.711  1.00  0.00    -0.507 OA
ATOM     25  H   UNL     1      16.183 -30.713 -34.493  1.00  0.00     0.293 HD
ENDBRANCH   6  24
BRANCH   8  26
ATOM     26  O   UNL     1      19.170 -26.879 -35.603  1.00  0.00    -0.508 OA
ATOM     27  H   UNL     1      18.707 -26.503 -36.422  1.00  0.00     0.293 HD
ENDBRANCH   8  26
TORSDOF 6
ENDMDL
MODEL 7
REMARK VINA RESULT:    -6.163      3.577      5.279
REMARK INTER + INTRA:          -7.590
REMARK INTER:                  -7.271
REMARK INTRA:                  -0.319
REMARK UNBOUND:                -0.166
REMARK SMILES O=c1c(O)c(-c2ccc(O)c(O)c2)oc2cc(O)cc(O)c12
REMARK SMILES IDX 5 1 3 2 2 3 1 4 22 5 20 6 19 7 17 8 16 9 15 10 14 11 6 12
REMARK SMILES IDX 7 13 8 14 9 15 13 16 11 17 10 18 12 20 4 22 21 24 18 26
REMARK H PARENT 10 19 12 21 4 23 21 25 18 27
REMARK Flexibility Score: inf
ROOT
ATOM      1  C   UNL     1      17.471 -25.714 -28.884  1.00  0.00     0.180 A 
ATOM      2  C   UNL     1      17.182 -26.967 -28.311  1.00  0.00     0.208 A 
ATOM      3  C   UNL     1      16.813 -28.028 -29.152  1.00  0.00     0.238 A 
ATOM      4  O   UNL     1      16.541 -29.153 -28.651  1.00  0.00    -0.285 OA
ATOM      5  C   UNL     1      16.758 -27.826 -30.547  1.00  0.00     0.111 A 
ATOM      6  C   UNL     1      16.399 -28.843 -31.463  1.00  0.00     0.134 A 
ATOM      7  C   UNL     1      16.377 -28.565 -32.838  1.00  0.00     0.093 A 
ATOM      8  C   UNL     1      16.707 -27.290 -33.313  1.00  0.00     0.123 A 
ATOM      9  C   UNL     1      17.061 -26.285 -32.413  1.00  0.00     0.094 A 
ATOM     10  C   UNL     1      17.088 -26.541 -31.039  1.00  0.00     0.146 A 
ATOM     11  O   UNL     1      17.423 -25.564 -30.204  1.00  0.00    -0.452 OA
ENDROOT
BRANCH   1  12
ATOM     12  C   UNL     1      17.849 -24.542 -28.062  1.00  0.00     0.025 A 
ATOM     13  C   UNL     1      16.853 -23.655 -27.624  1.00  0.00     0.016 A 
ATOM     14  C   UNL     1      17.184 -22.554 -26.831  1.00  0.00     0.051 A 
ATOM     15  C   UNL     1      18.514 -22.332 -26.450  1.00  0.00     0.157 A 
ATOM     16  C   UNL     1      19.180 -24.326 -27.661  1.00  0.00     0.062 A 
ATOM     17  C   UNL     1      19.515 -23.226 -26.864  1.00  0.00     0.158 A 
BRANCH  15  18
ATOM     18  O   UNL     1      18.841 -21.231 -25.660  1.00  0.00    -0.504 OA
ATOM     19  H   UNL     1      18.604 -21.194 -24.675  1.00  0.00     0.293 HD
ENDBRANCH  15  18
BRANCH  17  20
ATOM     20  O   UNL     1      20.845 -23.041 -26.490  1.00  0.00    -0.504 OA
ATOM     21  H   UNL     1      21.424 -23.805 -26.163  1.00  0.00     0.293 HD
ENDBRANCH  17  20
ENDBRANCH   1  12
BRANCH   2  22
ATOM     22  O   UNL     1      17.291 -27.155 -26.931  1.00  0.00    -0.502 OA
ATOM     23  H   UNL     1      17.137 -26.406 -26.267  1.00  0.00     0.293 HD
ENDBRANCH   2  22
BRANCH   6  24
ATOM     24  O   UNL     1      16.066 -30.124 -31.021  1.00  0.00    -0.507 OA
ATOM     25  H   UNL     1      15.184 -30.560 -31.266  1.00  0.00     0.293 HD
ENDBRANCH   6  24
BRANCH   8  26
ATOM     26  O   UNL     1      16.687 -27.014 -34.678  1.00  0.00    -0.508 OA
ATOM     27  H   UNL     1      16.541 -27.745 -35.364  1.00  0.00     0.293 HD
ENDBRANCH   8  26
TORSDOF 6
ENDMDL
MODEL 8
REMARK VINA RESULT:    -6.160      3.733      6.802
REMARK INTER + INTRA:          -7.587
REMARK INTER:                  -7.343
REMARK INTRA:                  -0.243
REMARK UNBOUND:                -0.166
REMARK SMILES O=c1c(O)c(-c2ccc(O)c(O)c2)oc2cc(O)cc(O)c12
REMARK SMILES IDX 5 1 3 2 2 3 1 4 22 5 20 6 19 7 17 8 16 9 15 10 14 11 6 12
REMARK SMILES IDX 7 13 8 14 9 15 13 16 11 17 10 18 12 20 4 22 21 24 18 26
REMARK H PARENT 10 19 12 21 4 23 21 25 18 27
REMARK Flexibility Score: inf
ROOT
ATOM      1  C   UNL     1      18.392 -23.929 -27.489  1.00  0.00     0.180 A 
ATOM      2  C   UNL     1      18.419 -23.625 -26.115  1.00  0.00     0.208 A 
ATOM      3  C   UNL     1      18.844 -22.350 -25.712  1.00  0.00     0.238 A 
ATOM      4  O   UNL     1      18.884 -22.068 -24.483  1.00  0.00    -0.285 OA
ATOM      5  C   UNL     1      19.216 -21.399 -26.684  1.00  0.00     0.111 A 
ATOM      6  C   UNL     1      19.653 -20.091 -26.362  1.00  0.00     0.134 A 
ATOM      7  C   UNL     1      19.996 -19.199 -27.388  1.00  0.00     0.093 A 
ATOM      8  C   UNL     1      19.911 -19.589 -28.730  1.00  0.00     0.123 A 
ATOM      9  C   UNL     1      19.481 -20.877 -29.052  1.00  0.00     0.094 A 
ATOM     10  C   UNL     1      19.136 -21.781 -28.044  1.00  0.00     0.146 A 
ATOM     11  O   UNL     1      18.735 -23.002 -28.379  1.00  0.00    -0.452 OA
ENDROOT
BRANCH   1  12
ATOM     12  C   UNL     1      17.973 -25.258 -27.993  1.00  0.00     0.025 A 
ATOM     13  C   UNL     1      18.818 -26.364 -27.811  1.00  0.00     0.016 A 
ATOM     14  C   UNL     1      18.435 -27.629 -28.259  1.00  0.00     0.051 A 
ATOM     15  C   UNL     1      17.193 -27.812 -28.882  1.00  0.00     0.157 A 
ATOM     16  C   UNL     1      16.718 -25.449 -28.600  1.00  0.00     0.062 A 
ATOM     17  C   UNL     1      16.329 -26.717 -29.048  1.00  0.00     0.158 A 
BRANCH  15  18
ATOM     18  O   UNL     1      16.814 -29.077 -29.330  1.00  0.00    -0.504 OA
ATOM     19  H   UNL     1      16.180 -29.196 -30.111  1.00  0.00     0.293 HD
ENDBRANCH  15  18
BRANCH  17  20
ATOM     20  O   UNL     1      15.081 -26.869 -29.650  1.00  0.00    -0.504 OA
ATOM     21  H   UNL     1      14.955 -27.406 -30.499  1.00  0.00     0.293 HD
ENDBRANCH  17  20
ENDBRANCH   1  12
BRANCH   2  22
ATOM     22  O   UNL     1      17.999 -24.568 -25.174  1.00  0.00    -0.502 OA
ATOM     23  H   UNL     1      17.423 -24.322 -24.378  1.00  0.00     0.293 HD
ENDBRANCH   2  22
BRANCH   6  24
ATOM     24  O   UNL     1      19.748 -19.673 -25.034  1.00  0.00    -0.507 OA
ATOM     25  H   UNL     1      19.964 -18.713 -24.792  1.00  0.00     0.293 HD
ENDBRANCH   6  24
BRANCH   8  26
ATOM     26  O   UNL     1      20.250 -18.704 -29.750  1.00  0.00    -0.508 OA
ATOM     27  H   UNL     1      21.217 -18.513 -29.987  1.00  0.00     0.293 HD
ENDBRANCH   8  26
TORSDOF 6
ENDMDL
MODEL 9
REMARK VINA RESULT:    -6.126      4.605      6.185
REMARK INTER + INTRA:          -7.545
REMARK INTER:                  -7.214
REMARK INTRA:                  -0.332
REMARK UNBOUND:                -0.166
REMARK SMILES O=c1c(O)c(-c2ccc(O)c(O)c2)oc2cc(O)cc(O)c12
REMARK SMILES IDX 5 1 3 2 2 3 1 4 22 5 20 6 19 7 17 8 16 9 15 10 14 11 6 12
REMARK SMILES IDX 7 13 8 14 9 15 13 16 11 17 10 18 12 20 4 22 21 24 18 26
REMARK H PARENT 10 19 12 21 4 23 21 25 18 27
REMARK Flexibility Score: inf
ROOT
ATOM      1  C   UNL     1      19.154 -24.457 -29.013  1.00  0.00     0.180 A 
ATOM      2  C   UNL     1      18.727 -24.404 -30.353  1.00  0.00     0.208 A 
ATOM      3  C   UNL     1      17.935 -25.449 -30.854  1.00  0.00     0.238 A 
ATOM      4  O   UNL     1      17.555 -25.419 -32.056  1.00  0.00    -0.285 OA
ATOM      5  C   UNL     1      17.570 -26.515 -30.007  1.00  0.00     0.111 A 
ATOM      6  C   UNL     1      16.772 -27.604 -30.432  1.00  0.00     0.134 A 
ATOM      7  C   UNL     1      16.442 -28.622 -29.525  1.00  0.00     0.093 A 
ATOM      8  C   UNL     1      16.895 -28.571 -28.201  1.00  0.00     0.123 A 
ATOM      9  C   UNL     1      17.682 -27.499 -27.778  1.00  0.00     0.094 A 
ATOM     10  C   UNL     1      18.023 -26.476 -28.667  1.00  0.00     0.146 A 
ATOM     11  O   UNL     1      18.777 -25.470 -28.238  1.00  0.00    -0.452 OA
ENDROOT
BRANCH   1  12
ATOM     12  C   UNL     1      20.006 -23.403 -28.416  1.00  0.00     0.025 A 
ATOM     13  C   UNL     1      19.405 -22.319 -27.757  1.00  0.00     0.016 A 
ATOM     14  C   UNL     1      20.190 -21.324 -27.170  1.00  0.00     0.051 A 
ATOM     15  C   UNL     1      21.588 -21.406 -27.218  1.00  0.00     0.157 A 
ATOM     16  C   UNL     1      21.410 -23.492 -28.444  1.00  0.00     0.062 A 
ATOM     17  C   UNL     1      22.200 -22.499 -27.854  1.00  0.00     0.158 A 
BRANCH  15  18
ATOM     18  O   UNL     1      22.368 -20.410 -26.631  1.00  0.00    -0.504 OA
ATOM     19  H   UNL     1      21.959 -19.689 -26.050  1.00  0.00     0.293 HD
ENDBRANCH  15  18
BRANCH  17  20
ATOM     20  O   UNL     1      23.588 -22.617 -27.906  1.00  0.00    -0.504 OA
ATOM     21  H   UNL     1      24.195 -21.809 -27.961  1.00  0.00     0.293 HD
ENDBRANCH  17  20
ENDBRANCH   1  12
BRANCH   2  22
ATOM     22  O   UNL     1      19.062 -23.313 -31.159  1.00  0.00    -0.502 OA
ATOM     23  H   UNL     1      19.048 -22.360 -30.816  1.00  0.00     0.293 HD
ENDBRANCH   2  22
BRANCH   6  24
ATOM     24  O   UNL     1      16.305 -27.683 -31.745  1.00  0.00    -0.507 OA
ATOM     25  H   UNL     1      15.434 -27.249 -32.028  1.00  0.00     0.293 HD
ENDBRANCH   6  24
BRANCH   8  26
ATOM     26  O   UNL     1      16.568 -29.580 -27.300  1.00  0.00    -0.508 OA
ATOM     27  H   UNL     1      15.640 -29.988 -27.274  1.00  0.00     0.293 HD
ENDBRANCH   8  26
TORSDOF 6
ENDMDL
