MODEL 1
REMARK VINA RESULT:    -3.180      0.000      0.000
REMARK INTER + INTRA:          -7.820
REMARK INTER:                  -5.782
REMARK INTRA:                  -2.038
REMARK UNBOUND:                -2.038
REMARK SMILES CCCCCCCCCCCCCCCC(=O)[O-]
REMARK SMILES IDX 9 1 10 2 11 3 12 4 13 5 14 6 15 7 16 8 17 9 18 10 8 11 7 12
REMARK SMILES IDX 6 13 5 14 4 15 3 16 2 17 1 18
REMARK H PARENT
REMARK Flexibility Score: inf
ROOT
ATOM      1  C   UNL     1     -49.157 -50.896  68.882  1.00  0.00     0.000 C 
ENDROOT
BRANCH   1   2
ATOM      2  C   UNL     1     -48.886 -50.437  67.439  1.00  0.00     0.000 C 
BRANCH   2   3
ATOM      3  C   UNL     1     -47.552 -49.683  67.303  1.00  0.00     0.000 C 
BRANCH   3   4
ATOM      4  C   UNL     1     -47.726 -48.287  66.680  1.00  0.00     0.000 C 
BRANCH   4   5
ATOM      5  C   UNL     1     -48.860 -47.484  67.337  1.00  0.00     0.000 C 
BRANCH   5   6
ATOM      6  C   UNL     1     -49.912 -47.004  66.325  1.00  0.00     0.006 C 
BRANCH   6   7
ATOM      7  C   UNL     1     -49.535 -47.427  64.902  1.00  0.00     0.053 C 
BRANCH   7   8
ATOM      8  C   UNL     1     -49.410 -46.229  64.015  1.00  0.00     0.041 C 
ATOM      9  O   UNL     1     -48.360 -46.043  63.346  1.00  0.00    -0.550 OA
ATOM     10  O   UNL     1     -50.432 -45.289  63.968  1.00  0.00    -0.550 OA
ENDBRANCH   7   8
ENDBRANCH   6   7
ENDBRANCH   5   6
ENDBRANCH   4   5
ENDBRANCH   3   4
ENDBRANCH   2   3
ENDBRANCH   1   2
BRANCH   1  11
ATOM     11  C   UNL     1     -50.346 -50.163  69.529  1.00  0.00     0.000 C 
BRANCH  11  12
ATOM     12  C   UNL     1     -49.972 -49.116  70.594  1.00  0.00    -0.000 C 
BRANCH  12  13
ATOM     13  C   UNL     1     -48.452 -48.938  70.749  1.00  0.00    -0.000 C 
BRANCH  13  14
ATOM     14  C   UNL     1     -48.055 -47.501  71.128  1.00  0.00    -0.000 C 
BRANCH  14  15
ATOM     15  C   UNL     1     -46.650 -47.067  70.667  1.00  0.00    -0.000 C 
BRANCH  15  16
ATOM     16  C   UNL     1     -45.911 -48.132  69.829  1.00  0.00    -0.000 C 
BRANCH  16  17
ATOM     17  C   UNL     1     -44.854 -48.886  70.649  1.00  0.00    -0.003 C 
ATOM     18  C   UNL     1     -44.765 -50.348  70.221  1.00  0.00     0.004 C 
ENDBRANCH  16  17
ENDBRANCH  15  16
ENDBRANCH  14  15
ENDBRANCH  13  14
ENDBRANCH  12  13
ENDBRANCH  11  12
ENDBRANCH   1  11
TORSDOF 14
ENDMDL
MODEL 2
REMARK VINA RESULT:    -3.177      4.907      6.795
REMARK INTER + INTRA:          -7.816
REMARK INTER:                  -6.207
REMARK INTRA:                  -1.608
REMARK UNBOUND:                -2.038
REMARK SMILES CCCCCCCCCCCCCCCC(=O)[O-]
REMARK SMILES IDX 9 1 10 2 11 3 12 4 13 5 14 6 15 7 16 8 17 9 18 10 8 11 7 12
REMARK SMILES IDX 6 13 5 14 4 15 3 16 2 17 1 18
REMARK H PARENT
REMARK Flexibility Score: inf
ROOT
ATOM      1  C   UNL     1     -44.267 -48.042  67.894  1.00  0.00     0.000 C 
ENDROOT
BRANCH   1   2
ATOM      2  C   UNL     1     -43.149 -47.682  66.901  1.00  0.00     0.000 C 
BRANCH   2   3
ATOM      3  C   UNL     1     -42.113 -46.719  67.506  1.00  0.00     0.000 C 
BRANCH   3   4
ATOM      4  C   UNL     1     -42.353 -45.258  67.088  1.00  0.00     0.000 C 
BRANCH   4   5
ATOM      5  C   UNL     1     -41.948 -44.256  68.182  1.00  0.00     0.000 C 
BRANCH   5   6
ATOM      6  C   UNL     1     -43.013 -44.113  69.280  1.00  0.00     0.006 C 
BRANCH   6   7
ATOM      7  C   UNL     1     -43.597 -42.697  69.295  1.00  0.00     0.053 C 
BRANCH   7   8
ATOM      8  C   UNL     1     -43.133 -41.952  70.507  1.00  0.00     0.041 C 
ATOM      9  O   UNL     1     -42.303 -42.478  71.295  1.00  0.00    -0.550 OA
ATOM     10  O   UNL     1     -43.658 -40.699  70.796  1.00  0.00    -0.550 OA
ENDBRANCH   7   8
ENDBRANCH   6   7
ENDBRANCH   5   6
ENDBRANCH   4   5
ENDBRANCH   3   4
ENDBRANCH   2   3
ENDBRANCH   1   2
BRANCH   1  11
ATOM     11  C   UNL     1     -43.831 -49.095  68.929  1.00  0.00     0.000 C 
BRANCH  11  12
ATOM     12  C   UNL     1     -44.263 -48.809  70.379  1.00  0.00    -0.000 C 
BRANCH  12  13
ATOM     13  C   UNL     1     -44.088 -47.332  70.774  1.00  0.00    -0.000 C 
BRANCH  13  14
ATOM     14  C   UNL     1     -45.387 -46.698  71.301  1.00  0.00    -0.000 C 
BRANCH  14  15
ATOM     15  C   UNL     1     -46.656 -47.550  71.110  1.00  0.00    -0.000 C 
BRANCH  15  16
ATOM     16  C   UNL     1     -47.617 -47.007  70.031  1.00  0.00    -0.000 C 
BRANCH  16  17
ATOM     17  C   UNL     1     -48.075 -48.101  69.055  1.00  0.00    -0.003 C 
ATOM     18  C   UNL     1     -48.749 -47.497  67.826  1.00  0.00     0.004 C 
ENDBRANCH  16  17
ENDBRANCH  15  16
ENDBRANCH  14  15
ENDBRANCH  13  14
ENDBRANCH  12  13
ENDBRANCH  11  12
ENDBRANCH   1  11
TORSDOF 14
ENDMDL
MODEL 3
REMARK VINA RESULT:    -3.172      5.839      8.585
REMARK INTER + INTRA:          -7.806
REMARK INTER:                  -5.950
REMARK INTRA:                  -1.856
REMARK UNBOUND:                -2.038
REMARK SMILES CCCCCCCCCCCCCCCC(=O)[O-]
REMARK SMILES IDX 9 1 10 2 11 3 12 4 13 5 14 6 15 7 16 8 17 9 18 10 8 11 7 12
REMARK SMILES IDX 6 13 5 14 4 15 3 16 2 17 1 18
REMARK H PARENT
REMARK Flexibility Score: inf
ROOT
ATOM      1  C   UNL     1     -41.186 -44.654  67.942  1.00  0.00     0.000 C 
ENDROOT
BRANCH   1   2
ATOM      2  C   UNL     1     -41.550 -43.438  68.810  1.00  0.00     0.000 C 
BRANCH   2   3
ATOM      3  C   UNL     1     -43.038 -43.419  69.201  1.00  0.00     0.000 C 
BRANCH   3   4
ATOM      4  C   UNL     1     -43.307 -44.151  70.528  1.00  0.00     0.000 C 
BRANCH   4   5
ATOM      5  C   UNL     1     -42.111 -44.086  71.491  1.00  0.00     0.000 C 
BRANCH   5   6
ATOM      6  C   UNL     1     -42.224 -45.093  72.647  1.00  0.00     0.006 C 
BRANCH   6   7
ATOM      7  C   UNL     1     -43.687 -45.299  73.052  1.00  0.00     0.053 C 
BRANCH   7   8
ATOM      8  C   UNL     1     -43.970 -44.620  74.355  1.00  0.00     0.041 C 
ATOM      9  O   UNL     1     -44.095 -43.368  74.403  1.00  0.00    -0.550 OA
ATOM     10  O   UNL     1     -44.042 -45.364  75.525  1.00  0.00    -0.550 OA
ENDBRANCH   7   8
ENDBRANCH   6   7
ENDBRANCH   5   6
ENDBRANCH   4   5
ENDBRANCH   3   4
ENDBRANCH   2   3
ENDBRANCH   1   2
BRANCH   1  11
ATOM     11  C   UNL     1     -42.409 -45.278  67.244  1.00  0.00     0.000 C 
BRANCH  11  12
ATOM     12  C   UNL     1     -42.360 -46.807  67.075  1.00  0.00    -0.000 C 
BRANCH  12  13
ATOM     13  C   UNL     1     -43.315 -47.545  68.029  1.00  0.00    -0.000 C 
BRANCH  13  14
ATOM     14  C   UNL     1     -42.750 -47.676  69.455  1.00  0.00    -0.000 C 
BRANCH  14  15
ATOM     15  C   UNL     1     -43.807 -47.773  70.571  1.00  0.00    -0.000 C 
BRANCH  15  16
ATOM     16  C   UNL     1     -44.691 -49.035  70.488  1.00  0.00    -0.000 C 
BRANCH  16  17
ATOM     17  C   UNL     1     -46.185 -48.711  70.632  1.00  0.00    -0.003 C 
ATOM     18  C   UNL     1     -46.396 -47.264  71.065  1.00  0.00     0.004 C 
ENDBRANCH  16  17
ENDBRANCH  15  16
ENDBRANCH  14  15
ENDBRANCH  13  14
ENDBRANCH  12  13
ENDBRANCH  11  12
ENDBRANCH   1  11
TORSDOF 14
ENDMDL
MODEL 4
REMARK VINA RESULT:    -3.156      1.376      3.203
REMARK INTER + INTRA:          -7.776
REMARK INTER:                  -5.817
REMARK INTRA:                  -1.960
REMARK UNBOUND:                -2.038
REMARK SMILES CCCCCCCCCCCCCCCC(=O)[O-]
REMARK SMILES IDX 9 1 10 2 11 3 12 4 13 5 14 6 15 7 16 8 17 9 18 10 8 11 7 12
REMARK SMILES IDX 6 13 5 14 4 15 3 16 2 17 1 18
REMARK H PARENT
REMARK Flexibility Score: inf
ROOT
ATOM      1  C   UNL     1     -44.384 -48.555  68.266  1.00  0.00     0.000 C 
ENDROOT
BRANCH   1   2
ATOM      2  C   UNL     1     -45.234 -48.576  66.984  1.00  0.00     0.000 C 
BRANCH   2   3
ATOM      3  C   UNL     1     -46.735 -48.747  67.277  1.00  0.00     0.000 C 
BRANCH   3   4
ATOM      4  C   UNL     1     -47.599 -48.627  66.010  1.00  0.00     0.000 C 
BRANCH   4   5
ATOM      5  C   UNL     1     -49.098 -48.502  66.326  1.00  0.00     0.000 C 
BRANCH   5   6
ATOM      6  C   UNL     1     -49.502 -47.078  66.739  1.00  0.00     0.006 C 
BRANCH   6   7
ATOM      7  C   UNL     1     -50.951 -46.783  66.339  1.00  0.00     0.053 C 
BRANCH   7   8
ATOM      8  C   UNL     1     -51.026 -46.388  64.898  1.00  0.00     0.041 C 
ATOM      9  O   UNL     1     -51.960 -46.817  64.171  1.00  0.00    -0.550 OA
ATOM     10  O   UNL     1     -50.035 -45.589  64.343  1.00  0.00    -0.550 OA
ENDBRANCH   7   8
ENDBRANCH   6   7
ENDBRANCH   5   6
ENDBRANCH   4   5
ENDBRANCH   3   4
ENDBRANCH   2   3
ENDBRANCH   1   2
BRANCH   1  11
ATOM     11  C   UNL     1     -44.984 -49.413  69.395  1.00  0.00     0.000 C 
BRANCH  11  12
ATOM     12  C   UNL     1     -45.138 -48.700  70.751  1.00  0.00    -0.000 C 
BRANCH  12  13
ATOM     13  C   UNL     1     -45.406 -47.192  70.606  1.00  0.00    -0.000 C 
BRANCH  13  14
ATOM     14  C   UNL     1     -46.896 -46.868  70.398  1.00  0.00    -0.000 C 
BRANCH  14  15
ATOM     15  C   UNL     1     -47.877 -47.798  71.137  1.00  0.00    -0.000 C 
BRANCH  15  16
ATOM     16  C   UNL     1     -48.875 -48.520  70.206  1.00  0.00    -0.000 C 
BRANCH  16  17
ATOM     17  C   UNL     1     -49.286 -49.897  70.749  1.00  0.00    -0.003 C 
ATOM     18  C   UNL     1     -48.221 -50.948  70.450  1.00  0.00     0.004 C 
ENDBRANCH  16  17
ENDBRANCH  15  16
ENDBRANCH  14  15
ENDBRANCH  13  14
ENDBRANCH  12  13
ENDBRANCH  11  12
ENDBRANCH   1  11
TORSDOF 14
ENDMDL
MODEL 5
REMARK VINA RESULT:    -3.117      3.141      6.032
REMARK INTER + INTRA:          -7.705
REMARK INTER:                  -5.362
REMARK INTRA:                  -2.343
REMARK UNBOUND:                -2.038
REMARK SMILES CCCCCCCCCCCCCCCC(=O)[O-]
REMARK SMILES IDX 9 1 10 2 11 3 12 4 13 5 14 6 15 7 16 8 17 9 18 10 8 11 7 12
REMARK SMILES IDX 6 13 5 14 4 15 3 16 2 17 1 18
REMARK H PARENT
REMARK Flexibility Score: inf
ROOT
ATOM      1  C   UNL     1     -45.080 -49.793  69.211  1.00  0.00     0.000 C 
ENDROOT
BRANCH   1   2
ATOM      2  C   UNL     1     -45.157 -49.245  70.647  1.00  0.00     0.000 C 
BRANCH   2   3
ATOM      3  C   UNL     1     -45.506 -47.747  70.687  1.00  0.00     0.000 C 
BRANCH   3   4
ATOM      4  C   UNL     1     -46.987 -47.497  71.021  1.00  0.00     0.000 C 
BRANCH   4   5
ATOM      5  C   UNL     1     -47.856 -47.332  69.764  1.00  0.00     0.000 C 
BRANCH   5   6
ATOM      6  C   UNL     1     -48.916 -48.436  69.626  1.00  0.00     0.006 C 
BRANCH   6   7
ATOM      7  C   UNL     1     -48.829 -49.427  70.790  1.00  0.00     0.053 C 
BRANCH   7   8
ATOM      8  C   UNL     1     -48.535 -50.804  70.285  1.00  0.00     0.041 C 
ATOM      9  O   UNL     1     -49.020 -51.195  69.191  1.00  0.00    -0.550 OA
ATOM     10  O   UNL     1     -47.768 -51.675  71.048  1.00  0.00    -0.550 OA
ENDBRANCH   7   8
ENDBRANCH   6   7
ENDBRANCH   5   6
ENDBRANCH   4   5
ENDBRANCH   3   4
ENDBRANCH   2   3
ENDBRANCH   1   2
BRANCH   1  11
ATOM     11  C   UNL     1     -44.819 -48.693  68.166  1.00  0.00     0.000 C 
BRANCH  11  12
ATOM     12  C   UNL     1     -45.857 -48.604  67.033  1.00  0.00    -0.000 C 
BRANCH  12  13
ATOM     13  C   UNL     1     -46.740 -49.860  66.931  1.00  0.00    -0.000 C 
BRANCH  13  14
ATOM     14  C   UNL     1     -47.788 -49.764  65.808  1.00  0.00    -0.000 C 
BRANCH  14  15
ATOM     15  C   UNL     1     -47.785 -48.438  65.023  1.00  0.00    -0.000 C 
BRANCH  15  16
ATOM     16  C   UNL     1     -49.149 -47.715  65.012  1.00  0.00    -0.000 C 
BRANCH  16  17
ATOM     17  C   UNL     1     -49.478 -47.072  66.367  1.00  0.00    -0.003 C 
ATOM     18  C   UNL     1     -50.986 -46.966  66.574  1.00  0.00     0.004 C 
ENDBRANCH  16  17
ENDBRANCH  15  16
ENDBRANCH  14  15
ENDBRANCH  13  14
ENDBRANCH  12  13
ENDBRANCH  11  12
ENDBRANCH   1  11
TORSDOF 14
ENDMDL
MODEL 6
REMARK VINA RESULT:    -3.112      6.643      8.963
REMARK INTER + INTRA:          -7.698
REMARK INTER:                  -6.681
REMARK INTRA:                  -1.016
REMARK UNBOUND:                -2.038
REMARK SMILES CCCCCCCCCCCCCCCC(=O)[O-]
REMARK SMILES IDX 9 1 10 2 11 3 12 4 13 5 14 6 15 7 16 8 17 9 18 10 8 11 7 12
REMARK SMILES IDX 6 13 5 14 4 15 3 16 2 17 1 18
REMARK H PARENT
REMARK Flexibility Score: inf
ROOT
ATOM      1  C   UNL     1     -42.747 -43.618  68.528  1.00  0.00     0.000 C 
ENDROOT
BRANCH   1   2
ATOM      2  C   UNL     1     -41.630 -42.612  68.859  1.00  0.00     0.000 C 
BRANCH   2   3
ATOM      3  C   UNL     1     -42.182 -41.250  69.314  1.00  0.00     0.000 C 
BRANCH   3   4
ATOM      4  C   UNL     1     -43.332 -41.389  70.328  1.00  0.00     0.000 C 
BRANCH   4   5
ATOM      5  C   UNL     1     -43.610 -40.083  71.088  1.00  0.00     0.000 C 
BRANCH   5   6
ATOM      6  C   UNL     1     -44.665 -40.252  72.193  1.00  0.00     0.006 C 
BRANCH   6   7
ATOM      7  C   UNL     1     -45.686 -39.112  72.153  1.00  0.00     0.053 C 
BRANCH   7   8
ATOM      8  C   UNL     1     -46.595 -39.181  73.340  1.00  0.00     0.041 C 
ATOM      9  O   UNL     1     -46.335 -39.963  74.292  1.00  0.00    -0.550 OA
ATOM     10  O   UNL     1     -47.757 -38.422  73.371  1.00  0.00    -0.550 OA
ENDBRANCH   7   8
ENDBRANCH   6   7
ENDBRANCH   5   6
ENDBRANCH   4   5
ENDBRANCH   3   4
ENDBRANCH   2   3
ENDBRANCH   1   2
BRANCH   1  11
ATOM     11  C   UNL     1     -42.289 -45.082  68.655  1.00  0.00     0.000 C 
BRANCH  11  12
ATOM     12  C   UNL     1     -42.034 -45.570  70.093  1.00  0.00    -0.000 C 
BRANCH  12  13
ATOM     13  C   UNL     1     -43.072 -45.037  71.096  1.00  0.00    -0.000 C 
BRANCH  13  14
ATOM     14  C   UNL     1     -43.934 -46.153  71.711  1.00  0.00    -0.000 C 
BRANCH  14  15
ATOM     15  C   UNL     1     -43.940 -47.481  70.930  1.00  0.00    -0.000 C 
BRANCH  15  16
ATOM     16  C   UNL     1     -45.316 -47.850  70.334  1.00  0.00    -0.000 C 
BRANCH  16  17
ATOM     17  C   UNL     1     -46.480 -47.295  71.169  1.00  0.00    -0.003 C 
ATOM     18  C   UNL     1     -47.775 -47.273  70.362  1.00  0.00     0.004 C 
ENDBRANCH  16  17
ENDBRANCH  15  16
ENDBRANCH  14  15
ENDBRANCH  13  14
ENDBRANCH  12  13
ENDBRANCH  11  12
ENDBRANCH   1  11
TORSDOF 14
ENDMDL
MODEL 7
REMARK VINA RESULT:    -3.105      6.169      8.412
REMARK INTER + INTRA:          -7.685
REMARK INTER:                  -6.699
REMARK INTRA:                  -0.986
REMARK UNBOUND:                -2.038
REMARK SMILES CCCCCCCCCCCCCCCC(=O)[O-]
REMARK SMILES IDX 9 1 10 2 11 3 12 4 13 5 14 6 15 7 16 8 17 9 18 10 8 11 7 12
REMARK SMILES IDX 6 13 5 14 4 15 3 16 2 17 1 18
REMARK H PARENT
REMARK Flexibility Score: inf
ROOT
ATOM      1  C   UNL     1     -42.799 -45.279  69.524  1.00  0.00     0.000 C 
ENDROOT
BRANCH   1   2
ATOM      2  C   UNL     1     -42.592 -43.934  68.805  1.00  0.00     0.000 C 
BRANCH   2   3
ATOM      3  C   UNL     1     -43.538 -42.838  69.326  1.00  0.00     0.000 C 
BRANCH   3   4
ATOM      4  C   UNL     1     -42.791 -41.549  69.710  1.00  0.00     0.000 C 
BRANCH   4   5
ATOM      5  C   UNL     1     -43.176 -41.037  71.107  1.00  0.00     0.000 C 
BRANCH   5   6
ATOM      6  C   UNL     1     -44.557 -40.364  71.133  1.00  0.00     0.006 C 
BRANCH   6   7
ATOM      7  C   UNL     1     -44.532 -39.097  71.993  1.00  0.00     0.053 C 
BRANCH   7   8
ATOM      8  C   UNL     1     -45.700 -39.076  72.929  1.00  0.00     0.041 C 
ATOM      9  O   UNL     1     -46.145 -37.981  73.363  1.00  0.00    -0.550 OA
ATOM     10  O   UNL     1     -46.265 -40.268  73.363  1.00  0.00    -0.550 OA
ENDBRANCH   7   8
ENDBRANCH   6   7
ENDBRANCH   5   6
ENDBRANCH   4   5
ENDBRANCH   3   4
ENDBRANCH   2   3
ENDBRANCH   1   2
BRANCH   1  11
ATOM     11  C   UNL     1     -43.243 -45.112  70.988  1.00  0.00     0.000 C 
BRANCH  11  12
ATOM     12  C   UNL     1     -43.932 -46.340  71.610  1.00  0.00    -0.000 C 
BRANCH  12  13
ATOM     13  C   UNL     1     -44.027 -47.528  70.637  1.00  0.00    -0.000 C 
BRANCH  13  14
ATOM     14  C   UNL     1     -45.410 -48.203  70.653  1.00  0.00    -0.000 C 
BRANCH  14  15
ATOM     15  C   UNL     1     -46.563 -47.321  71.169  1.00  0.00    -0.000 C 
BRANCH  15  16
ATOM     16  C   UNL     1     -47.591 -46.938  70.083  1.00  0.00    -0.000 C 
BRANCH  16  17
ATOM     17  C   UNL     1     -47.774 -48.047  69.037  1.00  0.00    -0.003 C 
ATOM     18  C   UNL     1     -48.705 -47.599  67.914  1.00  0.00     0.004 C 
ENDBRANCH  16  17
ENDBRANCH  15  16
ENDBRANCH  14  15
ENDBRANCH  13  14
ENDBRANCH  12  13
ENDBRANCH  11  12
ENDBRANCH   1  11
TORSDOF 14
ENDMDL
MODEL 8
REMARK VINA RESULT:    -3.099      1.766      2.607
REMARK INTER + INTRA:          -7.673
REMARK INTER:                  -6.312
REMARK INTRA:                  -1.362
REMARK UNBOUND:                -2.038
REMARK SMILES CCCCCCCCCCCCCCCC(=O)[O-]
REMARK SMILES IDX 9 1 10 2 11 3 12 4 13 5 14 6 15 7 16 8 17 9 18 10 8 11 7 12
REMARK SMILES IDX 6 13 5 14 4 15 3 16 2 17 1 18
REMARK H PARENT
REMARK Flexibility Score: inf
ROOT
ATOM      1  C   UNL     1     -49.184 -49.597  70.380  1.00  0.00     0.000 C 
ENDROOT
BRANCH   1   2
ATOM      2  C   UNL     1     -49.415 -49.722  68.864  1.00  0.00     0.000 C 
BRANCH   2   3
ATOM      3  C   UNL     1     -48.138 -49.448  68.050  1.00  0.00     0.000 C 
BRANCH   3   4
ATOM      4  C   UNL     1     -48.354 -48.389  66.955  1.00  0.00     0.000 C 
BRANCH   4   5
ATOM      5  C   UNL     1     -49.115 -47.155  67.469  1.00  0.00     0.000 C 
BRANCH   5   6
ATOM      6  C   UNL     1     -50.272 -46.745  66.545  1.00  0.00     0.006 C 
BRANCH   6   7
ATOM      7  C   UNL     1     -50.077 -47.313  65.136  1.00  0.00     0.053 C 
BRANCH   7   8
ATOM      8  C   UNL     1     -49.689 -46.227  64.183  1.00  0.00     0.041 C 
ATOM      9  O   UNL     1     -50.443 -45.232  64.015  1.00  0.00    -0.550 OA
ATOM     10  O   UNL     1     -48.520 -46.338  63.441  1.00  0.00    -0.550 OA
ENDBRANCH   7   8
ENDBRANCH   6   7
ENDBRANCH   5   6
ENDBRANCH   4   5
ENDBRANCH   3   4
ENDBRANCH   2   3
ENDBRANCH   1   2
BRANCH   1  11
ATOM     11  C   UNL     1     -47.796 -49.029  70.728  1.00  0.00     0.000 C 
BRANCH  11  12
ATOM     12  C   UNL     1     -47.773 -47.536  71.105  1.00  0.00    -0.000 C 
BRANCH  12  13
ATOM     13  C   UNL     1     -46.368 -46.916  71.005  1.00  0.00    -0.000 C 
BRANCH  13  14
ATOM     14  C   UNL     1     -45.282 -47.952  70.666  1.00  0.00    -0.000 C 
BRANCH  14  15
ATOM     15  C   UNL     1     -43.835 -47.495  70.934  1.00  0.00    -0.000 C 
BRANCH  15  16
ATOM     16  C   UNL     1     -43.724 -46.043  71.446  1.00  0.00    -0.000 C 
BRANCH  16  17
ATOM     17  C   UNL     1     -43.296 -45.067  70.340  1.00  0.00    -0.003 C 
ATOM     18  C   UNL     1     -41.933 -45.446  69.767  1.00  0.00     0.004 C 
ENDBRANCH  16  17
ENDBRANCH  15  16
ENDBRANCH  14  15
ENDBRANCH  13  14
ENDBRANCH  12  13
ENDBRANCH  11  12
ENDBRANCH   1  11
TORSDOF 14
ENDMDL
MODEL 9
REMARK VINA RESULT:    -3.074      3.044      6.155
REMARK INTER + INTRA:          -7.628
REMARK INTER:                  -5.807
REMARK INTRA:                  -1.821
REMARK UNBOUND:                -2.038
REMARK SMILES CCCCCCCCCCCCCCCC(=O)[O-]
REMARK SMILES IDX 9 1 10 2 11 3 12 4 13 5 14 6 15 7 16 8 17 9 18 10 8 11 7 12
REMARK SMILES IDX 6 13 5 14 4 15 3 16 2 17 1 18
REMARK H PARENT
REMARK Flexibility Score: inf
ROOT
ATOM      1  C   UNL     1     -44.177 -48.915  67.743  1.00  0.00     0.000 C 
ENDROOT
BRANCH   1   2
ATOM      2  C   UNL     1     -44.145 -47.975  68.960  1.00  0.00     0.000 C 
BRANCH   2   3
ATOM      3  C   UNL     1     -44.282 -48.732  70.292  1.00  0.00     0.000 C 
BRANCH   3   4
ATOM      4  C   UNL     1     -45.743 -48.831  70.765  1.00  0.00     0.000 C 
BRANCH   4   5
ATOM      5  C   UNL     1     -46.452 -47.467  70.781  1.00  0.00     0.000 C 
BRANCH   5   6
ATOM      6  C   UNL     1     -47.978 -47.592  70.918  1.00  0.00     0.006 C 
BRANCH   6   7
ATOM      7  C   UNL     1     -48.433 -49.034  70.673  1.00  0.00     0.053 C 
BRANCH   7   8
ATOM      8  C   UNL     1     -49.849 -49.219  71.120  1.00  0.00     0.041 C 
ATOM      9  O   UNL     1     -50.377 -48.393  71.910  1.00  0.00    -0.550 OA
ATOM     10  O   UNL     1     -50.568 -50.332  70.706  1.00  0.00    -0.550 OA
ENDBRANCH   7   8
ENDBRANCH   6   7
ENDBRANCH   5   6
ENDBRANCH   4   5
ENDBRANCH   3   4
ENDBRANCH   2   3
ENDBRANCH   1   2
BRANCH   1  11
ATOM     11  C   UNL     1     -45.480 -48.800  66.932  1.00  0.00     0.000 C 
BRANCH  11  12
ATOM     12  C   UNL     1     -46.417 -50.018  67.016  1.00  0.00    -0.000 C 
BRANCH  12  13
ATOM     13  C   UNL     1     -47.897 -49.624  67.170  1.00  0.00    -0.000 C 
BRANCH  13  14
ATOM     14  C   UNL     1     -48.165 -48.155  66.799  1.00  0.00    -0.000 C 
BRANCH  14  15
ATOM     15  C   UNL     1     -49.430 -47.542  67.429  1.00  0.00    -0.000 C 
BRANCH  15  16
ATOM     16  C   UNL     1     -50.204 -46.598  66.483  1.00  0.00    -0.000 C 
BRANCH  16  17
ATOM     17  C   UNL     1     -50.230 -47.114  65.037  1.00  0.00    -0.003 C 
ATOM     18  C   UNL     1     -49.729 -46.052  64.063  1.00  0.00     0.004 C 
ENDBRANCH  16  17
ENDBRANCH  15  16
ENDBRANCH  14  15
ENDBRANCH  13  14
ENDBRANCH  12  13
ENDBRANCH  11  12
ENDBRANCH   1  11
TORSDOF 14
ENDMDL
