MODEL 1
REMARK VINA RESULT:    -6.295      0.000      0.000
REMARK INTER + INTRA:          -7.705
REMARK INTER:                  -7.399
REMARK INTRA:                  -0.306
REMARK UNBOUND:                -0.306
REMARK SMILES O=c1c(O)c(-c2ccc(O)c(O)c2)oc2cc(O)ccc12
REMARK SMILES IDX 5 1 3 2 2 3 1 4 21 5 15 6 14 7 16 8 17 9 19 10 20 11 6 12
REMARK SMILES IDX 7 13 8 14 9 15 13 16 11 17 10 18 12 20 4 22 18 24
REMARK H PARENT 10 19 12 21 4 23 18 25
REMARK Flexibility Score: inf
ROOT
ATOM      1  C   UNL     1     173.371 174.651 176.395  1.00  0.00     0.180 A 
ATOM      2  C   UNL     1     174.719 174.267 176.549  1.00  0.00     0.208 A 
ATOM      3  C   UNL     1     175.130 173.720 177.774  1.00  0.00     0.235 A 
ATOM      4  O   UNL     1     176.334 173.378 177.940  1.00  0.00    -0.285 OA
ATOM      5  C   UNL     1     174.192 173.551 178.805  1.00  0.00     0.069 A 
ATOM      6  C   UNL     1     172.857 173.939 178.564  1.00  0.00     0.142 A 
ATOM      7  O   UNL     1     172.510 174.461 177.392  1.00  0.00    -0.452 OA
ATOM      8  C   UNL     1     171.890 173.778 179.562  1.00  0.00     0.094 A 
ATOM      9  C   UNL     1     172.240 173.234 180.803  1.00  0.00     0.119 A 
ATOM     10  C   UNL     1     173.566 172.849 181.046  1.00  0.00     0.047 A 
ATOM     11  C   UNL     1     174.539 173.005 180.054  1.00  0.00     0.020 A 
ENDROOT
BRANCH   1  12
ATOM     12  C   UNL     1     172.864 175.253 175.140  1.00  0.00     0.025 A 
ATOM     13  C   UNL     1     172.470 174.454 174.053  1.00  0.00     0.016 A 
ATOM     14  C   UNL     1     172.016 175.044 172.870  1.00  0.00     0.051 A 
ATOM     15  C   UNL     1     171.962 176.440 172.753  1.00  0.00     0.157 A 
ATOM     16  C   UNL     1     172.827 176.651 175.009  1.00  0.00     0.062 A 
ATOM     17  C   UNL     1     172.372 177.245 173.824  1.00  0.00     0.158 A 
BRANCH  15  18
ATOM     18  O   UNL     1     171.509 177.032 171.576  1.00  0.00    -0.504 OA
ATOM     19  H   UNL     1     170.647 176.738 171.132  1.00  0.00     0.293 HD
ENDBRANCH  15  18
BRANCH  17  20
ATOM     20  O   UNL     1     172.325 178.632 173.701  1.00  0.00    -0.504 OA
ATOM     21  H   UNL     1     172.516 179.093 172.819  1.00  0.00     0.293 HD
ENDBRANCH  17  20
ENDBRANCH   1  12
BRANCH   2  22
ATOM     22  O   UNL     1     175.619 174.401 175.489  1.00  0.00    -0.502 OA
ATOM     23  H   UNL     1     175.316 174.458 174.524  1.00  0.00     0.293 HD
ENDBRANCH   2  22
BRANCH   9  24
ATOM     24  O   UNL     1     171.265 173.081 181.785  1.00  0.00    -0.508 OA
ATOM     25  H   UNL     1     171.142 173.769 182.519  1.00  0.00     0.293 HD
ENDBRANCH   9  24
TORSDOF 5
ENDMDL
MODEL 2
REMARK VINA RESULT:    -6.202      1.028      1.643
REMARK INTER + INTRA:          -7.597
REMARK INTER:                  -7.276
REMARK INTRA:                  -0.320
REMARK UNBOUND:                -0.306
REMARK SMILES O=c1c(O)c(-c2ccc(O)c(O)c2)oc2cc(O)ccc12
REMARK SMILES IDX 5 1 3 2 2 3 1 4 21 5 15 6 14 7 16 8 17 9 19 10 20 11 6 12
REMARK SMILES IDX 7 13 8 14 9 15 13 16 11 17 10 18 12 20 4 22 18 24
REMARK H PARENT 10 19 12 21 4 23 18 25
REMARK Flexibility Score: inf
ROOT
ATOM      1  C   UNL     1     173.144 175.252 176.246  1.00  0.00     0.180 A 
ATOM      2  C   UNL     1     174.487 174.840 176.129  1.00  0.00     0.208 A 
ATOM      3  C   UNL     1     175.064 174.107 177.178  1.00  0.00     0.235 A 
ATOM      4  O   UNL     1     176.268 173.736 177.100  1.00  0.00    -0.285 OA
ATOM      5  C   UNL     1     174.289 173.786 178.303  1.00  0.00     0.069 A 
ATOM      6  C   UNL     1     172.945 174.215 178.335  1.00  0.00     0.142 A 
ATOM      7  O   UNL     1     172.439 174.914 177.325  1.00  0.00    -0.452 OA
ATOM      8  C   UNL     1     172.137 173.907 179.435  1.00  0.00     0.094 A 
ATOM      9  C   UNL     1     172.657 173.176 180.509  1.00  0.00     0.119 A 
ATOM     10  C   UNL     1     173.992 172.749 180.482  1.00  0.00     0.047 A 
ATOM     11  C   UNL     1     174.806 173.051 179.386  1.00  0.00     0.020 A 
ENDROOT
BRANCH   1  12
ATOM     12  C   UNL     1     172.469 176.043 175.192  1.00  0.00     0.025 A 
ATOM     13  C   UNL     1     172.589 177.443 175.137  1.00  0.00     0.016 A 
ATOM     14  C   UNL     1     171.924 178.171 174.147  1.00  0.00     0.051 A 
ATOM     15  C   UNL     1     171.119 177.513 173.208  1.00  0.00     0.157 A 
ATOM     16  C   UNL     1     171.643 175.392 174.261  1.00  0.00     0.062 A 
ATOM     17  C   UNL     1     170.976 176.121 173.266  1.00  0.00     0.158 A 
BRANCH  15  18
ATOM     18  O   UNL     1     170.455 178.235 172.218  1.00  0.00    -0.504 OA
ATOM     19  H   UNL     1     169.443 178.255 172.164  1.00  0.00     0.293 HD
ENDBRANCH  15  18
BRANCH  17  20
ATOM     20  O   UNL     1     170.168 175.471 172.336  1.00  0.00    -0.504 OA
ATOM     21  H   UNL     1     169.978 175.874 171.425  1.00  0.00     0.293 HD
ENDBRANCH  17  20
ENDBRANCH   1  12
BRANCH   2  22
ATOM     22  O   UNL     1     175.218 175.131 174.975  1.00  0.00    -0.502 OA
ATOM     23  H   UNL     1     175.297 174.479 174.203  1.00  0.00     0.293 HD
ENDBRANCH   2  22
BRANCH   9  24
ATOM     24  O   UNL     1     171.839 172.879 181.596  1.00  0.00    -0.508 OA
ATOM     25  H   UNL     1     172.005 173.284 182.510  1.00  0.00     0.293 HD
ENDBRANCH   9  24
TORSDOF 5
ENDMDL
MODEL 3
REMARK VINA RESULT:    -6.096      3.879      5.611
REMARK INTER + INTRA:          -7.471
REMARK INTER:                  -7.250
REMARK INTRA:                  -0.221
REMARK UNBOUND:                -0.306
REMARK SMILES O=c1c(O)c(-c2ccc(O)c(O)c2)oc2cc(O)ccc12
REMARK SMILES IDX 5 1 3 2 2 3 1 4 21 5 15 6 14 7 16 8 17 9 19 10 20 11 6 12
REMARK SMILES IDX 7 13 8 14 9 15 13 16 11 17 10 18 12 20 4 22 18 24
REMARK H PARENT 10 19 12 21 4 23 18 25
REMARK Flexibility Score: inf
ROOT
ATOM      1  C   UNL     1     173.617 171.106 176.446  1.00  0.00     0.180 A 
ATOM      2  C   UNL     1     172.302 171.493 176.116  1.00  0.00     0.208 A 
ATOM      3  C   UNL     1     171.562 172.237 177.048  1.00  0.00     0.235 A 
ATOM      4  O   UNL     1     170.379 172.586 176.779  1.00  0.00    -0.285 OA
ATOM      5  C   UNL     1     172.151 172.594 178.271  1.00  0.00     0.069 A 
ATOM      6  C   UNL     1     173.480 172.188 178.517  1.00  0.00     0.142 A 
ATOM      7  O   UNL     1     174.144 171.477 177.612  1.00  0.00    -0.452 OA
ATOM      8  C   UNL     1     174.106 172.531 179.720  1.00  0.00     0.094 A 
ATOM      9  C   UNL     1     173.419 173.276 180.685  1.00  0.00     0.119 A 
ATOM     10  C   UNL     1     172.098 173.680 180.445  1.00  0.00     0.047 A 
ATOM     11  C   UNL     1     171.464 173.342 179.245  1.00  0.00     0.020 A 
ENDROOT
BRANCH   1  12
ATOM     12  C   UNL     1     174.455 170.304 175.526  1.00  0.00     0.025 A 
ATOM     13  C   UNL     1     174.152 168.962 175.240  1.00  0.00     0.016 A 
ATOM     14  C   UNL     1     174.972 168.218 174.387  1.00  0.00     0.051 A 
ATOM     15  C   UNL     1     176.112 168.800 173.818  1.00  0.00     0.157 A 
ATOM     16  C   UNL     1     175.612 170.876 174.969  1.00  0.00     0.062 A 
ATOM     17  C   UNL     1     176.435 170.131 174.113  1.00  0.00     0.158 A 
BRANCH  15  18
ATOM     18  O   UNL     1     176.931 168.063 172.965  1.00  0.00    -0.504 OA
ATOM     19  H   UNL     1     177.509 167.305 173.310  1.00  0.00     0.293 HD
ENDBRANCH  15  18
BRANCH  17  20
ATOM     20  O   UNL     1     177.574 170.705 173.552  1.00  0.00    -0.504 OA
ATOM     21  H   UNL     1     177.924 170.413 172.646  1.00  0.00     0.293 HD
ENDBRANCH  17  20
ENDBRANCH   1  12
BRANCH   2  22
ATOM     22  O   UNL     1     171.759 171.166 174.871  1.00  0.00    -0.502 OA
ATOM     23  H   UNL     1     171.582 170.208 174.591  1.00  0.00     0.293 HD
ENDBRANCH   2  22
BRANCH   9  24
ATOM     24  O   UNL     1     174.057 173.608 181.877  1.00  0.00    -0.508 OA
ATOM     25  H   UNL     1     174.704 172.971 182.326  1.00  0.00     0.293 HD
ENDBRANCH   9  24
TORSDOF 5
ENDMDL
MODEL 4
REMARK VINA RESULT:    -6.080      1.317      1.413
REMARK INTER + INTRA:          -7.453
REMARK INTER:                  -7.294
REMARK INTRA:                  -0.159
REMARK UNBOUND:                -0.306
REMARK SMILES O=c1c(O)c(-c2ccc(O)c(O)c2)oc2cc(O)ccc12
REMARK SMILES IDX 5 1 3 2 2 3 1 4 21 5 15 6 14 7 16 8 17 9 19 10 20 11 6 12
REMARK SMILES IDX 7 13 8 14 9 15 13 16 11 17 10 18 12 20 4 22 18 24
REMARK H PARENT 10 19 12 21 4 23 18 25
REMARK Flexibility Score: inf
ROOT
ATOM      1  C   UNL     1     172.704 175.085 176.142  1.00  0.00     0.180 A 
ATOM      2  C   UNL     1     173.929 174.517 175.736  1.00  0.00     0.208 A 
ATOM      3  C   UNL     1     174.702 173.829 176.684  1.00  0.00     0.235 A 
ATOM      4  O   UNL     1     175.807 173.320 176.347  1.00  0.00    -0.285 OA
ATOM      5  C   UNL     1     174.231 173.705 178.001  1.00  0.00     0.069 A 
ATOM      6  C   UNL     1     172.984 174.283 178.322  1.00  0.00     0.142 A 
ATOM      7  O   UNL     1     172.287 174.934 177.398  1.00  0.00    -0.452 OA
ATOM      8  C   UNL     1     172.476 174.174 179.621  1.00  0.00     0.094 A 
ATOM      9  C   UNL     1     173.201 173.495 180.608  1.00  0.00     0.119 A 
ATOM     10  C   UNL     1     174.441 172.922 180.292  1.00  0.00     0.047 A 
ATOM     11  C   UNL     1     174.956 173.024 178.996  1.00  0.00     0.020 A 
ENDROOT
BRANCH   1  12
ATOM     12  C   UNL     1     171.840 175.842 175.207  1.00  0.00     0.025 A 
ATOM     13  C   UNL     1     170.581 175.354 174.816  1.00  0.00     0.016 A 
ATOM     14  C   UNL     1     169.794 176.075 173.913  1.00  0.00     0.051 A 
ATOM     15  C   UNL     1     170.258 177.285 173.380  1.00  0.00     0.157 A 
ATOM     16  C   UNL     1     172.309 177.045 174.653  1.00  0.00     0.062 A 
ATOM     17  C   UNL     1     171.519 177.769 173.748  1.00  0.00     0.158 A 
BRANCH  15  18
ATOM     18  O   UNL     1     169.475 178.007 172.482  1.00  0.00    -0.504 OA
ATOM     19  H   UNL     1     168.554 178.347 172.735  1.00  0.00     0.293 HD
ENDBRANCH  15  18
BRANCH  17  20
ATOM     20  O   UNL     1     171.982 178.968 173.210  1.00  0.00    -0.504 OA
ATOM     21  H   UNL     1     172.585 178.986 172.396  1.00  0.00     0.293 HD
ENDBRANCH  17  20
ENDBRANCH   1  12
BRANCH   2  22
ATOM     22  O   UNL     1     174.348 174.613 174.407  1.00  0.00    -0.502 OA
ATOM     23  H   UNL     1     175.307 174.817 174.154  1.00  0.00     0.293 HD
ENDBRANCH   2  22
BRANCH   9  24
ATOM     24  O   UNL     1     172.681 173.397 181.895  1.00  0.00    -0.508 OA
ATOM     25  H   UNL     1     173.015 172.698 182.549  1.00  0.00     0.293 HD
ENDBRANCH   9  24
TORSDOF 5
ENDMDL
MODEL 5
REMARK VINA RESULT:    -6.033      1.684      6.550
REMARK INTER + INTRA:          -7.397
REMARK INTER:                  -7.567
REMARK INTRA:                   0.170
REMARK UNBOUND:                -0.306
REMARK SMILES O=c1c(O)c(-c2ccc(O)c(O)c2)oc2cc(O)ccc12
REMARK SMILES IDX 5 1 3 2 2 3 1 4 21 5 15 6 14 7 16 8 17 9 19 10 20 11 6 12
REMARK SMILES IDX 7 13 8 14 9 15 13 16 11 17 10 18 12 20 4 22 18 24
REMARK H PARENT 10 19 12 21 4 23 18 25
REMARK Flexibility Score: inf
ROOT
ATOM      1  C   UNL     1     173.234 175.162 176.642  1.00  0.00     0.180 A 
ATOM      2  C   UNL     1     174.275 175.783 175.923  1.00  0.00     0.208 A 
ATOM      3  C   UNL     1     173.965 176.463 174.735  1.00  0.00     0.235 A 
ATOM      4  O   UNL     1     174.882 177.018 174.067  1.00  0.00    -0.285 OA
ATOM      5  C   UNL     1     172.631 176.525 174.303  1.00  0.00     0.069 A 
ATOM      6  C   UNL     1     171.643 175.897 175.091  1.00  0.00     0.142 A 
ATOM      7  O   UNL     1     171.979 175.257 176.206  1.00  0.00    -0.452 OA
ATOM      8  C   UNL     1     170.300 175.945 174.700  1.00  0.00     0.094 A 
ATOM      9  C   UNL     1     169.930 176.612 173.527  1.00  0.00     0.119 A 
ATOM     10  C   UNL     1     170.909 177.235 172.741  1.00  0.00     0.047 A 
ATOM     11  C   UNL     1     172.253 177.194 173.124  1.00  0.00     0.020 A 
ENDROOT
BRANCH   1  12
ATOM     12  C   UNL     1     173.482 174.411 177.894  1.00  0.00     0.025 A 
ATOM     13  C   UNL     1     174.648 173.646 178.070  1.00  0.00     0.016 A 
ATOM     14  C   UNL     1     174.849 172.926 179.250  1.00  0.00     0.051 A 
ATOM     15  C   UNL     1     173.884 172.949 180.265  1.00  0.00     0.157 A 
ATOM     16  C   UNL     1     172.508 174.413 178.906  1.00  0.00     0.062 A 
ATOM     17  C   UNL     1     172.708 173.691 180.091  1.00  0.00     0.158 A 
BRANCH  15  18
ATOM     18  O   UNL     1     174.081 172.234 181.444  1.00  0.00    -0.504 OA
ATOM     19  H   UNL     1     174.706 172.569 182.169  1.00  0.00     0.293 HD
ENDBRANCH  15  18
BRANCH  17  20
ATOM     20  O   UNL     1     171.746 173.706 181.098  1.00  0.00    -0.504 OA
ATOM     21  H   UNL     1     171.930 174.128 182.001  1.00  0.00     0.293 HD
ENDBRANCH  17  20
ENDBRANCH   1  12
BRANCH   2  22
ATOM     22  O   UNL     1     175.587 175.747 176.402  1.00  0.00    -0.502 OA
ATOM     23  H   UNL     1     176.064 174.878 176.611  1.00  0.00     0.293 HD
ENDBRANCH   2  22
BRANCH   9  24
ATOM     24  O   UNL     1     168.589 176.648 173.153  1.00  0.00    -0.508 OA
ATOM     25  H   UNL     1     168.200 177.442 172.656  1.00  0.00     0.293 HD
ENDBRANCH   9  24
TORSDOF 5
ENDMDL
MODEL 6
REMARK VINA RESULT:    -6.010      3.595      5.106
REMARK INTER + INTRA:          -7.371
REMARK INTER:                  -7.131
REMARK INTRA:                  -0.240
REMARK UNBOUND:                -0.306
REMARK SMILES O=c1c(O)c(-c2ccc(O)c(O)c2)oc2cc(O)ccc12
REMARK SMILES IDX 5 1 3 2 2 3 1 4 21 5 15 6 14 7 16 8 17 9 19 10 20 11 6 12
REMARK SMILES IDX 7 13 8 14 9 15 13 16 11 17 10 18 12 20 4 22 18 24
REMARK H PARENT 10 19 12 21 4 23 18 25
REMARK Flexibility Score: inf
ROOT
ATOM      1  C   UNL     1     172.846 171.781 176.345  1.00  0.00     0.180 A 
ATOM      2  C   UNL     1     171.500 172.139 176.570  1.00  0.00     0.208 A 
ATOM      3  C   UNL     1     171.140 172.662 177.821  1.00  0.00     0.235 A 
ATOM      4  O   UNL     1     169.940 172.979 178.050  1.00  0.00    -0.285 OA
ATOM      5  C   UNL     1     172.124 172.835 178.807  1.00  0.00     0.069 A 
ATOM      6  C   UNL     1     173.453 172.475 178.495  1.00  0.00     0.142 A 
ATOM      7  O   UNL     1     173.752 171.975 177.301  1.00  0.00    -0.452 OA
ATOM      8  C   UNL     1     174.465 172.641 179.447  1.00  0.00     0.094 A 
ATOM      9  C   UNL     1     174.166 173.162 180.711  1.00  0.00     0.119 A 
ATOM     10  C   UNL     1     172.847 173.520 181.024  1.00  0.00     0.047 A 
ATOM     11  C   UNL     1     171.829 173.359 180.079  1.00  0.00     0.020 A 
ENDROOT
BRANCH   1  12
ATOM     12  C   UNL     1     173.302 171.206 175.059  1.00  0.00     0.025 A 
ATOM     13  C   UNL     1     173.410 171.995 173.901  1.00  0.00     0.016 A 
ATOM     14  C   UNL     1     173.820 171.425 172.693  1.00  0.00     0.051 A 
ATOM     15  C   UNL     1     174.114 170.057 172.621  1.00  0.00     0.157 A 
ATOM     16  C   UNL     1     173.577 169.831 174.976  1.00  0.00     0.062 A 
ATOM     17  C   UNL     1     173.989 169.257 173.764  1.00  0.00     0.158 A 
BRANCH  15  18
ATOM     18  O   UNL     1     174.525 169.485 171.419  1.00  0.00    -0.504 OA
ATOM     19  H   UNL     1     175.369 168.927 171.358  1.00  0.00     0.293 HD
ENDBRANCH  15  18
BRANCH  17  20
ATOM     20  O   UNL     1     174.275 167.896 173.689  1.00  0.00    -0.504 OA
ATOM     21  H   UNL     1     174.328 167.318 174.520  1.00  0.00     0.293 HD
ENDBRANCH  17  20
ENDBRANCH   1  12
BRANCH   2  22
ATOM     22  O   UNL     1     170.552 172.001 175.554  1.00  0.00    -0.502 OA
ATOM     23  H   UNL     1     169.651 171.564 175.708  1.00  0.00     0.293 HD
ENDBRANCH   2  22
BRANCH   9  24
ATOM     24  O   UNL     1     175.185 173.320 181.646  1.00  0.00    -0.508 OA
ATOM     25  H   UNL     1     175.191 172.799 182.516  1.00  0.00     0.293 HD
ENDBRANCH   9  24
TORSDOF 5
ENDMDL
MODEL 7
REMARK VINA RESULT:    -5.958      1.654      6.950
REMARK INTER + INTRA:          -7.309
REMARK INTER:                  -7.021
REMARK INTRA:                  -0.289
REMARK UNBOUND:                -0.306
REMARK SMILES O=c1c(O)c(-c2ccc(O)c(O)c2)oc2cc(O)ccc12
REMARK SMILES IDX 5 1 3 2 2 3 1 4 21 5 15 6 14 7 16 8 17 9 19 10 20 11 6 12
REMARK SMILES IDX 7 13 8 14 9 15 13 16 11 17 10 18 12 20 4 22 18 24
REMARK H PARENT 10 19 12 21 4 23 18 25
REMARK Flexibility Score: inf
ROOT
ATOM      1  C   UNL     1     172.246 174.184 176.728  1.00  0.00     0.180 A 
ATOM      2  C   UNL     1     171.528 173.280 175.918  1.00  0.00     0.208 A 
ATOM      3  C   UNL     1     171.039 173.723 174.680  1.00  0.00     0.235 A 
ATOM      4  O   UNL     1     170.383 172.936 173.942  1.00  0.00    -0.285 OA
ATOM      5  C   UNL     1     171.291 175.041 174.269  1.00  0.00     0.069 A 
ATOM      6  C   UNL     1     172.038 175.878 175.126  1.00  0.00     0.142 A 
ATOM      7  O   UNL     1     172.476 175.422 176.295  1.00  0.00    -0.452 OA
ATOM      8  C   UNL     1     172.319 177.195 174.749  1.00  0.00     0.094 A 
ATOM      9  C   UNL     1     171.861 177.691 173.524  1.00  0.00     0.119 A 
ATOM     10  C   UNL     1     171.117 176.864 172.670  1.00  0.00     0.047 A 
ATOM     11  C   UNL     1     170.833 175.546 173.038  1.00  0.00     0.020 A 
ENDROOT
BRANCH   1  12
ATOM     12  C   UNL     1     172.778 173.799 178.055  1.00  0.00     0.025 A 
ATOM     13  C   UNL     1     174.119 173.408 178.220  1.00  0.00     0.016 A 
ATOM     14  C   UNL     1     174.593 173.026 179.478  1.00  0.00     0.051 A 
ATOM     15  C   UNL     1     173.732 173.016 180.584  1.00  0.00     0.157 A 
ATOM     16  C   UNL     1     171.916 173.767 179.163  1.00  0.00     0.062 A 
ATOM     17  C   UNL     1     172.390 173.384 180.426  1.00  0.00     0.158 A 
BRANCH  15  18
ATOM     18  O   UNL     1     174.201 172.638 181.840  1.00  0.00    -0.504 OA
ATOM     19  H   UNL     1     175.109 172.203 181.959  1.00  0.00     0.293 HD
ENDBRANCH  15  18
BRANCH  17  20
ATOM     20  O   UNL     1     171.535 173.366 181.525  1.00  0.00    -0.504 OA
ATOM     21  H   UNL     1     171.378 174.194 182.089  1.00  0.00     0.293 HD
ENDBRANCH  17  20
ENDBRANCH   1  12
BRANCH   2  22
ATOM     22  O   UNL     1     171.334 171.960 176.331  1.00  0.00    -0.502 OA
ATOM     23  H   UNL     1     172.107 171.331 176.518  1.00  0.00     0.293 HD
ENDBRANCH   2  22
BRANCH   9  24
ATOM     24  O   UNL     1     172.150 179.005 173.165  1.00  0.00    -0.508 OA
ATOM     25  H   UNL     1     172.982 179.239 172.635  1.00  0.00     0.293 HD
ENDBRANCH   9  24
TORSDOF 5
ENDMDL
MODEL 8
REMARK VINA RESULT:    -5.950      4.269      7.256
REMARK INTER + INTRA:          -7.301
REMARK INTER:                  -7.477
REMARK INTRA:                   0.176
REMARK UNBOUND:                -0.306
REMARK SMILES O=c1c(O)c(-c2ccc(O)c(O)c2)oc2cc(O)ccc12
REMARK SMILES IDX 5 1 3 2 2 3 1 4 21 5 15 6 14 7 16 8 17 9 19 10 20 11 6 12
REMARK SMILES IDX 7 13 8 14 9 15 13 16 11 17 10 18 12 20 4 22 18 24
REMARK H PARENT 10 19 12 21 4 23 18 25
REMARK Flexibility Score: inf
ROOT
ATOM      1  C   UNL     1     173.125 171.118 176.600  1.00  0.00     0.180 A 
ATOM      2  C   UNL     1     172.089 170.515 175.858  1.00  0.00     0.208 A 
ATOM      3  C   UNL     1     172.414 169.824 174.680  1.00  0.00     0.235 A 
ATOM      4  O   UNL     1     171.503 169.285 173.993  1.00  0.00    -0.285 OA
ATOM      5  C   UNL     1     173.757 169.733 174.281  1.00  0.00     0.069 A 
ATOM      6  C   UNL     1     174.738 170.344 175.091  1.00  0.00     0.142 A 
ATOM      7  O   UNL     1     174.388 170.996 176.195  1.00  0.00    -0.452 OA
ATOM      8  C   UNL     1     176.088 170.268 174.733  1.00  0.00     0.094 A 
ATOM      9  C   UNL     1     176.473 169.589 173.572  1.00  0.00     0.119 A 
ATOM     10  C   UNL     1     175.501 168.982 172.764  1.00  0.00     0.047 A 
ATOM     11  C   UNL     1     174.149 169.052 173.115  1.00  0.00     0.020 A 
ENDROOT
BRANCH   1  12
ATOM     12  C   UNL     1     172.862 171.880 177.842  1.00  0.00     0.025 A 
ATOM     13  C   UNL     1     171.702 172.660 177.991  1.00  0.00     0.016 A 
ATOM     14  C   UNL     1     171.487 173.390 179.163  1.00  0.00     0.051 A 
ATOM     15  C   UNL     1     172.432 173.360 180.197  1.00  0.00     0.157 A 
ATOM     16  C   UNL     1     173.816 171.871 178.873  1.00  0.00     0.062 A 
ATOM     17  C   UNL     1     173.601 172.602 180.051  1.00  0.00     0.158 A 
BRANCH  15  18
ATOM     18  O   UNL     1     172.220 174.084 181.368  1.00  0.00    -0.504 OA
ATOM     19  H   UNL     1     172.004 173.624 182.245  1.00  0.00     0.293 HD
ENDBRANCH  15  18
BRANCH  17  20
ATOM     20  O   UNL     1     174.543 172.581 181.077  1.00  0.00    -0.504 OA
ATOM     21  H   UNL     1     174.436 173.154 181.906  1.00  0.00     0.293 HD
ENDBRANCH  17  20
ENDBRANCH   1  12
BRANCH   2  22
ATOM     22  O   UNL     1     170.767 170.580 176.305  1.00  0.00    -0.502 OA
ATOM     23  H   UNL     1     170.334 169.827 176.827  1.00  0.00     0.293 HD
ENDBRANCH   2  22
BRANCH   9  24
ATOM     24  O   UNL     1     177.821 169.524 173.230  1.00  0.00    -0.508 OA
ATOM     25  H   UNL     1     178.457 168.890 173.703  1.00  0.00     0.293 HD
ENDBRANCH   9  24
TORSDOF 5
ENDMDL
MODEL 9
REMARK VINA RESULT:    -5.844      2.272      6.744
REMARK INTER + INTRA:          -7.176
REMARK INTER:                  -6.881
REMARK INTRA:                  -0.295
REMARK UNBOUND:                -0.306
REMARK SMILES O=c1c(O)c(-c2ccc(O)c(O)c2)oc2cc(O)ccc12
REMARK SMILES IDX 5 1 3 2 2 3 1 4 21 5 15 6 14 7 16 8 17 9 19 10 20 11 6 12
REMARK SMILES IDX 7 13 8 14 9 15 13 16 11 17 10 18 12 20 4 22 18 24
REMARK H PARENT 10 19 12 21 4 23 18 25
REMARK Flexibility Score: inf
ROOT
ATOM      1  C   UNL     1     173.883 173.564 176.454  1.00  0.00     0.180 A 
ATOM      2  C   UNL     1     174.159 172.435 175.655  1.00  0.00     0.208 A 
ATOM      3  C   UNL     1     174.567 172.632 174.326  1.00  0.00     0.235 A 
ATOM      4  O   UNL     1     174.810 171.638 173.587  1.00  0.00    -0.285 OA
ATOM      5  C   UNL     1     174.710 173.939 173.834  1.00  0.00     0.069 A 
ATOM      6  C   UNL     1     174.437 175.015 174.705  1.00  0.00     0.142 A 
ATOM      7  O   UNL     1     174.045 174.787 175.953  1.00  0.00    -0.452 OA
ATOM      8  C   UNL     1     174.577 176.333 174.254  1.00  0.00     0.094 A 
ATOM      9  C   UNL     1     174.985 176.590 172.941  1.00  0.00     0.119 A 
ATOM     10  C   UNL     1     175.255 175.523 172.073  1.00  0.00     0.047 A 
ATOM     11  C   UNL     1     175.120 174.203 172.514  1.00  0.00     0.020 A 
ENDROOT
BRANCH   1  12
ATOM     12  C   UNL     1     173.430 173.440 177.859  1.00  0.00     0.025 A 
ATOM     13  C   UNL     1     172.073 173.568 178.204  1.00  0.00     0.016 A 
ATOM     14  C   UNL     1     171.672 173.471 179.539  1.00  0.00     0.051 A 
ATOM     15  C   UNL     1     172.621 173.259 180.548  1.00  0.00     0.157 A 
ATOM     16  C   UNL     1     174.379 173.249 178.877  1.00  0.00     0.062 A 
ATOM     17  C   UNL     1     173.978 173.151 180.217  1.00  0.00     0.158 A 
BRANCH  15  18
ATOM     18  O   UNL     1     172.225 173.160 181.881  1.00  0.00    -0.504 OA
ATOM     19  H   UNL     1     172.160 173.977 182.477  1.00  0.00     0.293 HD
ENDBRANCH  15  18
BRANCH  17  20
ATOM     20  O   UNL     1     174.920 172.948 181.223  1.00  0.00    -0.504 OA
ATOM     21  H   UNL     1     175.224 172.017 181.485  1.00  0.00     0.293 HD
ENDBRANCH  17  20
ENDBRANCH   1  12
BRANCH   2  22
ATOM     22  O   UNL     1     174.056 171.148 176.187  1.00  0.00    -0.502 OA
ATOM     23  H   UNL     1     174.428 170.334 175.712  1.00  0.00     0.293 HD
ENDBRANCH   2  22
BRANCH   9  24
ATOM     24  O   UNL     1     175.118 177.907 172.510  1.00  0.00    -0.508 OA
ATOM     25  H   UNL     1     175.605 178.600 173.067  1.00  0.00     0.293 HD
ENDBRANCH   9  24
TORSDOF 5
ENDMDL
