MODEL 1
REMARK VINA RESULT:    -5.945      0.000      0.000
REMARK INTER + INTRA:          -7.701
REMARK INTER:                  -7.335
REMARK INTRA:                  -0.366
REMARK UNBOUND:                -0.366
REMARK SMILES O=c1c(O)c(-c2cc(O)c(O)c(O)c2)oc2cc(O)cc(O)c12
REMARK SMILES IDX 5 1 3 2 2 3 1 4 23 5 21 6 20 7 18 8 17 9 16 10 15 11 6 12
REMARK SMILES IDX 7 13 8 14 14 15 10 16 12 17 9 18 11 20 13 22 4 24 22 26
REMARK SMILES IDX 19 28
REMARK H PARENT 9 19 11 21 13 23 4 25 22 27 19 29
REMARK Flexibility Score: inf
ROOT
ATOM      1  C   UNL     1      14.547  37.563   5.345  1.00  0.00     0.180 A 
ATOM      2  C   UNL     1      14.680  36.298   5.944  1.00  0.00     0.208 A 
ATOM      3  C   UNL     1      15.868  35.574   5.750  1.00  0.00     0.238 A 
ATOM      4  O   UNL     1      15.959  34.420   6.244  1.00  0.00    -0.285 OA
ATOM      5  C   UNL     1      16.913  36.130   4.972  1.00  0.00     0.111 A 
ATOM      6  C   UNL     1      18.174  35.503   4.742  1.00  0.00     0.134 A 
ATOM      7  C   UNL     1      19.082  36.085   3.850  1.00  0.00     0.093 A 
ATOM      8  C   UNL     1      18.801  37.305   3.230  1.00  0.00     0.123 A 
ATOM      9  C   UNL     1      17.599  37.955   3.494  1.00  0.00     0.094 A 
ATOM     10  C   UNL     1      16.657  37.381   4.352  1.00  0.00     0.146 A 
ATOM     11  O   UNL     1      15.517  38.028   4.569  1.00  0.00    -0.452 OA
ENDROOT
BRANCH   1  12
ATOM     12  C   UNL     1      13.336  38.396   5.525  1.00  0.00     0.029 A 
ATOM     13  C   UNL     1      13.201  39.262   6.624  1.00  0.00     0.062 A 
ATOM     14  C   UNL     1      12.058  40.060   6.766  1.00  0.00     0.162 A 
ATOM     15  C   UNL     1      12.326  38.366   4.552  1.00  0.00     0.062 A 
ATOM     16  C   UNL     1      11.041  40.006   5.798  1.00  0.00     0.200 A 
ATOM     17  C   UNL     1      11.181  39.158   4.687  1.00  0.00     0.162 A 
BRANCH  14  18
ATOM     18  O   UNL     1      11.932  40.911   7.864  1.00  0.00    -0.504 OA
ATOM     19  H   UNL     1      11.512  41.829   7.779  1.00  0.00     0.293 HD
ENDBRANCH  14  18
BRANCH  16  20
ATOM     20  O   UNL     1       9.894  40.792   5.926  1.00  0.00    -0.502 OA
ATOM     21  H   UNL     1       9.928  41.747   6.262  1.00  0.00     0.293 HD
ENDBRANCH  16  20
BRANCH  17  22
ATOM     22  O   UNL     1      10.193  39.088   3.704  1.00  0.00    -0.504 OA
ATOM     23  H   UNL     1       9.909  39.898   3.167  1.00  0.00     0.293 HD
ENDBRANCH  17  22
ENDBRANCH   1  12
BRANCH   2  24
ATOM     24  O   UNL     1      13.628  35.759   6.690  1.00  0.00    -0.502 OA
ATOM     25  H   UNL     1      13.027  35.026   6.333  1.00  0.00     0.293 HD
ENDBRANCH   2  24
BRANCH   6  26
ATOM     26  O   UNL     1      18.590  34.331   5.380  1.00  0.00    -0.507 OA
ATOM     27  H   UNL     1      19.284  33.694   5.019  1.00  0.00     0.293 HD
ENDBRANCH   6  26
BRANCH   8  28
ATOM     28  O   UNL     1      19.718  37.885   2.356  1.00  0.00    -0.508 OA
ATOM     29  H   UNL     1      19.836  38.889   2.300  1.00  0.00     0.293 HD
ENDBRANCH   8  28
TORSDOF 7
ENDMDL
MODEL 2
REMARK VINA RESULT:    -5.192      2.092      7.277
REMARK INTER + INTRA:          -6.772
REMARK INTER:                  -6.658
REMARK INTRA:                  -0.114
REMARK UNBOUND:                -0.366
REMARK SMILES O=c1c(O)c(-c2cc(O)c(O)c(O)c2)oc2cc(O)cc(O)c12
REMARK SMILES IDX 5 1 3 2 2 3 1 4 23 5 21 6 20 7 18 8 17 9 16 10 15 11 6 12
REMARK SMILES IDX 7 13 8 14 14 15 10 16 12 17 9 18 11 20 13 22 4 24 22 26
REMARK SMILES IDX 19 28
REMARK H PARENT 9 19 11 21 13 23 4 25 22 27 19 29
REMARK Flexibility Score: inf
ROOT
ATOM      1  C   UNL     1      15.359  36.897   4.553  1.00  0.00     0.180 A 
ATOM      2  C   UNL     1      15.460  37.724   3.421  1.00  0.00     0.208 A 
ATOM      3  C   UNL     1      14.765  38.945   3.406  1.00  0.00     0.238 A 
ATOM      4  O   UNL     1      14.816  39.655   2.368  1.00  0.00    -0.285 OA
ATOM      5  C   UNL     1      13.993  39.330   4.528  1.00  0.00     0.111 A 
ATOM      6  C   UNL     1      13.280  40.562   4.637  1.00  0.00     0.134 A 
ATOM      7  C   UNL     1      12.443  40.780   5.739  1.00  0.00     0.093 A 
ATOM      8  C   UNL     1      12.344  39.838   6.765  1.00  0.00     0.123 A 
ATOM      9  C   UNL     1      13.081  38.659   6.697  1.00  0.00     0.094 A 
ATOM     10  C   UNL     1      13.897  38.397   5.593  1.00  0.00     0.146 A 
ATOM     11  O   UNL     1      14.575  37.255   5.562  1.00  0.00    -0.452 OA
ENDROOT
BRANCH   1  12
ATOM     12  C   UNL     1      16.082  35.608   4.654  1.00  0.00     0.029 A 
ATOM     13  C   UNL     1      15.888  34.586   3.709  1.00  0.00     0.062 A 
ATOM     14  C   UNL     1      16.598  33.382   3.807  1.00  0.00     0.162 A 
ATOM     15  C   UNL     1      17.021  35.422   5.679  1.00  0.00     0.062 A 
ATOM     16  C   UNL     1      17.521  33.195   4.851  1.00  0.00     0.200 A 
ATOM     17  C   UNL     1      17.733  34.222   5.785  1.00  0.00     0.162 A 
BRANCH  14  18
ATOM     18  O   UNL     1      16.393  32.371   2.868  1.00  0.00    -0.504 OA
ATOM     19  H   UNL     1      17.110  31.685   2.660  1.00  0.00     0.293 HD
ENDBRANCH  14  18
BRANCH  16  20
ATOM     20  O   UNL     1      18.233  32.000   4.966  1.00  0.00    -0.502 OA
ATOM     21  H   UNL     1      18.783  31.623   4.203  1.00  0.00     0.293 HD
ENDBRANCH  16  20
BRANCH  17  22
ATOM     22  O   UNL     1      18.648  34.071   6.828  1.00  0.00    -0.504 OA
ATOM     23  H   UNL     1      19.299  33.296   6.865  1.00  0.00     0.293 HD
ENDBRANCH  17  22
ENDBRANCH   1  12
BRANCH   2  24
ATOM     24  O   UNL     1      16.210  37.315   2.315  1.00  0.00    -0.502 OA
ATOM     25  H   UNL     1      16.616  37.972   1.660  1.00  0.00     0.293 HD
ENDBRANCH   2  24
BRANCH   6  26
ATOM     26  O   UNL     1      13.381  41.606   3.713  1.00  0.00    -0.507 OA
ATOM     27  H   UNL     1      13.144  41.533   2.735  1.00  0.00     0.293 HD
ENDBRANCH   6  26
BRANCH   8  28
ATOM     28  O   UNL     1      11.520  40.071   7.865  1.00  0.00    -0.508 OA
ATOM     29  H   UNL     1      11.880  40.475   8.721  1.00  0.00     0.293 HD
ENDBRANCH   8  28
TORSDOF 7
ENDMDL
MODEL 3
REMARK VINA RESULT:    -5.185      1.142      2.779
REMARK INTER + INTRA:          -6.764
REMARK INTER:                  -6.507
REMARK INTRA:                  -0.257
REMARK UNBOUND:                -0.366
REMARK SMILES O=c1c(O)c(-c2cc(O)c(O)c(O)c2)oc2cc(O)cc(O)c12
REMARK SMILES IDX 5 1 3 2 2 3 1 4 23 5 21 6 20 7 18 8 17 9 16 10 15 11 6 12
REMARK SMILES IDX 7 13 8 14 14 15 10 16 12 17 9 18 11 20 13 22 4 24 22 26
REMARK SMILES IDX 19 28
REMARK H PARENT 9 19 11 21 13 23 4 25 22 27 19 29
REMARK Flexibility Score: inf
ROOT
ATOM      1  C   UNL     1      14.675  38.268   4.653  1.00  0.00     0.180 A 
ATOM      2  C   UNL     1      15.436  38.761   3.579  1.00  0.00     0.208 A 
ATOM      3  C   UNL     1      16.648  38.128   3.256  1.00  0.00     0.238 A 
ATOM      4  O   UNL     1      17.351  38.607   2.328  1.00  0.00    -0.285 OA
ATOM      5  C   UNL     1      17.075  37.002   4.001  1.00  0.00     0.111 A 
ATOM      6  C   UNL     1      18.265  36.260   3.738  1.00  0.00     0.134 A 
ATOM      7  C   UNL     1      18.656  35.245   4.620  1.00  0.00     0.093 A 
ATOM      8  C   UNL     1      17.865  34.904   5.720  1.00  0.00     0.123 A 
ATOM      9  C   UNL     1      16.672  35.582   5.952  1.00  0.00     0.094 A 
ATOM     10  C   UNL     1      16.274  36.624   5.110  1.00  0.00     0.146 A 
ATOM     11  O   UNL     1      15.134  37.252   5.373  1.00  0.00    -0.452 OA
ENDROOT
BRANCH   1  12
ATOM     12  C   UNL     1      13.375  38.865   5.036  1.00  0.00     0.029 A 
ATOM     13  C   UNL     1      13.240  39.634   6.205  1.00  0.00     0.062 A 
ATOM     14  C   UNL     1      12.008  40.210   6.540  1.00  0.00     0.162 A 
ATOM     15  C   UNL     1      12.267  38.711   4.189  1.00  0.00     0.062 A 
ATOM     16  C   UNL     1      10.898  40.031   5.697  1.00  0.00     0.200 A 
ATOM     17  C   UNL     1      11.033  39.281   4.517  1.00  0.00     0.162 A 
BRANCH  14  18
ATOM     18  O   UNL     1      11.884  40.965   7.706  1.00  0.00    -0.504 OA
ATOM     19  H   UNL     1      11.596  41.937   7.682  1.00  0.00     0.293 HD
ENDBRANCH  14  18
BRANCH  16  20
ATOM     20  O   UNL     1       9.662  40.595   6.018  1.00  0.00    -0.502 OA
ATOM     21  H   UNL     1       9.126  41.139   5.352  1.00  0.00     0.293 HD
ENDBRANCH  16  20
BRANCH  17  22
ATOM     22  O   UNL     1       9.952  39.092   3.655  1.00  0.00    -0.504 OA
ATOM     23  H   UNL     1      10.039  38.575   2.788  1.00  0.00     0.293 HD
ENDBRANCH  17  22
ENDBRANCH   1  12
BRANCH   2  24
ATOM     24  O   UNL     1      15.007  39.886   2.870  1.00  0.00    -0.502 OA
ATOM     25  H   UNL     1      15.380  40.812   3.040  1.00  0.00     0.293 HD
ENDBRANCH   2  24
BRANCH   6  26
ATOM     26  O   UNL     1      19.077  36.460   2.618  1.00  0.00    -0.507 OA
ATOM     27  H   UNL     1      19.219  37.349   2.162  1.00  0.00     0.293 HD
ENDBRANCH   6  26
BRANCH   8  28
ATOM     28  O   UNL     1      18.254  33.882   6.584  1.00  0.00    -0.508 OA
ATOM     29  H   UNL     1      17.582  33.391   7.161  1.00  0.00     0.293 HD
ENDBRANCH   8  28
TORSDOF 7
ENDMDL
MODEL 4
REMARK VINA RESULT:    -5.067      2.369      6.719
REMARK INTER + INTRA:          -6.617
REMARK INTER:                  -6.476
REMARK INTRA:                  -0.141
REMARK UNBOUND:                -0.366
REMARK SMILES O=c1c(O)c(-c2cc(O)c(O)c(O)c2)oc2cc(O)cc(O)c12
REMARK SMILES IDX 5 1 3 2 2 3 1 4 23 5 21 6 20 7 18 8 17 9 16 10 15 11 6 12
REMARK SMILES IDX 7 13 8 14 14 15 10 16 12 17 9 18 11 20 13 22 4 24 22 26
REMARK SMILES IDX 19 28
REMARK H PARENT 9 19 11 21 13 23 4 25 22 27 19 29
REMARK Flexibility Score: inf
ROOT
ATOM      1  C   UNL     1      15.161  36.832   4.985  1.00  0.00     0.180 A 
ATOM      2  C   UNL     1      14.360  37.152   6.096  1.00  0.00     0.208 A 
ATOM      3  C   UNL     1      13.647  38.362   6.095  1.00  0.00     0.238 A 
ATOM      4  O   UNL     1      12.975  38.667   7.115  1.00  0.00    -0.285 OA
ATOM      5  C   UNL     1      13.730  39.229   4.978  1.00  0.00     0.111 A 
ATOM      6  C   UNL     1      13.020  40.460   4.853  1.00  0.00     0.134 A 
ATOM      7  C   UNL     1      13.280  41.299   3.763  1.00  0.00     0.093 A 
ATOM      8  C   UNL     1      14.177  40.921   2.761  1.00  0.00     0.123 A 
ATOM      9  C   UNL     1      14.830  39.695   2.843  1.00  0.00     0.094 A 
ATOM     10  C   UNL     1      14.619  38.852   3.938  1.00  0.00     0.146 A 
ATOM     11  O   UNL     1      15.270  37.695   3.983  1.00  0.00    -0.452 OA
ENDROOT
BRANCH   1  12
ATOM     12  C   UNL     1      15.922  35.565   4.902  1.00  0.00     0.029 A 
ATOM     13  C   UNL     1      15.700  34.646   3.863  1.00  0.00     0.062 A 
ATOM     14  C   UNL     1      16.446  33.462   3.787  1.00  0.00     0.162 A 
ATOM     15  C   UNL     1      16.925  35.298   5.846  1.00  0.00     0.062 A 
ATOM     16  C   UNL     1      17.433  33.193   4.749  1.00  0.00     0.200 A 
ATOM     17  C   UNL     1      17.673  34.118   5.778  1.00  0.00     0.162 A 
BRANCH  14  18
ATOM     18  O   UNL     1      16.212  32.554   2.754  1.00  0.00    -0.504 OA
ATOM     19  H   UNL     1      16.449  31.572   2.845  1.00  0.00     0.293 HD
ENDBRANCH  14  18
BRANCH  16  20
ATOM     20  O   UNL     1      18.182  32.016   4.691  1.00  0.00    -0.502 OA
ATOM     21  H   UNL     1      18.325  31.426   5.502  1.00  0.00     0.293 HD
ENDBRANCH  16  20
BRANCH  17  22
ATOM     22  O   UNL     1      18.652  33.884   6.745  1.00  0.00    -0.504 OA
ATOM     23  H   UNL     1      18.612  34.307   7.665  1.00  0.00     0.293 HD
ENDBRANCH  17  22
ENDBRANCH   1  12
BRANCH   2  24
ATOM     24  O   UNL     1      14.309  36.293   7.196  1.00  0.00    -0.502 OA
ATOM     25  H   UNL     1      15.048  36.248   7.888  1.00  0.00     0.293 HD
ENDBRANCH   2  24
BRANCH   6  26
ATOM     26  O   UNL     1      12.037  40.888   5.750  1.00  0.00    -0.507 OA
ATOM     27  H   UNL     1      11.852  41.852   5.984  1.00  0.00     0.293 HD
ENDBRANCH   6  26
BRANCH   8  28
ATOM     28  O   UNL     1      14.417  41.756   1.671  1.00  0.00    -0.508 OA
ATOM     29  H   UNL     1      14.629  41.383   0.754  1.00  0.00     0.293 HD
ENDBRANCH   8  28
TORSDOF 7
ENDMDL
MODEL 5
REMARK VINA RESULT:    -4.978      3.079      3.964
REMARK INTER + INTRA:          -6.508
REMARK INTER:                  -6.239
REMARK INTRA:                  -0.269
REMARK UNBOUND:                -0.366
REMARK SMILES O=c1c(O)c(-c2cc(O)c(O)c(O)c2)oc2cc(O)cc(O)c12
REMARK SMILES IDX 5 1 3 2 2 3 1 4 23 5 21 6 20 7 18 8 17 9 16 10 15 11 6 12
REMARK SMILES IDX 7 13 8 14 14 15 10 16 12 17 9 18 11 20 13 22 4 24 22 26
REMARK SMILES IDX 19 28
REMARK H PARENT 9 19 11 21 13 23 4 25 22 27 19 29
REMARK Flexibility Score: inf
ROOT
ATOM      1  C   UNL     1      12.695  36.131   4.025  1.00  0.00     0.180 A 
ATOM      2  C   UNL     1      13.370  36.866   5.015  1.00  0.00     0.208 A 
ATOM      3  C   UNL     1      14.771  36.796   5.079  1.00  0.00     0.238 A 
ATOM      4  O   UNL     1      15.366  37.414   6.001  1.00  0.00    -0.285 OA
ATOM      5  C   UNL     1      15.481  36.004   4.143  1.00  0.00     0.111 A 
ATOM      6  C   UNL     1      16.902  35.891   4.090  1.00  0.00     0.134 A 
ATOM      7  C   UNL     1      17.490  34.977   3.207  1.00  0.00     0.093 A 
ATOM      8  C   UNL     1      16.709  34.220   2.330  1.00  0.00     0.123 A 
ATOM      9  C   UNL     1      15.325  34.367   2.332  1.00  0.00     0.094 A 
ATOM     10  C   UNL     1      14.707  35.244   3.227  1.00  0.00     0.146 A 
ATOM     11  O   UNL     1      13.384  35.347   3.204  1.00  0.00    -0.452 OA
ENDROOT
BRANCH   1  12
ATOM     12  C   UNL     1      11.223  36.174   3.878  1.00  0.00     0.029 A 
ATOM     13  C   UNL     1      10.567  37.331   3.422  1.00  0.00     0.062 A 
ATOM     14  C   UNL     1       9.174  37.346   3.268  1.00  0.00     0.162 A 
ATOM     15  C   UNL     1      10.468  35.022   4.144  1.00  0.00     0.062 A 
ATOM     16  C   UNL     1       8.424  36.194   3.558  1.00  0.00     0.200 A 
ATOM     17  C   UNL     1       9.077  35.029   3.994  1.00  0.00     0.162 A 
BRANCH  14  18
ATOM     18  O   UNL     1       8.534  38.502   2.821  1.00  0.00    -0.504 OA
ATOM     19  H   UNL     1       8.952  39.418   2.932  1.00  0.00     0.293 HD
ENDBRANCH  14  18
BRANCH  16  20
ATOM     20  O   UNL     1       7.036  36.194   3.414  1.00  0.00    -0.502 OA
ATOM     21  H   UNL     1       6.415  36.483   4.159  1.00  0.00     0.293 HD
ENDBRANCH  16  20
BRANCH  17  22
ATOM     22  O   UNL     1       8.362  33.867   4.282  1.00  0.00    -0.504 OA
ATOM     23  H   UNL     1       7.404  33.734   3.979  1.00  0.00     0.293 HD
ENDBRANCH  17  22
ENDBRANCH   1  12
BRANCH   2  24
ATOM     24  O   UNL     1      12.650  37.625   5.941  1.00  0.00    -0.502 OA
ATOM     25  H   UNL     1      12.566  37.359   6.915  1.00  0.00     0.293 HD
ENDBRANCH   2  24
BRANCH   6  26
ATOM     26  O   UNL     1      17.776  36.666   4.858  1.00  0.00    -0.507 OA
ATOM     27  H   UNL     1      18.143  37.564   4.581  1.00  0.00     0.293 HD
ENDBRANCH   6  26
BRANCH   8  28
ATOM     28  O   UNL     1      17.304  33.324   1.443  1.00  0.00    -0.508 OA
ATOM     29  H   UNL     1      17.070  32.339   1.448  1.00  0.00     0.293 HD
ENDBRANCH   8  28
TORSDOF 7
ENDMDL
MODEL 6
REMARK VINA RESULT:    -4.960      1.531      7.015
REMARK INTER + INTRA:          -6.485
REMARK INTER:                  -6.131
REMARK INTRA:                  -0.354
REMARK UNBOUND:                -0.366
REMARK SMILES O=c1c(O)c(-c2cc(O)c(O)c(O)c2)oc2cc(O)cc(O)c12
REMARK SMILES IDX 5 1 3 2 2 3 1 4 23 5 21 6 20 7 18 8 17 9 16 10 15 11 6 12
REMARK SMILES IDX 7 13 8 14 14 15 10 16 12 17 9 18 11 20 13 22 4 24 22 26
REMARK SMILES IDX 19 28
REMARK H PARENT 9 19 11 21 13 23 4 25 22 27 19 29
REMARK Flexibility Score: inf
ROOT
ATOM      1  C   UNL     1      14.050  37.172   4.842  1.00  0.00     0.180 A 
ATOM      2  C   UNL     1      12.804  36.937   4.236  1.00  0.00     0.208 A 
ATOM      3  C   UNL     1      11.749  37.831   4.480  1.00  0.00     0.238 A 
ATOM      4  O   UNL     1      10.621  37.585   3.978  1.00  0.00    -0.285 OA
ATOM      5  C   UNL     1      11.957  38.956   5.315  1.00  0.00     0.111 A 
ATOM      6  C   UNL     1      10.970  39.947   5.600  1.00  0.00     0.134 A 
ATOM      7  C   UNL     1      11.246  40.944   6.543  1.00  0.00     0.093 A 
ATOM      8  C   UNL     1      12.496  41.024   7.163  1.00  0.00     0.123 A 
ATOM      9  C   UNL     1      13.485  40.097   6.847  1.00  0.00     0.094 A 
ATOM     10  C   UNL     1      13.227  39.068   5.937  1.00  0.00     0.146 A 
ATOM     11  O   UNL     1      14.195  38.198   5.671  1.00  0.00    -0.452 OA
ENDROOT
BRANCH   1  12
ATOM     12  C   UNL     1      15.217  36.290   4.612  1.00  0.00     0.029 A 
ATOM     13  C   UNL     1      15.425  35.135   5.386  1.00  0.00     0.062 A 
ATOM     14  C   UNL     1      16.522  34.300   5.139  1.00  0.00     0.162 A 
ATOM     15  C   UNL     1      16.104  36.577   3.564  1.00  0.00     0.062 A 
ATOM     16  C   UNL     1      17.418  34.608   4.102  1.00  0.00     0.200 A 
ATOM     17  C   UNL     1      17.203  35.749   3.312  1.00  0.00     0.162 A 
BRANCH  14  18
ATOM     18  O   UNL     1      16.722  33.160   5.918  1.00  0.00    -0.504 OA
ATOM     19  H   UNL     1      16.279  32.277   5.693  1.00  0.00     0.293 HD
ENDBRANCH  14  18
BRANCH  16  20
ATOM     20  O   UNL     1      18.519  33.789   3.845  1.00  0.00    -0.502 OA
ATOM     21  H   UNL     1      19.451  34.017   4.170  1.00  0.00     0.293 HD
ENDBRANCH  16  20
BRANCH  17  22
ATOM     22  O   UNL     1      18.070  36.078   2.269  1.00  0.00    -0.504 OA
ATOM     23  H   UNL     1      18.397  35.389   1.603  1.00  0.00     0.293 HD
ENDBRANCH  17  22
ENDBRANCH   1  12
BRANCH   2  24
ATOM     24  O   UNL     1      12.614  35.809   3.432  1.00  0.00    -0.502 OA
ATOM     25  H   UNL     1      13.349  35.425   2.851  1.00  0.00     0.293 HD
ENDBRANCH   2  24
BRANCH   6  26
ATOM     26  O   UNL     1       9.725  40.011   4.970  1.00  0.00    -0.507 OA
ATOM     27  H   UNL     1       9.565  39.828   3.990  1.00  0.00     0.293 HD
ENDBRANCH   6  26
BRANCH   8  28
ATOM     28  O   UNL     1      12.767  42.030   8.088  1.00  0.00    -0.508 OA
ATOM     29  H   UNL     1      12.963  42.979   7.797  1.00  0.00     0.293 HD
ENDBRANCH   8  28
TORSDOF 7
ENDMDL
MODEL 7
REMARK VINA RESULT:    -4.857      2.319      3.181
REMARK INTER + INTRA:          -6.359
REMARK INTER:                  -6.240
REMARK INTRA:                  -0.119
REMARK UNBOUND:                -0.366
REMARK SMILES O=c1c(O)c(-c2cc(O)c(O)c(O)c2)oc2cc(O)cc(O)c12
REMARK SMILES IDX 5 1 3 2 2 3 1 4 23 5 21 6 20 7 18 8 17 9 16 10 15 11 6 12
REMARK SMILES IDX 7 13 8 14 14 15 10 16 12 17 9 18 11 20 13 22 4 24 22 26
REMARK SMILES IDX 19 28
REMARK H PARENT 9 19 11 21 13 23 4 25 22 27 19 29
REMARK Flexibility Score: inf
ROOT
ATOM      1  C   UNL     1      14.305  37.381   4.670  1.00  0.00     0.180 A 
ATOM      2  C   UNL     1      14.005  36.712   3.471  1.00  0.00     0.208 A 
ATOM      3  C   UNL     1      14.680  35.517   3.171  1.00  0.00     0.238 A 
ATOM      4  O   UNL     1      14.446  34.952   2.071  1.00  0.00    -0.285 OA
ATOM      5  C   UNL     1      15.633  34.998   4.080  1.00  0.00     0.111 A 
ATOM      6  C   UNL     1      16.347  33.776   3.897  1.00  0.00     0.134 A 
ATOM      7  C   UNL     1      17.361  33.427   4.797  1.00  0.00     0.093 A 
ATOM      8  C   UNL     1      17.643  34.224   5.909  1.00  0.00     0.123 A 
ATOM      9  C   UNL     1      16.911  35.388   6.129  1.00  0.00     0.094 A 
ATOM     10  C   UNL     1      15.918  35.782   5.229  1.00  0.00     0.146 A 
ATOM     11  O   UNL     1      15.251  36.904   5.470  1.00  0.00    -0.452 OA
ENDROOT
BRANCH   1  12
ATOM     12  C   UNL     1      13.618  38.631   5.068  1.00  0.00     0.029 A 
ATOM     13  C   UNL     1      13.654  39.776   4.255  1.00  0.00     0.062 A 
ATOM     14  C   UNL     1      12.979  40.943   4.636  1.00  0.00     0.162 A 
ATOM     15  C   UNL     1      12.867  38.659   6.253  1.00  0.00     0.062 A 
ATOM     16  C   UNL     1      12.248  40.969   5.836  1.00  0.00     0.200 A 
ATOM     17  C   UNL     1      12.192  39.821   6.643  1.00  0.00     0.162 A 
BRANCH  14  18
ATOM     18  O   UNL     1      13.028  42.076   3.824  1.00  0.00    -0.504 OA
ATOM     19  H   UNL     1      12.243  42.347   3.242  1.00  0.00     0.293 HD
ENDBRANCH  14  18
BRANCH  16  20
ATOM     20  O   UNL     1      11.573  42.125   6.233  1.00  0.00    -0.502 OA
ATOM     21  H   UNL     1      11.766  42.588   7.113  1.00  0.00     0.293 HD
ENDBRANCH  16  20
BRANCH  17  22
ATOM     22  O   UNL     1      11.468  39.812   7.835  1.00  0.00    -0.504 OA
ATOM     23  H   UNL     1      10.667  39.208   7.975  1.00  0.00     0.293 HD
ENDBRANCH  17  22
ENDBRANCH   1  12
BRANCH   2  24
ATOM     24  O   UNL     1      13.076  37.252   2.578  1.00  0.00    -0.502 OA
ATOM     25  H   UNL     1      12.167  37.587   2.873  1.00  0.00     0.293 HD
ENDBRANCH   2  24
BRANCH   6  26
ATOM     26  O   UNL     1      16.082  32.865   2.871  1.00  0.00    -0.507 OA
ATOM     27  H   UNL     1      15.770  33.116   1.945  1.00  0.00     0.293 HD
ENDBRANCH   6  26
BRANCH   8  28
ATOM     28  O   UNL     1      18.643  33.861   6.808  1.00  0.00    -0.508 OA
ATOM     29  H   UNL     1      19.588  34.214   6.720  1.00  0.00     0.293 HD
ENDBRANCH   8  28
TORSDOF 7
ENDMDL
MODEL 8
REMARK VINA RESULT:    -4.857      1.642      7.154
REMARK INTER + INTRA:          -6.358
REMARK INTER:                  -6.076
REMARK INTRA:                  -0.282
REMARK UNBOUND:                -0.366
REMARK SMILES O=c1c(O)c(-c2cc(O)c(O)c(O)c2)oc2cc(O)cc(O)c12
REMARK SMILES IDX 5 1 3 2 2 3 1 4 23 5 21 6 20 7 18 8 17 9 16 10 15 11 6 12
REMARK SMILES IDX 7 13 8 14 14 15 10 16 12 17 9 18 11 20 13 22 4 24 22 26
REMARK SMILES IDX 19 28
REMARK H PARENT 9 19 11 21 13 23 4 25 22 27 19 29
REMARK Flexibility Score: inf
ROOT
ATOM      1  C   UNL     1      13.727  37.093   4.332  1.00  0.00     0.180 A 
ATOM      2  C   UNL     1      12.755  36.332   3.661  1.00  0.00     0.208 A 
ATOM      3  C   UNL     1      11.443  36.826   3.575  1.00  0.00     0.238 A 
ATOM      4  O   UNL     1      10.564  36.115   3.020  1.00  0.00    -0.285 OA
ATOM      5  C   UNL     1      11.124  38.083   4.146  1.00  0.00     0.111 A 
ATOM      6  C   UNL     1       9.838  38.698   4.084  1.00  0.00     0.134 A 
ATOM      7  C   UNL     1       9.604  39.881   4.796  1.00  0.00     0.093 A 
ATOM      8  C   UNL     1      10.627  40.503   5.516  1.00  0.00     0.123 A 
ATOM      9  C   UNL     1      11.901  39.941   5.534  1.00  0.00     0.094 A 
ATOM     10  C   UNL     1      12.156  38.743   4.862  1.00  0.00     0.146 A 
ATOM     11  O   UNL     1      13.382  38.235   4.914  1.00  0.00    -0.452 OA
ENDROOT
BRANCH   1  12
ATOM     12  C   UNL     1      15.136  36.650   4.443  1.00  0.00     0.029 A 
ATOM     13  C   UNL     1      16.157  37.269   3.702  1.00  0.00     0.062 A 
ATOM     14  C   UNL     1      17.488  36.852   3.837  1.00  0.00     0.162 A 
ATOM     15  C   UNL     1      15.470  35.631   5.347  1.00  0.00     0.062 A 
ATOM     16  C   UNL     1      17.810  35.814   4.728  1.00  0.00     0.200 A 
ATOM     17  C   UNL     1      16.796  35.207   5.486  1.00  0.00     0.162 A 
BRANCH  14  18
ATOM     18  O   UNL     1      18.492  37.468   3.091  1.00  0.00    -0.504 OA
ATOM     19  H   UNL     1      18.283  38.194   2.415  1.00  0.00     0.293 HD
ENDBRANCH  14  18
BRANCH  16  20
ATOM     20  O   UNL     1      19.131  35.384   4.871  1.00  0.00    -0.502 OA
ATOM     21  H   UNL     1      19.374  34.554   5.398  1.00  0.00     0.293 HD
ENDBRANCH  16  20
BRANCH  17  22
ATOM     22  O   UNL     1      17.085  34.180   6.386  1.00  0.00    -0.504 OA
ATOM     23  H   UNL     1      16.862  34.250   7.372  1.00  0.00     0.293 HD
ENDBRANCH  17  22
ENDBRANCH   1  12
BRANCH   2  24
ATOM     24  O   UNL     1      13.085  35.085   3.123  1.00  0.00    -0.502 OA
ATOM     25  H   UNL     1      13.235  34.265   3.699  1.00  0.00     0.293 HD
ENDBRANCH   2  24
BRANCH   6  26
ATOM     26  O   UNL     1       8.775  38.208   3.320  1.00  0.00    -0.507 OA
ATOM     27  H   UNL     1       7.937  37.794   3.700  1.00  0.00     0.293 HD
ENDBRANCH   6  26
BRANCH   8  28
ATOM     28  O   UNL     1      10.388  41.687   6.209  1.00  0.00    -0.508 OA
ATOM     29  H   UNL     1       9.644  42.319   5.939  1.00  0.00     0.293 HD
ENDBRANCH   8  28
TORSDOF 7
ENDMDL
MODEL 9
REMARK VINA RESULT:    -4.786      1.594      7.299
REMARK INTER + INTRA:          -6.271
REMARK INTER:                  -5.932
REMARK INTRA:                  -0.339
REMARK UNBOUND:                -0.366
REMARK SMILES O=c1c(O)c(-c2cc(O)c(O)c(O)c2)oc2cc(O)cc(O)c12
REMARK SMILES IDX 5 1 3 2 2 3 1 4 23 5 21 6 20 7 18 8 17 9 16 10 15 11 6 12
REMARK SMILES IDX 7 13 8 14 14 15 10 16 12 17 9 18 11 20 13 22 4 24 22 26
REMARK SMILES IDX 19 28
REMARK H PARENT 9 19 11 21 13 23 4 25 22 27 19 29
REMARK Flexibility Score: inf
ROOT
ATOM      1  C   UNL     1      13.336  38.126   4.911  1.00  0.00     0.180 A 
ATOM      2  C   UNL     1      13.136  39.167   5.834  1.00  0.00     0.208 A 
ATOM      3  C   UNL     1      11.933  39.891   5.793  1.00  0.00     0.238 A 
ATOM      4  O   UNL     1      11.782  40.858   6.586  1.00  0.00    -0.285 OA
ATOM      5  C   UNL     1      10.940  39.555   4.841  1.00  0.00     0.111 A 
ATOM      6  C   UNL     1       9.669  40.196   4.735  1.00  0.00     0.134 A 
ATOM      7  C   UNL     1       8.818  39.869   3.672  1.00  0.00     0.093 A 
ATOM      8  C   UNL     1       9.165  38.880   2.749  1.00  0.00     0.123 A 
ATOM      9  C   UNL     1      10.377  38.207   2.879  1.00  0.00     0.094 A 
ATOM     10  C   UNL     1      11.263  38.536   3.908  1.00  0.00     0.146 A 
ATOM     11  O   UNL     1      12.414  37.878   3.989  1.00  0.00    -0.452 OA
ENDROOT
BRANCH   1  12
ATOM     12  C   UNL     1      14.566  37.302   4.909  1.00  0.00     0.029 A 
ATOM     13  C   UNL     1      15.741  37.743   4.278  1.00  0.00     0.062 A 
ATOM     14  C   UNL     1      16.903  36.960   4.306  1.00  0.00     0.162 A 
ATOM     15  C   UNL     1      14.579  36.079   5.597  1.00  0.00     0.062 A 
ATOM     16  C   UNL     1      16.900  35.726   4.978  1.00  0.00     0.200 A 
ATOM     17  C   UNL     1      15.734  35.289   5.628  1.00  0.00     0.162 A 
BRANCH  14  18
ATOM     18  O   UNL     1      18.062  37.406   3.671  1.00  0.00    -0.504 OA
ATOM     19  H   UNL     1      18.498  38.287   3.918  1.00  0.00     0.293 HD
ENDBRANCH  14  18
BRANCH  16  20
ATOM     20  O   UNL     1      18.047  34.931   5.012  1.00  0.00    -0.502 OA
ATOM     21  H   UNL     1      18.973  35.311   4.856  1.00  0.00     0.293 HD
ENDBRANCH  16  20
BRANCH  17  22
ATOM     22  O   UNL     1      15.701  34.074   6.311  1.00  0.00    -0.504 OA
ATOM     23  H   UNL     1      15.944  33.197   5.864  1.00  0.00     0.293 HD
ENDBRANCH  17  22
ENDBRANCH   1  12
BRANCH   2  24
ATOM     24  O   UNL     1      14.137  39.497   6.751  1.00  0.00    -0.502 OA
ATOM     25  H   UNL     1      14.865  40.170   6.544  1.00  0.00     0.293 HD
ENDBRANCH   2  24
BRANCH   6  26
ATOM     26  O   UNL     1       9.188  41.131   5.655  1.00  0.00    -0.507 OA
ATOM     27  H   UNL     1       9.385  42.120   5.627  1.00  0.00     0.293 HD
ENDBRANCH   6  26
BRANCH   8  28
ATOM     28  O   UNL     1       8.305  38.551   1.704  1.00  0.00    -0.508 OA
ATOM     29  H   UNL     1       7.485  37.975   1.853  1.00  0.00     0.293 HD
ENDBRANCH   8  28
TORSDOF 7
ENDMDL
