MODEL 1
REMARK VINA RESULT:    -3.533      0.000      0.000
REMARK INTER + INTRA:          -5.750
REMARK INTER:                  -5.393
REMARK INTRA:                  -0.358
REMARK UNBOUND:                -0.358
REMARK SMILES CC1=CCC[C@@H](C)C(=O)C[C@@H](C(C)C)C(=O)C1
REMARK SMILES IDX 8 1 9 2 6 3 7 4 5 5 4 6 3 7 2 8 1 9 10 11 11 12 15 13 16 14
REMARK SMILES IDX 17 15 12 17 13 18 14 19
REMARK H PARENT
REMARK Flexibility Score: 70.00
ROOT
ATOM      1  C   UNL     1      17.697  28.743  29.490  1.00  0.00     0.136 C 
ATOM      2  O   UNL     1      16.712  28.018  29.455  1.00  0.00    -0.299 OA
ENDROOT
BRANCH   1   3
ATOM      3  C   UNL     1      18.796  28.545  28.464  1.00  0.00     0.053 C 
ATOM      4  C   UNL     1      18.355  27.552  27.382  1.00  0.00     0.016 C 
BRANCH   3   5
ATOM      5  C   UNL     1      20.090  28.069  29.179  1.00  0.00     0.015 C 
BRANCH   5   6
ATOM      6  C   UNL     1      21.305  29.002  29.013  1.00  0.00     0.028 C 
BRANCH   6   7
ATOM      7  C   UNL     1      21.975  29.459  30.294  1.00  0.00    -0.028 C 
ATOM      8  C   UNL     1      21.755  30.623  30.951  1.00  0.00    -0.070 CG0
ATOM      9  C   UNL     1      22.471  30.846  32.259  1.00  0.00     0.039 C 
ATOM     10  G   UNL     1      20.882  31.738  30.408  1.00  0.00     0.000 G0
ENDBRANCH   6   7
ENDBRANCH   5   6
ENDBRANCH   3   5
ENDBRANCH   1   3
BRANCH   1  11
ATOM     11  C   UNL     1      17.779  29.810  30.561  1.00  0.00     0.087 C 
BRANCH  11  12
ATOM     12  C   UNL     1      18.287  31.185  30.044  1.00  0.00     0.066 C 
BRANCH  12  13
ATOM     13  C   UNL     1      19.439  31.733  30.887  1.00  0.00     0.140 C 
ATOM     14  O   UNL     1      19.191  32.202  31.988  1.00  0.00    -0.299 OA
BRANCH  13  15
ATOM     15  C   UNL     1      20.886  31.753  30.423  1.00  0.00     0.106 CG0
ATOM     16  G   UNL     1      21.732  30.613  30.958  1.00  0.00     0.000 G0
ENDBRANCH  13  15
ENDBRANCH  12  13
BRANCH  12  17
ATOM     17  C   UNL     1      17.162  32.257  29.882  1.00  0.00    -0.006 C 
ATOM     18  C   UNL     1      17.365  33.109  28.620  1.00  0.00     0.008 C 
ATOM     19  C   UNL     1      15.733  31.687  29.905  1.00  0.00     0.008 C 
ENDBRANCH  12  17
ENDBRANCH  11  12
ENDBRANCH   1  11
TORSDOF 1
ENDMDL
MODEL 2
REMARK VINA RESULT:    -3.460      2.838      5.282
REMARK INTER + INTRA:          -5.639
REMARK INTER:                  -5.829
REMARK INTRA:                   0.190
REMARK UNBOUND:                -0.358
REMARK SMILES CC1=CCC[C@@H](C)C(=O)C[C@@H](C(C)C)C(=O)C1
REMARK SMILES IDX 8 1 9 2 6 3 7 4 5 5 4 6 3 7 2 8 1 9 10 11 11 12 15 13 16 14
REMARK SMILES IDX 17 15 12 17 13 18 14 19
REMARK H PARENT
REMARK Flexibility Score: 70.00
ROOT
ATOM      1  C   UNL     1      21.363  25.584  28.831  1.00  0.00     0.136 C 
ATOM      2  O   UNL     1      21.354  25.373  30.036  1.00  0.00    -0.299 OA
ENDROOT
BRANCH   1   3
ATOM      3  C   UNL     1      20.373  24.850  27.946  1.00  0.00     0.053 C 
ATOM      4  C   UNL     1      20.854  24.836  26.490  1.00  0.00     0.016 C 
BRANCH   3   5
ATOM      5  C   UNL     1      18.974  25.512  28.076  1.00  0.00     0.015 C 
BRANCH   5   6
ATOM      6  C   UNL     1      18.865  26.926  27.474  1.00  0.00     0.028 C 
BRANCH   6   7
ATOM      7  C   UNL     1      18.435  28.025  28.427  1.00  0.00    -0.028 C 
ATOM      8  C   UNL     1      19.190  29.064  28.857  1.00  0.00    -0.070 CG0
ATOM      9  C   UNL     1      18.539  30.095  29.744  1.00  0.00     0.039 C 
ATOM     10  G   UNL     1      20.669  29.209  28.549  1.00  0.00     0.000 G0
ENDBRANCH   6   7
ENDBRANCH   5   6
ENDBRANCH   3   5
ENDBRANCH   1   3
BRANCH   1  11
ATOM     11  C   UNL     1      22.366  26.570  28.270  1.00  0.00     0.087 C 
BRANCH  11  12
ATOM     12  C   UNL     1      22.778  27.687  29.269  1.00  0.00     0.066 C 
BRANCH  12  13
ATOM     13  C   UNL     1      21.616  28.620  29.610  1.00  0.00     0.140 C 
ATOM     14  O   UNL     1      21.399  28.886  30.783  1.00  0.00    -0.299 OA
BRANCH  13  15
ATOM     15  C   UNL     1      20.688  29.225  28.569  1.00  0.00     0.106 CG0
ATOM     16  G   UNL     1      19.211  29.048  28.866  1.00  0.00     0.000 G0
ENDBRANCH  13  15
ENDBRANCH  12  13
BRANCH  12  17
ATOM     17  C   UNL     1      24.031  28.506  28.821  1.00  0.00    -0.006 C 
ATOM     18  C   UNL     1      24.397  29.592  29.845  1.00  0.00     0.008 C 
ATOM     19  C   UNL     1      25.269  27.651  28.500  1.00  0.00     0.008 C 
ENDBRANCH  12  17
ENDBRANCH  11  12
ENDBRANCH   1  11
TORSDOF 1
ENDMDL
MODEL 3
REMARK VINA RESULT:    -3.358      2.470      3.722
REMARK INTER + INTRA:          -5.483
REMARK INTER:                  -5.323
REMARK INTRA:                  -0.160
REMARK UNBOUND:                -0.358
REMARK SMILES CC1=CCC[C@@H](C)C(=O)C[C@@H](C(C)C)C(=O)C1
REMARK SMILES IDX 8 1 9 2 6 3 7 4 5 5 4 6 3 7 2 8 1 9 10 11 11 12 15 13 16 14
REMARK SMILES IDX 17 15 12 17 13 18 14 19
REMARK H PARENT
REMARK Flexibility Score: 70.00
ROOT
ATOM      1  C   UNL     1      22.412  28.239  29.406  1.00  0.00     0.136 C 
ATOM      2  O   UNL     1      22.152  27.050  29.280  1.00  0.00    -0.299 OA
ENDROOT
BRANCH   1   3
ATOM      3  C   UNL     1      23.644  28.802  28.723  1.00  0.00     0.053 C 
ATOM      4  C   UNL     1      24.001  27.975  27.482  1.00  0.00     0.016 C 
BRANCH   3   5
ATOM      5  C   UNL     1      24.821  28.846  29.735  1.00  0.00     0.015 C 
BRANCH   5   6
ATOM      6  C   UNL     1      24.667  29.880  30.867  1.00  0.00     0.028 C 
BRANCH   6   7
ATOM      7  C   UNL     1      24.660  31.336  30.444  1.00  0.00    -0.028 C 
ATOM      8  C   UNL     1      23.653  32.224  30.621  1.00  0.00    -0.070 CG0
ATOM      9  C   UNL     1      23.884  33.653  30.196  1.00  0.00     0.039 C 
ATOM     10  G   UNL     1      22.286  31.845  31.160  1.00  0.00     0.000 G0
ENDBRANCH   6   7
ENDBRANCH   5   6
ENDBRANCH   3   5
ENDBRANCH   1   3
BRANCH   1  11
ATOM     11  C   UNL     1      21.492  29.101  30.244  1.00  0.00     0.087 C 
BRANCH  11  12
ATOM     12  C   UNL     1      20.870  30.298  29.469  1.00  0.00     0.066 C 
BRANCH  12  13
ATOM     13  C   UNL     1      21.217  31.644  30.104  1.00  0.00     0.140 C 
ATOM     14  O   UNL     1      20.623  32.644  29.726  1.00  0.00    -0.299 OA
BRANCH  13  15
ATOM     15  C   UNL     1      22.284  31.822  31.171  1.00  0.00     0.106 CG0
ATOM     16  G   UNL     1      23.641  32.243  30.638  1.00  0.00     0.000 G0
ENDBRANCH  13  15
ENDBRANCH  12  13
BRANCH  12  17
ATOM     17  C   UNL     1      19.330  30.173  29.244  1.00  0.00    -0.006 C 
ATOM     18  C   UNL     1      18.986  29.030  28.275  1.00  0.00     0.008 C 
ATOM     19  C   UNL     1      18.506  30.030  30.535  1.00  0.00     0.008 C 
ENDBRANCH  12  17
ENDBRANCH  11  12
ENDBRANCH   1  11
TORSDOF 1
ENDMDL
MODEL 4
REMARK VINA RESULT:    -3.354      2.258      4.141
REMARK INTER + INTRA:          -5.476
REMARK INTER:                  -5.450
REMARK INTRA:                  -0.026
REMARK UNBOUND:                -0.358
REMARK SMILES CC1=CCC[C@@H](C)C(=O)C[C@@H](C(C)C)C(=O)C1
REMARK SMILES IDX 8 1 9 2 6 3 7 4 5 5 4 6 3 7 2 8 1 9 10 11 11 12 15 13 16 14
REMARK SMILES IDX 17 15 12 17 13 18 14 19
REMARK H PARENT
REMARK Flexibility Score: 70.00
ROOT
ATOM      1  C   UNL     1      22.321  27.279  29.019  1.00  0.00     0.136 C 
ATOM      2  O   UNL     1      22.703  26.138  28.797  1.00  0.00    -0.299 OA
ENDROOT
BRANCH   1   3
ATOM      3  C   UNL     1      23.257  28.439  28.735  1.00  0.00     0.053 C 
ATOM      4  C   UNL     1      24.267  28.066  27.643  1.00  0.00     0.016 C 
BRANCH   3   5
ATOM      5  C   UNL     1      23.969  28.861  30.049  1.00  0.00     0.015 C 
BRANCH   5   6
ATOM      6  C   UNL     1      23.106  29.688  31.021  1.00  0.00     0.028 C 
BRANCH   6   7
ATOM      7  C   UNL     1      22.497  30.957  30.455  1.00  0.00    -0.028 C 
ATOM      8  C   UNL     1      21.178  31.210  30.276  1.00  0.00    -0.070 CG0
ATOM      9  C   UNL     1      20.780  32.574  29.772  1.00  0.00     0.039 C 
ATOM     10  G   UNL     1      20.089  30.175  30.492  1.00  0.00     0.000 G0
ENDBRANCH   6   7
ENDBRANCH   5   6
ENDBRANCH   3   5
ENDBRANCH   1   3
BRANCH   1  11
ATOM     11  C   UNL     1      20.927  27.486  29.571  1.00  0.00     0.087 C 
BRANCH  11  12
ATOM     12  C   UNL     1      19.981  28.271  28.618  1.00  0.00     0.066 C 
BRANCH  12  13
ATOM     13  C   UNL     1      19.494  29.583  29.234  1.00  0.00     0.140 C 
ATOM     14  O   UNL     1      18.596  30.197  28.677  1.00  0.00    -0.299 OA
BRANCH  13  15
ATOM     15  C   UNL     1      20.080  30.188  30.499  1.00  0.00     0.106 CG0
ATOM     16  G   UNL     1      21.184  31.200  30.258  1.00  0.00     0.000 G0
ENDBRANCH  13  15
ENDBRANCH  12  13
BRANCH  12  17
ATOM     17  C   UNL     1      18.778  27.430  28.085  1.00  0.00    -0.006 C 
ATOM     18  C   UNL     1      19.228  26.050  27.579  1.00  0.00     0.008 C 
ATOM     19  C   UNL     1      17.622  27.268  29.087  1.00  0.00     0.008 C 
ENDBRANCH  12  17
ENDBRANCH  11  12
ENDBRANCH   1  11
TORSDOF 1
ENDMDL
MODEL 5
REMARK VINA RESULT:    -3.315      1.376      1.930
REMARK INTER + INTRA:          -5.418
REMARK INTER:                  -4.893
REMARK INTRA:                  -0.525
REMARK UNBOUND:                -0.358
REMARK SMILES CC1=CCC[C@@H](C)C(=O)C[C@@H](C(C)C)C(=O)C1
REMARK SMILES IDX 8 1 9 2 6 3 7 4 5 5 4 6 3 7 2 8 1 9 10 11 11 12 15 13 16 14
REMARK SMILES IDX 17 15 12 17 13 18 14 19
REMARK H PARENT
REMARK Flexibility Score: 70.00
ROOT
ATOM      1  C   UNL     1      16.819  28.639  31.148  1.00  0.00     0.136 C 
ATOM      2  O   UNL     1      16.489  27.789  31.963  1.00  0.00    -0.299 OA
ENDROOT
BRANCH   1   3
ATOM      3  C   UNL     1      16.659  28.346  29.668  1.00  0.00     0.053 C 
ATOM      4  C   UNL     1      15.335  27.620  29.400  1.00  0.00     0.016 C 
BRANCH   3   5
ATOM      5  C   UNL     1      17.874  27.515  29.172  1.00  0.00     0.015 C 
BRANCH   5   6
ATOM      6  C   UNL     1      18.931  28.315  28.386  1.00  0.00     0.028 C 
BRANCH   6   7
ATOM      7  C   UNL     1      20.254  28.543  29.090  1.00  0.00    -0.028 C 
ATOM      8  C   UNL     1      20.718  29.719  29.577  1.00  0.00    -0.070 CG0
ATOM      9  C   UNL     1      22.031  29.711  30.319  1.00  0.00     0.039 C 
ATOM     10  G   UNL     1      20.023  31.049  29.358  1.00  0.00     0.000 G0
ENDBRANCH   6   7
ENDBRANCH   5   6
ENDBRANCH   3   5
ENDBRANCH   1   3
BRANCH   1  11
ATOM     11  C   UNL     1      17.378  29.953  31.651  1.00  0.00     0.087 C 
BRANCH  11  12
ATOM     12  C   UNL     1      17.615  31.008  30.533  1.00  0.00     0.066 C 
BRANCH  12  13
ATOM     13  C   UNL     1      19.071  31.471  30.471  1.00  0.00     0.140 C 
ATOM     14  O   UNL     1      19.486  32.225  31.340  1.00  0.00    -0.299 OA
BRANCH  13  15
ATOM     15  C   UNL     1      20.037  31.067  29.370  1.00  0.00     0.106 CG0
ATOM     16  G   UNL     1      20.695  29.715  29.576  1.00  0.00     0.000 G0
ENDBRANCH  13  15
ENDBRANCH  12  13
BRANCH  12  17
ATOM     17  C   UNL     1      16.648  32.232  30.602  1.00  0.00    -0.006 C 
ATOM     18  C   UNL     1      16.422  32.858  29.216  1.00  0.00     0.008 C 
ATOM     19  C   UNL     1      15.294  31.937  31.270  1.00  0.00     0.008 C 
ENDBRANCH  12  17
ENDBRANCH  11  12
ENDBRANCH   1  11
TORSDOF 1
ENDMDL
MODEL 6
REMARK VINA RESULT:    -3.291      2.685      4.976
REMARK INTER + INTRA:          -5.380
REMARK INTER:                  -5.154
REMARK INTRA:                  -0.226
REMARK UNBOUND:                -0.358
REMARK SMILES CC1=CCC[C@@H](C)C(=O)C[C@@H](C(C)C)C(=O)C1
REMARK SMILES IDX 8 1 9 2 6 3 7 4 5 5 4 6 3 7 2 8 1 9 10 11 11 12 15 13 16 14
REMARK SMILES IDX 17 15 12 17 13 18 14 19
REMARK H PARENT
REMARK Flexibility Score: 70.00
ROOT
ATOM      1  C   UNL     1      20.611  30.246  29.269  1.00  0.00     0.136 C 
ATOM      2  O   UNL     1      20.601  31.462  29.397  1.00  0.00    -0.299 OA
ENDROOT
BRANCH   1   3
ATOM      3  C   UNL     1      21.720  29.443  29.923  1.00  0.00     0.053 C 
ATOM      4  C   UNL     1      22.781  30.374  30.522  1.00  0.00     0.016 C 
BRANCH   3   5
ATOM      5  C   UNL     1      22.338  28.472  28.880  1.00  0.00     0.015 C 
BRANCH   5   6
ATOM      6  C   UNL     1      22.354  26.990  29.300  1.00  0.00     0.028 C 
BRANCH   6   7
ATOM      7  C   UNL     1      21.935  25.992  28.238  1.00  0.00    -0.028 C 
ATOM      8  C   UNL     1      20.677  25.556  27.991  1.00  0.00    -0.070 CG0
ATOM      9  C   UNL     1      20.467  24.618  26.829  1.00  0.00     0.039 C 
ATOM     10  G   UNL     1      19.483  25.907  28.858  1.00  0.00     0.000 G0
ENDBRANCH   6   7
ENDBRANCH   5   6
ENDBRANCH   3   5
ENDBRANCH   1   3
BRANCH   1  11
ATOM     11  C   UNL     1      19.512  29.589  28.460  1.00  0.00     0.087 C 
BRANCH  11  12
ATOM     12  C   UNL     1      18.754  28.465  29.221  1.00  0.00     0.066 C 
BRANCH  12  13
ATOM     13  C   UNL     1      18.722  27.152  28.438  1.00  0.00     0.140 C 
ATOM     14  O   UNL     1      18.042  27.088  27.424  1.00  0.00    -0.299 OA
BRANCH  13  15
ATOM     15  C   UNL     1      19.474  25.901  28.861  1.00  0.00     0.106 CG0
ATOM     16  G   UNL     1      20.669  25.562  27.990  1.00  0.00     0.000 G0
ENDBRANCH  13  15
ENDBRANCH  12  13
BRANCH  12  17
ATOM     17  C   UNL     1      17.317  28.869  29.680  1.00  0.00    -0.006 C 
ATOM     18  C   UNL     1      16.938  28.207  31.014  1.00  0.00     0.008 C 
ATOM     19  C   UNL     1      17.078  30.387  29.763  1.00  0.00     0.008 C 
ENDBRANCH  12  17
ENDBRANCH  11  12
ENDBRANCH   1  11
TORSDOF 1
ENDMDL
MODEL 7
REMARK VINA RESULT:    -3.235      2.681      4.170
REMARK INTER + INTRA:          -5.295
REMARK INTER:                  -5.645
REMARK INTRA:                   0.350
REMARK UNBOUND:                -0.358
REMARK SMILES CC1=CCC[C@@H](C)C(=O)C[C@@H](C(C)C)C(=O)C1
REMARK SMILES IDX 8 1 9 2 6 3 7 4 5 5 4 6 3 7 2 8 1 9 10 11 11 12 15 13 16 14
REMARK SMILES IDX 17 15 12 17 13 18 14 19
REMARK H PARENT
REMARK Flexibility Score: 70.00
ROOT
ATOM      1  C   UNL     1      19.911  29.240  29.357  1.00  0.00     0.136 C 
ATOM      2  O   UNL     1      20.893  29.649  29.960  1.00  0.00    -0.299 OA
ENDROOT
BRANCH   1   3
ATOM      3  C   UNL     1      19.686  27.744  29.239  1.00  0.00     0.053 C 
ATOM      4  C   UNL     1      21.004  26.983  29.424  1.00  0.00     0.016 C 
BRANCH   3   5
ATOM      5  C   UNL     1      19.033  27.426  27.867  1.00  0.00     0.015 C 
BRANCH   5   6
ATOM      6  C   UNL     1      17.503  27.245  27.901  1.00  0.00     0.028 C 
BRANCH   6   7
ATOM      7  C   UNL     1      16.902  26.911  29.253  1.00  0.00    -0.028 C 
ATOM      8  C   UNL     1      16.223  27.755  30.066  1.00  0.00    -0.070 CG0
ATOM      9  C   UNL     1      15.636  27.196  31.337  1.00  0.00     0.039 C 
ATOM     10  G   UNL     1      16.080  29.242  29.799  1.00  0.00     0.000 G0
ENDBRANCH   6   7
ENDBRANCH   5   6
ENDBRANCH   3   5
ENDBRANCH   1   3
BRANCH   1  11
ATOM     11  C   UNL     1      18.957  30.247  28.749  1.00  0.00     0.087 C 
BRANCH  11  12
ATOM     12  C   UNL     1      18.105  31.021  29.794  1.00  0.00     0.066 C 
BRANCH  12  13
ATOM     13  C   UNL     1      17.105  30.116  30.514  1.00  0.00     0.140 C 
ATOM     14  O   UNL     1      17.134  30.062  31.735  1.00  0.00    -0.299 OA
BRANCH  13  15
ATOM     15  C   UNL     1      16.082  29.252  29.795  1.00  0.00     0.106 CG0
ATOM     16  G   UNL     1      16.212  27.766  30.069  1.00  0.00     0.000 G0
ENDBRANCH  13  15
ENDBRANCH  12  13
BRANCH  12  17
ATOM     17  C   UNL     1      17.392  32.285  29.219  1.00  0.00    -0.006 C 
ATOM     18  C   UNL     1      16.049  32.550  29.919  1.00  0.00     0.008 C 
ATOM     19  C   UNL     1      18.250  33.562  29.233  1.00  0.00     0.008 C 
ENDBRANCH  12  17
ENDBRANCH  11  12
ENDBRANCH   1  11
TORSDOF 1
ENDMDL
MODEL 8
REMARK VINA RESULT:    -3.112      1.771      4.243
REMARK INTER + INTRA:          -5.107
REMARK INTER:                  -4.821
REMARK INTRA:                  -0.287
REMARK UNBOUND:                -0.358
REMARK SMILES CC1=CCC[C@@H](C)C(=O)C[C@@H](C(C)C)C(=O)C1
REMARK SMILES IDX 8 1 9 2 6 3 7 4 5 5 4 6 3 7 2 8 1 9 10 11 11 12 15 13 16 14
REMARK SMILES IDX 17 15 12 17 13 18 14 19
REMARK H PARENT
REMARK Flexibility Score: 70.00
ROOT
ATOM      1  C   UNL     1      17.499  28.558  29.534  1.00  0.00     0.136 C 
ATOM      2  O   UNL     1      17.400  27.397  29.163  1.00  0.00    -0.299 OA
ENDROOT
BRANCH   1   3
ATOM      3  C   UNL     1      16.628  29.045  30.677  1.00  0.00     0.053 C 
ATOM      4  C   UNL     1      16.241  27.882  31.597  1.00  0.00     0.016 C 
BRANCH   3   5
ATOM      5  C   UNL     1      15.373  29.757  30.102  1.00  0.00     0.015 C 
BRANCH   5   6
ATOM      6  C   UNL     1      15.562  31.252  29.781  1.00  0.00     0.028 C 
BRANCH   6   7
ATOM      7  C   UNL     1      16.302  32.069  30.823  1.00  0.00    -0.028 C 
ATOM      8  C   UNL     1      17.514  32.655  30.679  1.00  0.00    -0.070 CG0
ATOM      9  C   UNL     1      18.035  33.495  31.818  1.00  0.00     0.039 C 
ATOM     10  G   UNL     1      18.401  32.459  29.464  1.00  0.00     0.000 G0
ENDBRANCH   6   7
ENDBRANCH   5   6
ENDBRANCH   3   5
ENDBRANCH   1   3
BRANCH   1  11
ATOM     11  C   UNL     1      18.489  29.465  28.834  1.00  0.00     0.087 C 
BRANCH  11  12
ATOM     12  C   UNL     1      19.572  30.063  29.775  1.00  0.00     0.066 C 
BRANCH  12  13
ATOM     13  C   UNL     1      19.627  31.589  29.703  1.00  0.00     0.140 C 
ATOM     14  O   UNL     1      20.704  32.147  29.857  1.00  0.00    -0.299 OA
BRANCH  13  15
ATOM     15  C   UNL     1      18.407  32.466  29.473  1.00  0.00     0.106 CG0
ATOM     16  G   UNL     1      17.519  32.638  30.691  1.00  0.00     0.000 G0
ENDBRANCH  13  15
ENDBRANCH  12  13
BRANCH  12  17
ATOM     17  C   UNL     1      20.994  29.449  29.575  1.00  0.00    -0.006 C 
ATOM     18  C   UNL     1      21.684  29.160  30.918  1.00  0.00     0.008 C 
ATOM     19  C   UNL     1      21.025  28.191  28.690  1.00  0.00     0.008 C 
ENDBRANCH  12  17
ENDBRANCH  11  12
ENDBRANCH   1  11
TORSDOF 1
ENDMDL
