MODEL 1
REMARK VINA RESULT:    -3.109      0.000      0.000
REMARK INTER + INTRA:          -9.110
REMARK INTER:                  -6.016
REMARK INTRA:                  -3.093
REMARK UNBOUND:                -3.093
REMARK SMILES CCCCCCCCCCCCCCCCCC(=O)[O-]
REMARK SMILES IDX 10 1 11 2 12 3 13 4 14 5 15 6 16 7 17 8 18 9 19 10 20 11
REMARK SMILES IDX 9 12 8 13 7 14 6 15 5 16 4 17 3 18 2 19 1 20
REMARK H PARENT
REMARK Flexibility Score: inf
ROOT
ATOM      1  C   UNL     1      64.883  31.667  59.919  1.00  0.00     0.000 C 
ENDROOT
BRANCH   1   2
ATOM      2  C   UNL     1      64.547  33.168  59.919  1.00  0.00     0.000 C 
BRANCH   2   3
ATOM      3  C   UNL     1      64.119  33.688  61.304  1.00  0.00     0.000 C 
BRANCH   3   4
ATOM      4  C   UNL     1      64.714  35.048  61.711  1.00  0.00     0.000 C 
BRANCH   4   5
ATOM      5  C   UNL     1      63.703  36.202  61.605  1.00  0.00     0.000 C 
BRANCH   5   6
ATOM      6  C   UNL     1      62.288  35.715  61.248  1.00  0.00     0.000 C 
BRANCH   6   7
ATOM      7  C   UNL     1      61.771  36.311  59.927  1.00  0.00     0.006 C 
BRANCH   7   8
ATOM      8  C   UNL     1      62.909  36.587  58.934  1.00  0.00     0.053 C 
BRANCH   8   9
ATOM      9  C   UNL     1      62.794  35.735  57.707  1.00  0.00     0.041 C 
ATOM     10  O   UNL     1      61.915  34.836  57.640  1.00  0.00    -0.550 OA
ATOM     11  O   UNL     1      63.633  35.959  56.623  1.00  0.00    -0.550 OA
ENDBRANCH   8   9
ENDBRANCH   7   8
ENDBRANCH   6   7
ENDBRANCH   5   6
ENDBRANCH   4   5
ENDBRANCH   3   4
ENDBRANCH   2   3
ENDBRANCH   1   2
BRANCH   1  12
ATOM     12  C   UNL     1      64.526  30.975  61.248  1.00  0.00     0.000 C 
BRANCH  12  13
ATOM     13  C   UNL     1      63.518  29.814  61.134  1.00  0.00    -0.000 C 
BRANCH  13  14
ATOM     14  C   UNL     1      62.306  29.900  62.084  1.00  0.00    -0.000 C 
BRANCH  14  15
ATOM     15  C   UNL     1      61.006  30.405  61.432  1.00  0.00    -0.000 C 
BRANCH  15  16
ATOM     16  C   UNL     1      60.897  31.936  61.428  1.00  0.00    -0.000 C 
BRANCH  16  17
ATOM     17  C   UNL     1      60.908  32.485  59.996  1.00  0.00    -0.000 C 
BRANCH  17  18
ATOM     18  C   UNL     1      60.748  31.351  58.972  1.00  0.00    -0.000 C 
BRANCH  18  19
ATOM     19  C   UNL     1      61.848  31.366  57.899  1.00  0.00    -0.003 C 
ATOM     20  C   UNL     1      62.402  29.974  57.600  1.00  0.00     0.004 C 
ENDBRANCH  18  19
ENDBRANCH  17  18
ENDBRANCH  16  17
ENDBRANCH  15  16
ENDBRANCH  14  15
ENDBRANCH  13  14
ENDBRANCH  12  13
ENDBRANCH   1  12
TORSDOF 16
ENDMDL
MODEL 2
REMARK VINA RESULT:    -3.046     10.496     12.880
REMARK INTER + INTRA:          -8.989
REMARK INTER:                  -6.349
REMARK INTRA:                  -2.640
REMARK UNBOUND:                -3.093
REMARK SMILES CCCCCCCCCCCCCCCCCC(=O)[O-]
REMARK SMILES IDX 10 1 11 2 12 3 13 4 14 5 15 6 16 7 17 8 18 9 19 10 20 11
REMARK SMILES IDX 9 12 8 13 7 14 6 15 5 16 4 17 3 18 2 19 1 20
REMARK H PARENT
REMARK Flexibility Score: inf
ROOT
ATOM      1  C   UNL     1      56.281  29.637  53.238  1.00  0.00     0.000 C 
ENDROOT
BRANCH   1   2
ATOM      2  C   UNL     1      57.374  28.831  52.517  1.00  0.00     0.000 C 
BRANCH   2   3
ATOM      3  C   UNL     1      57.979  29.579  51.314  1.00  0.00     0.000 C 
BRANCH   3   4
ATOM      4  C   UNL     1      57.908  28.833  49.969  1.00  0.00     0.000 C 
BRANCH   4   5
ATOM      5  C   UNL     1      59.161  29.040  49.101  1.00  0.00     0.000 C 
BRANCH   5   6
ATOM      6  C   UNL     1      60.073  27.801  49.078  1.00  0.00     0.000 C 
BRANCH   6   7
ATOM      7  C   UNL     1      59.322  26.506  49.434  1.00  0.00     0.006 C 
BRANCH   7   8
ATOM      8  C   UNL     1      60.232  25.482  50.126  1.00  0.00     0.053 C 
BRANCH   8   9
ATOM      9  C   UNL     1      61.008  26.098  51.249  1.00  0.00     0.041 C 
ATOM     10  O   UNL     1      62.267  26.118  51.212  1.00  0.00    -0.550 OA
ATOM     11  O   UNL     1      60.341  26.681  52.319  1.00  0.00    -0.550 OA
ENDBRANCH   8   9
ENDBRANCH   7   8
ENDBRANCH   6   7
ENDBRANCH   5   6
ENDBRANCH   4   5
ENDBRANCH   3   4
ENDBRANCH   2   3
ENDBRANCH   1   2
BRANCH   1  12
ATOM     12  C   UNL     1      54.858  29.232  52.810  1.00  0.00     0.000 C 
BRANCH  12  13
ATOM     13  C   UNL     1      54.200  30.152  51.762  1.00  0.00    -0.000 C 
BRANCH  13  14
ATOM     14  C   UNL     1      53.528  29.427  50.579  1.00  0.00    -0.000 C 
BRANCH  14  15
ATOM     15  C   UNL     1      54.331  28.246  50.002  1.00  0.00    -0.000 C 
BRANCH  15  16
ATOM     16  C   UNL     1      53.482  26.979  49.824  1.00  0.00    -0.000 C 
BRANCH  16  17
ATOM     17  C   UNL     1      54.372  25.741  49.658  1.00  0.00    -0.000 C 
BRANCH  17  18
ATOM     18  C   UNL     1      55.749  25.963  50.300  1.00  0.00    -0.000 C 
BRANCH  18  19
ATOM     19  C   UNL     1      55.778  25.570  51.785  1.00  0.00    -0.003 C 
ATOM     20  C   UNL     1      57.156  25.097  52.244  1.00  0.00     0.004 C 
ENDBRANCH  18  19
ENDBRANCH  17  18
ENDBRANCH  16  17
ENDBRANCH  15  16
ENDBRANCH  14  15
ENDBRANCH  13  14
ENDBRANCH  12  13
ENDBRANCH   1  12
TORSDOF 16
ENDMDL
MODEL 3
REMARK VINA RESULT:    -3.031      3.637      6.722
REMARK INTER + INTRA:          -8.959
REMARK INTER:                  -6.518
REMARK INTRA:                  -2.441
REMARK UNBOUND:                -3.093
REMARK SMILES CCCCCCCCCCCCCCCCCC(=O)[O-]
REMARK SMILES IDX 10 1 11 2 12 3 13 4 14 5 15 6 16 7 17 8 18 9 19 10 20 11
REMARK SMILES IDX 9 12 8 13 7 14 6 15 5 16 4 17 3 18 2 19 1 20
REMARK H PARENT
REMARK Flexibility Score: inf
ROOT
ATOM      1  C   UNL     1      61.043  32.869  59.722  1.00  0.00     0.000 C 
ENDROOT
BRANCH   1   2
ATOM      2  C   UNL     1      61.373  32.518  61.183  1.00  0.00     0.000 C 
BRANCH   2   3
ATOM      3  C   UNL     1      60.728  31.197  61.644  1.00  0.00     0.000 C 
BRANCH   3   4
ATOM      4  C   UNL     1      61.714  30.098  62.082  1.00  0.00     0.000 C 
BRANCH   4   5
ATOM      5  C   UNL     1      63.180  30.453  61.780  1.00  0.00     0.000 C 
BRANCH   5   6
ATOM      6  C   UNL     1      63.909  29.338  61.011  1.00  0.00     0.000 C 
BRANCH   6   7
ATOM      7  C   UNL     1      62.968  28.196  60.588  1.00  0.00     0.006 C 
BRANCH   7   8
ATOM      8  C   UNL     1      63.461  26.829  61.081  1.00  0.00     0.053 C 
BRANCH   8   9
ATOM      9  C   UNL     1      62.412  26.114  61.876  1.00  0.00     0.041 C 
ATOM     10  O   UNL     1      61.865  26.682  62.857  1.00  0.00    -0.550 OA
ATOM     11  O   UNL     1      62.014  24.834  61.511  1.00  0.00    -0.550 OA
ENDBRANCH   8   9
ENDBRANCH   7   8
ENDBRANCH   6   7
ENDBRANCH   5   6
ENDBRANCH   4   5
ENDBRANCH   3   4
ENDBRANCH   2   3
ENDBRANCH   1   2
BRANCH   1  12
ATOM     12  C   UNL     1      61.153  34.377  59.431  1.00  0.00     0.000 C 
BRANCH  12  13
ATOM     13  C   UNL     1      60.814  35.302  60.617  1.00  0.00    -0.000 C 
BRANCH  13  14
ATOM     14  C   UNL     1      61.941  36.265  61.043  1.00  0.00    -0.000 C 
BRANCH  14  15
ATOM     15  C   UNL     1      63.345  35.884  60.537  1.00  0.00    -0.000 C 
BRANCH  15  16
ATOM     16  C   UNL     1      64.160  35.100  61.576  1.00  0.00    -0.000 C 
BRANCH  16  17
ATOM     17  C   UNL     1      64.566  33.725  61.032  1.00  0.00    -0.000 C 
BRANCH  17  18
ATOM     18  C   UNL     1      64.763  33.773  59.509  1.00  0.00    -0.000 C 
BRANCH  18  19
ATOM     19  C   UNL     1      64.522  32.411  58.840  1.00  0.00    -0.003 C 
ATOM     20  C   UNL     1      65.796  31.575  58.725  1.00  0.00     0.004 C 
ENDBRANCH  18  19
ENDBRANCH  17  18
ENDBRANCH  16  17
ENDBRANCH  15  16
ENDBRANCH  14  15
ENDBRANCH  13  14
ENDBRANCH  12  13
ENDBRANCH   1  12
TORSDOF 16
ENDMDL
MODEL 4
REMARK VINA RESULT:    -3.017     12.228     14.272
REMARK INTER + INTRA:          -8.933
REMARK INTER:                  -7.022
REMARK INTRA:                  -1.911
REMARK UNBOUND:                -3.093
REMARK SMILES CCCCCCCCCCCCCCCCCC(=O)[O-]
REMARK SMILES IDX 10 1 11 2 12 3 13 4 14 5 15 6 16 7 17 8 18 9 19 10 20 11
REMARK SMILES IDX 9 12 8 13 7 14 6 15 5 16 4 17 3 18 2 19 1 20
REMARK H PARENT
REMARK Flexibility Score: inf
ROOT
ATOM      1  C   UNL     1      59.224  29.101  49.686  1.00  0.00     0.000 C 
ENDROOT
BRANCH   1   2
ATOM      2  C   UNL     1      60.057  27.906  49.193  1.00  0.00     0.000 C 
BRANCH   2   3
ATOM      3  C   UNL     1      61.413  27.780  49.912  1.00  0.00     0.000 C 
BRANCH   3   4
ATOM      4  C   UNL     1      62.029  26.369  49.917  1.00  0.00     0.000 C 
BRANCH   4   5
ATOM      5  C   UNL     1      61.170  25.342  50.675  1.00  0.00     0.000 C 
BRANCH   5   6
ATOM      6  C   UNL     1      60.625  24.237  49.755  1.00  0.00     0.000 C 
BRANCH   6   7
ATOM      7  C   UNL     1      61.278  22.869  50.021  1.00  0.00     0.006 C 
BRANCH   7   8
ATOM      8  C   UNL     1      60.761  21.787  49.064  1.00  0.00     0.053 C 
BRANCH   8   9
ATOM      9  C   UNL     1      60.479  20.501  49.779  1.00  0.00     0.041 C 
ATOM     10  O   UNL     1      59.686  19.660  49.280  1.00  0.00    -0.550 OA
ATOM     11  O   UNL     1      61.120  20.216  50.978  1.00  0.00    -0.550 OA
ENDBRANCH   8   9
ENDBRANCH   7   8
ENDBRANCH   6   7
ENDBRANCH   5   6
ENDBRANCH   4   5
ENDBRANCH   3   4
ENDBRANCH   2   3
ENDBRANCH   1   2
BRANCH   1  12
ATOM     12  C   UNL     1      57.762  28.726  49.991  1.00  0.00     0.000 C 
BRANCH  12  13
ATOM     13  C   UNL     1      57.513  28.140  51.395  1.00  0.00    -0.000 C 
BRANCH  13  14
ATOM     14  C   UNL     1      57.422  26.602  51.460  1.00  0.00    -0.000 C 
BRANCH  14  15
ATOM     15  C   UNL     1      57.136  25.913  50.112  1.00  0.00    -0.000 C 
BRANCH  15  16
ATOM     16  C   UNL     1      55.643  25.904  49.754  1.00  0.00    -0.000 C 
BRANCH  16  17
ATOM     17  C   UNL     1      54.776  25.783  51.014  1.00  0.00    -0.000 C 
BRANCH  17  18
ATOM     18  C   UNL     1      53.894  27.028  51.195  1.00  0.00    -0.000 C 
BRANCH  18  19
ATOM     19  C   UNL     1      53.903  27.941  49.960  1.00  0.00    -0.003 C 
ATOM     20  C   UNL     1      54.099  29.415  50.314  1.00  0.00     0.004 C 
ENDBRANCH  18  19
ENDBRANCH  17  18
ENDBRANCH  16  17
ENDBRANCH  15  16
ENDBRANCH  14  15
ENDBRANCH  13  14
ENDBRANCH  12  13
ENDBRANCH   1  12
TORSDOF 16
ENDMDL
MODEL 5
REMARK VINA RESULT:    -2.984      3.025      5.801
REMARK INTER + INTRA:          -8.868
REMARK INTER:                  -5.998
REMARK INTRA:                  -2.870
REMARK UNBOUND:                -3.093
REMARK SMILES CCCCCCCCCCCCCCCCCC(=O)[O-]
REMARK SMILES IDX 10 1 11 2 12 3 13 4 14 5 15 6 16 7 17 8 18 9 19 10 20 11
REMARK SMILES IDX 9 12 8 13 7 14 6 15 5 16 4 17 3 18 2 19 1 20
REMARK H PARENT
REMARK Flexibility Score: inf
ROOT
ATOM      1  C   UNL     1      64.186  33.947  57.755  1.00  0.00     0.000 C 
ENDROOT
BRANCH   1   2
ATOM      2  C   UNL     1      65.102  32.993  58.539  1.00  0.00     0.000 C 
BRANCH   2   3
ATOM      3  C   UNL     1      64.338  31.820  59.183  1.00  0.00     0.000 C 
BRANCH   3   4
ATOM      4  C   UNL     1      65.061  31.123  60.350  1.00  0.00     0.000 C 
BRANCH   4   5
ATOM      5  C   UNL     1      64.160  30.922  61.580  1.00  0.00     0.000 C 
BRANCH   5   6
ATOM      6  C   UNL     1      63.209  29.723  61.424  1.00  0.00     0.000 C 
BRANCH   6   7
ATOM      7  C   UNL     1      61.828  29.976  62.053  1.00  0.00     0.006 C 
BRANCH   7   8
ATOM      8  C   UNL     1      60.713  30.019  60.999  1.00  0.00     0.053 C 
BRANCH   8   9
ATOM      9  C   UNL     1      59.951  28.730  60.943  1.00  0.00     0.041 C 
ATOM     10  O   UNL     1      58.930  28.630  60.212  1.00  0.00    -0.550 OA
ATOM     11  O   UNL     1      60.387  27.631  61.670  1.00  0.00    -0.550 OA
ENDBRANCH   8   9
ENDBRANCH   7   8
ENDBRANCH   6   7
ENDBRANCH   5   6
ENDBRANCH   4   5
ENDBRANCH   3   4
ENDBRANCH   2   3
ENDBRANCH   1   2
BRANCH   1  12
ATOM     12  C   UNL     1      64.500  35.431  58.024  1.00  0.00     0.000 C 
BRANCH  12  13
ATOM     13  C   UNL     1      65.687  35.691  58.972  1.00  0.00    -0.000 C 
BRANCH  13  14
ATOM     14  C   UNL     1      65.318  36.319  60.331  1.00  0.00    -0.000 C 
BRANCH  14  15
ATOM     15  C   UNL     1      65.131  35.313  61.482  1.00  0.00    -0.000 C 
BRANCH  15  16
ATOM     16  C   UNL     1      63.713  34.729  61.538  1.00  0.00    -0.000 C 
BRANCH  16  17
ATOM     17  C   UNL     1      62.660  35.819  61.304  1.00  0.00    -0.000 C 
BRANCH  17  18
ATOM     18  C   UNL     1      61.432  35.250  60.577  1.00  0.00    -0.000 C 
BRANCH  18  19
ATOM     19  C   UNL     1      61.435  33.715  60.528  1.00  0.00    -0.003 C 
ATOM     20  C   UNL     1      60.868  33.163  59.221  1.00  0.00     0.004 C 
ENDBRANCH  18  19
ENDBRANCH  17  18
ENDBRANCH  16  17
ENDBRANCH  15  16
ENDBRANCH  14  15
ENDBRANCH  13  14
ENDBRANCH  12  13
ENDBRANCH   1  12
TORSDOF 16
ENDMDL
MODEL 6
REMARK VINA RESULT:    -2.931      2.886      5.770
REMARK INTER + INTRA:          -8.766
REMARK INTER:                  -5.614
REMARK INTRA:                  -3.152
REMARK UNBOUND:                -3.093
REMARK SMILES CCCCCCCCCCCCCCCCCC(=O)[O-]
REMARK SMILES IDX 10 1 11 2 12 3 13 4 14 5 15 6 16 7 17 8 18 9 19 10 20 11
REMARK SMILES IDX 9 12 8 13 7 14 6 15 5 16 4 17 3 18 2 19 1 20
REMARK H PARENT
REMARK Flexibility Score: inf
ROOT
ATOM      1  C   UNL     1      63.558  32.031  57.781  1.00  0.00     0.000 C 
ENDROOT
BRANCH   1   2
ATOM      2  C   UNL     1      62.025  31.904  57.744  1.00  0.00     0.000 C 
BRANCH   2   3
ATOM      3  C   UNL     1      61.309  33.057  58.471  1.00  0.00     0.000 C 
BRANCH   3   4
ATOM      4  C   UNL     1      60.472  32.646  59.697  1.00  0.00     0.000 C 
BRANCH   4   5
ATOM      5  C   UNL     1      60.767  31.213  60.172  1.00  0.00     0.000 C 
BRANCH   5   6
ATOM      6  C   UNL     1      61.031  31.138  61.685  1.00  0.00     0.000 C 
BRANCH   6   7
ATOM      7  C   UNL     1      62.255  30.272  62.030  1.00  0.00     0.006 C 
BRANCH   7   8
ATOM      8  C   UNL     1      62.664  29.358  60.867  1.00  0.00     0.053 C 
BRANCH   8   9
ATOM      9  C   UNL     1      62.126  27.970  61.034  1.00  0.00     0.041 C 
ATOM     10  O   UNL     1      62.515  27.252  61.992  1.00  0.00    -0.550 OA
ATOM     11  O   UNL     1      61.168  27.484  60.154  1.00  0.00    -0.550 OA
ENDBRANCH   8   9
ENDBRANCH   7   8
ENDBRANCH   6   7
ENDBRANCH   5   6
ENDBRANCH   4   5
ENDBRANCH   3   4
ENDBRANCH   2   3
ENDBRANCH   1   2
BRANCH   1  12
ATOM     12  C   UNL     1      64.040  33.172  58.695  1.00  0.00     0.000 C 
BRANCH  12  13
ATOM     13  C   UNL     1      64.560  32.732  60.078  1.00  0.00    -0.000 C 
BRANCH  13  14
ATOM     14  C   UNL     1      63.949  33.480  61.280  1.00  0.00    -0.000 C 
BRANCH  14  15
ATOM     15  C   UNL     1      64.624  34.821  61.621  1.00  0.00    -0.000 C 
BRANCH  15  16
ATOM     16  C   UNL     1      63.644  36.002  61.610  1.00  0.00    -0.000 C 
BRANCH  16  17
ATOM     17  C   UNL     1      62.255  35.559  61.131  1.00  0.00    -0.000 C 
BRANCH  17  18
ATOM     18  C   UNL     1      61.767  36.439  59.971  1.00  0.00    -0.000 C 
BRANCH  18  19
ATOM     19  C   UNL     1      62.881  36.755  58.961  1.00  0.00    -0.003 C 
ATOM     20  C   UNL     1      62.499  36.394  57.526  1.00  0.00     0.004 C 
ENDBRANCH  18  19
ENDBRANCH  17  18
ENDBRANCH  16  17
ENDBRANCH  15  16
ENDBRANCH  14  15
ENDBRANCH  13  14
ENDBRANCH  12  13
ENDBRANCH   1  12
TORSDOF 16
ENDMDL
MODEL 7
REMARK VINA RESULT:    -2.909     10.220     12.722
REMARK INTER + INTRA:          -8.724
REMARK INTER:                  -5.910
REMARK INTRA:                  -2.814
REMARK UNBOUND:                -3.093
REMARK SMILES CCCCCCCCCCCCCCCCCC(=O)[O-]
REMARK SMILES IDX 10 1 11 2 12 3 13 4 14 5 15 6 16 7 17 8 18 9 19 10 20 11
REMARK SMILES IDX 9 12 8 13 7 14 6 15 5 16 4 17 3 18 2 19 1 20
REMARK H PARENT
REMARK Flexibility Score: inf
ROOT
ATOM      1  C   UNL     1      58.442  27.440  52.674  1.00  0.00     0.000 C 
ENDROOT
BRANCH   1   2
ATOM      2  C   UNL     1      57.183  26.583  52.460  1.00  0.00     0.000 C 
BRANCH   2   3
ATOM      3  C   UNL     1      57.220  25.778  51.148  1.00  0.00     0.000 C 
BRANCH   3   4
ATOM      4  C   UNL     1      56.332  26.322  50.013  1.00  0.00     0.000 C 
BRANCH   4   5
ATOM      5  C   UNL     1      54.835  26.313  50.366  1.00  0.00     0.000 C 
BRANCH   5   6
ATOM      6  C   UNL     1      54.118  27.601  49.924  1.00  0.00     0.000 C 
BRANCH   6   7
ATOM      7  C   UNL     1      54.761  28.869  50.512  1.00  0.00     0.006 C 
BRANCH   7   8
ATOM      8  C   UNL     1      54.357  29.096  51.975  1.00  0.00     0.053 C 
BRANCH   8   9
ATOM      9  C   UNL     1      54.326  30.553  52.323  1.00  0.00     0.041 C 
ATOM     10  O   UNL     1      53.307  31.245  52.059  1.00  0.00    -0.550 OA
ATOM     11  O   UNL     1      55.406  31.138  52.970  1.00  0.00    -0.550 OA
ENDBRANCH   8   9
ENDBRANCH   7   8
ENDBRANCH   6   7
ENDBRANCH   5   6
ENDBRANCH   4   5
ENDBRANCH   3   4
ENDBRANCH   2   3
ENDBRANCH   1   2
BRANCH   1  12
ATOM     12  C   UNL     1      58.173  28.948  52.507  1.00  0.00     0.000 C 
BRANCH  12  13
ATOM     13  C   UNL     1      58.260  29.476  51.061  1.00  0.00    -0.000 C 
BRANCH  13  14
ATOM     14  C   UNL     1      59.574  29.153  50.321  1.00  0.00    -0.000 C 
BRANCH  14  15
ATOM     15  C   UNL     1      59.409  28.296  49.052  1.00  0.00    -0.000 C 
BRANCH  15  16
ATOM     16  C   UNL     1      59.950  26.869  49.221  1.00  0.00    -0.000 C 
BRANCH  16  17
ATOM     17  C   UNL     1      61.152  26.848  50.175  1.00  0.00    -0.000 C 
BRANCH  17  18
ATOM     18  C   UNL     1      61.535  25.407  50.544  1.00  0.00    -0.000 C 
BRANCH  18  19
ATOM     19  C   UNL     1      60.474  24.385  50.106  1.00  0.00    -0.003 C 
ATOM     20  C   UNL     1      61.077  23.034  49.721  1.00  0.00     0.004 C 
ENDBRANCH  18  19
ENDBRANCH  17  18
ENDBRANCH  16  17
ENDBRANCH  15  16
ENDBRANCH  14  15
ENDBRANCH  13  14
ENDBRANCH  12  13
ENDBRANCH   1  12
TORSDOF 16
ENDMDL
MODEL 8
REMARK VINA RESULT:    -2.907      2.683      4.538
REMARK INTER + INTRA:          -8.720
REMARK INTER:                  -6.115
REMARK INTRA:                  -2.604
REMARK UNBOUND:                -3.093
REMARK SMILES CCCCCCCCCCCCCCCCCC(=O)[O-]
REMARK SMILES IDX 10 1 11 2 12 3 13 4 14 5 15 6 16 7 17 8 18 9 19 10 20 11
REMARK SMILES IDX 9 12 8 13 7 14 6 15 5 16 4 17 3 18 2 19 1 20
REMARK H PARENT
REMARK Flexibility Score: inf
ROOT
ATOM      1  C   UNL     1      61.979  30.103  62.076  1.00  0.00     0.000 C 
ENDROOT
BRANCH   1   2
ATOM      2  C   UNL     1      61.052  31.295  61.789  1.00  0.00     0.000 C 
BRANCH   2   3
ATOM      3  C   UNL     1      60.507  31.300  60.348  1.00  0.00     0.000 C 
BRANCH   3   4
ATOM      4  C   UNL     1      60.877  32.536  59.506  1.00  0.00     0.000 C 
BRANCH   4   5
ATOM      5  C   UNL     1      61.860  33.478  60.223  1.00  0.00     0.000 C 
BRANCH   5   6
ATOM      6  C   UNL     1      63.189  33.630  59.465  1.00  0.00     0.000 C 
BRANCH   6   7
ATOM      7  C   UNL     1      64.411  33.602  60.401  1.00  0.00     0.006 C 
BRANCH   7   8
ATOM      8  C   UNL     1      64.193  34.451  61.661  1.00  0.00     0.053 C 
BRANCH   8   9
ATOM      9  C   UNL     1      64.994  35.716  61.625  1.00  0.00     0.041 C 
ATOM     10  O   UNL     1      65.751  35.958  60.648  1.00  0.00    -0.550 OA
ATOM     11  O   UNL     1      64.878  36.643  62.652  1.00  0.00    -0.550 OA
ENDBRANCH   8   9
ENDBRANCH   7   8
ENDBRANCH   6   7
ENDBRANCH   5   6
ENDBRANCH   4   5
ENDBRANCH   3   4
ENDBRANCH   2   3
ENDBRANCH   1   2
BRANCH   1  12
ATOM     12  C   UNL     1      63.449  30.388  61.716  1.00  0.00     0.000 C 
BRANCH  12  13
ATOM     13  C   UNL     1      64.018  29.544  60.559  1.00  0.00    -0.000 C 
BRANCH  13  14
ATOM     14  C   UNL     1      62.990  28.667  59.817  1.00  0.00    -0.000 C 
BRANCH  14  15
ATOM     15  C   UNL     1      63.326  27.164  59.779  1.00  0.00    -0.000 C 
BRANCH  15  16
ATOM     16  C   UNL     1      63.651  26.592  61.166  1.00  0.00    -0.000 C 
BRANCH  16  17
ATOM     17  C   UNL     1      62.399  26.554  62.052  1.00  0.00    -0.000 C 
BRANCH  17  18
ATOM     18  C   UNL     1      61.195  25.997  61.277  1.00  0.00    -0.000 C 
BRANCH  18  19
ATOM     19  C   UNL     1      59.915  26.814  61.512  1.00  0.00    -0.003 C 
ATOM     20  C   UNL     1      59.498  27.626  60.286  1.00  0.00     0.004 C 
ENDBRANCH  18  19
ENDBRANCH  17  18
ENDBRANCH  16  17
ENDBRANCH  15  16
ENDBRANCH  14  15
ENDBRANCH  13  14
ENDBRANCH  12  13
ENDBRANCH   1  12
TORSDOF 16
ENDMDL
MODEL 9
REMARK VINA RESULT:    -2.841      2.900      5.768
REMARK INTER + INTRA:          -8.592
REMARK INTER:                  -5.836
REMARK INTRA:                  -2.756
REMARK UNBOUND:                -3.093
REMARK SMILES CCCCCCCCCCCCCCCCCC(=O)[O-]
REMARK SMILES IDX 10 1 11 2 12 3 13 4 14 5 15 6 16 7 17 8 18 9 19 10 20 11
REMARK SMILES IDX 9 12 8 13 7 14 6 15 5 16 4 17 3 18 2 19 1 20
REMARK H PARENT
REMARK Flexibility Score: inf
ROOT
ATOM      1  C   UNL     1      63.683  32.141  57.676  1.00  0.00     0.000 C 
ENDROOT
BRANCH   1   2
ATOM      2  C   UNL     1      63.917  31.025  58.707  1.00  0.00     0.000 C 
BRANCH   2   3
ATOM      3  C   UNL     1      64.932  31.416  59.797  1.00  0.00     0.000 C 
BRANCH   3   4
ATOM      4  C   UNL     1      64.503  31.103  61.243  1.00  0.00     0.000 C 
BRANCH   4   5
ATOM      5  C   UNL     1      63.167  30.345  61.321  1.00  0.00     0.000 C 
BRANCH   5   6
ATOM      6  C   UNL     1      63.357  28.843  61.591  1.00  0.00     0.000 C 
BRANCH   6   7
ATOM      7  C   UNL     1      62.079  28.027  61.330  1.00  0.00     0.006 C 
BRANCH   7   8
ATOM      8  C   UNL     1      61.450  28.358  59.970  1.00  0.00     0.053 C 
BRANCH   8   9
ATOM      9  C   UNL     1      59.980  28.619  60.085  1.00  0.00     0.041 C 
ATOM     10  O   UNL     1      59.472  28.894  61.204  1.00  0.00    -0.550 OA
ATOM     11  O   UNL     1      59.177  28.595  58.952  1.00  0.00    -0.550 OA
ENDBRANCH   8   9
ENDBRANCH   7   8
ENDBRANCH   6   7
ENDBRANCH   5   6
ENDBRANCH   4   5
ENDBRANCH   3   4
ENDBRANCH   2   3
ENDBRANCH   1   2
BRANCH   1  12
ATOM     12  C   UNL     1      62.210  32.585  57.599  1.00  0.00     0.000 C 
BRANCH  12  13
ATOM     13  C   UNL     1      61.224  31.736  58.426  1.00  0.00    -0.000 C 
BRANCH  13  14
ATOM     14  C   UNL     1      60.516  32.483  59.574  1.00  0.00    -0.000 C 
BRANCH  14  15
ATOM     15  C   UNL     1      61.453  33.257  60.520  1.00  0.00    -0.000 C 
BRANCH  15  16
ATOM     16  C   UNL     1      61.114  34.752  60.602  1.00  0.00    -0.000 C 
BRANCH  16  17
ATOM     17  C   UNL     1      62.378  35.589  60.841  1.00  0.00    -0.000 C 
BRANCH  17  18
ATOM     18  C   UNL     1      63.644  34.756  60.594  1.00  0.00    -0.000 C 
BRANCH  18  19
ATOM     19  C   UNL     1      64.587  34.741  61.807  1.00  0.00    -0.003 C 
ATOM     20  C   UNL     1      65.320  36.068  62.002  1.00  0.00     0.004 C 
ENDBRANCH  18  19
ENDBRANCH  17  18
ENDBRANCH  16  17
ENDBRANCH  15  16
ENDBRANCH  14  15
ENDBRANCH  13  14
ENDBRANCH  12  13
ENDBRANCH   1  12
TORSDOF 16
ENDMDL
