MODEL 1
REMARK VINA RESULT:    -2.228      0.000      0.000
REMARK INTER + INTRA:          -2.228
REMARK INTER:                  -2.228
REMARK INTRA:                   0.000
REMARK UNBOUND:                 0.000
REMARK SMILES CC(=O)[O-]
REMARK SMILES IDX 1 1 2 2 3 3 4 4
REMARK H PARENT
REMARK Flexibility Score: inf
ROOT
ATOM      1  C   UNL     1       1.175  63.011   7.704  1.00  0.00     0.063 C 
ATOM      2  C   UNL     1       2.532  63.018   8.322  1.00  0.00     0.038 C 
ATOM      3  O   UNL     1       2.834  62.161   9.194  1.00  0.00    -0.550 OA
ATOM      4  O   UNL     1       3.449  64.002   7.978  1.00  0.00    -0.550 OA
ENDROOT
TORSDOF 0
ENDMDL
MODEL 2
REMARK VINA RESULT:    -2.227      1.423      1.782
REMARK INTER + INTRA:          -2.227
REMARK INTER:                  -2.227
REMARK INTRA:                   0.000
REMARK UNBOUND:                 0.000
REMARK SMILES CC(=O)[O-]
REMARK SMILES IDX 1 1 2 2 3 3 4 4
REMARK H PARENT
REMARK Flexibility Score: inf
ROOT
ATOM      1  C   UNL     1       3.181  64.007   8.080  1.00  0.00     0.063 C 
ATOM      2  C   UNL     1       2.280  62.844   8.329  1.00  0.00     0.038 C 
ATOM      3  O   UNL     1       2.639  61.922   9.106  1.00  0.00    -0.550 OA
ATOM      4  O   UNL     1       1.066  62.749   7.661  1.00  0.00    -0.550 OA
ENDROOT
TORSDOF 0
ENDMDL
MODEL 3
REMARK VINA RESULT:    -2.211      0.174      1.627
REMARK INTER + INTRA:          -2.211
REMARK INTER:                  -2.211
REMARK INTRA:                   0.000
REMARK UNBOUND:                 0.000
REMARK SMILES CC(=O)[O-]
REMARK SMILES IDX 1 1 2 2 3 3 4 4
REMARK H PARENT
REMARK Flexibility Score: inf
ROOT
ATOM      1  C   UNL     1       1.215  63.086   7.719  1.00  0.00     0.063 C 
ATOM      2  C   UNL     1       2.545  62.993   8.387  1.00  0.00     0.038 C 
ATOM      3  O   UNL     1       3.433  63.854   8.150  1.00  0.00    -0.550 OA
ATOM      4  O   UNL     1       2.828  61.926   9.230  1.00  0.00    -0.550 OA
ENDROOT
TORSDOF 0
ENDMDL
MODEL 4
REMARK VINA RESULT:    -2.206     14.125     14.417
REMARK INTER + INTRA:          -2.206
REMARK INTER:                  -2.206
REMARK INTRA:                   0.000
REMARK UNBOUND:                 0.000
REMARK SMILES CC(=O)[O-]
REMARK SMILES IDX 1 1 2 2 3 3 4 4
REMARK H PARENT
REMARK Flexibility Score: inf
ROOT
ATOM      1  C   UNL     1       3.339  71.476  19.038  1.00  0.00     0.063 C 
ATOM      2  C   UNL     1       2.513  72.693  18.791  1.00  0.00     0.038 C 
ATOM      3  O   UNL     1       2.928  73.590  18.011  1.00  0.00    -0.550 OA
ATOM      4  O   UNL     1       1.310  72.866  19.462  1.00  0.00    -0.550 OA
ENDROOT
TORSDOF 0
ENDMDL
MODEL 5
REMARK VINA RESULT:    -2.182      1.451      2.049
REMARK INTER + INTRA:          -2.182
REMARK INTER:                  -2.182
REMARK INTRA:                   0.000
REMARK UNBOUND:                 0.000
REMARK SMILES CC(=O)[O-]
REMARK SMILES IDX 1 1 2 2 3 3 4 4
REMARK H PARENT
REMARK Flexibility Score: inf
ROOT
ATOM      1  C   UNL     1       3.162  64.055   8.067  1.00  0.00     0.063 C 
ATOM      2  C   UNL     1       2.318  62.856   8.336  1.00  0.00     0.038 C 
ATOM      3  O   UNL     1       1.184  62.747   7.799  1.00  0.00    -0.550 OA
ATOM      4  O   UNL     1       2.755  61.881   9.225  1.00  0.00    -0.550 OA
ENDROOT
TORSDOF 0
ENDMDL
MODEL 6
REMARK VINA RESULT:    -2.176     13.992     14.186
REMARK INTER + INTRA:          -2.176
REMARK INTER:                  -2.176
REMARK INTRA:                   0.000
REMARK UNBOUND:                 0.000
REMARK SMILES CC(=O)[O-]
REMARK SMILES IDX 1 1 2 2 3 3 4 4
REMARK H PARENT
REMARK Flexibility Score: inf
ROOT
ATOM      1  C   UNL     1       1.511  72.675  19.261  1.00  0.00     0.063 C 
ATOM      2  C   UNL     1       2.886  72.532  18.702  1.00  0.00     0.038 C 
ATOM      3  O   UNL     1       3.268  73.279  17.763  1.00  0.00    -0.550 OA
ATOM      4  O   UNL     1       3.731  71.537  19.177  1.00  0.00    -0.550 OA
ENDROOT
TORSDOF 0
ENDMDL
MODEL 7
REMARK VINA RESULT:    -2.124     14.015     14.245
REMARK INTER + INTRA:          -2.124
REMARK INTER:                  -2.124
REMARK INTRA:                   0.000
REMARK UNBOUND:                 0.000
REMARK SMILES CC(=O)[O-]
REMARK SMILES IDX 1 1 2 2 3 3 4 4
REMARK H PARENT
REMARK Flexibility Score: inf
ROOT
ATOM      1  C   UNL     1       3.327  71.363  19.133  1.00  0.00     0.063 C 
ATOM      2  C   UNL     1       2.629  72.628  18.762  1.00  0.00     0.038 C 
ATOM      3  O   UNL     1       1.508  72.902  19.266  1.00  0.00    -0.550 OA
ATOM      4  O   UNL     1       3.187  73.482  17.820  1.00  0.00    -0.550 OA
ENDROOT
TORSDOF 0
ENDMDL
MODEL 8
REMARK VINA RESULT:    -2.078      1.416      2.227
REMARK INTER + INTRA:          -2.078
REMARK INTER:                  -2.078
REMARK INTRA:                   0.000
REMARK UNBOUND:                 0.000
REMARK SMILES CC(=O)[O-]
REMARK SMILES IDX 1 1 2 2 3 3 4 4
REMARK H PARENT
REMARK Flexibility Score: inf
ROOT
ATOM      1  C   UNL     1       2.971  62.472   9.252  1.00  0.00     0.063 C 
ATOM      2  C   UNL     1       2.324  63.220   8.135  1.00  0.00     0.038 C 
ATOM      3  O   UNL     1       2.861  64.264   7.679  1.00  0.00    -0.550 OA
ATOM      4  O   UNL     1       1.101  62.798   7.631  1.00  0.00    -0.550 OA
ENDROOT
TORSDOF 0
ENDMDL
MODEL 9
REMARK VINA RESULT:    -2.016     14.005     14.208
REMARK INTER + INTRA:          -2.016
REMARK INTER:                  -2.016
REMARK INTRA:                   0.000
REMARK UNBOUND:                 0.000
REMARK SMILES CC(=O)[O-]
REMARK SMILES IDX 1 1 2 2 3 3 4 4
REMARK H PARENT
REMARK Flexibility Score: inf
ROOT
ATOM      1  C   UNL     1       3.043  72.983  18.253  1.00  0.00     0.063 C 
ATOM      2  C   UNL     1       1.893  72.290  18.903  1.00  0.00     0.038 C 
ATOM      3  O   UNL     1       1.090  72.938  19.625  1.00  0.00    -0.550 OA
ATOM      4  O   UNL     1       1.735  70.918  18.758  1.00  0.00    -0.550 OA
ENDROOT
TORSDOF 0
ENDMDL
