MODEL 1
REMARK VINA RESULT:    -3.950      0.000      0.000
REMARK INTER + INTRA:          -5.528
REMARK INTER:                  -5.104
REMARK INTRA:                  -0.423
REMARK UNBOUND:                -0.423
REMARK SMILES CCO[C@H]1O[C@@H](CO)[C@H](O)[C@@H](O)[C@H]1O
REMARK SMILES IDX 4 1 13 2 11 3 9 4 6 5 5 6 3 7 2 8 1 9 14 10 12 12 7 14 8 15
REMARK SMILES IDX 10 17
REMARK H PARENT 14 11 12 13 8 16 10 18
REMARK Flexibility Score: inf
ROOT
ATOM      1  C   UNL     1       7.685  -5.847  -2.655  1.00  0.00     0.281 C 
ATOM      2  C   UNL     1       9.192  -5.930  -2.972  1.00  0.00     0.202 C 
ATOM      3  C   UNL     1      10.013  -5.089  -1.986  1.00  0.00     0.179 C 
ATOM      4  C   UNL     1       9.448  -3.662  -1.926  1.00  0.00     0.177 C 
ATOM      5  C   UNL     1       7.910  -3.652  -1.724  1.00  0.00     0.178 C 
ATOM      6  O   UNL     1       7.215  -4.505  -2.628  1.00  0.00    -0.341 OA
ENDROOT
BRANCH   1   7
ATOM      7  O   UNL     1       7.399  -6.511  -1.431  1.00  0.00    -0.350 OA
BRANCH   7   8
ATOM      8  C   UNL     1       6.584  -7.653  -1.617  1.00  0.00     0.160 C 
ATOM      9  C   UNL     1       7.140  -8.866  -0.875  1.00  0.00     0.035 C 
ENDBRANCH   7   8
ENDBRANCH   1   7
BRANCH   2  10
ATOM     10  O   UNL     1       9.628  -7.265  -2.940  1.00  0.00    -0.385 OA
ATOM     11  H   UNL     1      10.036  -7.456  -3.824  1.00  0.00     0.211 HD
ENDBRANCH   2  10
BRANCH   3  12
ATOM     12  O   UNL     1      10.006  -5.662  -0.703  1.00  0.00    -0.387 OA
ATOM     13  H   UNL     1      10.394  -6.572  -0.787  1.00  0.00     0.211 HD
ENDBRANCH   3  12
BRANCH   5  14
ATOM     14  C   UNL     1       7.452  -3.844  -0.262  1.00  0.00     0.191 C 
BRANCH  14  15
ATOM     15  O   UNL     1       8.475  -3.476   0.626  1.00  0.00    -0.394 OA
ATOM     16  H   UNL     1       8.043  -3.020   1.395  1.00  0.00     0.210 HD
ENDBRANCH  14  15
ENDBRANCH   5  14
BRANCH   4  17
ATOM     17  O   UNL     1       9.747  -2.988  -3.125  1.00  0.00    -0.387 OA
ATOM     18  H   UNL     1      10.148  -3.654  -3.741  1.00  0.00     0.211 HD
ENDBRANCH   4  17
TORSDOF 7
ENDMDL
MODEL 2
REMARK VINA RESULT:    -3.801      1.331      1.419
REMARK INTER + INTRA:          -5.335
REMARK INTER:                  -5.132
REMARK INTRA:                  -0.203
REMARK UNBOUND:                -0.423
REMARK SMILES CCO[C@H]1O[C@@H](CO)[C@H](O)[C@@H](O)[C@H]1O
REMARK SMILES IDX 4 1 13 2 11 3 9 4 6 5 5 6 3 7 2 8 1 9 14 10 12 12 7 14 8 15
REMARK SMILES IDX 10 17
REMARK H PARENT 14 11 12 13 8 16 10 18
REMARK Flexibility Score: inf
ROOT
ATOM      1  C   UNL     1       7.180  -5.714  -2.496  1.00  0.00     0.281 C 
ATOM      2  C   UNL     1       8.634  -5.268  -2.749  1.00  0.00     0.202 C 
ATOM      3  C   UNL     1       9.059  -4.176  -1.759  1.00  0.00     0.179 C 
ATOM      4  C   UNL     1       8.030  -3.037  -1.770  1.00  0.00     0.177 C 
ATOM      5  C   UNL     1       6.577  -3.563  -1.632  1.00  0.00     0.178 C 
ATOM      6  O   UNL     1       6.270  -4.621  -2.534  1.00  0.00    -0.341 OA
ENDROOT
BRANCH   1   7
ATOM      7  O   UNL     1       7.082  -6.415  -1.264  1.00  0.00    -0.350 OA
BRANCH   7   8
ATOM      8  C   UNL     1       6.606  -7.737  -1.433  1.00  0.00     0.160 C 
ATOM      9  C   UNL     1       7.490  -8.749  -0.707  1.00  0.00     0.035 C 
ENDBRANCH   7   8
ENDBRANCH   1   7
BRANCH   2  10
ATOM     10  O   UNL     1       9.507  -6.365  -2.653  1.00  0.00    -0.385 OA
ATOM     11  H   UNL     1       9.628  -6.717  -3.574  1.00  0.00     0.211 HD
ENDBRANCH   2  10
BRANCH   3  12
ATOM     12  O   UNL     1       9.189  -4.694  -0.459  1.00  0.00    -0.387 OA
ATOM     13  H   UNL     1       8.501  -5.403  -0.356  1.00  0.00     0.211 HD
ENDBRANCH   3  12
BRANCH   5  14
ATOM     14  C   UNL     1       6.142  -3.878  -0.184  1.00  0.00     0.191 C 
BRANCH  14  15
ATOM     15  O   UNL     1       4.996  -3.143   0.157  1.00  0.00    -0.394 OA
ATOM     16  H   UNL     1       5.286  -2.206   0.313  1.00  0.00     0.210 HD
ENDBRANCH  14  15
ENDBRANCH   5  14
BRANCH   4  17
ATOM     17  O   UNL     1       8.134  -2.322  -2.977  1.00  0.00    -0.387 OA
ATOM     18  H   UNL     1       8.172  -2.991  -3.709  1.00  0.00     0.211 HD
ENDBRANCH   4  17
TORSDOF 7
ENDMDL
MODEL 3
REMARK VINA RESULT:    -3.564      1.989      4.341
REMARK INTER + INTRA:          -5.029
REMARK INTER:                  -4.683
REMARK INTRA:                  -0.346
REMARK UNBOUND:                -0.423
REMARK SMILES CCO[C@H]1O[C@@H](CO)[C@H](O)[C@@H](O)[C@H]1O
REMARK SMILES IDX 4 1 13 2 11 3 9 4 6 5 5 6 3 7 2 8 1 9 14 10 12 12 7 14 8 15
REMARK SMILES IDX 10 17
REMARK H PARENT 14 11 12 13 8 16 10 18
REMARK Flexibility Score: inf
ROOT
ATOM      1  C   UNL     1       6.430  -3.397  -2.211  1.00  0.00     0.281 C 
ATOM      2  C   UNL     1       6.462  -3.962  -0.777  1.00  0.00     0.202 C 
ATOM      3  C   UNL     1       7.904  -4.123  -0.276  1.00  0.00     0.179 C 
ATOM      4  C   UNL     1       8.722  -4.925  -1.300  1.00  0.00     0.177 C 
ATOM      5  C   UNL     1       8.551  -4.377  -2.741  1.00  0.00     0.178 C 
ATOM      6  O   UNL     1       7.190  -4.188  -3.117  1.00  0.00    -0.341 OA
ENDROOT
BRANCH   1   7
ATOM      7  O   UNL     1       6.871  -2.046  -2.222  1.00  0.00    -0.350 OA
BRANCH   7   8
ATOM      8  C   UNL     1       6.131  -1.246  -3.125  1.00  0.00     0.160 C 
ATOM      9  C   UNL     1       4.627  -1.458  -2.959  1.00  0.00     0.035 C 
ENDBRANCH   7   8
ENDBRANCH   1   7
BRANCH   2  10
ATOM     10  O   UNL     1       5.744  -3.128   0.096  1.00  0.00    -0.385 OA
ATOM     11  H   UNL     1       4.948  -2.808  -0.403  1.00  0.00     0.211 HD
ENDBRANCH   2  10
BRANCH   3  12
ATOM     12  O   UNL     1       8.505  -2.872  -0.055  1.00  0.00    -0.387 OA
ATOM     13  H   UNL     1       8.869  -2.881   0.868  1.00  0.00     0.211 HD
ENDBRANCH   3  12
BRANCH   5  14
ATOM     14  C   UNL     1       9.429  -3.150  -3.071  1.00  0.00     0.191 C 
BRANCH  14  15
ATOM     15  O   UNL     1      10.768  -3.396  -2.726  1.00  0.00    -0.394 OA
ATOM     16  H   UNL     1      10.810  -3.440  -1.735  1.00  0.00     0.210 HD
ENDBRANCH  14  15
ENDBRANCH   5  14
BRANCH   4  17
ATOM     17  O   UNL     1       8.309  -6.269  -1.280  1.00  0.00    -0.387 OA
ATOM     18  H   UNL     1       7.450  -6.317  -1.775  1.00  0.00     0.211 HD
ENDBRANCH   4  17
TORSDOF 7
ENDMDL
MODEL 4
REMARK VINA RESULT:    -3.453      1.834      3.581
REMARK INTER + INTRA:          -4.885
REMARK INTER:                  -4.418
REMARK INTRA:                  -0.467
REMARK UNBOUND:                -0.423
REMARK SMILES CCO[C@H]1O[C@@H](CO)[C@H](O)[C@@H](O)[C@H]1O
REMARK SMILES IDX 4 1 13 2 11 3 9 4 6 5 5 6 3 7 2 8 1 9 14 10 12 12 7 14 8 15
REMARK SMILES IDX 10 17
REMARK H PARENT 14 11 12 13 8 16 10 18
REMARK Flexibility Score: inf
ROOT
ATOM      1  C   UNL     1       8.722  -4.287  -1.674  1.00  0.00     0.281 C 
ATOM      2  C   UNL     1       8.249  -3.199  -0.690  1.00  0.00     0.202 C 
ATOM      3  C   UNL     1       6.722  -3.052  -0.717  1.00  0.00     0.179 C 
ATOM      4  C   UNL     1       6.245  -2.857  -2.164  1.00  0.00     0.177 C 
ATOM      5  C   UNL     1       6.853  -3.914  -3.125  1.00  0.00     0.178 C 
ATOM      6  O   UNL     1       8.265  -4.047  -3.000  1.00  0.00    -0.341 OA
ENDROOT
BRANCH   1   7
ATOM      7  O   UNL     1       8.320  -5.574  -1.223  1.00  0.00    -0.350 OA
BRANCH   7   8
ATOM      8  C   UNL     1       9.312  -6.557  -1.450  1.00  0.00     0.160 C 
ATOM      9  C   UNL     1      10.668  -6.123  -0.899  1.00  0.00     0.035 C 
ENDBRANCH   7   8
ENDBRANCH   1   7
BRANCH   2  10
ATOM     10  O   UNL     1       8.676  -3.498   0.615  1.00  0.00    -0.385 OA
ATOM     11  H   UNL     1       7.945  -3.224   1.227  1.00  0.00     0.211 HD
ENDBRANCH   2  10
BRANCH   3  12
ATOM     12  O   UNL     1       6.095  -4.176  -0.153  1.00  0.00    -0.387 OA
ATOM     13  H   UNL     1       5.360  -3.842   0.425  1.00  0.00     0.211 HD
ENDBRANCH   3  12
BRANCH   5  14
ATOM     14  C   UNL     1       6.129  -5.278  -3.120  1.00  0.00     0.191 C 
BRANCH  14  15
ATOM     15  O   UNL     1       4.746  -5.101  -2.956  1.00  0.00    -0.394 OA
ATOM     16  H   UNL     1       4.363  -5.990  -2.734  1.00  0.00     0.210 HD
ENDBRANCH  14  15
ENDBRANCH   5  14
BRANCH   4  17
ATOM     17  O   UNL     1       6.619  -1.577  -2.613  1.00  0.00    -0.387 OA
ATOM     18  H   UNL     1       5.888  -1.250  -3.198  1.00  0.00     0.211 HD
ENDBRANCH   4  17
TORSDOF 7
ENDMDL
MODEL 5
REMARK VINA RESULT:    -3.425      1.869      2.811
REMARK INTER + INTRA:          -4.850
REMARK INTER:                  -4.658
REMARK INTRA:                  -0.192
REMARK UNBOUND:                -0.423
REMARK SMILES CCO[C@H]1O[C@@H](CO)[C@H](O)[C@@H](O)[C@H]1O
REMARK SMILES IDX 4 1 13 2 11 3 9 4 6 5 5 6 3 7 2 8 1 9 14 10 12 12 7 14 8 15
REMARK SMILES IDX 10 17
REMARK H PARENT 14 11 12 13 8 16 10 18
REMARK Flexibility Score: inf
ROOT
ATOM      1  C   UNL     1       8.377  -4.666  -2.640  1.00  0.00     0.281 C 
ATOM      2  C   UNL     1       9.093  -3.302  -2.705  1.00  0.00     0.202 C 
ATOM      3  C   UNL     1       8.481  -2.308  -1.710  1.00  0.00     0.179 C 
ATOM      4  C   UNL     1       6.959  -2.243  -1.910  1.00  0.00     0.177 C 
ATOM      5  C   UNL     1       6.317  -3.654  -1.955  1.00  0.00     0.178 C 
ATOM      6  O   UNL     1       6.975  -4.547  -2.849  1.00  0.00    -0.341 OA
ENDROOT
BRANCH   1   7
ATOM      7  O   UNL     1       8.655  -5.315  -1.407  1.00  0.00    -0.350 OA
BRANCH   7   8
ATOM      8  C   UNL     1       9.480  -6.453  -1.572  1.00  0.00     0.160 C 
ATOM      9  C   UNL     1      10.614  -6.477  -0.549  1.00  0.00     0.035 C 
ENDBRANCH   7   8
ENDBRANCH   1   7
BRANCH   2  10
ATOM     10  O   UNL     1      10.464  -3.455  -2.445  1.00  0.00    -0.385 OA
ATOM     11  H   UNL     1      10.821  -2.551  -2.243  1.00  0.00     0.211 HD
ENDBRANCH   2  10
BRANCH   3  12
ATOM     12  O   UNL     1       8.776  -2.671  -0.385  1.00  0.00    -0.387 OA
ATOM     13  H   UNL     1       8.201  -3.448  -0.160  1.00  0.00     0.211 HD
ENDBRANCH   3  12
BRANCH   5  14
ATOM     14  C   UNL     1       6.061  -4.288  -0.571  1.00  0.00     0.191 C 
BRANCH  14  15
ATOM     15  O   UNL     1       5.299  -3.425   0.232  1.00  0.00    -0.394 OA
ATOM     16  H   UNL     1       5.931  -2.956   0.837  1.00  0.00     0.210 HD
ENDBRANCH  14  15
ENDBRANCH   5  14
BRANCH   4  17
ATOM     17  O   UNL     1       6.673  -1.582  -3.119  1.00  0.00    -0.387 OA
ATOM     18  H   UNL     1       6.772  -2.250  -3.846  1.00  0.00     0.211 HD
ENDBRANCH   4  17
TORSDOF 7
ENDMDL
MODEL 6
REMARK VINA RESULT:    -3.403      1.726      3.710
REMARK INTER + INTRA:          -4.821
REMARK INTER:                  -4.324
REMARK INTRA:                  -0.497
REMARK UNBOUND:                -0.423
REMARK SMILES CCO[C@H]1O[C@@H](CO)[C@H](O)[C@@H](O)[C@H]1O
REMARK SMILES IDX 4 1 13 2 11 3 9 4 6 5 5 6 3 7 2 8 1 9 14 10 12 12 7 14 8 15
REMARK SMILES IDX 10 17
REMARK H PARENT 14 11 12 13 8 16 10 18
REMARK Flexibility Score: inf
ROOT
ATOM      1  C   UNL     1       8.664  -5.293  -1.497  1.00  0.00     0.281 C 
ATOM      2  C   UNL     1       7.220  -5.836  -1.483  1.00  0.00     0.202 C 
ATOM      3  C   UNL     1       6.207  -4.724  -1.783  1.00  0.00     0.179 C 
ATOM      4  C   UNL     1       6.452  -3.533  -0.845  1.00  0.00     0.177 C 
ATOM      5  C   UNL     1       7.945  -3.112  -0.814  1.00  0.00     0.178 C 
ATOM      6  O   UNL     1       8.835  -4.203  -0.599  1.00  0.00    -0.341 OA
ENDROOT
BRANCH   1   7
ATOM      7  O   UNL     1       9.045  -4.930  -2.817  1.00  0.00    -0.350 OA
BRANCH   7   8
ATOM      8  C   UNL     1      10.368  -5.330  -3.124  1.00  0.00     0.160 C 
ATOM      9  C   UNL     1      11.337  -4.151  -3.064  1.00  0.00     0.035 C 
ENDBRANCH   7   8
ENDBRANCH   1   7
BRANCH   2  10
ATOM     10  O   UNL     1       7.079  -6.876  -2.417  1.00  0.00    -0.385 OA
ATOM     11  H   UNL     1       6.779  -6.460  -3.267  1.00  0.00     0.211 HD
ENDBRANCH   2  10
BRANCH   3  12
ATOM     12  O   UNL     1       6.294  -4.307  -3.122  1.00  0.00    -0.387 OA
ATOM     13  H   UNL     1       5.670  -3.543  -3.232  1.00  0.00     0.211 HD
ENDBRANCH   3  12
BRANCH   5  14
ATOM     14  C   UNL     1       8.385  -2.216  -1.992  1.00  0.00     0.191 C 
BRANCH  14  15
ATOM     15  O   UNL     1       7.271  -1.599  -2.584  1.00  0.00    -0.394 OA
ATOM     16  H   UNL     1       6.465  -1.951  -2.124  1.00  0.00     0.210 HD
ENDBRANCH  14  15
ENDBRANCH   5  14
BRANCH   4  17
ATOM     17  O   UNL     1       6.056  -3.874   0.461  1.00  0.00    -0.387 OA
ATOM     18  H   UNL     1       6.524  -3.255   1.078  1.00  0.00     0.211 HD
ENDBRANCH   4  17
TORSDOF 7
ENDMDL
MODEL 7
REMARK VINA RESULT:    -3.106      1.461      3.910
REMARK INTER + INTRA:          -4.437
REMARK INTER:                  -3.919
REMARK INTRA:                  -0.518
REMARK UNBOUND:                -0.423
REMARK SMILES CCO[C@H]1O[C@@H](CO)[C@H](O)[C@@H](O)[C@H]1O
REMARK SMILES IDX 4 1 13 2 11 3 9 4 6 5 5 6 3 7 2 8 1 9 14 10 12 12 7 14 8 15
REMARK SMILES IDX 10 17
REMARK H PARENT 14 11 12 13 8 16 10 18
REMARK Flexibility Score: inf
ROOT
ATOM      1  C   UNL     1       8.620  -4.366  -2.543  1.00  0.00     0.281 C 
ATOM      2  C   UNL     1       7.871  -3.103  -2.073  1.00  0.00     0.202 C 
ATOM      3  C   UNL     1       6.737  -3.460  -1.103  1.00  0.00     0.179 C 
ATOM      4  C   UNL     1       5.842  -4.541  -1.726  1.00  0.00     0.177 C 
ATOM      5  C   UNL     1       6.668  -5.729  -2.286  1.00  0.00     0.178 C 
ATOM      6  O   UNL     1       7.745  -5.324  -3.125  1.00  0.00    -0.341 OA
ENDROOT
BRANCH   1   7
ATOM      7  O   UNL     1       9.355  -4.935  -1.467  1.00  0.00    -0.350 OA
BRANCH   7   8
ATOM      8  C   UNL     1      10.627  -5.405  -1.875  1.00  0.00     0.160 C 
ATOM      9  C   UNL     1      11.301  -4.433  -2.841  1.00  0.00     0.035 C 
ENDBRANCH   7   8
ENDBRANCH   1   7
BRANCH   2  10
ATOM     10  O   UNL     1       8.759  -2.204  -1.460  1.00  0.00    -0.385 OA
ATOM     11  H   UNL     1       9.453  -1.981  -2.133  1.00  0.00     0.211 HD
ENDBRANCH   2  10
BRANCH   3  12
ATOM     12  O   UNL     1       7.246  -3.908   0.128  1.00  0.00    -0.387 OA
ATOM     13  H   UNL     1       6.518  -4.408   0.581  1.00  0.00     0.211 HD
ENDBRANCH   3  12
BRANCH   5  14
ATOM     14  C   UNL     1       7.103  -6.766  -1.227  1.00  0.00     0.191 C 
BRANCH  14  15
ATOM     15  O   UNL     1       7.968  -7.715  -1.794  1.00  0.00    -0.394 OA
ATOM     16  H   UNL     1       8.888  -7.346  -1.729  1.00  0.00     0.210 HD
ENDBRANCH  14  15
ENDBRANCH   5  14
BRANCH   4  17
ATOM     17  O   UNL     1       5.093  -3.982  -2.777  1.00  0.00    -0.387 OA
ATOM     18  H   UNL     1       4.141  -3.996  -2.496  1.00  0.00     0.211 HD
ENDBRANCH   4  17
TORSDOF 7
ENDMDL
MODEL 8
REMARK VINA RESULT:    -2.984      1.768      3.143
REMARK INTER + INTRA:          -4.280
REMARK INTER:                  -3.995
REMARK INTRA:                  -0.285
REMARK UNBOUND:                -0.423
REMARK SMILES CCO[C@H]1O[C@@H](CO)[C@H](O)[C@@H](O)[C@H]1O
REMARK SMILES IDX 4 1 13 2 11 3 9 4 6 5 5 6 3 7 2 8 1 9 14 10 12 12 7 14 8 15
REMARK SMILES IDX 10 17
REMARK H PARENT 14 11 12 13 8 16 10 18
REMARK Flexibility Score: inf
ROOT
ATOM      1  C   UNL     1       6.672  -4.941  -3.121  1.00  0.00     0.281 C 
ATOM      2  C   UNL     1       6.951  -6.455  -3.030  1.00  0.00     0.202 C 
ATOM      3  C   UNL     1       7.672  -6.807  -1.722  1.00  0.00     0.179 C 
ATOM      4  C   UNL     1       8.912  -5.916  -1.557  1.00  0.00     0.177 C 
ATOM      5  C   UNL     1       8.585  -4.416  -1.780  1.00  0.00     0.178 C 
ATOM      6  O   UNL     1       7.857  -4.167  -2.978  1.00  0.00    -0.341 OA
ENDROOT
BRANCH   1   7
ATOM      7  O   UNL     1       5.694  -4.558  -2.163  1.00  0.00    -0.350 OA
BRANCH   7   8
ATOM      8  C   UNL     1       4.711  -3.700  -2.712  1.00  0.00     0.160 C 
ATOM      9  C   UNL     1       4.612  -2.391  -1.933  1.00  0.00     0.035 C 
ENDBRANCH   7   8
ENDBRANCH   1   7
BRANCH   2  10
ATOM     10  O   UNL     1       5.753  -7.182  -3.125  1.00  0.00    -0.385 OA
ATOM     11  H   UNL     1       5.073  -6.686  -2.598  1.00  0.00     0.211 HD
ENDBRANCH   2  10
BRANCH   3  12
ATOM     12  O   UNL     1       6.819  -6.653  -0.616  1.00  0.00    -0.387 OA
ATOM     13  H   UNL     1       5.924  -6.407  -0.968  1.00  0.00     0.211 HD
ENDBRANCH   3  12
BRANCH   5  14
ATOM     14  C   UNL     1       7.969  -3.703  -0.557  1.00  0.00     0.191 C 
BRANCH  14  15
ATOM     15  O   UNL     1       8.871  -3.702   0.519  1.00  0.00    -0.394 OA
ATOM     16  H   UNL     1       9.723  -4.088   0.185  1.00  0.00     0.210 HD
ENDBRANCH  14  15
ENDBRANCH   5  14
BRANCH   4  17
ATOM     17  O   UNL     1       9.895  -6.303  -2.486  1.00  0.00    -0.387 OA
ATOM     18  H   UNL     1      10.452  -5.503  -2.671  1.00  0.00     0.211 HD
ENDBRANCH   4  17
TORSDOF 7
ENDMDL
MODEL 9
REMARK VINA RESULT:    -2.397      1.670      3.982
REMARK INTER + INTRA:          -3.521
REMARK INTER:                  -3.046
REMARK INTRA:                  -0.475
REMARK UNBOUND:                -0.423
REMARK SMILES CCO[C@H]1O[C@@H](CO)[C@H](O)[C@@H](O)[C@H]1O
REMARK SMILES IDX 4 1 13 2 11 3 9 4 6 5 5 6 3 7 2 8 1 9 14 10 12 12 7 14 8 15
REMARK SMILES IDX 10 17
REMARK H PARENT 14 11 12 13 8 16 10 18
REMARK Flexibility Score: inf
ROOT
ATOM      1  C   UNL     1       7.035  -4.453  -0.920  1.00  0.00     0.281 C 
ATOM      2  C   UNL     1       8.483  -3.936  -0.795  1.00  0.00     0.202 C 
ATOM      3  C   UNL     1       9.405  -4.618  -1.815  1.00  0.00     0.179 C 
ATOM      4  C   UNL     1       9.258  -6.143  -1.708  1.00  0.00     0.177 C 
ATOM      5  C   UNL     1       7.771  -6.587  -1.720  1.00  0.00     0.178 C 
ATOM      6  O   UNL     1       6.958  -5.868  -0.798  1.00  0.00    -0.341 OA
ENDROOT
BRANCH   1   7
ATOM      7  O   UNL     1       6.456  -4.015  -2.142  1.00  0.00    -0.350 OA
BRANCH   7   8
ATOM      8  C   UNL     1       5.199  -3.393  -1.948  1.00  0.00     0.160 C 
ATOM      9  C   UNL     1       5.203  -1.952  -2.454  1.00  0.00     0.035 C 
ENDBRANCH   7   8
ENDBRANCH   1   7
BRANCH   2  10
ATOM     10  O   UNL     1       8.523  -2.543  -0.971  1.00  0.00    -0.385 OA
ATOM     11  H   UNL     1       9.085  -2.371  -1.771  1.00  0.00     0.211 HD
ENDBRANCH   2  10
BRANCH   3  12
ATOM     12  O   UNL     1       9.111  -4.197  -3.123  1.00  0.00    -0.387 OA
ATOM     13  H   UNL     1       9.868  -4.482  -3.699  1.00  0.00     0.211 HD
ENDBRANCH   3  12
BRANCH   5  14
ATOM     14  C   UNL     1       7.136  -6.671  -3.125  1.00  0.00     0.191 C 
BRANCH  14  15
ATOM     15  O   UNL     1       5.753  -6.893  -3.028  1.00  0.00    -0.394 OA
ATOM     16  H   UNL     1       5.322  -6.365  -3.749  1.00  0.00     0.210 HD
ENDBRANCH  14  15
ENDBRANCH   5  14
BRANCH   4  17
ATOM     17  O   UNL     1       9.849  -6.589  -0.513  1.00  0.00    -0.387 OA
ATOM     18  H   UNL     1       9.236  -7.263  -0.118  1.00  0.00     0.211 HD
ENDBRANCH   4  17
TORSDOF 7
ENDMDL
