MODEL 1
REMARK VINA RESULT:     2.758      0.000      0.000
REMARK INTER + INTRA:           3.935
REMARK INTER:                   4.209
REMARK INTRA:                  -0.275
REMARK UNBOUND:                -0.275
REMARK SMILES O=C([O-])CCCCCCCCC(=O)[O-]
REMARK SMILES IDX 7 1 6 2 5 3 4 4 2 5 1 6 3 7 8 8 9 9 10 10 11 11 12 12 13 13
REMARK SMILES IDX 14 14
REMARK H PARENT
REMARK Flexibility Score: inf
ROOT
ATOM      1  C   UNL     1     -17.573  61.255  -2.088  1.00  0.00     0.000 C 
ENDROOT
BRANCH   1   2
ATOM      2  C   UNL     1     -16.204  61.772  -2.576  1.00  0.00     0.000 C 
BRANCH   2   3
ATOM      3  C   UNL     1     -15.024  60.812  -2.346  1.00  0.00     0.006 C 
BRANCH   3   4
ATOM      4  C   UNL     1     -13.690  61.542  -2.152  1.00  0.00     0.053 C 
BRANCH   4   5
ATOM      5  C   UNL     1     -12.810  60.781  -1.211  1.00  0.00     0.041 C 
ATOM      6  O   UNL     1     -11.875  60.065  -1.657  1.00  0.00    -0.550 OA
ATOM      7  O   UNL     1     -13.053  60.822   0.157  1.00  0.00    -0.550 OA
ENDBRANCH   4   5
ENDBRANCH   3   4
ENDBRANCH   2   3
ENDBRANCH   1   2
BRANCH   1   8
ATOM      8  C   UNL     1     -18.748  61.516  -3.048  1.00  0.00     0.000 C 
BRANCH   8   9
ATOM      9  C   UNL     1     -20.099  61.069  -2.470  1.00  0.00     0.000 C 
BRANCH   9  10
ATOM     10  C   UNL     1     -20.506  61.952  -1.281  1.00  0.00     0.006 C 
BRANCH  10  11
ATOM     11  C   UNL     1     -20.230  63.439  -1.540  1.00  0.00     0.053 C 
BRANCH  11  12
ATOM     12  C   UNL     1     -19.517  64.082  -0.390  1.00  0.00     0.041 C 
ATOM     13  O   UNL     1     -20.073  65.005   0.262  1.00  0.00    -0.550 OA
ATOM     14  O   UNL     1     -18.255  63.639  -0.017  1.00  0.00    -0.550 OA
ENDBRANCH  11  12
ENDBRANCH  10  11
ENDBRANCH   9  10
ENDBRANCH   8   9
ENDBRANCH   1   8
TORSDOF 9
ENDMDL
MODEL 2
REMARK VINA RESULT:     2.895      2.049      2.801
REMARK INTER + INTRA:           4.143
REMARK INTER:                   4.400
REMARK INTRA:                  -0.257
REMARK UNBOUND:                -0.275
REMARK SMILES O=C([O-])CCCCCCCCC(=O)[O-]
REMARK SMILES IDX 7 1 6 2 5 3 4 4 2 5 1 6 3 7 8 8 9 9 10 10 11 11 12 12 13 13
REMARK SMILES IDX 14 14
REMARK H PARENT
REMARK Flexibility Score: inf
ROOT
ATOM      1  C   UNL     1     -16.866  63.029  -0.884  1.00  0.00     0.000 C 
ENDROOT
BRANCH   1   2
ATOM      2  C   UNL     1     -16.676  61.802  -1.800  1.00  0.00     0.000 C 
BRANCH   2   3
ATOM      3  C   UNL     1     -15.236  61.575  -2.295  1.00  0.00     0.006 C 
BRANCH   3   4
ATOM      4  C   UNL     1     -14.562  60.368  -1.633  1.00  0.00     0.053 C 
BRANCH   4   5
ATOM      5  C   UNL     1     -13.163  60.707  -1.229  1.00  0.00     0.041 C 
ATOM      6  O   UNL     1     -12.476  61.497  -1.929  1.00  0.00    -0.550 OA
ATOM      7  O   UNL     1     -12.598  60.112  -0.107  1.00  0.00    -0.550 OA
ENDBRANCH   4   5
ENDBRANCH   3   4
ENDBRANCH   2   3
ENDBRANCH   1   2
BRANCH   1   8
ATOM      8  C   UNL     1     -18.168  63.035  -0.063  1.00  0.00     0.000 C 
BRANCH   8   9
ATOM      9  C   UNL     1     -19.178  64.082  -0.554  1.00  0.00     0.000 C 
BRANCH   9  10
ATOM     10  C   UNL     1     -20.325  63.416  -1.329  1.00  0.00     0.006 C 
BRANCH  10  11
ATOM     11  C   UNL     1     -20.315  61.889  -1.183  1.00  0.00     0.053 C 
BRANCH  11  12
ATOM     12  C   UNL     1     -20.242  61.203  -2.513  1.00  0.00     0.041 C 
ATOM     13  O   UNL     1     -19.275  61.427  -3.288  1.00  0.00    -0.550 OA
ATOM     14  O   UNL     1     -21.223  60.291  -2.881  1.00  0.00    -0.550 OA
ENDBRANCH  11  12
ENDBRANCH  10  11
ENDBRANCH   9  10
ENDBRANCH   8   9
ENDBRANCH   1   8
TORSDOF 9
ENDMDL
MODEL 3
REMARK VINA RESULT:     3.039      2.060      6.366
REMARK INTER + INTRA:           4.363
REMARK INTER:                   4.630
REMARK INTRA:                  -0.267
REMARK UNBOUND:                -0.275
REMARK SMILES O=C([O-])CCCCCCCCC(=O)[O-]
REMARK SMILES IDX 7 1 6 2 5 3 4 4 2 5 1 6 3 7 8 8 9 9 10 10 11 11 12 12 13 13
REMARK SMILES IDX 14 14
REMARK H PARENT
REMARK Flexibility Score: inf
ROOT
ATOM      1  C   UNL     1     -18.123  63.019  -0.056  1.00  0.00     0.000 C 
ENDROOT
BRANCH   1   2
ATOM      2  C   UNL     1     -19.207  63.988  -0.571  1.00  0.00     0.000 C 
BRANCH   2   3
ATOM      3  C   UNL     1     -20.380  63.322  -1.313  1.00  0.00     0.006 C 
BRANCH   3   4
ATOM      4  C   UNL     1     -20.363  61.793  -1.202  1.00  0.00     0.053 C 
BRANCH   4   5
ATOM      5  C   UNL     1     -20.203  61.173  -2.553  1.00  0.00     0.041 C 
ATOM      6  O   UNL     1     -19.260  61.532  -3.307  1.00  0.00    -0.550 OA
ATOM      7  O   UNL     1     -21.125  60.234  -3.002  1.00  0.00    -0.550 OA
ENDBRANCH   4   5
ENDBRANCH   3   4
ENDBRANCH   2   3
ENDBRANCH   1   2
BRANCH   1   8
ATOM      8  C   UNL     1     -16.822  62.999  -0.878  1.00  0.00     0.000 C 
BRANCH   8   9
ATOM      9  C   UNL     1     -16.695  61.750  -1.763  1.00  0.00     0.000 C 
BRANCH   9  10
ATOM     10  C   UNL     1     -15.244  61.552  -2.227  1.00  0.00     0.006 C 
BRANCH  10  11
ATOM     11  C   UNL     1     -14.578  60.345  -1.552  1.00  0.00     0.053 C 
BRANCH  11  12
ATOM     12  C   UNL     1     -13.159  60.635  -1.169  1.00  0.00     0.041 C 
ATOM     13  O   UNL     1     -12.633  60.035  -0.195  1.00  0.00    -0.550 OA
ATOM     14  O   UNL     1     -12.410  61.541  -1.907  1.00  0.00    -0.550 OA
ENDBRANCH  11  12
ENDBRANCH  10  11
ENDBRANCH   9  10
ENDBRANCH   8   9
ENDBRANCH   1   8
TORSDOF 9
ENDMDL
MODEL 4
REMARK VINA RESULT:     5.004     14.054     16.234
REMARK INTER + INTRA:           7.362
REMARK INTER:                   7.421
REMARK INTRA:                  -0.059
REMARK UNBOUND:                -0.275
REMARK SMILES O=C([O-])CCCCCCCCC(=O)[O-]
REMARK SMILES IDX 7 1 6 2 5 3 4 4 2 5 1 6 3 7 8 8 9 9 10 10 11 11 12 12 13 13
REMARK SMILES IDX 14 14
REMARK H PARENT
REMARK Flexibility Score: inf
ROOT
ATOM      1  C   UNL     1     -26.960  57.958  10.037  1.00  0.00     0.000 C 
ENDROOT
BRANCH   1   2
ATOM      2  C   UNL     1     -25.628  58.736  10.057  1.00  0.00     0.000 C 
BRANCH   2   3
ATOM      3  C   UNL     1     -24.560  58.226   9.073  1.00  0.00     0.006 C 
BRANCH   3   4
ATOM      4  C   UNL     1     -24.788  58.717   7.639  1.00  0.00     0.053 C 
BRANCH   4   5
ATOM      5  C   UNL     1     -25.840  57.894   6.965  1.00  0.00     0.041 C 
ATOM      6  O   UNL     1     -25.860  56.644   7.117  1.00  0.00    -0.550 OA
ATOM      7  O   UNL     1     -26.769  58.501   6.128  1.00  0.00    -0.550 OA
ENDBRANCH   4   5
ENDBRANCH   3   4
ENDBRANCH   2   3
ENDBRANCH   1   2
BRANCH   1   8
ATOM      8  C   UNL     1     -28.218  58.823   9.838  1.00  0.00     0.000 C 
BRANCH   8   9
ATOM      9  C   UNL     1     -29.518  58.059  10.123  1.00  0.00     0.000 C 
BRANCH   9  10
ATOM     10  C   UNL     1     -30.696  58.670   9.348  1.00  0.00     0.006 C 
BRANCH  10  11
ATOM     11  C   UNL     1     -32.003  57.900   9.576  1.00  0.00     0.053 C 
BRANCH  11  12
ATOM     12  C   UNL     1     -31.867  56.452   9.215  1.00  0.00     0.041 C 
ATOM     13  O   UNL     1     -31.548  55.609  10.094  1.00  0.00    -0.550 OA
ATOM     14  O   UNL     1     -32.125  56.031   7.917  1.00  0.00    -0.550 OA
ENDBRANCH  11  12
ENDBRANCH  10  11
ENDBRANCH   9  10
ENDBRANCH   8   9
ENDBRANCH   1   8
TORSDOF 9
ENDMDL
MODEL 5
REMARK VINA RESULT:     5.180      8.237      9.633
REMARK INTER + INTRA:           7.632
REMARK INTER:                   6.189
REMARK INTRA:                   1.443
REMARK UNBOUND:                -0.275
REMARK SMILES O=C([O-])CCCCCCCCC(=O)[O-]
REMARK SMILES IDX 7 1 6 2 5 3 4 4 2 5 1 6 3 7 8 8 9 9 10 10 11 11 12 12 13 13
REMARK SMILES IDX 14 14
REMARK H PARENT
REMARK Flexibility Score: inf
ROOT
ATOM      1  C   UNL     1     -11.880  67.999   1.479  1.00  0.00     0.000 C 
ENDROOT
BRANCH   1   2
ATOM      2  C   UNL     1     -11.876  67.552   2.956  1.00  0.00     0.000 C 
BRANCH   2   3
ATOM      3  C   UNL     1     -11.902  68.696   3.984  1.00  0.00     0.006 C 
BRANCH   3   4
ATOM      4  C   UNL     1     -11.886  68.196   5.433  1.00  0.00     0.053 C 
BRANCH   4   5
ATOM      5  C   UNL     1     -13.032  68.778   6.199  1.00  0.00     0.041 C 
ATOM      6  O   UNL     1     -14.061  68.087   6.422  1.00  0.00    -0.550 OA
ATOM      7  O   UNL     1     -12.986  70.101   6.622  1.00  0.00    -0.550 OA
ENDBRANCH   4   5
ENDBRANCH   3   4
ENDBRANCH   2   3
ENDBRANCH   1   2
BRANCH   1   8
ATOM      8  C   UNL     1     -12.299  66.914   0.470  1.00  0.00     0.000 C 
BRANCH   8   9
ATOM      9  C   UNL     1     -12.505  67.467  -0.948  1.00  0.00     0.000 C 
BRANCH   9  10
ATOM     10  C   UNL     1     -12.144  68.959  -1.012  1.00  0.00     0.006 C 
BRANCH  10  11
ATOM     11  C   UNL     1     -13.227  69.788  -1.717  1.00  0.00     0.053 C 
BRANCH  11  12
ATOM     12  C   UNL     1     -14.441  68.968  -2.030  1.00  0.00     0.041 C 
ATOM     13  O   UNL     1     -15.526  69.533  -2.327  1.00  0.00    -0.550 OA
ATOM     14  O   UNL     1     -14.364  67.581  -2.027  1.00  0.00    -0.550 OA
ENDBRANCH  11  12
ENDBRANCH  10  11
ENDBRANCH   9  10
ENDBRANCH   8   9
ENDBRANCH   1   8
TORSDOF 9
ENDMDL
