MODEL 1
REMARK VINA RESULT:    -6.132      0.000      0.000
REMARK INTER + INTRA:          -8.845
REMARK INTER:                  -7.565
REMARK INTRA:                  -1.280
REMARK UNBOUND:                -1.280
REMARK SMILES CC(C)=CCC[C@H](C)c1ccc(C)cc1
REMARK SMILES IDX 6 1 7 2 8 3 9 4 13 5 12 6 11 7 14 8 10 9 15 10 5 11 4 12
REMARK SMILES IDX 2 13 1 14 3 15
REMARK H PARENT
REMARK Flexibility Score: inf
ROOT
ATOM      1  C   UNL     1      46.982   6.524   6.217  1.00  0.00     0.012 C 
ENDROOT
BRANCH   1   2
ATOM      2  C   UNL     1      45.534   6.976   6.528  1.00  0.00     0.016 C 
ATOM      3  C   UNL     1      44.520   5.829   6.395  1.00  0.00     0.013 C 
BRANCH   2   4
ATOM      4  C   UNL     1      45.143   8.135   5.626  1.00  0.00    -0.045 A 
ATOM      5  C   UNL     1      44.003  11.409   3.049  1.00  0.00     0.044 C 
ATOM      6  C   UNL     1      44.379  10.282   3.966  1.00  0.00    -0.051 A 
ATOM      7  C   UNL     1      45.464  10.418   4.843  1.00  0.00     0.004 A 
ATOM      8  C   UNL     1      43.692   9.062   3.906  1.00  0.00     0.004 A 
ATOM      9  C   UNL     1      45.838   9.357   5.672  1.00  0.00     0.004 A 
ATOM     10  C   UNL     1      44.064   7.999   4.734  1.00  0.00     0.004 A 
ENDBRANCH   2   4
ENDBRANCH   1   2
BRANCH   1  11
ATOM     11  C   UNL     1      47.172   5.940   4.805  1.00  0.00     0.028 C 
BRANCH  11  12
ATOM     12  C   UNL     1      48.504   6.317   4.201  1.00  0.00    -0.028 C 
ATOM     13  C   UNL     1      48.686   7.305   3.298  1.00  0.00    -0.080 C 
ATOM     14  C   UNL     1      47.534   8.111   2.745  1.00  0.00     0.039 C 
ATOM     15  C   UNL     1      50.086   7.586   2.815  1.00  0.00     0.039 C 
ENDBRANCH  11  12
ENDBRANCH   1  11
TORSDOF 4
ENDMDL
MODEL 2
REMARK VINA RESULT:    -6.073      1.185      5.112
REMARK INTER + INTRA:          -8.773
REMARK INTER:                  -7.901
REMARK INTRA:                  -0.872
REMARK UNBOUND:                -1.280
REMARK SMILES CC(C)=CCC[C@H](C)c1ccc(C)cc1
REMARK SMILES IDX 6 1 7 2 8 3 9 4 13 5 12 6 11 7 14 8 10 9 15 10 5 11 4 12
REMARK SMILES IDX 2 13 1 14 3 15
REMARK H PARENT
REMARK Flexibility Score: inf
ROOT
ATOM      1  C   UNL     1      46.536   8.370   6.323  1.00  0.00     0.012 C 
ENDROOT
BRANCH   1   2
ATOM      2  C   UNL     1      46.081   7.526   5.106  1.00  0.00     0.016 C 
ATOM      3  C   UNL     1      45.204   6.332   5.516  1.00  0.00     0.013 C 
BRANCH   2   4
ATOM      4  C   UNL     1      47.289   7.050   4.319  1.00  0.00    -0.045 A 
ATOM      5  C   UNL     1      50.721   5.726   2.054  1.00  0.00     0.044 C 
ATOM      6  C   UNL     1      49.548   6.203   2.859  1.00  0.00    -0.051 A 
ATOM      7  C   UNL     1      49.123   5.484   3.984  1.00  0.00     0.004 A 
ATOM      8  C   UNL     1      48.827   7.335   2.453  1.00  0.00     0.004 A 
ATOM      9  C   UNL     1      48.009   5.907   4.713  1.00  0.00     0.004 A 
ATOM     10  C   UNL     1      47.712   7.760   3.180  1.00  0.00     0.004 A 
ENDBRANCH   2   4
ENDBRANCH   1   2
BRANCH   1  11
ATOM     11  C   UNL     1      46.117   9.850   6.257  1.00  0.00     0.028 C 
BRANCH  11  12
ATOM     12  C   UNL     1      45.618  10.246   4.888  1.00  0.00    -0.028 C 
ATOM     13  C   UNL     1      44.315  10.355   4.547  1.00  0.00    -0.080 C 
ATOM     14  C   UNL     1      43.202  10.025   5.513  1.00  0.00     0.039 C 
ATOM     15  C   UNL     1      43.975  10.798   3.147  1.00  0.00     0.039 C 
ENDBRANCH  11  12
ENDBRANCH   1  11
TORSDOF 4
ENDMDL
MODEL 3
REMARK VINA RESULT:    -5.991      1.551      2.762
REMARK INTER + INTRA:          -8.672
REMARK INTER:                  -7.923
REMARK INTRA:                  -0.749
REMARK UNBOUND:                -1.280
REMARK SMILES CC(C)=CCC[C@H](C)c1ccc(C)cc1
REMARK SMILES IDX 6 1 7 2 8 3 9 4 13 5 12 6 11 7 14 8 10 9 15 10 5 11 4 12
REMARK SMILES IDX 2 13 1 14 3 15
REMARK H PARENT
REMARK Flexibility Score: inf
ROOT
ATOM      1  C   UNL     1      47.463   7.428   2.903  1.00  0.00     0.012 C 
ENDROOT
BRANCH   1   2
ATOM      2  C   UNL     1      47.240   7.337   4.433  1.00  0.00     0.016 C 
ATOM      3  C   UNL     1      47.084   5.887   4.918  1.00  0.00     0.013 C 
BRANCH   2   4
ATOM      4  C   UNL     1      46.030   8.162   4.836  1.00  0.00    -0.045 A 
ATOM      5  C   UNL     1      42.612  10.535   5.997  1.00  0.00     0.044 C 
ATOM      6  C   UNL     1      43.802   9.728   5.568  1.00  0.00    -0.051 A 
ATOM      7  C   UNL     1      43.628   8.563   4.808  1.00  0.00     0.004 A 
ATOM      8  C   UNL     1      45.091  10.096   5.979  1.00  0.00     0.004 A 
ATOM      9  C   UNL     1      44.733   7.791   4.438  1.00  0.00     0.004 A 
ATOM     10  C   UNL     1      46.197   9.325   5.610  1.00  0.00     0.004 A 
ENDBRANCH   2   4
ENDBRANCH   1   2
BRANCH   1  11
ATOM     11  C   UNL     1      48.818   8.036   2.497  1.00  0.00     0.028 C 
BRANCH  11  12
ATOM     12  C   UNL     1      49.968   7.453   3.283  1.00  0.00    -0.028 C 
ATOM     13  C   UNL     1      50.661   6.349   2.925  1.00  0.00    -0.080 C 
ATOM     14  C   UNL     1      50.303   5.537   1.703  1.00  0.00     0.039 C 
ATOM     15  C   UNL     1      51.810   5.911   3.796  1.00  0.00     0.039 C 
ENDBRANCH  11  12
ENDBRANCH   1  11
TORSDOF 4
ENDMDL
MODEL 4
REMARK VINA RESULT:    -5.968      1.377      3.428
REMARK INTER + INTRA:          -8.643
REMARK INTER:                  -7.342
REMARK INTRA:                  -1.301
REMARK UNBOUND:                -1.280
REMARK SMILES CC(C)=CCC[C@H](C)c1ccc(C)cc1
REMARK SMILES IDX 6 1 7 2 8 3 9 4 13 5 12 6 11 7 14 8 10 9 15 10 5 11 4 12
REMARK SMILES IDX 2 13 1 14 3 15
REMARK H PARENT
REMARK Flexibility Score: inf
ROOT
ATOM      1  C   UNL     1      48.135   7.550   3.344  1.00  0.00     0.012 C 
ENDROOT
BRANCH   1   2
ATOM      2  C   UNL     1      48.167   8.969   3.965  1.00  0.00     0.016 C 
ATOM      3  C   UNL     1      49.208   9.093   5.089  1.00  0.00     0.013 C 
BRANCH   2   4
ATOM      4  C   UNL     1      46.788   9.347   4.476  1.00  0.00    -0.045 A 
ATOM      5  C   UNL     1      42.849  10.413   5.894  1.00  0.00     0.044 C 
ATOM      6  C   UNL     1      44.213  10.014   5.412  1.00  0.00    -0.051 A 
ATOM      7  C   UNL     1      45.329  10.160   6.248  1.00  0.00     0.004 A 
ATOM      8  C   UNL     1      44.392   9.554   4.099  1.00  0.00     0.004 A 
ATOM      9  C   UNL     1      46.604   9.823   5.787  1.00  0.00     0.004 A 
ATOM     10  C   UNL     1      45.666   9.216   3.637  1.00  0.00     0.004 A 
ENDBRANCH   2   4
ENDBRANCH   1   2
BRANCH   1  11
ATOM     11  C   UNL     1      47.978   6.414   4.372  1.00  0.00     0.028 C 
BRANCH  11  12
ATOM     12  C   UNL     1      46.539   6.204   4.780  1.00  0.00    -0.028 C 
ATOM     13  C   UNL     1      46.066   6.357   6.036  1.00  0.00    -0.080 C 
ATOM     14  C   UNL     1      46.969   6.706   7.197  1.00  0.00     0.039 C 
ATOM     15  C   UNL     1      44.594   6.147   6.280  1.00  0.00     0.039 C 
ENDBRANCH  11  12
ENDBRANCH   1  11
TORSDOF 4
ENDMDL
MODEL 5
REMARK VINA RESULT:    -5.931      1.212      4.535
REMARK INTER + INTRA:          -8.598
REMARK INTER:                  -7.191
REMARK INTRA:                  -1.407
REMARK UNBOUND:                -1.280
REMARK SMILES CC(C)=CCC[C@H](C)c1ccc(C)cc1
REMARK SMILES IDX 6 1 7 2 8 3 9 4 13 5 12 6 11 7 14 8 10 9 15 10 5 11 4 12
REMARK SMILES IDX 2 13 1 14 3 15
REMARK H PARENT
REMARK Flexibility Score: inf
ROOT
ATOM      1  C   UNL     1      44.795   6.719   4.797  1.00  0.00     0.012 C 
ENDROOT
BRANCH   1   2
ATOM      2  C   UNL     1      46.119   6.385   5.527  1.00  0.00     0.016 C 
ATOM      3  C   UNL     1      46.045   6.670   7.035  1.00  0.00     0.013 C 
BRANCH   2   4
ATOM      4  C   UNL     1      47.271   7.152   4.899  1.00  0.00    -0.045 A 
ATOM      5  C   UNL     1      50.562   9.334   3.148  1.00  0.00     0.044 C 
ATOM      6  C   UNL     1      49.433   8.549   3.750  1.00  0.00    -0.051 A 
ATOM      7  C   UNL     1      48.349   8.149   2.957  1.00  0.00     0.004 A 
ATOM      8  C   UNL     1      49.422   8.268   5.124  1.00  0.00     0.004 A 
ATOM      9  C   UNL     1      47.281   7.449   3.524  1.00  0.00     0.004 A 
ATOM     10  C   UNL     1      48.354   7.569   5.693  1.00  0.00     0.004 A 
ENDBRANCH   2   4
ENDBRANCH   1   2
BRANCH   1  11
ATOM     11  C   UNL     1      44.021   7.905   5.402  1.00  0.00     0.028 C 
BRANCH  11  12
ATOM     12  C   UNL     1      43.738   8.985   4.385  1.00  0.00    -0.028 C 
ATOM     13  C   UNL     1      44.484  10.100   4.220  1.00  0.00    -0.080 C 
ATOM     14  C   UNL     1      45.672  10.409   5.100  1.00  0.00     0.039 C 
ATOM     15  C   UNL     1      44.094  11.070   3.134  1.00  0.00     0.039 C 
ENDBRANCH  11  12
ENDBRANCH   1  11
TORSDOF 4
ENDMDL
MODEL 6
REMARK VINA RESULT:    -5.908      1.708      2.936
REMARK INTER + INTRA:          -8.569
REMARK INTER:                  -7.763
REMARK INTRA:                  -0.806
REMARK UNBOUND:                -1.280
REMARK SMILES CC(C)=CCC[C@H](C)c1ccc(C)cc1
REMARK SMILES IDX 6 1 7 2 8 3 9 4 13 5 12 6 11 7 14 8 10 9 15 10 5 11 4 12
REMARK SMILES IDX 2 13 1 14 3 15
REMARK H PARENT
REMARK Flexibility Score: inf
ROOT
ATOM      1  C   UNL     1      47.726   7.711   3.096  1.00  0.00     0.012 C 
ENDROOT
BRANCH   1   2
ATOM      2  C   UNL     1      47.317   7.419   4.561  1.00  0.00     0.016 C 
ATOM      3  C   UNL     1      47.094   5.921   4.820  1.00  0.00     0.013 C 
BRANCH   2   4
ATOM      4  C   UNL     1      46.071   8.210   4.923  1.00  0.00    -0.045 A 
ATOM      5  C   UNL     1      42.552  10.485   5.972  1.00  0.00     0.044 C 
ATOM      6  C   UNL     1      43.777   9.712   5.582  1.00  0.00    -0.051 A 
ATOM      7  C   UNL     1      43.660   8.536   4.827  1.00  0.00     0.004 A 
ATOM      8  C   UNL     1      45.043  10.122   6.025  1.00  0.00     0.004 A 
ATOM      9  C   UNL     1      44.797   7.796   4.494  1.00  0.00     0.004 A 
ATOM     10  C   UNL     1      46.182   9.383   5.692  1.00  0.00     0.004 A 
ENDBRANCH   2   4
ENDBRANCH   1   2
BRANCH   1  11
ATOM     11  C   UNL     1      49.239   7.603   2.830  1.00  0.00     0.028 C 
BRANCH  11  12
ATOM     12  C   UNL     1      49.986   8.848   3.242  1.00  0.00    -0.028 C 
ATOM     13  C   UNL     1      50.721   8.966   4.370  1.00  0.00    -0.080 C 
ATOM     14  C   UNL     1      50.821   7.850   5.383  1.00  0.00     0.039 C 
ATOM     15  C   UNL     1      51.441  10.265   4.625  1.00  0.00     0.039 C 
ENDBRANCH  11  12
ENDBRANCH   1  11
TORSDOF 4
ENDMDL
MODEL 7
REMARK VINA RESULT:    -5.839      1.623      2.708
REMARK INTER + INTRA:          -8.484
REMARK INTER:                  -7.779
REMARK INTRA:                  -0.705
REMARK UNBOUND:                -1.280
REMARK SMILES CC(C)=CCC[C@H](C)c1ccc(C)cc1
REMARK SMILES IDX 6 1 7 2 8 3 9 4 13 5 12 6 11 7 14 8 10 9 15 10 5 11 4 12
REMARK SMILES IDX 2 13 1 14 3 15
REMARK H PARENT
REMARK Flexibility Score: inf
ROOT
ATOM      1  C   UNL     1      47.983   6.832   4.607  1.00  0.00     0.012 C 
ENDROOT
BRANCH   1   2
ATOM      2  C   UNL     1      47.085   7.433   3.498  1.00  0.00     0.016 C 
ATOM      3  C   UNL     1      47.873   8.321   2.523  1.00  0.00     0.013 C 
BRANCH   2   4
ATOM      4  C   UNL     1      45.939   8.215   4.118  1.00  0.00    -0.045 A 
ATOM      5  C   UNL     1      42.667  10.405   5.895  1.00  0.00     0.044 C 
ATOM      6  C   UNL     1      43.820   9.646   5.304  1.00  0.00    -0.051 A 
ATOM      7  C   UNL     1      44.833  10.326   4.614  1.00  0.00     0.004 A 
ATOM      8  C   UNL     1      43.858   8.247   5.381  1.00  0.00     0.004 A 
ATOM      9  C   UNL     1      45.888   9.618   4.032  1.00  0.00     0.004 A 
ATOM     10  C   UNL     1      44.913   7.537   4.800  1.00  0.00     0.004 A 
ENDBRANCH   2   4
ENDBRANCH   1   2
BRANCH   1  11
ATOM     11  C   UNL     1      48.811   5.614   4.159  1.00  0.00     0.028 C 
BRANCH  11  12
ATOM     12  C   UNL     1      50.275   5.945   3.991  1.00  0.00    -0.028 C 
ATOM     13  C   UNL     1      50.964   5.818   2.836  1.00  0.00    -0.080 C 
ATOM     14  C   UNL     1      50.332   5.261   1.581  1.00  0.00     0.039 C 
ATOM     15  C   UNL     1      52.415   6.225   2.818  1.00  0.00     0.039 C 
ENDBRANCH  11  12
ENDBRANCH   1  11
TORSDOF 4
ENDMDL
MODEL 8
REMARK VINA RESULT:    -5.802      2.434      3.525
REMARK INTER + INTRA:          -8.439
REMARK INTER:                  -7.750
REMARK INTRA:                  -0.689
REMARK UNBOUND:                -1.280
REMARK SMILES CC(C)=CCC[C@H](C)c1ccc(C)cc1
REMARK SMILES IDX 6 1 7 2 8 3 9 4 13 5 12 6 11 7 14 8 10 9 15 10 5 11 4 12
REMARK SMILES IDX 2 13 1 14 3 15
REMARK H PARENT
REMARK Flexibility Score: inf
ROOT
ATOM      1  C   UNL     1      48.641   8.022   5.269  1.00  0.00     0.012 C 
ENDROOT
BRANCH   1   2
ATOM      2  C   UNL     1      47.411   7.464   4.512  1.00  0.00     0.016 C 
ATOM      3  C   UNL     1      47.605   7.475   2.988  1.00  0.00     0.013 C 
BRANCH   2   4
ATOM      4  C   UNL     1      46.165   8.246   4.892  1.00  0.00    -0.045 A 
ATOM      5  C   UNL     1      42.644  10.496   5.990  1.00  0.00     0.044 C 
ATOM      6  C   UNL     1      43.869   9.730   5.582  1.00  0.00    -0.051 A 
ATOM      7  C   UNL     1      43.746   8.528   4.872  1.00  0.00     0.004 A 
ATOM      8  C   UNL     1      45.141  10.177   5.965  1.00  0.00     0.004 A 
ATOM      9  C   UNL     1      44.884   7.796   4.523  1.00  0.00     0.004 A 
ATOM     10  C   UNL     1      46.281   9.446   5.616  1.00  0.00     0.004 A 
ENDBRANCH   2   4
ENDBRANCH   1   2
BRANCH   1  11
ATOM     11  C   UNL     1      49.764   8.542   4.353  1.00  0.00     0.028 C 
BRANCH  11  12
ATOM     12  C   UNL     1      49.920  10.042   4.431  1.00  0.00    -0.028 C 
ATOM     13  C   UNL     1      51.081  10.682   4.691  1.00  0.00    -0.080 C 
ATOM     14  C   UNL     1      52.358   9.935   4.997  1.00  0.00     0.039 C 
ATOM     15  C   UNL     1      51.084  12.189   4.699  1.00  0.00     0.039 C 
ENDBRANCH  11  12
ENDBRANCH   1  11
TORSDOF 4
ENDMDL
MODEL 9
REMARK VINA RESULT:    -5.758      1.961      3.065
REMARK INTER + INTRA:          -8.384
REMARK INTER:                  -7.705
REMARK INTRA:                  -0.678
REMARK UNBOUND:                -1.280
REMARK SMILES CC(C)=CCC[C@H](C)c1ccc(C)cc1
REMARK SMILES IDX 6 1 7 2 8 3 9 4 13 5 12 6 11 7 14 8 10 9 15 10 5 11 4 12
REMARK SMILES IDX 2 13 1 14 3 15
REMARK H PARENT
REMARK Flexibility Score: inf
ROOT
ATOM      1  C   UNL     1      47.623   6.283   4.387  1.00  0.00     0.012 C 
ENDROOT
BRANCH   1   2
ATOM      2  C   UNL     1      47.104   7.370   3.414  1.00  0.00     0.016 C 
ATOM      3  C   UNL     1      48.219   8.318   2.945  1.00  0.00     0.013 C 
BRANCH   2   4
ATOM      4  C   UNL     1      45.978   8.157   4.062  1.00  0.00    -0.045 A 
ATOM      5  C   UNL     1      42.761  10.363   5.919  1.00  0.00     0.044 C 
ATOM      6  C   UNL     1      43.895   9.599   5.300  1.00  0.00    -0.051 A 
ATOM      7  C   UNL     1      44.895  10.274   4.588  1.00  0.00     0.004 A 
ATOM      8  C   UNL     1      43.927   8.199   5.373  1.00  0.00     0.004 A 
ATOM      9  C   UNL     1      45.932   9.561   3.980  1.00  0.00     0.004 A 
ATOM     10  C   UNL     1      44.963   7.484   4.767  1.00  0.00     0.004 A 
ENDBRANCH   2   4
ENDBRANCH   1   2
BRANCH   1  11
ATOM     11  C   UNL     1      49.081   5.855   4.137  1.00  0.00     0.028 C 
BRANCH  11  12
ATOM     12  C   UNL     1      49.754   5.349   5.390  1.00  0.00    -0.028 C 
ATOM     13  C   UNL     1      50.436   6.123   6.263  1.00  0.00    -0.080 C 
ATOM     14  C   UNL     1      50.646   7.602   6.031  1.00  0.00     0.039 C 
ATOM     15  C   UNL     1      51.022   5.475   7.491  1.00  0.00     0.039 C 
ENDBRANCH  11  12
ENDBRANCH   1  11
TORSDOF 4
ENDMDL
