MODEL 1
REMARK VINA RESULT:    -6.079      0.000      0.000
REMARK INTER + INTRA:          -8.169
REMARK INTER:                  -7.679
REMARK INTRA:                  -0.490
REMARK UNBOUND:                -0.490
REMARK SMILES Oc1cc(O)cc(CCc2ccccc2O)c1
REMARK SMILES IDX 9 1 10 2 12 3 13 4 11 5 14 6 15 7 16 8 8 10 7 11 6 12 17 13
REMARK SMILES IDX 4 14 2 15 3 16 5 17 1 19
REMARK H PARENT 16 9 5 18 1 20
REMARK Flexibility Score: inf
ROOT
ATOM      1  C   UNL     1     479.884  37.606 458.972  1.00  0.00     0.044 C 
ENDROOT
BRANCH   1   2
ATOM      2  C   UNL     1     479.078  36.902 460.037  1.00  0.00    -0.006 A 
ATOM      3  C   UNL     1     477.542  37.063 461.920  1.00  0.00     0.001 A 
ATOM      4  C   UNL     1     477.520  35.673 462.029  1.00  0.00     0.004 A 
ATOM      5  C   UNL     1     478.312  37.675 460.928  1.00  0.00     0.007 A 
ATOM      6  C   UNL     1     478.262  34.891 461.143  1.00  0.00     0.046 A 
ATOM      7  C   UNL     1     479.035  35.488 460.140  1.00  0.00     0.118 A 
BRANCH   7   8
ATOM      8  O   UNL     1     479.738  34.652 459.269  1.00  0.00    -0.508 OA
ATOM      9  H   UNL     1     479.321  34.203 458.465  1.00  0.00     0.293 HD
ENDBRANCH   7   8
ENDBRANCH   1   2
BRANCH   1  10
ATOM     10  C   UNL     1     480.595  38.835 459.549  1.00  0.00     0.040 C 
BRANCH  10  11
ATOM     11  C   UNL     1     482.085  38.716 459.372  1.00  0.00    -0.040 A 
ATOM     12  C   UNL     1     482.623  38.374 458.121  1.00  0.00     0.050 A 
ATOM     13  C   UNL     1     482.944  38.886 460.471  1.00  0.00     0.050 A 
ATOM     14  C   UNL     1     484.008  38.230 457.964  1.00  0.00     0.119 A 
ATOM     15  C   UNL     1     484.326  38.742 460.314  1.00  0.00     0.119 A 
ATOM     16  C   UNL     1     484.857  38.417 459.059  1.00  0.00     0.092 A 
BRANCH  14  17
ATOM     17  O   UNL     1     484.550  37.899 456.723  1.00  0.00    -0.508 OA
ATOM     18  H   UNL     1     485.539  38.010 456.531  1.00  0.00     0.293 HD
ENDBRANCH  14  17
BRANCH  15  19
ATOM     19  O   UNL     1     485.164  38.923 461.413  1.00  0.00    -0.508 OA
ATOM     20  H   UNL     1     486.031  38.408 461.509  1.00  0.00     0.293 HD
ENDBRANCH  15  19
ENDBRANCH  10  11
ENDBRANCH   1  10
TORSDOF 6
ENDMDL
MODEL 2
REMARK VINA RESULT:    -6.038      0.059      2.036
REMARK INTER + INTRA:          -8.116
REMARK INTER:                  -7.629
REMARK INTRA:                  -0.487
REMARK UNBOUND:                -0.490
REMARK SMILES Oc1cc(O)cc(CCc2ccccc2O)c1
REMARK SMILES IDX 9 1 10 2 12 3 13 4 11 5 14 6 15 7 16 8 8 10 7 11 6 12 17 13
REMARK SMILES IDX 4 14 2 15 3 16 5 17 1 19
REMARK H PARENT 16 9 5 18 1 20
REMARK Flexibility Score: inf
ROOT
ATOM      1  C   UNL     1     479.878  37.656 458.922  1.00  0.00     0.044 C 
ENDROOT
BRANCH   1   2
ATOM      2  C   UNL     1     479.075  36.957 459.993  1.00  0.00    -0.006 A 
ATOM      3  C   UNL     1     477.535  37.127 461.873  1.00  0.00     0.001 A 
ATOM      4  C   UNL     1     477.522  35.737 461.996  1.00  0.00     0.004 A 
ATOM      5  C   UNL     1     478.302  37.734 460.876  1.00  0.00     0.007 A 
ATOM      6  C   UNL     1     478.270  34.951 461.118  1.00  0.00     0.046 A 
ATOM      7  C   UNL     1     479.041  35.544 460.110  1.00  0.00     0.118 A 
BRANCH   7   8
ATOM      8  O   UNL     1     479.750  34.704 459.249  1.00  0.00    -0.508 OA
ATOM      9  H   UNL     1     480.450  34.044 459.561  1.00  0.00     0.293 HD
ENDBRANCH   7   8
ENDBRANCH   1   2
BRANCH   1  10
ATOM     10  C   UNL     1     480.623  38.863 459.500  1.00  0.00     0.040 C 
BRANCH  10  11
ATOM     11  C   UNL     1     482.110  38.688 459.351  1.00  0.00    -0.040 A 
ATOM     12  C   UNL     1     482.958  38.886 460.452  1.00  0.00     0.050 A 
ATOM     13  C   UNL     1     482.666  38.385 458.097  1.00  0.00     0.050 A 
ATOM     14  C   UNL     1     484.346  38.756 460.307  1.00  0.00     0.119 A 
ATOM     15  C   UNL     1     484.051  38.255 457.951  1.00  0.00     0.119 A 
ATOM     16  C   UNL     1     484.889  38.438 459.059  1.00  0.00     0.092 A 
BRANCH  14  17
ATOM     17  O   UNL     1     485.194  38.943 461.397  1.00  0.00    -0.508 OA
ATOM     18  H   UNL     1     486.199  38.993 461.284  1.00  0.00     0.293 HD
ENDBRANCH  14  17
BRANCH  15  19
ATOM     19  O   UNL     1     484.583  37.946 456.701  1.00  0.00    -0.508 OA
ATOM     20  H   UNL     1     485.356  37.298 456.600  1.00  0.00     0.293 HD
ENDBRANCH  15  19
ENDBRANCH  10  11
ENDBRANCH   1  10
TORSDOF 6
ENDMDL
MODEL 3
REMARK VINA RESULT:    -5.524      1.375      5.724
REMARK INTER + INTRA:          -7.467
REMARK INTER:                  -6.910
REMARK INTRA:                  -0.557
REMARK UNBOUND:                -0.490
REMARK SMILES Oc1cc(O)cc(CCc2ccccc2O)c1
REMARK SMILES IDX 9 1 10 2 12 3 13 4 11 5 14 6 15 7 16 8 8 10 7 11 6 12 17 13
REMARK SMILES IDX 4 14 2 15 3 16 5 17 1 19
REMARK H PARENT 16 9 5 18 1 20
REMARK Flexibility Score: inf
ROOT
ATOM      1  C   UNL     1     481.313  38.945 458.539  1.00  0.00     0.044 C 
ENDROOT
BRANCH   1   2
ATOM      2  C   UNL     1     482.662  38.877 459.214  1.00  0.00    -0.006 A 
ATOM      3  C   UNL     1     484.055  39.452 461.127  1.00  0.00     0.001 A 
ATOM      4  C   UNL     1     485.131  38.771 460.558  1.00  0.00     0.004 A 
ATOM      5  C   UNL     1     482.827  39.502 460.464  1.00  0.00     0.007 A 
ATOM      6  C   UNL     1     484.979  38.132 459.326  1.00  0.00     0.046 A 
ATOM      7  C   UNL     1     483.753  38.168 458.649  1.00  0.00     0.118 A 
BRANCH   7   8
ATOM      8  O   UNL     1     483.657  37.492 457.431  1.00  0.00    -0.508 OA
ATOM      9  H   UNL     1     483.532  36.491 457.355  1.00  0.00     0.293 HD
ENDBRANCH   7   8
ENDBRANCH   1   2
BRANCH   1  10
ATOM     10  C   UNL     1     480.190  39.052 459.577  1.00  0.00     0.040 C 
BRANCH  10  11
ATOM     11  C   UNL     1     479.650  37.689 459.915  1.00  0.00    -0.040 A 
ATOM     12  C   UNL     1     479.994  36.577 459.129  1.00  0.00     0.050 A 
ATOM     13  C   UNL     1     478.750  37.528 460.982  1.00  0.00     0.050 A 
ATOM     14  C   UNL     1     479.465  35.313 459.423  1.00  0.00     0.119 A 
ATOM     15  C   UNL     1     478.221  36.267 461.275  1.00  0.00     0.119 A 
ATOM     16  C   UNL     1     478.582  35.160 460.496  1.00  0.00     0.092 A 
BRANCH  14  17
ATOM     17  O   UNL     1     479.808  34.204 458.652  1.00  0.00    -0.508 OA
ATOM     18  H   UNL     1     479.441  33.282 458.858  1.00  0.00     0.293 HD
ENDBRANCH  14  17
BRANCH  15  19
ATOM     19  O   UNL     1     477.337  36.126 462.343  1.00  0.00    -0.508 OA
ATOM     20  H   UNL     1     476.472  36.653 462.388  1.00  0.00     0.293 HD
ENDBRANCH  15  19
ENDBRANCH  10  11
ENDBRANCH   1  10
TORSDOF 6
ENDMDL
MODEL 4
REMARK VINA RESULT:    -5.423      1.422      1.843
REMARK INTER + INTRA:          -7.339
REMARK INTER:                  -6.734
REMARK INTRA:                  -0.605
REMARK UNBOUND:                -0.490
REMARK SMILES Oc1cc(O)cc(CCc2ccccc2O)c1
REMARK SMILES IDX 9 1 10 2 12 3 13 4 11 5 14 6 15 7 16 8 8 10 7 11 6 12 17 13
REMARK SMILES IDX 4 14 2 15 3 16 5 17 1 19
REMARK H PARENT 16 9 5 18 1 20
REMARK Flexibility Score: inf
ROOT
ATOM      1  C   UNL     1     479.718  38.709 459.544  1.00  0.00     0.044 C 
ENDROOT
BRANCH   1   2
ATOM      2  C   UNL     1     479.144  37.445 460.137  1.00  0.00    -0.006 A 
ATOM      3  C   UNL     1     479.074  35.011 460.159  1.00  0.00     0.001 A 
ATOM      4  C   UNL     1     478.153  35.040 461.207  1.00  0.00     0.004 A 
ATOM      5  C   UNL     1     479.570  36.204 459.630  1.00  0.00     0.007 A 
ATOM      6  C   UNL     1     477.733  36.262 461.732  1.00  0.00     0.046 A 
ATOM      7  C   UNL     1     478.224  37.468 461.216  1.00  0.00     0.118 A 
BRANCH   7   8
ATOM      8  O   UNL     1     477.783  38.658 461.799  1.00  0.00    -0.508 OA
ATOM      9  H   UNL     1     477.913  39.569 461.379  1.00  0.00     0.293 HD
ENDBRANCH   7   8
ENDBRANCH   1   2
BRANCH   1  10
ATOM     10  C   UNL     1     480.890  39.223 460.387  1.00  0.00     0.040 C 
BRANCH  10  11
ATOM     11  C   UNL     1     482.202  38.861 459.746  1.00  0.00    -0.040 A 
ATOM     12  C   UNL     1     482.249  38.490 458.393  1.00  0.00     0.050 A 
ATOM     13  C   UNL     1     483.380  38.834 460.510  1.00  0.00     0.050 A 
ATOM     14  C   UNL     1     483.466  38.121 457.803  1.00  0.00     0.119 A 
ATOM     15  C   UNL     1     484.595  38.465 459.923  1.00  0.00     0.119 A 
ATOM     16  C   UNL     1     484.636  38.111 458.568  1.00  0.00     0.092 A 
BRANCH  14  17
ATOM     17  O   UNL     1     483.521  37.759 456.458  1.00  0.00    -0.508 OA
ATOM     18  H   UNL     1     482.967  36.994 456.092  1.00  0.00     0.293 HD
ENDBRANCH  14  17
BRANCH  15  19
ATOM     19  O   UNL     1     485.755  38.452 460.695  1.00  0.00    -0.508 OA
ATOM     20  H   UNL     1     486.667  38.299 460.280  1.00  0.00     0.293 HD
ENDBRANCH  15  19
ENDBRANCH  10  11
ENDBRANCH   1  10
TORSDOF 6
ENDMDL
MODEL 5
REMARK VINA RESULT:    -5.385      2.221      6.542
REMARK INTER + INTRA:          -7.292
REMARK INTER:                  -6.828
REMARK INTRA:                  -0.463
REMARK UNBOUND:                -0.490
REMARK SMILES Oc1cc(O)cc(CCc2ccccc2O)c1
REMARK SMILES IDX 9 1 10 2 12 3 13 4 11 5 14 6 15 7 16 8 8 10 7 11 6 12 17 13
REMARK SMILES IDX 4 14 2 15 3 16 5 17 1 19
REMARK H PARENT 16 9 5 18 1 20
REMARK Flexibility Score: inf
ROOT
ATOM      1  C   UNL     1     479.492  38.146 459.623  1.00  0.00     0.044 C 
ENDROOT
BRANCH   1   2
ATOM      2  C   UNL     1     480.891  38.631 459.920  1.00  0.00    -0.006 A 
ATOM      3  C   UNL     1     482.416  39.746 461.457  1.00  0.00     0.001 A 
ATOM      4  C   UNL     1     483.473  39.535 460.571  1.00  0.00     0.004 A 
ATOM      5  C   UNL     1     481.134  39.293 461.137  1.00  0.00     0.007 A 
ATOM      6  C   UNL     1     483.252  38.864 459.368  1.00  0.00     0.046 A 
ATOM      7  C   UNL     1     481.974  38.400 459.033  1.00  0.00     0.118 A 
BRANCH   7   8
ATOM      8  O   UNL     1     481.820  37.717 457.825  1.00  0.00    -0.508 OA
ATOM      9  H   UNL     1     482.578  37.549 457.176  1.00  0.00     0.293 HD
ENDBRANCH   7   8
ENDBRANCH   1   2
BRANCH   1  10
ATOM     10  C   UNL     1     479.390  36.629 459.810  1.00  0.00     0.040 C 
BRANCH  10  11
ATOM     11  C   UNL     1     478.348  36.292 460.842  1.00  0.00    -0.040 A 
ATOM     12  C   UNL     1     478.217  34.975 461.310  1.00  0.00     0.050 A 
ATOM     13  C   UNL     1     477.459  37.279 461.300  1.00  0.00     0.050 A 
ATOM     14  C   UNL     1     477.225  34.653 462.246  1.00  0.00     0.119 A 
ATOM     15  C   UNL     1     476.468  36.959 462.233  1.00  0.00     0.119 A 
ATOM     16  C   UNL     1     476.354  35.645 462.708  1.00  0.00     0.092 A 
BRANCH  14  17
ATOM     17  O   UNL     1     477.094  33.349 462.722  1.00  0.00    -0.508 OA
ATOM     18  H   UNL     1     477.036  33.151 463.713  1.00  0.00     0.293 HD
ENDBRANCH  14  17
BRANCH  15  19
ATOM     19  O   UNL     1     475.601  37.953 462.682  1.00  0.00    -0.508 OA
ATOM     20  H   UNL     1     475.092  37.859 463.554  1.00  0.00     0.293 HD
ENDBRANCH  15  19
ENDBRANCH  10  11
ENDBRANCH   1  10
TORSDOF 6
ENDMDL
MODEL 6
REMARK VINA RESULT:    -5.344      1.712      2.804
REMARK INTER + INTRA:          -7.240
REMARK INTER:                  -6.648
REMARK INTRA:                  -0.592
REMARK UNBOUND:                -0.490
REMARK SMILES Oc1cc(O)cc(CCc2ccccc2O)c1
REMARK SMILES IDX 9 1 10 2 12 3 13 4 11 5 14 6 15 7 16 8 8 10 7 11 6 12 17 13
REMARK SMILES IDX 4 14 2 15 3 16 5 17 1 19
REMARK H PARENT 16 9 5 18 1 20
REMARK Flexibility Score: inf
ROOT
ATOM      1  C   UNL     1     479.594  38.599 459.731  1.00  0.00     0.044 C 
ENDROOT
BRANCH   1   2
ATOM      2  C   UNL     1     478.954  37.391 460.373  1.00  0.00    -0.006 A 
ATOM      3  C   UNL     1     478.758  34.967 460.492  1.00  0.00     0.001 A 
ATOM      4  C   UNL     1     477.838  35.086 461.534  1.00  0.00     0.004 A 
ATOM      5  C   UNL     1     479.316  36.111 459.917  1.00  0.00     0.007 A 
ATOM      6  C   UNL     1     477.481  36.349 462.009  1.00  0.00     0.046 A 
ATOM      7  C   UNL     1     478.035  37.506 461.447  1.00  0.00     0.118 A 
BRANCH   7   8
ATOM      8  O   UNL     1     477.654  38.739 461.979  1.00  0.00    -0.508 OA
ATOM      9  H   UNL     1     477.956  39.076 462.884  1.00  0.00     0.293 HD
ENDBRANCH   7   8
ENDBRANCH   1   2
BRANCH   1  10
ATOM     10  C   UNL     1     480.986  38.854 460.319  1.00  0.00     0.040 C 
BRANCH  10  11
ATOM     11  C   UNL     1     482.050  38.620 459.281  1.00  0.00    -0.040 A 
ATOM     12  C   UNL     1     483.407  38.725 459.624  1.00  0.00     0.050 A 
ATOM     13  C   UNL     1     481.693  38.354 457.948  1.00  0.00     0.050 A 
ATOM     14  C   UNL     1     484.398  38.540 458.650  1.00  0.00     0.119 A 
ATOM     15  C   UNL     1     482.681  38.170 456.976  1.00  0.00     0.119 A 
ATOM     16  C   UNL     1     484.034  38.261 457.330  1.00  0.00     0.092 A 
BRANCH  14  17
ATOM     17  O   UNL     1     485.748  38.635 458.985  1.00  0.00    -0.508 OA
ATOM     18  H   UNL     1     486.332  37.811 459.067  1.00  0.00     0.293 HD
ENDBRANCH  14  17
BRANCH  15  19
ATOM     19  O   UNL     1     482.308  37.899 455.661  1.00  0.00    -0.508 OA
ATOM     20  H   UNL     1     482.907  37.369 455.039  1.00  0.00     0.293 HD
ENDBRANCH  15  19
ENDBRANCH  10  11
ENDBRANCH   1  10
TORSDOF 6
ENDMDL
MODEL 7
REMARK VINA RESULT:    -5.262      2.037      6.419
REMARK INTER + INTRA:          -7.136
REMARK INTER:                  -6.579
REMARK INTRA:                  -0.557
REMARK UNBOUND:                -0.490
REMARK SMILES Oc1cc(O)cc(CCc2ccccc2O)c1
REMARK SMILES IDX 9 1 10 2 12 3 13 4 11 5 14 6 15 7 16 8 8 10 7 11 6 12 17 13
REMARK SMILES IDX 4 14 2 15 3 16 5 17 1 19
REMARK H PARENT 16 9 5 18 1 20
REMARK Flexibility Score: inf
ROOT
ATOM      1  C   UNL     1     479.890  38.048 459.206  1.00  0.00     0.044 C 
ENDROOT
BRANCH   1   2
ATOM      2  C   UNL     1     481.249  38.530 459.655  1.00  0.00    -0.006 A 
ATOM      3  C   UNL     1     482.610  39.583 461.378  1.00  0.00     0.001 A 
ATOM      4  C   UNL     1     483.748  39.423 460.586  1.00  0.00     0.004 A 
ATOM      5  C   UNL     1     481.370  39.135 460.919  1.00  0.00     0.007 A 
ATOM      6  C   UNL     1     483.648  38.810 459.336  1.00  0.00     0.046 A 
ATOM      7  C   UNL     1     482.412  38.351 458.863  1.00  0.00     0.118 A 
BRANCH   7   8
ATOM      8  O   UNL     1     482.379  37.726 457.615  1.00  0.00    -0.508 OA
ATOM      9  H   UNL     1     483.174  37.252 457.205  1.00  0.00     0.293 HD
ENDBRANCH   7   8
ENDBRANCH   1   2
BRANCH   1  10
ATOM     10  C   UNL     1     479.729  36.547 459.471  1.00  0.00     0.040 C 
BRANCH  10  11
ATOM     11  C   UNL     1     478.651  36.302 460.491  1.00  0.00    -0.040 A 
ATOM     12  C   UNL     1     477.875  37.369 460.969  1.00  0.00     0.050 A 
ATOM     13  C   UNL     1     478.454  35.014 461.017  1.00  0.00     0.050 A 
ATOM     14  C   UNL     1     476.893  37.148 461.945  1.00  0.00     0.119 A 
ATOM     15  C   UNL     1     477.474  34.792 461.991  1.00  0.00     0.119 A 
ATOM     16  C   UNL     1     476.692  35.860 462.451  1.00  0.00     0.092 A 
BRANCH  14  17
ATOM     17  O   UNL     1     476.112  38.201 462.418  1.00  0.00    -0.508 OA
ATOM     18  H   UNL     1     476.157  39.122 462.000  1.00  0.00     0.293 HD
ENDBRANCH  14  17
BRANCH  15  19
ATOM     19  O   UNL     1     477.287  33.507 462.495  1.00  0.00    -0.508 OA
ATOM     20  H   UNL     1     476.748  33.341 463.338  1.00  0.00     0.293 HD
ENDBRANCH  15  19
ENDBRANCH  10  11
ENDBRANCH   1  10
TORSDOF 6
ENDMDL
MODEL 8
REMARK VINA RESULT:    -5.190      2.085      6.693
REMARK INTER + INTRA:          -7.045
REMARK INTER:                  -6.649
REMARK INTRA:                  -0.396
REMARK UNBOUND:                -0.490
REMARK SMILES Oc1cc(O)cc(CCc2ccccc2O)c1
REMARK SMILES IDX 9 1 10 2 12 3 13 4 11 5 14 6 15 7 16 8 8 10 7 11 6 12 17 13
REMARK SMILES IDX 4 14 2 15 3 16 5 17 1 19
REMARK H PARENT 16 9 5 18 1 20
REMARK Flexibility Score: inf
ROOT
ATOM      1  C   UNL     1     480.173  37.991 459.471  1.00  0.00     0.044 C 
ENDROOT
BRANCH   1   2
ATOM      2  C   UNL     1     481.434  38.137 458.653  1.00  0.00    -0.006 A 
ATOM      3  C   UNL     1     482.532  37.962 456.487  1.00  0.00     0.001 A 
ATOM      4  C   UNL     1     483.727  38.414 457.048  1.00  0.00     0.004 A 
ATOM      5  C   UNL     1     481.392  37.828 457.282  1.00  0.00     0.007 A 
ATOM      6  C   UNL     1     483.781  38.740 458.403  1.00  0.00     0.046 A 
ATOM      7  C   UNL     1     482.646  38.616 459.214  1.00  0.00     0.118 A 
BRANCH   7   8
ATOM      8  O   UNL     1     482.757  38.979 460.557  1.00  0.00    -0.508 OA
ATOM      9  H   UNL     1     483.235  38.419 461.251  1.00  0.00     0.293 HD
ENDBRANCH   7   8
ENDBRANCH   1   2
BRANCH   1  10
ATOM     10  C   UNL     1     479.684  36.539 459.463  1.00  0.00     0.040 C 
BRANCH  10  11
ATOM     11  C   UNL     1     478.646  36.324 460.531  1.00  0.00    -0.040 A 
ATOM     12  C   UNL     1     478.397  35.033 461.025  1.00  0.00     0.050 A 
ATOM     13  C   UNL     1     477.878  37.403 461.000  1.00  0.00     0.050 A 
ATOM     14  C   UNL     1     477.408  34.827 461.996  1.00  0.00     0.119 A 
ATOM     15  C   UNL     1     476.890  37.198 461.968  1.00  0.00     0.119 A 
ATOM     16  C   UNL     1     476.658  35.909 462.468  1.00  0.00     0.092 A 
BRANCH  14  17
ATOM     17  O   UNL     1     477.160  33.550 462.497  1.00  0.00    -0.508 OA
ATOM     18  H   UNL     1     477.660  33.192 463.302  1.00  0.00     0.293 HD
ENDBRANCH  14  17
BRANCH  15  19
ATOM     19  O   UNL     1     476.143  38.281 462.426  1.00  0.00    -0.508 OA
ATOM     20  H   UNL     1     476.185  38.583 463.394  1.00  0.00     0.293 HD
ENDBRANCH  15  19
ENDBRANCH  10  11
ENDBRANCH   1  10
TORSDOF 6
ENDMDL
MODEL 9
REMARK VINA RESULT:    -5.116      1.679      2.812
REMARK INTER + INTRA:          -6.952
REMARK INTER:                  -6.404
REMARK INTRA:                  -0.548
REMARK UNBOUND:                -0.490
REMARK SMILES Oc1cc(O)cc(CCc2ccccc2O)c1
REMARK SMILES IDX 9 1 10 2 12 3 13 4 11 5 14 6 15 7 16 8 8 10 7 11 6 12 17 13
REMARK SMILES IDX 4 14 2 15 3 16 5 17 1 19
REMARK H PARENT 16 9 5 18 1 20
REMARK Flexibility Score: inf
ROOT
ATOM      1  C   UNL     1     479.705  38.626 459.858  1.00  0.00     0.044 C 
ENDROOT
BRANCH   1   2
ATOM      2  C   UNL     1     479.080  37.362 460.399  1.00  0.00    -0.006 A 
ATOM      3  C   UNL     1     478.879  34.937 460.291  1.00  0.00     0.001 A 
ATOM      4  C   UNL     1     477.990  34.956 461.366  1.00  0.00     0.004 A 
ATOM      5  C   UNL     1     479.424  36.131 459.812  1.00  0.00     0.007 A 
ATOM      6  C   UNL     1     477.651  36.168 461.969  1.00  0.00     0.046 A 
ATOM      7  C   UNL     1     478.192  37.373 461.505  1.00  0.00     0.118 A 
BRANCH   7   8
ATOM      8  O   UNL     1     477.831  38.550 462.164  1.00  0.00    -0.508 OA
ATOM      9  H   UNL     1     476.880  38.888 462.227  1.00  0.00     0.293 HD
ENDBRANCH   7   8
ENDBRANCH   1   2
BRANCH   1  10
ATOM     10  C   UNL     1     480.872  38.298 458.921  1.00  0.00     0.040 C 
BRANCH  10  11
ATOM     11  C   UNL     1     482.185  38.647 459.568  1.00  0.00    -0.040 A 
ATOM     12  C   UNL     1     482.218  39.112 460.892  1.00  0.00     0.050 A 
ATOM     13  C   UNL     1     483.379  38.569 458.833  1.00  0.00     0.050 A 
ATOM     14  C   UNL     1     483.437  39.469 461.485  1.00  0.00     0.119 A 
ATOM     15  C   UNL     1     484.596  38.926 459.423  1.00  0.00     0.119 A 
ATOM     16  C   UNL     1     484.623  39.374 460.751  1.00  0.00     0.092 A 
BRANCH  14  17
ATOM     17  O   UNL     1     483.479  39.924 462.801  1.00  0.00    -0.508 OA
ATOM     18  H   UNL     1     483.291  40.892 463.034  1.00  0.00     0.293 HD
ENDBRANCH  14  17
BRANCH  15  19
ATOM     19  O   UNL     1     485.772  38.833 458.681  1.00  0.00    -0.508 OA
ATOM     20  H   UNL     1     486.673  39.061 459.086  1.00  0.00     0.293 HD
ENDBRANCH  15  19
ENDBRANCH  10  11
ENDBRANCH   1  10
TORSDOF 6
ENDMDL
