MODEL 1
REMARK VINA RESULT:    -3.472      0.000      0.000
REMARK INTER + INTRA:          -5.155
REMARK INTER:                  -4.689
REMARK INTRA:                  -0.466
REMARK UNBOUND:                -0.466
REMARK SMILES CCCCCCCC(=O)[O-]
REMARK SMILES IDX 5 1 6 2 7 3 8 4 9 5 10 6 4 7 3 8 2 9 1 10
REMARK H PARENT
REMARK Flexibility Score: inf
ROOT
ATOM      1  C   UNL     1     -23.194 120.172  -0.384  1.00  0.00     0.000 C 
ENDROOT
BRANCH   1   2
ATOM      2  C   UNL     1     -23.357 118.675  -0.704  1.00  0.00     0.006 C 
BRANCH   2   3
ATOM      3  C   UNL     1     -23.429 117.816   0.566  1.00  0.00     0.053 C 
BRANCH   3   4
ATOM      4  C   UNL     1     -22.066 117.466   1.079  1.00  0.00     0.041 C 
ATOM      5  O   UNL     1     -21.406 116.538   0.540  1.00  0.00    -0.550 OA
ATOM      6  O   UNL     1     -21.510 118.187   2.128  1.00  0.00    -0.550 OA
ENDBRANCH   3   4
ENDBRANCH   2   3
ENDBRANCH   1   2
BRANCH   1   7
ATOM      7  C   UNL     1     -22.320 120.905  -1.413  1.00  0.00     0.000 C 
BRANCH   7   8
ATOM      8  C   UNL     1     -20.893 121.158  -0.905  1.00  0.00    -0.000 C 
BRANCH   8   9
ATOM      9  C   UNL     1     -19.857 120.513  -1.833  1.00  0.00    -0.003 C 
ATOM     10  C   UNL     1     -19.734 119.015  -1.565  1.00  0.00     0.004 C 
ENDBRANCH   8   9
ENDBRANCH   7   8
ENDBRANCH   1   7
TORSDOF 6
ENDMDL
MODEL 2
REMARK VINA RESULT:    -3.417      1.313      2.519
REMARK INTER + INTRA:          -5.081
REMARK INTER:                  -4.495
REMARK INTRA:                  -0.585
REMARK UNBOUND:                -0.466
REMARK SMILES CCCCCCCC(=O)[O-]
REMARK SMILES IDX 5 1 6 2 7 3 8 4 9 5 10 6 4 7 3 8 2 9 1 10
REMARK H PARENT
REMARK Flexibility Score: inf
ROOT
ATOM      1  C   UNL     1     -20.048 117.983  -1.743  1.00  0.00     0.000 C 
ENDROOT
BRANCH   1   2
ATOM      2  C   UNL     1     -21.227 117.062  -1.384  1.00  0.00     0.006 C 
BRANCH   2   3
ATOM      3  C   UNL     1     -21.268 116.730   0.114  1.00  0.00     0.053 C 
BRANCH   3   4
ATOM      4  C   UNL     1     -22.012 117.771   0.894  1.00  0.00     0.041 C 
ATOM      5  O   UNL     1     -21.439 118.396   1.824  1.00  0.00    -0.550 OA
ATOM      6  O   UNL     1     -23.328 118.075   0.569  1.00  0.00    -0.550 OA
ENDBRANCH   3   4
ENDBRANCH   2   3
ENDBRANCH   1   2
BRANCH   1   7
ATOM      7  C   UNL     1     -20.500 119.284  -2.424  1.00  0.00     0.000 C 
BRANCH   7   8
ATOM      8  C   UNL     1     -19.869 120.534  -1.793  1.00  0.00    -0.000 C 
BRANCH   8   9
ATOM      9  C   UNL     1     -20.695 121.019  -0.595  1.00  0.00    -0.003 C 
ATOM     10  C   UNL     1     -22.182 121.071  -0.936  1.00  0.00     0.004 C 
ENDBRANCH   8   9
ENDBRANCH   7   8
ENDBRANCH   1   7
TORSDOF 6
ENDMDL
MODEL 3
REMARK VINA RESULT:    -3.350      2.252      3.971
REMARK INTER + INTRA:          -4.991
REMARK INTER:                  -4.387
REMARK INTRA:                  -0.603
REMARK UNBOUND:                -0.466
REMARK SMILES CCCCCCCC(=O)[O-]
REMARK SMILES IDX 5 1 6 2 7 3 8 4 9 5 10 6 4 7 3 8 2 9 1 10
REMARK H PARENT
REMARK Flexibility Score: inf
ROOT
ATOM      1  C   UNL     1     -23.006 119.784  -1.407  1.00  0.00     0.000 C 
ENDROOT
BRANCH   1   2
ATOM      2  C   UNL     1     -22.306 121.059  -0.905  1.00  0.00     0.006 C 
BRANCH   2   3
ATOM      3  C   UNL     1     -20.892 120.776  -0.381  1.00  0.00     0.053 C 
BRANCH   3   4
ATOM      4  C   UNL     1     -19.992 120.259  -1.461  1.00  0.00     0.041 C 
ATOM      5  O   UNL     1     -19.623 121.019  -2.395  1.00  0.00    -0.550 OA
ATOM      6  O   UNL     1     -19.532 118.949  -1.417  1.00  0.00    -0.550 OA
ENDBRANCH   3   4
ENDBRANCH   2   3
ENDBRANCH   1   2
BRANCH   1   7
ATOM      7  C   UNL     1     -23.272 118.773  -0.280  1.00  0.00     0.000 C 
BRANCH   7   8
ATOM      8  C   UNL     1     -22.646 117.399  -0.558  1.00  0.00    -0.000 C 
BRANCH   8   9
ATOM      9  C   UNL     1     -22.073 116.787   0.725  1.00  0.00    -0.003 C 
ATOM     10  C   UNL     1     -21.785 117.864   1.768  1.00  0.00     0.004 C 
ENDBRANCH   8   9
ENDBRANCH   7   8
ENDBRANCH   1   7
TORSDOF 6
ENDMDL
MODEL 4
REMARK VINA RESULT:    -3.319      1.813      2.090
REMARK INTER + INTRA:          -4.949
REMARK INTER:                  -4.370
REMARK INTRA:                  -0.579
REMARK UNBOUND:                -0.466
REMARK SMILES CCCCCCCC(=O)[O-]
REMARK SMILES IDX 5 1 6 2 7 3 8 4 9 5 10 6 4 7 3 8 2 9 1 10
REMARK H PARENT
REMARK Flexibility Score: inf
ROOT
ATOM      1  C   UNL     1     -22.734 119.730  -0.157  1.00  0.00     0.000 C 
ENDROOT
BRANCH   1   2
ATOM      2  C   UNL     1     -21.602 119.012   0.598  1.00  0.00     0.006 C 
BRANCH   2   3
ATOM      3  C   UNL     1     -21.604 117.499   0.343  1.00  0.00     0.053 C 
BRANCH   3   4
ATOM      4  C   UNL     1     -21.146 117.169  -1.045  1.00  0.00     0.041 C 
ATOM      5  O   UNL     1     -21.980 116.808  -1.918  1.00  0.00    -0.550 OA
ATOM      6  O   UNL     1     -19.805 117.295  -1.385  1.00  0.00    -0.550 OA
ENDBRANCH   3   4
ENDBRANCH   2   3
ENDBRANCH   1   2
BRANCH   1   7
ATOM      7  C   UNL     1     -22.229 120.924  -0.983  1.00  0.00     0.000 C 
BRANCH   7   8
ATOM      8  C   UNL     1     -20.699 121.054  -0.961  1.00  0.00    -0.000 C 
BRANCH   8   9
ATOM      9  C   UNL     1     -20.095 120.647  -2.310  1.00  0.00    -0.003 C 
ATOM     10  C   UNL     1     -21.177 120.184  -3.281  1.00  0.00     0.004 C 
ENDBRANCH   8   9
ENDBRANCH   7   8
ENDBRANCH   1   7
TORSDOF 6
ENDMDL
MODEL 5
REMARK VINA RESULT:    -3.303      2.453      4.271
REMARK INTER + INTRA:          -4.927
REMARK INTER:                  -4.253
REMARK INTRA:                  -0.675
REMARK UNBOUND:                -0.466
REMARK SMILES CCCCCCCC(=O)[O-]
REMARK SMILES IDX 5 1 6 2 7 3 8 4 9 5 10 6 4 7 3 8 2 9 1 10
REMARK H PARENT
REMARK Flexibility Score: inf
ROOT
ATOM      1  C   UNL     1     -19.776 119.235  -1.378  1.00  0.00     0.000 C 
ENDROOT
BRANCH   1   2
ATOM      2  C   UNL     1     -20.214 120.622  -1.883  1.00  0.00     0.006 C 
BRANCH   2   3
ATOM      3  C   UNL     1     -21.294 121.249  -0.991  1.00  0.00     0.053 C 
BRANCH   3   4
ATOM      4  C   UNL     1     -22.673 120.927  -1.479  1.00  0.00     0.041 C 
ATOM      5  O   UNL     1     -23.648 120.951  -0.682  1.00  0.00    -0.550 OA
ATOM      6  O   UNL     1     -22.887 120.636  -2.820  1.00  0.00    -0.550 OA
ENDBRANCH   3   4
ENDBRANCH   2   3
ENDBRANCH   1   2
BRANCH   1   7
ATOM      7  C   UNL     1     -20.387 118.088  -2.198  1.00  0.00     0.000 C 
BRANCH   7   8
ATOM      8  C   UNL     1     -21.512 117.359  -1.449  1.00  0.00    -0.000 C 
BRANCH   8   9
ATOM      9  C   UNL     1     -21.426 117.619   0.059  1.00  0.00    -0.003 C 
ATOM     10  C   UNL     1     -22.815 117.781   0.670  1.00  0.00     0.004 C 
ENDBRANCH   8   9
ENDBRANCH   7   8
ENDBRANCH   1   7
TORSDOF 6
ENDMDL
MODEL 6
REMARK VINA RESULT:    -3.257      1.700      2.302
REMARK INTER + INTRA:          -4.865
REMARK INTER:                  -4.286
REMARK INTRA:                  -0.578
REMARK UNBOUND:                -0.466
REMARK SMILES CCCCCCCC(=O)[O-]
REMARK SMILES IDX 5 1 6 2 7 3 8 4 9 5 10 6 4 7 3 8 2 9 1 10
REMARK H PARENT
REMARK Flexibility Score: inf
ROOT
ATOM      1  C   UNL     1     -20.649 121.075  -0.917  1.00  0.00     0.000 C 
ENDROOT
BRANCH   1   2
ATOM      2  C   UNL     1     -21.890 120.418  -0.287  1.00  0.00     0.006 C 
BRANCH   2   3
ATOM      3  C   UNL     1     -21.517 119.288   0.683  1.00  0.00     0.053 C 
BRANCH   3   4
ATOM      4  C   UNL     1     -22.330 118.054   0.437  1.00  0.00     0.041 C 
ATOM      5  O   UNL     1     -21.860 116.920   0.720  1.00  0.00    -0.550 OA
ATOM      6  O   UNL     1     -23.619 118.158  -0.070  1.00  0.00    -0.550 OA
ENDBRANCH   3   4
ENDBRANCH   2   3
ENDBRANCH   1   2
BRANCH   1   7
ATOM      7  C   UNL     1     -20.229 120.403  -2.234  1.00  0.00     0.000 C 
BRANCH   7   8
ATOM      8  C   UNL     1     -21.428 120.032  -3.118  1.00  0.00    -0.000 C 
BRANCH   8   9
ATOM      9  C   UNL     1     -21.442 118.529  -3.420  1.00  0.00    -0.003 C 
ATOM     10  C   UNL     1     -20.355 117.799  -2.635  1.00  0.00     0.004 C 
ENDBRANCH   8   9
ENDBRANCH   7   8
ENDBRANCH   1   7
TORSDOF 6
ENDMDL
MODEL 7
REMARK VINA RESULT:    -3.233      2.512      3.768
REMARK INTER + INTRA:          -4.833
REMARK INTER:                  -4.486
REMARK INTRA:                  -0.347
REMARK UNBOUND:                -0.466
REMARK SMILES CCCCCCCC(=O)[O-]
REMARK SMILES IDX 5 1 6 2 7 3 8 4 9 5 10 6 4 7 3 8 2 9 1 10
REMARK H PARENT
REMARK Flexibility Score: inf
ROOT
ATOM      1  C   UNL     1     -19.741 118.959  -1.610  1.00  0.00     0.000 C 
ENDROOT
BRANCH   1   2
ATOM      2  C   UNL     1     -20.503 117.757  -2.198  1.00  0.00     0.006 C 
BRANCH   2   3
ATOM      3  C   UNL     1     -19.554 116.674  -2.728  1.00  0.00     0.053 C 
BRANCH   3   4
ATOM      4  C   UNL     1     -18.784 116.020  -1.622  1.00  0.00     0.041 C 
ATOM      5  O   UNL     1     -19.371 115.269  -0.800  1.00  0.00    -0.550 OA
ATOM      6  O   UNL     1     -17.412 116.211  -1.521  1.00  0.00    -0.550 OA
ENDBRANCH   3   4
ENDBRANCH   2   3
ENDBRANCH   1   2
BRANCH   1   7
ATOM      7  C   UNL     1     -20.346 120.307  -2.034  1.00  0.00     0.000 C 
BRANCH   7   8
ATOM      8  C   UNL     1     -20.918 121.098  -0.848  1.00  0.00    -0.000 C 
BRANCH   8   9
ATOM      9  C   UNL     1     -22.441 120.944  -0.771  1.00  0.00    -0.003 C 
ATOM     10  C   UNL     1     -23.046 120.742  -2.157  1.00  0.00     0.004 C 
ENDBRANCH   8   9
ENDBRANCH   7   8
ENDBRANCH   1   7
TORSDOF 6
ENDMDL
MODEL 8
REMARK VINA RESULT:    -3.227      2.651      3.487
REMARK INTER + INTRA:          -4.825
REMARK INTER:                  -4.473
REMARK INTRA:                  -0.352
REMARK UNBOUND:                -0.466
REMARK SMILES CCCCCCCC(=O)[O-]
REMARK SMILES IDX 5 1 6 2 7 3 8 4 9 5 10 6 4 7 3 8 2 9 1 10
REMARK H PARENT
REMARK Flexibility Score: inf
ROOT
ATOM      1  C   UNL     1     -21.329 117.081   0.023  1.00  0.00     0.000 C 
ENDROOT
BRANCH   1   2
ATOM      2  C   UNL     1     -21.510 116.017  -1.075  1.00  0.00     0.006 C 
BRANCH   2   3
ATOM      3  C   UNL     1     -20.799 114.702  -0.730  1.00  0.00     0.053 C 
BRANCH   3   4
ATOM      4  C   UNL     1     -19.310 114.837  -0.812  1.00  0.00     0.041 C 
ATOM      5  O   UNL     1     -18.779 115.405  -1.803  1.00  0.00    -0.550 OA
ATOM      6  O   UNL     1     -18.510 114.368   0.222  1.00  0.00    -0.550 OA
ENDBRANCH   3   4
ENDBRANCH   2   3
ENDBRANCH   1   2
BRANCH   1   7
ATOM      7  C   UNL     1     -21.254 118.508  -0.543  1.00  0.00     0.000 C 
BRANCH   7   8
ATOM      8  C   UNL     1     -20.032 118.722  -1.448  1.00  0.00    -0.000 C 
BRANCH   8   9
ATOM      9  C   UNL     1     -19.768 120.216  -1.667  1.00  0.00    -0.003 C 
ATOM     10  C   UNL     1     -20.800 121.072  -0.937  1.00  0.00     0.004 C 
ENDBRANCH   8   9
ENDBRANCH   7   8
ENDBRANCH   1   7
TORSDOF 6
ENDMDL
MODEL 9
REMARK VINA RESULT:    -3.164      2.094      3.077
REMARK INTER + INTRA:          -4.739
REMARK INTER:                  -4.210
REMARK INTRA:                  -0.529
REMARK UNBOUND:                -0.466
REMARK SMILES CCCCCCCC(=O)[O-]
REMARK SMILES IDX 5 1 6 2 7 3 8 4 9 5 10 6 4 7 3 8 2 9 1 10
REMARK H PARENT
REMARK Flexibility Score: inf
ROOT
ATOM      1  C   UNL     1     -21.491 120.111  -3.151  1.00  0.00     0.000 C 
ENDROOT
BRANCH   1   2
ATOM      2  C   UNL     1     -22.894 120.662  -2.842  1.00  0.00     0.006 C 
BRANCH   2   3
ATOM      3  C   UNL     1     -23.087 120.949  -1.347  1.00  0.00     0.053 C 
BRANCH   3   4
ATOM      4  C   UNL     1     -23.695 119.782  -0.631  1.00  0.00     0.041 C 
ATOM      5  O   UNL     1     -22.993 119.080   0.145  1.00  0.00    -0.550 OA
ATOM      6  O   UNL     1     -25.043 119.491  -0.793  1.00  0.00    -0.550 OA
ENDBRANCH   3   4
ENDBRANCH   2   3
ENDBRANCH   1   2
BRANCH   1   7
ATOM      7  C   UNL     1     -20.425 120.620  -2.168  1.00  0.00     0.000 C 
BRANCH   7   8
ATOM      8  C   UNL     1     -19.739 119.483  -1.397  1.00  0.00    -0.000 C 
BRANCH   8   9
ATOM      9  C   UNL     1     -20.085 118.120  -2.007  1.00  0.00    -0.003 C 
ATOM     10  C   UNL     1     -20.487 117.119  -0.928  1.00  0.00     0.004 C 
ENDBRANCH   8   9
ENDBRANCH   7   8
ENDBRANCH   1   7
TORSDOF 6
ENDMDL
