MODEL 1
REMARK VINA RESULT:    -4.866      0.000      0.000
REMARK INTER + INTRA:         -10.575
REMARK INTER:                  -8.849
REMARK INTRA:                  -1.727
REMARK UNBOUND:                -1.727
REMARK SMILES CCCCCC=CCC=CCCCCCCCC(=O)[O-]
REMARK SMILES IDX 11 1 12 2 13 3 14 4 15 5 16 6 17 7 18 8 19 9 20 10 10 11
REMARK SMILES IDX 9 12 8 13 7 14 6 15 5 16 4 17 3 18 2 19 1 20
REMARK H PARENT
REMARK Flexibility Score: inf
ROOT
ATOM      1  C   UNL     1       6.702   7.153  20.097  1.00  0.00     0.027 C 
ENDROOT
BRANCH   1   2
ATOM      2  C   UNL     1       5.747   6.898  21.273  1.00  0.00     0.004 C 
BRANCH   2   3
ATOM      3  C   UNL     1       4.856   5.667  21.037  1.00  0.00     0.000 C 
BRANCH   3   4
ATOM      4  C   UNL     1       5.048   4.586  22.112  1.00  0.00     0.000 C 
BRANCH   4   5
ATOM      5  C   UNL     1       4.948   3.160  21.538  1.00  0.00     0.000 C 
BRANCH   5   6
ATOM      6  C   UNL     1       5.474   3.062  20.094  1.00  0.00     0.006 C 
BRANCH   6   7
ATOM      7  C   UNL     1       6.827   2.342  19.964  1.00  0.00     0.053 C 
BRANCH   7   8
ATOM      8  C   UNL     1       7.969   3.306  19.867  1.00  0.00     0.041 C 
ATOM      9  O   UNL     1       8.527   3.519  18.759  1.00  0.00    -0.550 OA
ATOM     10  O   UNL     1       8.392   3.999  20.994  1.00  0.00    -0.550 OA
ENDBRANCH   7   8
ENDBRANCH   6   7
ENDBRANCH   5   6
ENDBRANCH   4   5
ENDBRANCH   3   4
ENDBRANCH   2   3
ENDBRANCH   1   2
BRANCH   1  11
ATOM     11  C   UNL     1       6.384   6.293  18.903  1.00  0.00    -0.031 C 
ATOM     12  C   UNL     1       6.485   6.761  17.651  1.00  0.00    -0.027 C 
BRANCH  12  13
ATOM     13  C   UNL     1       6.151   5.908  16.460  1.00  0.00     0.054 C 
BRANCH  13  14
ATOM     14  C   UNL     1       7.400   5.525  15.718  1.00  0.00    -0.027 C 
ATOM     15  C   UNL     1       8.566   6.156  15.927  1.00  0.00    -0.031 C 
BRANCH  15  16
ATOM     16  C   UNL     1       9.816   5.765  15.188  1.00  0.00     0.027 C 
BRANCH  16  17
ATOM     17  C   UNL     1      10.445   6.977  14.489  1.00  0.00     0.004 C 
BRANCH  17  18
ATOM     18  C   UNL     1      10.401   6.815  12.964  1.00  0.00     0.000 C 
BRANCH  18  19
ATOM     19  C   UNL     1      10.204   5.346  12.573  1.00  0.00    -0.003 C 
ATOM     20  C   UNL     1       8.896   5.149  11.812  1.00  0.00     0.004 C 
ENDBRANCH  18  19
ENDBRANCH  17  18
ENDBRANCH  16  17
ENDBRANCH  15  16
ENDBRANCH  13  14
ENDBRANCH  12  13
ENDBRANCH   1  11
TORSDOF 14
ENDMDL
MODEL 2
REMARK VINA RESULT:    -4.769      3.288      5.164
REMARK INTER + INTRA:         -10.399
REMARK INTER:                  -7.909
REMARK INTRA:                  -2.491
REMARK UNBOUND:                -1.727
REMARK SMILES CCCCCC=CCC=CCCCCCCCC(=O)[O-]
REMARK SMILES IDX 11 1 12 2 13 3 14 4 15 5 16 6 17 7 18 8 19 9 20 10 10 11
REMARK SMILES IDX 9 12 8 13 7 14 6 15 5 16 4 17 3 18 2 19 1 20
REMARK H PARENT
REMARK Flexibility Score: inf
ROOT
ATOM      1  C   UNL     1       5.039   3.017  23.895  1.00  0.00     0.027 C 
ENDROOT
BRANCH   1   2
ATOM      2  C   UNL     1       5.330   4.481  24.254  1.00  0.00     0.004 C 
BRANCH   2   3
ATOM      3  C   UNL     1       6.815   4.838  24.071  1.00  0.00     0.000 C 
BRANCH   3   4
ATOM      4  C   UNL     1       7.033   5.923  23.005  1.00  0.00     0.000 C 
BRANCH   4   5
ATOM      5  C   UNL     1       5.710   6.432  22.403  1.00  0.00     0.000 C 
BRANCH   5   6
ATOM      6  C   UNL     1       5.896   7.698  21.546  1.00  0.00     0.006 C 
BRANCH   6   7
ATOM      7  C   UNL     1       7.344   8.211  21.484  1.00  0.00     0.053 C 
BRANCH   7   8
ATOM      8  C   UNL     1       7.477   9.590  22.056  1.00  0.00     0.041 C 
ATOM      9  O   UNL     1       7.544  10.589  21.293  1.00  0.00    -0.550 OA
ATOM     10  O   UNL     1       7.488   9.773  23.433  1.00  0.00    -0.550 OA
ENDBRANCH   7   8
ENDBRANCH   6   7
ENDBRANCH   5   6
ENDBRANCH   4   5
ENDBRANCH   3   4
ENDBRANCH   2   3
ENDBRANCH   1   2
BRANCH   1  11
ATOM     11  C   UNL     1       5.635   2.622  22.569  1.00  0.00    -0.031 C 
ATOM     12  C   UNL     1       5.070   2.984  21.408  1.00  0.00    -0.027 C 
BRANCH  12  13
ATOM     13  C   UNL     1       5.654   2.576  20.086  1.00  0.00     0.054 C 
BRANCH  13  14
ATOM     14  C   UNL     1       6.065   3.784  19.293  1.00  0.00    -0.027 C 
ATOM     15  C   UNL     1       7.166   4.487  19.600  1.00  0.00    -0.031 C 
BRANCH  15  16
ATOM     16  C   UNL     1       7.580   5.691  18.800  1.00  0.00     0.027 C 
BRANCH  16  17
ATOM     17  C   UNL     1       6.356   6.437  18.254  1.00  0.00     0.004 C 
BRANCH  17  18
ATOM     18  C   UNL     1       6.566   6.838  16.788  1.00  0.00     0.000 C 
BRANCH  18  19
ATOM     19  C   UNL     1       6.645   5.600  15.886  1.00  0.00    -0.003 C 
ATOM     20  C   UNL     1       5.275   4.948  15.725  1.00  0.00     0.004 C 
ENDBRANCH  18  19
ENDBRANCH  17  18
ENDBRANCH  16  17
ENDBRANCH  15  16
ENDBRANCH  13  14
ENDBRANCH  12  13
ENDBRANCH   1  11
TORSDOF 14
ENDMDL
MODEL 3
REMARK VINA RESULT:    -4.749      2.417      7.589
REMARK INTER + INTRA:         -10.362
REMARK INTER:                  -8.569
REMARK INTRA:                  -1.793
REMARK UNBOUND:                -1.727
REMARK SMILES CCCCCC=CCC=CCCCCCCCC(=O)[O-]
REMARK SMILES IDX 11 1 12 2 13 3 14 4 15 5 16 6 17 7 18 8 19 9 20 10 10 11
REMARK SMILES IDX 9 12 8 13 7 14 6 15 5 16 4 17 3 18 2 19 1 20
REMARK H PARENT
REMARK Flexibility Score: inf
ROOT
ATOM      1  C   UNL     1       7.396   6.015  19.255  1.00  0.00     0.027 C 
ENDROOT
BRANCH   1   2
ATOM      2  C   UNL     1       6.181   6.628  18.545  1.00  0.00     0.004 C 
BRANCH   2   3
ATOM      3  C   UNL     1       6.443   6.859  17.047  1.00  0.00     0.000 C 
BRANCH   3   4
ATOM      4  C   UNL     1       5.946   5.695  16.175  1.00  0.00     0.000 C 
BRANCH   4   5
ATOM      5  C   UNL     1       7.089   4.996  15.417  1.00  0.00     0.000 C 
BRANCH   5   6
ATOM      6  C   UNL     1       8.439   5.719  15.581  1.00  0.00     0.006 C 
BRANCH   6   7
ATOM      7  C   UNL     1       9.381   5.579  14.374  1.00  0.00     0.053 C 
BRANCH   7   8
ATOM      8  C   UNL     1      10.264   6.778  14.209  1.00  0.00     0.041 C 
ATOM      9  O   UNL     1      10.606   7.160  13.059  1.00  0.00    -0.550 OA
ATOM     10  O   UNL     1      10.679   7.495  15.324  1.00  0.00    -0.550 OA
ENDBRANCH   7   8
ENDBRANCH   6   7
ENDBRANCH   5   6
ENDBRANCH   4   5
ENDBRANCH   3   4
ENDBRANCH   2   3
ENDBRANCH   1   2
BRANCH   1  11
ATOM     11  C   UNL     1       7.159   4.586  19.668  1.00  0.00    -0.031 C 
ATOM     12  C   UNL     1       5.977   3.984  19.473  1.00  0.00    -0.027 C 
BRANCH  12  13
ATOM     13  C   UNL     1       5.734   2.565  19.901  1.00  0.00     0.054 C 
BRANCH  13  14
ATOM     14  C   UNL     1       5.525   2.489  21.387  1.00  0.00    -0.027 C 
ATOM     15  C   UNL     1       4.437   3.012  21.973  1.00  0.00    -0.031 C 
BRANCH  15  16
ATOM     16  C   UNL     1       4.227   2.928  23.460  1.00  0.00     0.027 C 
BRANCH  16  17
ATOM     17  C   UNL     1       5.474   3.394  24.221  1.00  0.00     0.004 C 
BRANCH  17  18
ATOM     18  C   UNL     1       5.541   4.925  24.282  1.00  0.00     0.000 C 
BRANCH  18  19
ATOM     19  C   UNL     1       6.527   5.474  23.244  1.00  0.00    -0.003 C 
ATOM     20  C   UNL     1       6.336   6.974  23.043  1.00  0.00     0.004 C 
ENDBRANCH  18  19
ENDBRANCH  17  18
ENDBRANCH  16  17
ENDBRANCH  15  16
ENDBRANCH  13  14
ENDBRANCH  12  13
ENDBRANCH   1  11
TORSDOF 14
ENDMDL
MODEL 4
REMARK VINA RESULT:    -4.733      3.281      7.068
REMARK INTER + INTRA:         -10.333
REMARK INTER:                  -8.722
REMARK INTRA:                  -1.611
REMARK UNBOUND:                -1.727
REMARK SMILES CCCCCC=CCC=CCCCCCCCC(=O)[O-]
REMARK SMILES IDX 11 1 12 2 13 3 14 4 15 5 16 6 17 7 18 8 19 9 20 10 10 11
REMARK SMILES IDX 9 12 8 13 7 14 6 15 5 16 4 17 3 18 2 19 1 20
REMARK H PARENT
REMARK Flexibility Score: inf
ROOT
ATOM      1  C   UNL     1       4.382   3.546  22.042  1.00  0.00     0.027 C 
ENDROOT
BRANCH   1   2
ATOM      2  C   UNL     1       5.591   2.699  21.617  1.00  0.00     0.004 C 
BRANCH   2   3
ATOM      3  C   UNL     1       5.789   2.699  20.091  1.00  0.00     0.000 C 
BRANCH   3   4
ATOM      4  C   UNL     1       7.270   2.774  19.690  1.00  0.00     0.000 C 
BRANCH   4   5
ATOM      5  C   UNL     1       7.579   3.991  18.799  1.00  0.00     0.000 C 
BRANCH   5   6
ATOM      6  C   UNL     1       6.312   4.772  18.401  1.00  0.00     0.006 C 
BRANCH   6   7
ATOM      7  C   UNL     1       6.511   6.295  18.316  1.00  0.00     0.053 C 
BRANCH   7   8
ATOM      8  C   UNL     1       6.423   6.795  16.906  1.00  0.00     0.041 C 
ATOM      9  O   UNL     1       6.421   8.031  16.671  1.00  0.00    -0.550 OA
ATOM     10  O   UNL     1       6.380   5.893  15.850  1.00  0.00    -0.550 OA
ENDBRANCH   7   8
ENDBRANCH   6   7
ENDBRANCH   5   6
ENDBRANCH   4   5
ENDBRANCH   3   4
ENDBRANCH   2   3
ENDBRANCH   1   2
BRANCH   1  11
ATOM     11  C   UNL     1       4.476   4.966  21.549  1.00  0.00    -0.031 C 
ATOM     12  C   UNL     1       5.401   5.815  22.019  1.00  0.00    -0.027 C 
BRANCH  12  13
ATOM     13  C   UNL     1       5.483   7.237  21.540  1.00  0.00     0.054 C 
BRANCH  13  14
ATOM     14  C   UNL     1       6.748   7.886  22.024  1.00  0.00    -0.027 C 
ATOM     15  C   UNL     1       7.072   9.142  21.679  1.00  0.00    -0.031 C 
BRANCH  15  16
ATOM     16  C   UNL     1       8.336   9.792  22.171  1.00  0.00     0.027 C 
BRANCH  16  17
ATOM     17  C   UNL     1       8.154  11.307  22.324  1.00  0.00     0.004 C 
BRANCH  17  18
ATOM     18  C   UNL     1       6.694  11.712  22.085  1.00  0.00     0.000 C 
BRANCH  18  19
ATOM     19  C   UNL     1       6.242  12.765  23.104  1.00  0.00    -0.003 C 
ATOM     20  C   UNL     1       5.153  13.662  22.523  1.00  0.00     0.004 C 
ENDBRANCH  18  19
ENDBRANCH  17  18
ENDBRANCH  16  17
ENDBRANCH  15  16
ENDBRANCH  13  14
ENDBRANCH  12  13
ENDBRANCH   1  11
TORSDOF 14
ENDMDL
MODEL 5
REMARK VINA RESULT:    -4.717      2.450      7.705
REMARK INTER + INTRA:         -10.305
REMARK INTER:                  -8.463
REMARK INTRA:                  -1.842
REMARK UNBOUND:                -1.727
REMARK SMILES CCCCCC=CCC=CCCCCCCCC(=O)[O-]
REMARK SMILES IDX 11 1 12 2 13 3 14 4 15 5 16 6 17 7 18 8 19 9 20 10 10 11
REMARK SMILES IDX 9 12 8 13 7 14 6 15 5 16 4 17 3 18 2 19 1 20
REMARK H PARENT
REMARK Flexibility Score: inf
ROOT
ATOM      1  C   UNL     1      10.106   5.616  15.861  1.00  0.00     0.027 C 
ENDROOT
BRANCH   1   2
ATOM      2  C   UNL     1      10.351   7.015  15.278  1.00  0.00     0.004 C 
BRANCH   2   3
ATOM      3  C   UNL     1      10.596   6.974  13.760  1.00  0.00     0.000 C 
BRANCH   3   4
ATOM      4  C   UNL     1      11.238   5.655  13.302  1.00  0.00     0.000 C 
BRANCH   4   5
ATOM      5  C   UNL     1      10.520   5.041  12.087  1.00  0.00     0.000 C 
BRANCH   5   6
ATOM      6  C   UNL     1       8.991   5.218  12.148  1.00  0.00     0.006 C 
BRANCH   6   7
ATOM      7  C   UNL     1       8.256   4.096  12.900  1.00  0.00     0.053 C 
BRANCH   7   8
ATOM      8  C   UNL     1       8.556   2.745  12.325  1.00  0.00     0.041 C 
ATOM      9  O   UNL     1       9.211   1.903  12.993  1.00  0.00    -0.550 OA
ATOM     10  O   UNL     1       8.079   2.403  11.066  1.00  0.00    -0.550 OA
ENDBRANCH   7   8
ENDBRANCH   6   7
ENDBRANCH   5   6
ENDBRANCH   4   5
ENDBRANCH   3   4
ENDBRANCH   2   3
ENDBRANCH   1   2
BRANCH   1  11
ATOM     11  C   UNL     1       8.710   5.458  16.405  1.00  0.00    -0.031 C 
ATOM     12  C   UNL     1       7.695   6.219  15.971  1.00  0.00    -0.027 C 
BRANCH  12  13
ATOM     13  C   UNL     1       6.307   6.074  16.527  1.00  0.00     0.054 C 
BRANCH  13  14
ATOM     14  C   UNL     1       6.355   5.802  18.004  1.00  0.00    -0.027 C 
ATOM     15  C   UNL     1       6.410   6.798  18.902  1.00  0.00    -0.031 C 
BRANCH  15  16
ATOM     16  C   UNL     1       6.449   6.524  20.380  1.00  0.00     0.027 C 
BRANCH  16  17
ATOM     17  C   UNL     1       5.210   5.739  20.829  1.00  0.00     0.004 C 
BRANCH  17  18
ATOM     18  C   UNL     1       5.601   4.568  21.738  1.00  0.00     0.000 C 
BRANCH  18  19
ATOM     19  C   UNL     1       4.998   3.253  21.230  1.00  0.00    -0.003 C 
ATOM     20  C   UNL     1       5.744   2.744  20.000  1.00  0.00     0.004 C 
ENDBRANCH  18  19
ENDBRANCH  17  18
ENDBRANCH  16  17
ENDBRANCH  15  16
ENDBRANCH  13  14
ENDBRANCH  12  13
ENDBRANCH   1  11
TORSDOF 14
ENDMDL
MODEL 6
REMARK VINA RESULT:    -4.705      1.863      3.355
REMARK INTER + INTRA:         -10.282
REMARK INTER:                  -8.651
REMARK INTRA:                  -1.630
REMARK UNBOUND:                -1.727
REMARK SMILES CCCCCC=CCC=CCCCCCCCC(=O)[O-]
REMARK SMILES IDX 11 1 12 2 13 3 14 4 15 5 16 6 17 7 18 8 19 9 20 10 10 11
REMARK SMILES IDX 9 12 8 13 7 14 6 15 5 16 4 17 3 18 2 19 1 20
REMARK H PARENT
REMARK Flexibility Score: inf
ROOT
ATOM      1  C   UNL     1       7.040   3.171  19.971  1.00  0.00     0.027 C 
ENDROOT
BRANCH   1   2
ATOM      2  C   UNL     1       5.581   2.766  20.231  1.00  0.00     0.004 C 
BRANCH   2   3
ATOM      3  C   UNL     1       5.093   3.224  21.616  1.00  0.00     0.000 C 
BRANCH   3   4
ATOM      4  C   UNL     1       4.455   4.622  21.583  1.00  0.00     0.000 C 
BRANCH   4   5
ATOM      5  C   UNL     1       5.414   5.719  22.079  1.00  0.00     0.000 C 
BRANCH   5   6
ATOM      6  C   UNL     1       5.254   7.042  21.307  1.00  0.00     0.006 C 
BRANCH   6   7
ATOM      7  C   UNL     1       6.522   7.497  20.566  1.00  0.00     0.053 C 
BRANCH   7   8
ATOM      8  C   UNL     1       7.411   8.333  21.435  1.00  0.00     0.041 C 
ATOM      9  O   UNL     1       7.312   9.588  21.422  1.00  0.00    -0.550 OA
ATOM     10  O   UNL     1       8.323   7.724  22.287  1.00  0.00    -0.550 OA
ENDBRANCH   7   8
ENDBRANCH   6   7
ENDBRANCH   5   6
ENDBRANCH   4   5
ENDBRANCH   3   4
ENDBRANCH   2   3
ENDBRANCH   1   2
BRANCH   1  11
ATOM     11  C   UNL     1       7.153   4.302  18.983  1.00  0.00    -0.031 C 
ATOM     12  C   UNL     1       6.099   4.722  18.269  1.00  0.00    -0.027 C 
BRANCH  12  13
ATOM     13  C   UNL     1       6.216   5.838  17.271  1.00  0.00     0.054 C 
BRANCH  13  14
ATOM     14  C   UNL     1       6.472   5.293  15.895  1.00  0.00    -0.027 C 
ATOM     15  C   UNL     1       7.715   5.186  15.400  1.00  0.00    -0.031 C 
BRANCH  15  16
ATOM     16  C   UNL     1       7.969   4.632  14.025  1.00  0.00     0.027 C 
BRANCH  16  17
ATOM     17  C   UNL     1       9.472   4.581  13.720  1.00  0.00     0.004 C 
BRANCH  17  18
ATOM     18  C   UNL     1       9.805   5.389  12.461  1.00  0.00     0.000 C 
BRANCH  18  19
ATOM     19  C   UNL     1      10.358   6.772  12.826  1.00  0.00    -0.003 C 
ATOM     20  C   UNL     1      10.831   6.812  14.276  1.00  0.00     0.004 C 
ENDBRANCH  18  19
ENDBRANCH  17  18
ENDBRANCH  16  17
ENDBRANCH  15  16
ENDBRANCH  13  14
ENDBRANCH  12  13
ENDBRANCH   1  11
TORSDOF 14
ENDMDL
MODEL 7
REMARK VINA RESULT:    -4.702      2.528      4.240
REMARK INTER + INTRA:         -10.277
REMARK INTER:                  -7.995
REMARK INTRA:                  -2.282
REMARK UNBOUND:                -1.727
REMARK SMILES CCCCCC=CCC=CCCCCCCCC(=O)[O-]
REMARK SMILES IDX 11 1 12 2 13 3 14 4 15 5 16 6 17 7 18 8 19 9 20 10 10 11
REMARK SMILES IDX 9 12 8 13 7 14 6 15 5 16 4 17 3 18 2 19 1 20
REMARK H PARENT
REMARK Flexibility Score: inf
ROOT
ATOM      1  C   UNL     1       5.666   3.120  19.667  1.00  0.00     0.027 C 
ENDROOT
BRANCH   1   2
ATOM      2  C   UNL     1       5.637   2.688  21.141  1.00  0.00     0.004 C 
BRANCH   2   3
ATOM      3  C   UNL     1       4.521   3.395  21.929  1.00  0.00     0.000 C 
BRANCH   3   4
ATOM      4  C   UNL     1       4.319   4.852  21.484  1.00  0.00     0.000 C 
BRANCH   4   5
ATOM      5  C   UNL     1       5.440   5.782  21.983  1.00  0.00     0.000 C 
BRANCH   5   6
ATOM      6  C   UNL     1       5.763   6.910  20.987  1.00  0.00     0.006 C 
BRANCH   6   7
ATOM      7  C   UNL     1       7.241   7.334  20.971  1.00  0.00     0.053 C 
BRANCH   7   8
ATOM      8  C   UNL     1       7.480   8.569  21.784  1.00  0.00     0.041 C 
ATOM      9  O   UNL     1       7.663   8.484  23.027  1.00  0.00    -0.550 OA
ATOM     10  O   UNL     1       7.538   9.810  21.164  1.00  0.00    -0.550 OA
ENDBRANCH   7   8
ENDBRANCH   6   7
ENDBRANCH   5   6
ENDBRANCH   4   5
ENDBRANCH   3   4
ENDBRANCH   2   3
ENDBRANCH   1   2
BRANCH   1  11
ATOM     11  C   UNL     1       6.982   3.739  19.277  1.00  0.00    -0.031 C 
ATOM     12  C   UNL     1       8.034   3.740  20.109  1.00  0.00    -0.027 C 
BRANCH  12  13
ATOM     13  C   UNL     1       9.341   4.374  19.727  1.00  0.00     0.054 C 
BRANCH  13  14
ATOM     14  C   UNL     1       9.182   5.209  18.488  1.00  0.00    -0.027 C 
ATOM     15  C   UNL     1       9.745   4.856  17.323  1.00  0.00    -0.031 C 
BRANCH  15  16
ATOM     16  C   UNL     1       9.578   5.690  16.083  1.00  0.00     0.027 C 
BRANCH  16  17
ATOM     17  C   UNL     1       8.119   5.688  15.610  1.00  0.00     0.004 C 
BRANCH  17  18
ATOM     18  C   UNL     1       7.325   6.820  16.272  1.00  0.00     0.000 C 
BRANCH  18  19
ATOM     19  C   UNL     1       5.951   6.327  16.741  1.00  0.00    -0.003 C 
ATOM     20  C   UNL     1       5.499   5.111  15.939  1.00  0.00     0.004 C 
ENDBRANCH  18  19
ENDBRANCH  17  18
ENDBRANCH  16  17
ENDBRANCH  15  16
ENDBRANCH  13  14
ENDBRANCH  12  13
ENDBRANCH   1  11
TORSDOF 14
ENDMDL
MODEL 8
REMARK VINA RESULT:    -4.698      2.583      4.148
REMARK INTER + INTRA:         -10.269
REMARK INTER:                  -7.643
REMARK INTRA:                  -2.627
REMARK UNBOUND:                -1.727
REMARK SMILES CCCCCC=CCC=CCCCCCCCC(=O)[O-]
REMARK SMILES IDX 11 1 12 2 13 3 14 4 15 5 16 6 17 7 18 8 19 9 20 10 10 11
REMARK SMILES IDX 9 12 8 13 7 14 6 15 5 16 4 17 3 18 2 19 1 20
REMARK H PARENT
REMARK Flexibility Score: inf
ROOT
ATOM      1  C   UNL     1       8.456   4.512  21.733  1.00  0.00     0.027 C 
ENDROOT
BRANCH   1   2
ATOM      2  C   UNL     1       8.088   3.049  21.445  1.00  0.00     0.004 C 
BRANCH   2   3
ATOM      3  C   UNL     1       7.732   2.823  19.966  1.00  0.00     0.000 C 
BRANCH   3   4
ATOM      4  C   UNL     1       6.223   2.631  19.746  1.00  0.00     0.000 C 
BRANCH   4   5
ATOM      5  C   UNL     1       5.433   2.609  21.067  1.00  0.00     0.000 C 
BRANCH   5   6
ATOM      6  C   UNL     1       4.528   3.843  21.238  1.00  0.00     0.006 C 
BRANCH   6   7
ATOM      7  C   UNL     1       4.605   4.495  22.629  1.00  0.00     0.053 C 
BRANCH   7   8
ATOM      8  C   UNL     1       4.665   3.474  23.724  1.00  0.00     0.041 C 
ATOM      9  O   UNL     1       5.688   3.384  24.451  1.00  0.00    -0.550 OA
ATOM     10  O   UNL     1       3.575   2.648  23.966  1.00  0.00    -0.550 OA
ENDBRANCH   7   8
ENDBRANCH   6   7
ENDBRANCH   5   6
ENDBRANCH   4   5
ENDBRANCH   3   4
ENDBRANCH   2   3
ENDBRANCH   1   2
BRANCH   1  11
ATOM     11  C   UNL     1       7.936   5.453  20.679  1.00  0.00    -0.031 C 
ATOM     12  C   UNL     1       7.192   6.523  20.995  1.00  0.00    -0.027 C 
BRANCH  12  13
ATOM     13  C   UNL     1       6.658   7.451  19.942  1.00  0.00     0.054 C 
BRANCH  13  14
ATOM     14  C   UNL     1       6.223   6.680  18.728  1.00  0.00    -0.027 C 
ATOM     15  C   UNL     1       6.410   7.154  17.487  1.00  0.00    -0.031 C 
BRANCH  15  16
ATOM     16  C   UNL     1       5.980   6.376  16.274  1.00  0.00     0.027 C 
BRANCH  16  17
ATOM     17  C   UNL     1       6.908   5.180  16.027  1.00  0.00     0.004 C 
BRANCH  17  18
ATOM     18  C   UNL     1       8.380   5.593  16.147  1.00  0.00     0.000 C 
BRANCH  18  19
ATOM     19  C   UNL     1       9.165   4.589  16.999  1.00  0.00    -0.003 C 
ATOM     20  C   UNL     1      10.200   5.294  17.870  1.00  0.00     0.004 C 
ENDBRANCH  18  19
ENDBRANCH  17  18
ENDBRANCH  16  17
ENDBRANCH  15  16
ENDBRANCH  13  14
ENDBRANCH  12  13
ENDBRANCH   1  11
TORSDOF 14
ENDMDL
MODEL 9
REMARK VINA RESULT:    -4.637      2.199      4.082
REMARK INTER + INTRA:         -10.159
REMARK INTER:                  -7.392
REMARK INTRA:                  -2.767
REMARK UNBOUND:                -1.727
REMARK SMILES CCCCCC=CCC=CCCCCCCCC(=O)[O-]
REMARK SMILES IDX 11 1 12 2 13 3 14 4 15 5 16 6 17 7 18 8 19 9 20 10 10 11
REMARK SMILES IDX 9 12 8 13 7 14 6 15 5 16 4 17 3 18 2 19 1 20
REMARK H PARENT
REMARK Flexibility Score: inf
ROOT
ATOM      1  C   UNL     1       4.851   4.043  23.021  1.00  0.00     0.027 C 
ENDROOT
BRANCH   1   2
ATOM      2  C   UNL     1       4.401   3.413  21.695  1.00  0.00     0.004 C 
BRANCH   2   3
ATOM      3  C   UNL     1       5.522   2.593  21.034  1.00  0.00     0.000 C 
BRANCH   3   4
ATOM      4  C   UNL     1       5.876   3.105  19.629  1.00  0.00     0.000 C 
BRANCH   4   5
ATOM      5  C   UNL     1       7.395   3.180  19.394  1.00  0.00     0.000 C 
BRANCH   5   6
ATOM      6  C   UNL     1       8.135   3.921  20.523  1.00  0.00     0.006 C 
BRANCH   6   7
ATOM      7  C   UNL     1       9.262   3.107  21.180  1.00  0.00     0.053 C 
BRANCH   7   8
ATOM      8  C   UNL     1       9.152   3.100  22.674  1.00  0.00     0.041 C 
ATOM      9  O   UNL     1       8.124   2.635  23.232  1.00  0.00    -0.550 OA
ATOM     10  O   UNL     1      10.202   3.573  23.451  1.00  0.00    -0.550 OA
ENDBRANCH   7   8
ENDBRANCH   6   7
ENDBRANCH   5   6
ENDBRANCH   4   5
ENDBRANCH   3   4
ENDBRANCH   2   3
ENDBRANCH   1   2
BRANCH   1  11
ATOM     11  C   UNL     1       5.613   5.326  22.817  1.00  0.00    -0.031 C 
ATOM     12  C   UNL     1       5.353   6.142  21.786  1.00  0.00    -0.027 C 
BRANCH  12  13
ATOM     13  C   UNL     1       6.125   7.413  21.572  1.00  0.00     0.054 C 
BRANCH  13  14
ATOM     14  C   UNL     1       6.543   7.542  20.135  1.00  0.00    -0.027 C 
ATOM     15  C   UNL     1       6.128   6.674  19.200  1.00  0.00    -0.031 C 
BRANCH  15  16
ATOM     16  C   UNL     1       6.543   6.810  17.761  1.00  0.00     0.027 C 
BRANCH  16  17
ATOM     17  C   UNL     1       5.961   5.673  16.910  1.00  0.00     0.004 C 
BRANCH  17  18
ATOM     18  C   UNL     1       6.927   5.279  15.786  1.00  0.00     0.000 C 
BRANCH  18  19
ATOM     19  C   UNL     1       8.360   5.713  16.115  1.00  0.00    -0.003 C 
ATOM     20  C   UNL     1       9.226   4.514  16.489  1.00  0.00     0.004 C 
ENDBRANCH  18  19
ENDBRANCH  17  18
ENDBRANCH  16  17
ENDBRANCH  15  16
ENDBRANCH  13  14
ENDBRANCH  12  13
ENDBRANCH   1  11
TORSDOF 14
ENDMDL
