MODEL 1
REMARK VINA RESULT:    -4.339      0.000      0.000
REMARK INTER + INTRA:          -6.684
REMARK INTER:                  -6.368
REMARK INTRA:                  -0.316
REMARK UNBOUND:                -0.316
REMARK SMILES O=C([O-])CCCCCCCC(=O)[O-]
REMARK SMILES IDX 7 1 6 2 5 3 4 4 2 5 1 6 3 7 8 8 9 9 10 10 11 11 12 12 13 13
REMARK H PARENT
REMARK Flexibility Score: inf
ROOT
ATOM      1  C   UNL     1       4.352  -6.898 -21.723  1.00  0.00     0.000 C 
ENDROOT
BRANCH   1   2
ATOM      2  C   UNL     1       5.648  -7.311 -22.437  1.00  0.00     0.000 C 
BRANCH   2   3
ATOM      3  C   UNL     1       5.964  -8.792 -22.191  1.00  0.00     0.006 C 
BRANCH   3   4
ATOM      4  C   UNL     1       6.999  -9.307 -23.195  1.00  0.00     0.053 C 
BRANCH   4   5
ATOM      5  C   UNL     1       6.541 -10.595 -23.803  1.00  0.00     0.041 C 
ATOM      6  O   UNL     1       7.248 -11.173 -24.670  1.00  0.00    -0.550 OA
ATOM      7  O   UNL     1       5.309 -11.132 -23.450  1.00  0.00    -0.550 OA
ENDBRANCH   4   5
ENDBRANCH   3   4
ENDBRANCH   2   3
ENDBRANCH   1   2
BRANCH   1   8
ATOM      8  C   UNL     1       4.347  -7.283 -20.235  1.00  0.00     0.000 C 
BRANCH   8   9
ATOM      9  C   UNL     1       4.048  -6.086 -19.315  1.00  0.00     0.006 C 
BRANCH   9  10
ATOM     10  C   UNL     1       4.652  -4.780 -19.850  1.00  0.00     0.053 C 
BRANCH  10  11
ATOM     11  C   UNL     1       5.209  -3.932 -18.749  1.00  0.00     0.041 C 
ATOM     12  O   UNL     1       5.387  -4.419 -17.601  1.00  0.00    -0.550 OA
ATOM     13  O   UNL     1       5.506  -2.595 -18.982  1.00  0.00    -0.550 OA
ENDBRANCH  10  11
ENDBRANCH   9  10
ENDBRANCH   8   9
ENDBRANCH   1   8
TORSDOF 8
ENDMDL
MODEL 2
REMARK VINA RESULT:    -4.256      0.863      7.028
REMARK INTER + INTRA:          -6.562
REMARK INTER:                  -6.241
REMARK INTRA:                  -0.321
REMARK UNBOUND:                -0.316
REMARK SMILES O=C([O-])CCCCCCCC(=O)[O-]
REMARK SMILES IDX 7 1 6 2 5 3 4 4 2 5 1 6 3 7 8 8 9 9 10 10 11 11 12 12 13 13
REMARK H PARENT
REMARK Flexibility Score: inf
ROOT
ATOM      1  C   UNL     1       5.164  -6.021 -21.339  1.00  0.00     0.000 C 
ENDROOT
BRANCH   1   2
ATOM      2  C   UNL     1       4.407  -6.775 -20.235  1.00  0.00     0.000 C 
BRANCH   2   3
ATOM      3  C   UNL     1       3.308  -5.898 -19.625  1.00  0.00     0.006 C 
BRANCH   3   4
ATOM      4  C   UNL     1       3.704  -5.413 -18.227  1.00  0.00     0.053 C 
BRANCH   4   5
ATOM      5  C   UNL     1       4.505  -4.152 -18.318  1.00  0.00     0.041 C 
ATOM      6  O   UNL     1       5.547  -4.013 -17.626  1.00  0.00    -0.550 OA
ATOM      7  O   UNL     1       4.072  -3.111 -19.130  1.00  0.00    -0.550 OA
ENDBRANCH   4   5
ENDBRANCH   3   4
ENDBRANCH   2   3
ENDBRANCH   1   2
BRANCH   1   8
ATOM      8  C   UNL     1       5.512  -6.916 -22.538  1.00  0.00     0.000 C 
BRANCH   8   9
ATOM      9  C   UNL     1       5.595  -8.406 -22.160  1.00  0.00     0.006 C 
BRANCH   9  10
ATOM     10  C   UNL     1       6.762  -9.116 -22.860  1.00  0.00     0.053 C 
BRANCH  10  11
ATOM     11  C   UNL     1       6.339 -10.419 -23.466  1.00  0.00     0.041 C 
ATOM     12  O   UNL     1       5.305 -11.005 -23.050  1.00  0.00    -0.550 OA
ATOM     13  O   UNL     1       7.102 -11.000 -24.471  1.00  0.00    -0.550 OA
ENDBRANCH  10  11
ENDBRANCH   9  10
ENDBRANCH   8   9
ENDBRANCH   1   8
TORSDOF 8
ENDMDL
MODEL 3
REMARK VINA RESULT:    -4.238      1.166      1.758
REMARK INTER + INTRA:          -6.535
REMARK INTER:                  -6.193
REMARK INTRA:                  -0.342
REMARK UNBOUND:                -0.316
REMARK SMILES O=C([O-])CCCCCCCC(=O)[O-]
REMARK SMILES IDX 7 1 6 2 5 3 4 4 2 5 1 6 3 7 8 8 9 9 10 10 11 11 12 12 13 13
REMARK H PARENT
REMARK Flexibility Score: inf
ROOT
ATOM      1  C   UNL     1       4.550  -7.247 -21.741  1.00  0.00     0.000 C 
ENDROOT
BRANCH   1   2
ATOM      2  C   UNL     1       5.890  -7.520 -22.440  1.00  0.00     0.000 C 
BRANCH   2   3
ATOM      3  C   UNL     1       6.199  -9.021 -22.468  1.00  0.00     0.006 C 
BRANCH   3   4
ATOM      4  C   UNL     1       4.919  -9.849 -22.317  1.00  0.00     0.053 C 
BRANCH   4   5
ATOM      5  C   UNL     1       5.125 -11.232 -22.849  1.00  0.00     0.041 C 
ATOM      6  O   UNL     1       4.625 -12.221 -22.252  1.00  0.00    -0.550 OA
ATOM      7  O   UNL     1       5.912 -11.434 -23.976  1.00  0.00    -0.550 OA
ENDBRANCH   4   5
ENDBRANCH   3   4
ENDBRANCH   2   3
ENDBRANCH   1   2
BRANCH   1   8
ATOM      8  C   UNL     1       4.610  -6.039 -20.793  1.00  0.00     0.000 C 
BRANCH   8   9
ATOM      9  C   UNL     1       4.354  -6.425 -19.325  1.00  0.00     0.006 C 
BRANCH   9  10
ATOM     10  C   UNL     1       3.489  -5.387 -18.596  1.00  0.00     0.053 C 
BRANCH  10  11
ATOM     11  C   UNL     1       4.220  -4.096 -18.393  1.00  0.00     0.041 C 
ATOM     12  O   UNL     1       3.723  -3.015 -18.805  1.00  0.00    -0.550 OA
ATOM     13  O   UNL     1       5.463  -4.090 -17.772  1.00  0.00    -0.550 OA
ENDBRANCH  10  11
ENDBRANCH   9  10
ENDBRANCH   8   9
ENDBRANCH   1   8
TORSDOF 8
ENDMDL
MODEL 4
REMARK VINA RESULT:    -4.209      1.704      2.566
REMARK INTER + INTRA:          -6.493
REMARK INTER:                  -6.144
REMARK INTRA:                  -0.349
REMARK UNBOUND:                -0.316
REMARK SMILES O=C([O-])CCCCCCCC(=O)[O-]
REMARK SMILES IDX 7 1 6 2 5 3 4 4 2 5 1 6 3 7 8 8 9 9 10 10 11 11 12 12 13 13
REMARK H PARENT
REMARK Flexibility Score: inf
ROOT
ATOM      1  C   UNL     1       5.592  -8.256 -22.059  1.00  0.00     0.000 C 
ENDROOT
BRANCH   1   2
ATOM      2  C   UNL     1       6.630  -9.043 -22.874  1.00  0.00     0.000 C 
BRANCH   2   3
ATOM      3  C   UNL     1       6.087 -10.421 -23.269  1.00  0.00     0.006 C 
BRANCH   3   4
ATOM      4  C   UNL     1       4.773 -10.724 -22.543  1.00  0.00     0.053 C 
BRANCH   4   5
ATOM      5  C   UNL     1       4.405 -12.165 -22.705  1.00  0.00     0.041 C 
ATOM      6  O   UNL     1       3.391 -12.488 -23.377  1.00  0.00    -0.550 OA
ATOM      7  O   UNL     1       5.155 -13.149 -22.073  1.00  0.00    -0.550 OA
ENDBRANCH   4   5
ENDBRANCH   3   4
ENDBRANCH   2   3
ENDBRANCH   1   2
BRANCH   1   8
ATOM      8  C   UNL     1       5.530  -6.772 -22.453  1.00  0.00     0.000 C 
BRANCH   8   9
ATOM      9  C   UNL     1       4.796  -5.912 -21.408  1.00  0.00     0.006 C 
BRANCH   9  10
ATOM     10  C   UNL     1       4.398  -6.724 -20.168  1.00  0.00     0.053 C 
BRANCH  10  11
ATOM     11  C   UNL     1       4.105  -5.840 -18.994  1.00  0.00     0.041 C 
ATOM     12  O   UNL     1       3.048  -6.000 -18.329  1.00  0.00    -0.550 OA
ATOM     13  O   UNL     1       4.987  -4.823 -18.652  1.00  0.00    -0.550 OA
ENDBRANCH  10  11
ENDBRANCH   9  10
ENDBRANCH   8   9
ENDBRANCH   1   8
TORSDOF 8
ENDMDL
MODEL 5
REMARK VINA RESULT:    -4.202      1.890      7.005
REMARK INTER + INTRA:          -6.483
REMARK INTER:                  -6.092
REMARK INTRA:                  -0.392
REMARK UNBOUND:                -0.316
REMARK SMILES O=C([O-])CCCCCCCC(=O)[O-]
REMARK SMILES IDX 7 1 6 2 5 3 4 4 2 5 1 6 3 7 8 8 9 9 10 10 11 11 12 12 13 13
REMARK H PARENT
REMARK Flexibility Score: inf
ROOT
ATOM      1  C   UNL     1       5.874  -8.908 -22.131  1.00  0.00     0.000 C 
ENDROOT
BRANCH   1   2
ATOM      2  C   UNL     1       5.851  -7.391 -22.371  1.00  0.00     0.000 C 
BRANCH   2   3
ATOM      3  C   UNL     1       4.554  -6.770 -21.840  1.00  0.00     0.006 C 
BRANCH   3   4
ATOM      4  C   UNL     1       4.266  -7.237 -20.410  1.00  0.00     0.053 C 
BRANCH   4   5
ATOM      5  C   UNL     1       4.113  -6.062 -19.496  1.00  0.00     0.041 C 
ATOM      6  O   UNL     1       4.799  -5.022 -19.681  1.00  0.00    -0.550 OA
ATOM      7  O   UNL     1       3.250  -6.133 -18.410  1.00  0.00    -0.550 OA
ENDBRANCH   4   5
ENDBRANCH   3   4
ENDBRANCH   2   3
ENDBRANCH   1   2
BRANCH   1   8
ATOM      8  C   UNL     1       6.606  -9.673 -23.244  1.00  0.00     0.000 C 
BRANCH   8   9
ATOM      9  C   UNL     1       5.997 -11.062 -23.507  1.00  0.00     0.006 C 
BRANCH   9  10
ATOM     10  C   UNL     1       4.558 -11.171 -22.986  1.00  0.00     0.053 C 
BRANCH  10  11
ATOM     11  C   UNL     1       4.223 -12.567 -22.560  1.00  0.00     0.041 C 
ATOM     12  O   UNL     1       3.095 -13.058 -22.830  1.00  0.00    -0.550 OA
ATOM     13  O   UNL     1       5.146 -13.317 -21.842  1.00  0.00    -0.550 OA
ENDBRANCH  10  11
ENDBRANCH   9  10
ENDBRANCH   8   9
ENDBRANCH   1   8
TORSDOF 8
ENDMDL
MODEL 6
REMARK VINA RESULT:    -4.129      3.541      4.371
REMARK INTER + INTRA:          -6.377
REMARK INTER:                  -5.770
REMARK INTRA:                  -0.607
REMARK UNBOUND:                -0.316
REMARK SMILES O=C([O-])CCCCCCCC(=O)[O-]
REMARK SMILES IDX 7 1 6 2 5 3 4 4 2 5 1 6 3 7 8 8 9 9 10 10 11 11 12 12 13 13
REMARK H PARENT
REMARK Flexibility Score: inf
ROOT
ATOM      1  C   UNL     1       6.344  -9.299 -22.387  1.00  0.00     0.000 C 
ENDROOT
BRANCH   1   2
ATOM      2  C   UNL     1       6.864  -9.933 -23.686  1.00  0.00     0.000 C 
BRANCH   2   3
ATOM      3  C   UNL     1       6.238 -11.314 -23.912  1.00  0.00     0.006 C 
BRANCH   3   4
ATOM      4  C   UNL     1       4.891 -11.431 -23.193  1.00  0.00     0.053 C 
BRANCH   4   5
ATOM      5  C   UNL     1       4.821 -12.709 -22.417  1.00  0.00     0.041 C 
ATOM      6  O   UNL     1       5.816 -13.478 -22.373  1.00  0.00    -0.550 OA
ATOM      7  O   UNL     1       3.639 -13.073 -21.783  1.00  0.00    -0.550 OA
ENDBRANCH   4   5
ENDBRANCH   3   4
ENDBRANCH   2   3
ENDBRANCH   1   2
BRANCH   1   8
ATOM      8  C   UNL     1       6.007  -7.808 -22.547  1.00  0.00     0.000 C 
BRANCH   8   9
ATOM      9  C   UNL     1       4.703  -7.416 -21.831  1.00  0.00     0.006 C 
BRANCH   9  10
ATOM     10  C   UNL     1       4.388  -8.345 -20.651  1.00  0.00     0.053 C 
BRANCH  10  11
ATOM     11  C   UNL     1       3.130  -9.126 -20.877  1.00  0.00     0.041 C 
ATOM     12  O   UNL     1       2.258  -8.704 -21.681  1.00  0.00    -0.550 OA
ATOM     13  O   UNL     1       2.908 -10.306 -20.177  1.00  0.00    -0.550 OA
ENDBRANCH  10  11
ENDBRANCH   9  10
ENDBRANCH   8   9
ENDBRANCH   1   8
TORSDOF 8
ENDMDL
MODEL 7
REMARK VINA RESULT:    -4.076      1.329      7.292
REMARK INTER + INTRA:          -6.298
REMARK INTER:                  -6.049
REMARK INTRA:                  -0.249
REMARK UNBOUND:                -0.316
REMARK SMILES O=C([O-])CCCCCCCC(=O)[O-]
REMARK SMILES IDX 7 1 6 2 5 3 4 4 2 5 1 6 3 7 8 8 9 9 10 10 11 11 12 12 13 13
REMARK H PARENT
REMARK Flexibility Score: inf
ROOT
ATOM      1  C   UNL     1       5.164  -6.754 -21.771  1.00  0.00     0.000 C 
ENDROOT
BRANCH   1   2
ATOM      2  C   UNL     1       4.786  -5.701 -20.718  1.00  0.00     0.000 C 
BRANCH   2   3
ATOM      3  C   UNL     1       4.336  -6.368 -19.412  1.00  0.00     0.006 C 
BRANCH   3   4
ATOM      4  C   UNL     1       3.565  -5.382 -18.529  1.00  0.00     0.053 C 
BRANCH   4   5
ATOM      5  C   UNL     1       4.343  -4.115 -18.357  1.00  0.00     0.041 C 
ATOM      6  O   UNL     1       3.912  -3.037 -18.843  1.00  0.00    -0.550 OA
ATOM      7  O   UNL     1       5.569  -4.135 -17.703  1.00  0.00    -0.550 OA
ENDBRANCH   4   5
ENDBRANCH   3   4
ENDBRANCH   2   3
ENDBRANCH   1   2
BRANCH   1   8
ATOM      8  C   UNL     1       4.829  -8.186 -21.325  1.00  0.00     0.000 C 
BRANCH   8   9
ATOM      9  C   UNL     1       5.492  -9.253 -22.214  1.00  0.00     0.006 C 
BRANCH   9  10
ATOM     10  C   UNL     1       4.530 -10.397 -22.560  1.00  0.00     0.053 C 
BRANCH  10  11
ATOM     11  C   UNL     1       5.255 -11.595 -23.091  1.00  0.00     0.041 C 
ATOM     12  O   UNL     1       6.011 -11.485 -24.092  1.00  0.00    -0.550 OA
ATOM     13  O   UNL     1       5.075 -12.838 -22.499  1.00  0.00    -0.550 OA
ENDBRANCH  10  11
ENDBRANCH   9  10
ENDBRANCH   8   9
ENDBRANCH   1   8
TORSDOF 8
ENDMDL
MODEL 8
REMARK VINA RESULT:    -4.019      1.983      6.531
REMARK INTER + INTRA:          -6.215
REMARK INTER:                  -5.707
REMARK INTRA:                  -0.508
REMARK UNBOUND:                -0.316
REMARK SMILES O=C([O-])CCCCCCCC(=O)[O-]
REMARK SMILES IDX 7 1 6 2 5 3 4 4 2 5 1 6 3 7 8 8 9 9 10 10 11 11 12 12 13 13
REMARK H PARENT
REMARK Flexibility Score: inf
ROOT
ATOM      1  C   UNL     1       4.961  -6.865 -22.132  1.00  0.00     0.000 C 
ENDROOT
BRANCH   1   2
ATOM      2  C   UNL     1       5.467  -5.497 -21.651  1.00  0.00     0.000 C 
BRANCH   2   3
ATOM      3  C   UNL     1       4.952  -5.185 -20.241  1.00  0.00     0.006 C 
BRANCH   3   4
ATOM      4  C   UNL     1       4.330  -6.427 -19.596  1.00  0.00     0.053 C 
BRANCH   4   5
ATOM      5  C   UNL     1       2.949  -6.126 -19.107  1.00  0.00     0.041 C 
ATOM      6  O   UNL     1       1.948  -6.435 -19.805  1.00  0.00    -0.550 OA
ATOM      7  O   UNL     1       2.768  -5.459 -17.901  1.00  0.00    -0.550 OA
ENDBRANCH   4   5
ENDBRANCH   3   4
ENDBRANCH   2   3
ENDBRANCH   1   2
BRANCH   1   8
ATOM      8  C   UNL     1       6.084  -7.747 -22.701  1.00  0.00     0.000 C 
BRANCH   8   9
ATOM      9  C   UNL     1       5.983  -9.209 -22.232  1.00  0.00     0.006 C 
BRANCH   9  10
ATOM     10  C   UNL     1       4.527  -9.670 -22.085  1.00  0.00     0.053 C 
BRANCH  10  11
ATOM     11  C   UNL     1       4.351 -11.102 -22.490  1.00  0.00     0.041 C 
ATOM     12  O   UNL     1       3.675 -11.885 -21.772  1.00  0.00    -0.550 OA
ATOM     13  O   UNL     1       4.958 -11.578 -23.645  1.00  0.00    -0.550 OA
ENDBRANCH  10  11
ENDBRANCH   9  10
ENDBRANCH   8   9
ENDBRANCH   1   8
TORSDOF 8
ENDMDL
MODEL 9
REMARK VINA RESULT:    -3.912      3.231      4.758
REMARK INTER + INTRA:          -6.058
REMARK INTER:                  -5.708
REMARK INTRA:                  -0.350
REMARK UNBOUND:                -0.316
REMARK SMILES O=C([O-])CCCCCCCC(=O)[O-]
REMARK SMILES IDX 7 1 6 2 5 3 4 4 2 5 1 6 3 7 8 8 9 9 10 10 11 11 12 12 13 13
REMARK H PARENT
REMARK Flexibility Score: inf
ROOT
ATOM      1  C   UNL     1       6.401 -10.696 -23.636  1.00  0.00     0.000 C 
ENDROOT
BRANCH   1   2
ATOM      2  C   UNL     1       5.100 -11.018 -22.885  1.00  0.00     0.000 C 
BRANCH   2   3
ATOM      3  C   UNL     1       4.633 -12.447 -23.184  1.00  0.00     0.006 C 
BRANCH   3   4
ATOM      4  C   UNL     1       4.921 -13.379 -22.004  1.00  0.00     0.053 C 
BRANCH   4   5
ATOM      5  C   UNL     1       3.818 -14.376 -21.842  1.00  0.00     0.041 C 
ATOM      6  O   UNL     1       2.626 -13.989 -21.723  1.00  0.00    -0.550 OA
ATOM      7  O   UNL     1       4.111 -15.733 -21.773  1.00  0.00    -0.550 OA
ENDBRANCH   4   5
ENDBRANCH   3   4
ENDBRANCH   2   3
ENDBRANCH   1   2
BRANCH   1   8
ATOM      8  C   UNL     1       6.944  -9.296 -23.309  1.00  0.00     0.000 C 
BRANCH   8   9
ATOM      9  C   UNL     1       6.179  -8.618 -22.158  1.00  0.00     0.006 C 
BRANCH   9  10
ATOM     10  C   UNL     1       5.736  -7.194 -22.518  1.00  0.00     0.053 C 
BRANCH  10  11
ATOM     11  C   UNL     1       4.420  -6.845 -21.893  1.00  0.00     0.041 C 
ATOM     12  O   UNL     1       3.972  -5.671 -21.974  1.00  0.00    -0.550 OA
ATOM     13  O   UNL     1       3.701  -7.810 -21.199  1.00  0.00    -0.550 OA
ENDBRANCH  10  11
ENDBRANCH   9  10
ENDBRANCH   8   9
ENDBRANCH   1   8
TORSDOF 8
ENDMDL
