MODEL 1
REMARK VINA RESULT:    -4.241      0.000      0.000
REMARK INTER + INTRA:          -9.353
REMARK INTER:                  -7.711
REMARK INTRA:                  -1.642
REMARK UNBOUND:                -1.642
REMARK SMILES CCCCCCCCCCCCCCCC(=O)[O-]
REMARK SMILES IDX 9 1 10 2 11 3 12 4 13 5 14 6 15 7 16 8 17 9 18 10 8 11 7 12
REMARK SMILES IDX 6 13 5 14 4 15 3 16 2 17 1 18
REMARK H PARENT
REMARK Flexibility Score: inf
ROOT
ATOM      1  C   UNL     1     -14.318  -7.036 -30.553  1.00  0.00     0.000 C 
ENDROOT
BRANCH   1   2
ATOM      2  C   UNL     1     -15.721  -6.499 -30.872  1.00  0.00     0.000 C 
BRANCH   2   3
ATOM      3  C   UNL     1     -15.683  -5.216 -31.721  1.00  0.00     0.000 C 
BRANCH   3   4
ATOM      4  C   UNL     1     -14.281  -4.905 -32.273  1.00  0.00     0.000 C 
BRANCH   4   5
ATOM      5  C   UNL     1     -14.213  -3.703 -33.233  1.00  0.00     0.000 C 
BRANCH   5   6
ATOM      6  C   UNL     1     -15.575  -3.025 -33.442  1.00  0.00     0.006 C 
BRANCH   6   7
ATOM      7  C   UNL     1     -15.402  -1.585 -33.929  1.00  0.00     0.053 C 
BRANCH   7   8
ATOM      8  C   UNL     1     -15.334  -0.643 -32.769  1.00  0.00     0.041 C 
ATOM      9  O   UNL     1     -15.697  -1.022 -31.624  1.00  0.00    -0.550 OA
ATOM     10  O   UNL     1     -14.821   0.636 -32.941  1.00  0.00    -0.550 OA
ENDBRANCH   7   8
ENDBRANCH   6   7
ENDBRANCH   5   6
ENDBRANCH   4   5
ENDBRANCH   3   4
ENDBRANCH   2   3
ENDBRANCH   1   2
BRANCH   1  11
ATOM     11  C   UNL     1     -14.325  -8.537 -30.213  1.00  0.00     0.000 C 
BRANCH  11  12
ATOM     12  C   UNL     1     -13.153  -8.943 -29.306  1.00  0.00    -0.000 C 
BRANCH  12  13
ATOM     13  C   UNL     1     -12.542  -7.748 -28.560  1.00  0.00    -0.000 C 
BRANCH  13  14
ATOM     14  C   UNL     1     -11.008  -7.817 -28.575  1.00  0.00    -0.000 C 
BRANCH  14  15
ATOM     15  C   UNL     1     -10.353  -6.493 -29.007  1.00  0.00    -0.000 C 
BRANCH  15  16
ATOM     16  C   UNL     1     -10.931  -5.864 -30.291  1.00  0.00    -0.000 C 
BRANCH  16  17
ATOM     17  C   UNL     1     -11.366  -4.395 -30.155  1.00  0.00    -0.003 C 
ATOM     18  C   UNL     1     -12.448  -4.189 -29.096  1.00  0.00     0.004 C 
ENDBRANCH  16  17
ENDBRANCH  15  16
ENDBRANCH  14  15
ENDBRANCH  13  14
ENDBRANCH  12  13
ENDBRANCH  11  12
ENDBRANCH   1  11
TORSDOF 14
ENDMDL
MODEL 2
REMARK VINA RESULT:    -4.240      3.219      6.629
REMARK INTER + INTRA:          -9.351
REMARK INTER:                  -7.467
REMARK INTRA:                  -1.885
REMARK UNBOUND:                -1.642
REMARK SMILES CCCCCCCCCCCCCCCC(=O)[O-]
REMARK SMILES IDX 9 1 10 2 11 3 12 4 13 5 14 6 15 7 16 8 17 9 18 10 8 11 7 12
REMARK SMILES IDX 6 13 5 14 4 15 3 16 2 17 1 18
REMARK H PARENT
REMARK Flexibility Score: inf
ROOT
ATOM      1  C   UNL     1     -15.783  -4.064 -32.858  1.00  0.00     0.000 C 
ENDROOT
BRANCH   1   2
ATOM      2  C   UNL     1     -16.003  -3.793 -31.362  1.00  0.00     0.000 C 
BRANCH   2   3
ATOM      3  C   UNL     1     -15.906  -5.071 -30.511  1.00  0.00     0.000 C 
BRANCH   3   4
ATOM      4  C   UNL     1     -15.602  -6.326 -31.349  1.00  0.00     0.000 C 
BRANCH   4   5
ATOM      5  C   UNL     1     -14.846  -7.439 -30.600  1.00  0.00     0.000 C 
BRANCH   5   6
ATOM      6  C   UNL     1     -13.570  -6.936 -29.908  1.00  0.00     0.006 C 
BRANCH   6   7
ATOM      7  C   UNL     1     -12.882  -8.066 -29.138  1.00  0.00     0.053 C 
BRANCH   7   8
ATOM      8  C   UNL     1     -11.835  -7.515 -28.222  1.00  0.00     0.041 C 
ATOM      9  O   UNL     1     -12.156  -6.718 -27.301  1.00  0.00    -0.550 OA
ATOM     10  O   UNL     1     -10.514  -7.920 -28.354  1.00  0.00    -0.550 OA
ENDBRANCH   7   8
ENDBRANCH   6   7
ENDBRANCH   5   6
ENDBRANCH   4   5
ENDBRANCH   3   4
ENDBRANCH   2   3
ENDBRANCH   1   2
BRANCH   1  11
ATOM     11  C   UNL     1     -14.828  -3.045 -33.506  1.00  0.00     0.000 C 
BRANCH  11  12
ATOM     12  C   UNL     1     -15.520  -1.713 -33.836  1.00  0.00    -0.000 C 
BRANCH  12  13
ATOM     13  C   UNL     1     -14.882  -0.520 -33.109  1.00  0.00    -0.000 C 
BRANCH  13  14
ATOM     14  C   UNL     1     -15.532  -0.304 -31.734  1.00  0.00    -0.000 C 
BRANCH  14  15
ATOM     15  C   UNL     1     -14.542  -0.486 -30.569  1.00  0.00    -0.000 C 
BRANCH  15  16
ATOM     16  C   UNL     1     -13.179  -1.095 -30.956  1.00  0.00    -0.000 C 
BRANCH  16  17
ATOM     17  C   UNL     1     -12.785  -2.357 -30.169  1.00  0.00    -0.003 C 
ATOM     18  C   UNL     1     -12.309  -3.496 -31.069  1.00  0.00     0.004 C 
ENDBRANCH  16  17
ENDBRANCH  15  16
ENDBRANCH  14  15
ENDBRANCH  13  14
ENDBRANCH  12  13
ENDBRANCH  11  12
ENDBRANCH   1  11
TORSDOF 14
ENDMDL
MODEL 3
REMARK VINA RESULT:    -4.139      1.219      1.730
REMARK INTER + INTRA:          -9.169
REMARK INTER:                  -7.746
REMARK INTRA:                  -1.422
REMARK UNBOUND:                -1.642
REMARK SMILES CCCCCCCCCCCCCCCC(=O)[O-]
REMARK SMILES IDX 9 1 10 2 11 3 12 4 13 5 14 6 15 7 16 8 17 9 18 10 8 11 7 12
REMARK SMILES IDX 6 13 5 14 4 15 3 16 2 17 1 18
REMARK H PARENT
REMARK Flexibility Score: inf
ROOT
ATOM      1  C   UNL     1     -13.706  -7.545 -29.891  1.00  0.00     0.000 C 
ENDROOT
BRANCH   1   2
ATOM      2  C   UNL     1     -15.013  -7.595 -30.697  1.00  0.00     0.000 C 
BRANCH   2   3
ATOM      3  C   UNL     1     -15.415  -6.218 -31.253  1.00  0.00     0.000 C 
BRANCH   3   4
ATOM      4  C   UNL     1     -14.338  -5.143 -31.026  1.00  0.00     0.000 C 
BRANCH   4   5
ATOM      5  C   UNL     1     -13.794  -4.488 -32.309  1.00  0.00     0.000 C 
BRANCH   5   6
ATOM      6  C   UNL     1     -14.898  -3.874 -33.183  1.00  0.00     0.006 C 
BRANCH   6   7
ATOM      7  C   UNL     1     -15.459  -2.602 -32.542  1.00  0.00     0.053 C 
BRANCH   7   8
ATOM      8  C   UNL     1     -15.190  -1.414 -33.412  1.00  0.00     0.041 C 
ATOM      9  O   UNL     1     -14.980  -0.285 -32.893  1.00  0.00    -0.550 OA
ATOM     10  O   UNL     1     -15.122  -1.563 -34.790  1.00  0.00    -0.550 OA
ENDBRANCH   7   8
ENDBRANCH   6   7
ENDBRANCH   5   6
ENDBRANCH   4   5
ENDBRANCH   3   4
ENDBRANCH   2   3
ENDBRANCH   1   2
BRANCH   1  11
ATOM     11  C   UNL     1     -13.248  -8.939 -29.424  1.00  0.00     0.000 C 
BRANCH  11  12
ATOM     12  C   UNL     1     -12.534  -8.902 -28.064  1.00  0.00    -0.000 C 
BRANCH  12  13
ATOM     13  C   UNL     1     -11.168  -8.203 -28.133  1.00  0.00    -0.000 C 
BRANCH  13  14
ATOM     14  C   UNL     1     -11.206  -6.850 -27.408  1.00  0.00    -0.000 C 
BRANCH  14  15
ATOM     15  C   UNL     1     -10.341  -5.778 -28.095  1.00  0.00    -0.000 C 
BRANCH  15  16
ATOM     16  C   UNL     1     -10.982  -5.110 -29.328  1.00  0.00    -0.000 C 
BRANCH  16  17
ATOM     17  C   UNL     1     -10.558  -5.705 -30.682  1.00  0.00    -0.003 C 
ATOM     18  C   UNL     1      -9.122  -5.351 -31.065  1.00  0.00     0.004 C 
ENDBRANCH  16  17
ENDBRANCH  15  16
ENDBRANCH  14  15
ENDBRANCH  13  14
ENDBRANCH  12  13
ENDBRANCH  11  12
ENDBRANCH   1  11
TORSDOF 14
ENDMDL
MODEL 4
REMARK VINA RESULT:    -4.107      2.001      4.475
REMARK INTER + INTRA:          -9.111
REMARK INTER:                  -7.334
REMARK INTRA:                  -1.776
REMARK UNBOUND:                -1.642
REMARK SMILES CCCCCCCCCCCCCCCC(=O)[O-]
REMARK SMILES IDX 9 1 10 2 11 3 12 4 13 5 14 6 15 7 16 8 17 9 18 10 8 11 7 12
REMARK SMILES IDX 6 13 5 14 4 15 3 16 2 17 1 18
REMARK H PARENT
REMARK Flexibility Score: inf
ROOT
ATOM      1  C   UNL     1     -14.578  -3.888 -33.053  1.00  0.00     0.000 C 
ENDROOT
BRANCH   1   2
ATOM      2  C   UNL     1     -14.596  -2.608 -33.903  1.00  0.00     0.000 C 
BRANCH   2   3
ATOM      3  C   UNL     1     -15.676  -1.612 -33.445  1.00  0.00     0.000 C 
BRANCH   3   4
ATOM      4  C   UNL     1     -15.109  -0.469 -32.584  1.00  0.00     0.000 C 
BRANCH   4   5
ATOM      5  C   UNL     1     -15.417  -0.576 -31.079  1.00  0.00     0.000 C 
BRANCH   5   6
ATOM      6  C   UNL     1     -14.151  -0.615 -30.210  1.00  0.00     0.006 C 
BRANCH   6   7
ATOM      7  C   UNL     1     -13.949  -2.004 -29.599  1.00  0.00     0.053 C 
BRANCH   7   8
ATOM      8  C   UNL     1     -12.625  -2.570 -30.007  1.00  0.00     0.041 C 
ATOM      9  O   UNL     1     -12.109  -2.241 -31.107  1.00  0.00    -0.550 OA
ATOM     10  O   UNL     1     -11.940  -3.421 -29.150  1.00  0.00    -0.550 OA
ENDBRANCH   7   8
ENDBRANCH   6   7
ENDBRANCH   5   6
ENDBRANCH   4   5
ENDBRANCH   3   4
ENDBRANCH   2   3
ENDBRANCH   1   2
BRANCH   1  11
ATOM     11  C   UNL     1     -15.863  -4.062 -32.224  1.00  0.00     0.000 C 
BRANCH  11  12
ATOM     12  C   UNL     1     -15.656  -4.960 -30.994  1.00  0.00    -0.000 C 
BRANCH  12  13
ATOM     13  C   UNL     1     -15.773  -6.454 -31.327  1.00  0.00    -0.000 C 
BRANCH  13  14
ATOM     14  C   UNL     1     -14.702  -7.268 -30.587  1.00  0.00    -0.000 C 
BRANCH  14  15
ATOM     15  C   UNL     1     -13.570  -6.393 -30.019  1.00  0.00    -0.000 C 
BRANCH  15  16
ATOM     16  C   UNL     1     -12.561  -7.131 -29.117  1.00  0.00    -0.000 C 
BRANCH  16  17
ATOM     17  C   UNL     1     -12.806  -8.643 -28.971  1.00  0.00    -0.003 C 
ATOM     18  C   UNL     1     -12.714  -9.125 -27.524  1.00  0.00     0.004 C 
ENDBRANCH  16  17
ENDBRANCH  15  16
ENDBRANCH  14  15
ENDBRANCH  13  14
ENDBRANCH  12  13
ENDBRANCH  11  12
ENDBRANCH   1  11
TORSDOF 14
ENDMDL
MODEL 5
REMARK VINA RESULT:    -4.096      2.141      3.830
REMARK INTER + INTRA:          -9.090
REMARK INTER:                  -7.705
REMARK INTRA:                  -1.386
REMARK UNBOUND:                -1.642
REMARK SMILES CCCCCCCCCCCCCCCC(=O)[O-]
REMARK SMILES IDX 9 1 10 2 11 3 12 4 13 5 14 6 15 7 16 8 17 9 18 10 8 11 7 12
REMARK SMILES IDX 6 13 5 14 4 15 3 16 2 17 1 18
REMARK H PARENT
REMARK Flexibility Score: inf
ROOT
ATOM      1  C   UNL     1     -12.094  -8.429 -27.670  1.00  0.00     0.000 C 
ENDROOT
BRANCH   1   2
ATOM      2  C   UNL     1     -12.261  -6.988 -28.176  1.00  0.00     0.000 C 
BRANCH   2   3
ATOM      3  C   UNL     1     -12.778  -6.927 -29.623  1.00  0.00     0.000 C 
BRANCH   3   4
ATOM      4  C   UNL     1     -13.834  -8.003 -29.928  1.00  0.00     0.000 C 
BRANCH   4   5
ATOM      5  C   UNL     1     -15.122  -7.480 -30.591  1.00  0.00     0.000 C 
BRANCH   5   6
ATOM      6  C   UNL     1     -15.212  -5.947 -30.598  1.00  0.00     0.006 C 
BRANCH   6   7
ATOM      7  C   UNL     1     -16.093  -5.455 -31.749  1.00  0.00     0.053 C 
BRANCH   7   8
ATOM      8  C   UNL     1     -15.361  -4.445 -32.576  1.00  0.00     0.041 C 
ATOM      9  O   UNL     1     -15.999  -3.555 -33.198  1.00  0.00    -0.550 OA
ATOM     10  O   UNL     1     -13.973  -4.457 -32.619  1.00  0.00    -0.550 OA
ENDBRANCH   7   8
ENDBRANCH   6   7
ENDBRANCH   5   6
ENDBRANCH   4   5
ENDBRANCH   3   4
ENDBRANCH   2   3
ENDBRANCH   1   2
BRANCH   1  11
ATOM     11  C   UNL     1     -10.858  -9.123 -28.269  1.00  0.00     0.000 C 
BRANCH  11  12
ATOM     12  C   UNL     1      -9.582  -8.277 -28.135  1.00  0.00    -0.000 C 
BRANCH  12  13
ATOM     13  C   UNL     1      -8.918  -7.991 -29.490  1.00  0.00    -0.000 C 
BRANCH  13  14
ATOM     14  C   UNL     1      -8.757  -6.480 -29.714  1.00  0.00    -0.000 C 
BRANCH  14  15
ATOM     15  C   UNL     1      -9.422  -5.992 -31.014  1.00  0.00    -0.000 C 
BRANCH  15  16
ATOM     16  C   UNL     1      -9.870  -4.517 -31.007  1.00  0.00    -0.000 C 
BRANCH  16  17
ATOM     17  C   UNL     1      -8.868  -3.537 -30.371  1.00  0.00    -0.003 C 
ATOM     18  C   UNL     1      -8.901  -2.151 -31.012  1.00  0.00     0.004 C 
ENDBRANCH  16  17
ENDBRANCH  15  16
ENDBRANCH  14  15
ENDBRANCH  13  14
ENDBRANCH  12  13
ENDBRANCH  11  12
ENDBRANCH   1  11
TORSDOF 14
ENDMDL
MODEL 6
REMARK VINA RESULT:    -4.093      2.820      5.374
REMARK INTER + INTRA:          -9.085
REMARK INTER:                  -7.278
REMARK INTRA:                  -1.807
REMARK UNBOUND:                -1.642
REMARK SMILES CCCCCCCCCCCCCCCC(=O)[O-]
REMARK SMILES IDX 9 1 10 2 11 3 12 4 13 5 14 6 15 7 16 8 17 9 18 10 8 11 7 12
REMARK SMILES IDX 6 13 5 14 4 15 3 16 2 17 1 18
REMARK H PARENT
REMARK Flexibility Score: inf
ROOT
ATOM      1  C   UNL     1     -14.925  -7.563 -30.599  1.00  0.00     0.000 C 
ENDROOT
BRANCH   1   2
ATOM      2  C   UNL     1     -13.579  -7.670 -29.866  1.00  0.00     0.000 C 
BRANCH   2   3
ATOM      3  C   UNL     1     -13.054  -6.302 -29.395  1.00  0.00     0.000 C 
BRANCH   3   4
ATOM      4  C   UNL     1     -11.877  -5.788 -30.243  1.00  0.00     0.000 C 
BRANCH   4   5
ATOM      5  C   UNL     1     -12.049  -4.360 -30.792  1.00  0.00     0.000 C 
BRANCH   5   6
ATOM      6  C   UNL     1     -11.294  -3.306 -29.967  1.00  0.00     0.006 C 
BRANCH   6   7
ATOM      7  C   UNL     1     -10.704  -2.221 -30.873  1.00  0.00     0.053 C 
BRANCH   7   8
ATOM      8  C   UNL     1      -9.218  -2.368 -30.968  1.00  0.00     0.041 C 
ATOM      9  O   UNL     1      -8.497  -1.364 -31.207  1.00  0.00    -0.550 OA
ATOM     10  O   UNL     1      -8.626  -3.604 -30.743  1.00  0.00    -0.550 OA
ENDBRANCH   7   8
ENDBRANCH   6   7
ENDBRANCH   5   6
ENDBRANCH   4   5
ENDBRANCH   3   4
ENDBRANCH   2   3
ENDBRANCH   1   2
BRANCH   1  11
ATOM     11  C   UNL     1     -15.479  -6.127 -30.605  1.00  0.00     0.000 C 
BRANCH  11  12
ATOM     12  C   UNL     1     -15.995  -5.699 -31.988  1.00  0.00    -0.000 C 
BRANCH  12  13
ATOM     13  C   UNL     1     -15.888  -4.184 -32.215  1.00  0.00    -0.000 C 
BRANCH  13  14
ATOM     14  C   UNL     1     -14.760  -3.855 -33.204  1.00  0.00    -0.000 C 
BRANCH  14  15
ATOM     15  C   UNL     1     -14.698  -2.360 -33.567  1.00  0.00    -0.000 C 
BRANCH  15  16
ATOM     16  C   UNL     1     -15.278  -1.403 -32.505  1.00  0.00    -0.000 C 
BRANCH  16  17
ATOM     17  C   UNL     1     -14.249  -0.830 -31.516  1.00  0.00    -0.003 C 
ATOM     18  C   UNL     1     -14.423  -1.367 -30.096  1.00  0.00     0.004 C 
ENDBRANCH  16  17
ENDBRANCH  15  16
ENDBRANCH  14  15
ENDBRANCH  13  14
ENDBRANCH  12  13
ENDBRANCH  11  12
ENDBRANCH   1  11
TORSDOF 14
ENDMDL
MODEL 7
REMARK VINA RESULT:    -4.063     21.822     24.239
REMARK INTER + INTRA:          -9.030
REMARK INTER:                  -6.464
REMARK INTRA:                  -2.566
REMARK UNBOUND:                -1.642
REMARK SMILES CCCCCCCCCCCCCCCC(=O)[O-]
REMARK SMILES IDX 9 1 10 2 11 3 12 4 13 5 14 6 15 7 16 8 17 9 18 10 8 11 7 12
REMARK SMILES IDX 6 13 5 14 4 15 3 16 2 17 1 18
REMARK H PARENT
REMARK Flexibility Score: inf
ROOT
ATOM      1  C   UNL     1       1.998  10.355 -18.107  1.00  0.00     0.000 C 
ENDROOT
BRANCH   1   2
ATOM      2  C   UNL     1       3.492  10.082 -18.333  1.00  0.00     0.000 C 
BRANCH   2   3
ATOM      3  C   UNL     1       3.741   9.044 -19.441  1.00  0.00     0.000 C 
BRANCH   3   4
ATOM      4  C   UNL     1       2.665   9.073 -20.540  1.00  0.00     0.000 C 
BRANCH   4   5
ATOM      5  C   UNL     1       2.397   7.718 -21.221  1.00  0.00     0.000 C 
BRANCH   5   6
ATOM      6  C   UNL     1       3.412   6.635 -20.824  1.00  0.00     0.006 C 
BRANCH   6   7
ATOM      7  C   UNL     1       3.028   5.279 -21.421  1.00  0.00     0.053 C 
BRANCH   7   8
ATOM      8  C   UNL     1       2.178   4.505 -20.463  1.00  0.00     0.041 C 
ATOM      9  O   UNL     1       0.923   4.530 -20.569  1.00  0.00    -0.550 OA
ATOM     10  O   UNL     1       2.773   3.718 -19.486  1.00  0.00    -0.550 OA
ENDBRANCH   7   8
ENDBRANCH   6   7
ENDBRANCH   5   6
ENDBRANCH   4   5
ENDBRANCH   3   4
ENDBRANCH   2   3
ENDBRANCH   1   2
BRANCH   1  11
ATOM     11  C   UNL     1       1.709  10.929 -16.708  1.00  0.00     0.000 C 
BRANCH  11  12
ATOM     12  C   UNL     1       2.007   9.924 -15.584  1.00  0.00    -0.000 C 
BRANCH  12  13
ATOM     13  C   UNL     1       0.744   9.210 -15.080  1.00  0.00    -0.000 C 
BRANCH  13  14
ATOM     14  C   UNL     1       0.865   7.690 -15.257  1.00  0.00    -0.000 C 
BRANCH  14  15
ATOM     15  C   UNL     1       2.025   7.285 -16.185  1.00  0.00    -0.000 C 
BRANCH  15  16
ATOM     16  C   UNL     1       1.600   6.692 -17.544  1.00  0.00    -0.000 C 
BRANCH  16  17
ATOM     17  C   UNL     1       0.081   6.604 -17.767  1.00  0.00    -0.003 C 
ATOM     18  C   UNL     1      -0.435   7.632 -18.772  1.00  0.00     0.004 C 
ENDBRANCH  16  17
ENDBRANCH  15  16
ENDBRANCH  14  15
ENDBRANCH  13  14
ENDBRANCH  12  13
ENDBRANCH  11  12
ENDBRANCH   1  11
TORSDOF 14
ENDMDL
MODEL 8
REMARK VINA RESULT:    -3.969      1.410      2.708
REMARK INTER + INTRA:          -8.859
REMARK INTER:                  -7.270
REMARK INTRA:                  -1.590
REMARK UNBOUND:                -1.642
REMARK SMILES CCCCCCCCCCCCCCCC(=O)[O-]
REMARK SMILES IDX 9 1 10 2 11 3 12 4 13 5 14 6 15 7 16 8 17 9 18 10 8 11 7 12
REMARK SMILES IDX 6 13 5 14 4 15 3 16 2 17 1 18
REMARK H PARENT
REMARK Flexibility Score: inf
ROOT
ATOM      1  C   UNL     1     -12.456  -7.973 -28.467  1.00  0.00     0.000 C 
ENDROOT
BRANCH   1   2
ATOM      2  C   UNL     1     -13.403  -8.165 -29.660  1.00  0.00     0.000 C 
BRANCH   2   3
ATOM      3  C   UNL     1     -13.878  -6.829 -30.258  1.00  0.00     0.000 C 
BRANCH   3   4
ATOM      4  C   UNL     1     -15.272  -6.924 -30.903  1.00  0.00     0.000 C 
BRANCH   4   5
ATOM      5  C   UNL     1     -15.656  -5.731 -31.797  1.00  0.00     0.000 C 
BRANCH   5   6
ATOM      6  C   UNL     1     -14.492  -4.754 -32.025  1.00  0.00     0.006 C 
BRANCH   6   7
ATOM      7  C   UNL     1     -14.688  -3.961 -33.320  1.00  0.00     0.053 C 
BRANCH   7   8
ATOM      8  C   UNL     1     -15.093  -2.553 -33.015  1.00  0.00     0.041 C 
ATOM      9  O   UNL     1     -15.001  -1.662 -33.901  1.00  0.00    -0.550 OA
ATOM     10  O   UNL     1     -15.619  -2.235 -31.770  1.00  0.00    -0.550 OA
ENDBRANCH   7   8
ENDBRANCH   6   7
ENDBRANCH   5   6
ENDBRANCH   4   5
ENDBRANCH   3   4
ENDBRANCH   2   3
ENDBRANCH   1   2
BRANCH   1  11
ATOM     11  C   UNL     1     -11.443  -9.124 -28.327  1.00  0.00     0.000 C 
BRANCH  11  12
ATOM     12  C   UNL     1      -9.997  -8.624 -28.184  1.00  0.00    -0.000 C 
BRANCH  12  13
ATOM     13  C   UNL     1      -9.269  -8.529 -29.533  1.00  0.00    -0.000 C 
BRANCH  13  14
ATOM     14  C   UNL     1      -8.061  -7.585 -29.441  1.00  0.00    -0.000 C 
BRANCH  14  15
ATOM     15  C   UNL     1      -8.318  -6.217 -30.097  1.00  0.00    -0.000 C 
BRANCH  15  16
ATOM     16  C   UNL     1      -9.572  -6.145 -30.993  1.00  0.00    -0.000 C 
BRANCH  16  17
ATOM     17  C   UNL     1     -10.563  -5.025 -30.632  1.00  0.00    -0.003 C 
ATOM     18  C   UNL     1     -10.763  -4.867 -29.126  1.00  0.00     0.004 C 
ENDBRANCH  16  17
ENDBRANCH  15  16
ENDBRANCH  14  15
ENDBRANCH  13  14
ENDBRANCH  12  13
ENDBRANCH  11  12
ENDBRANCH   1  11
TORSDOF 14
ENDMDL
