MODEL 1
REMARK VINA RESULT:    -7.052      0.000      0.000
REMARK INTER + INTRA:          -7.671
REMARK INTER:                  -7.671
REMARK INTRA:                   0.000
REMARK UNBOUND:                 0.000
REMARK SMILES Cc1cc(O)c2c(c1)C(=O)c1cc(O)cc(O)c1C2=O
REMARK SMILES IDX 1 1 2 2 8 3 7 4 6 5 4 6 3 7 19 8 20 9 18 10 11 11 9 12 10 13
REMARK SMILES IDX 12 14 13 15 15 16 16 17 5 18 17 20 14 22
REMARK H PARENT 5 19 17 21 14 23
REMARK Flexibility Score: inf
ROOT
ATOM      1  C   UNL     1      58.067   5.183  81.396  1.00  0.00     0.044 C 
ATOM      2  C   UNL     1      56.583   4.961  81.386  1.00  0.00    -0.047 A 
ATOM      3  C   UNL     1      55.972   4.337  80.293  1.00  0.00     0.016 A 
ATOM      4  C   UNL     1      54.580   4.150  80.262  1.00  0.00     0.038 A 
ATOM      5  C   UNL     1      53.786   4.595  81.343  1.00  0.00     0.076 A 
ATOM      6  C   UNL     1      54.401   5.302  82.407  1.00  0.00     0.127 A 
ATOM      7  C   UNL     1      55.791   5.459  82.426  1.00  0.00     0.050 A 
ATOM      8  C   UNL     1      52.341   4.249  81.343  1.00  0.00     0.201 C 
ATOM      9  O   UNL     1      51.735   4.091  82.436  1.00  0.00    -0.288 OA
ATOM     10  C   UNL     1      51.664   3.905  80.066  1.00  0.00     0.076 A 
ATOM     11  C   UNL     1      52.462   3.463  78.986  1.00  0.00     0.041 A 
ATOM     12  C   UNL     1      53.939   3.493  79.098  1.00  0.00     0.194 C 
ATOM     13  O   UNL     1      54.652   2.984  78.188  1.00  0.00    -0.289 OA
ATOM     14  C   UNL     1      51.850   2.999  77.809  1.00  0.00     0.059 A 
ATOM     15  C   UNL     1      50.457   2.987  77.691  1.00  0.00     0.120 A 
ATOM     16  C   UNL     1      49.668   3.460  78.739  1.00  0.00     0.093 A 
ATOM     17  C   UNL     1      50.254   3.945  79.913  1.00  0.00     0.131 A 
ENDROOT
BRANCH   6  18
ATOM     18  O   UNL     1      53.672   5.894  83.441  1.00  0.00    -0.507 OA
ATOM     19  H   UNL     1      53.955   6.744  83.910  1.00  0.00     0.293 HD
ENDBRANCH   6  18
BRANCH  17  20
ATOM     20  O   UNL     1      49.404   4.488  80.879  1.00  0.00    -0.507 OA
ATOM     21  H   UNL     1      48.601   4.002  81.253  1.00  0.00     0.293 HD
ENDBRANCH  17  20
BRANCH  15  22
ATOM     22  O   UNL     1      49.846   2.515  76.531  1.00  0.00    -0.508 OA
ATOM     23  H   UNL     1      49.743   3.101  75.711  1.00  0.00     0.293 HD
ENDBRANCH  15  22
TORSDOF 3
ENDMDL
MODEL 2
REMARK VINA RESULT:    -6.463      2.720      6.119
REMARK INTER + INTRA:          -7.030
REMARK INTER:                  -7.030
REMARK INTRA:                   0.000
REMARK UNBOUND:                 0.000
REMARK SMILES Cc1cc(O)c2c(c1)C(=O)c1cc(O)cc(O)c1C2=O
REMARK SMILES IDX 1 1 2 2 8 3 7 4 6 5 4 6 3 7 19 8 20 9 18 10 11 11 9 12 10 13
REMARK SMILES IDX 12 14 13 15 15 16 16 17 5 18 17 20 14 22
REMARK H PARENT 5 19 17 21 14 23
REMARK Flexibility Score: inf
ROOT
ATOM      1  C   UNL     1      50.331   3.968  78.127  1.00  0.00     0.044 C 
ATOM      2  C   UNL     1      51.664   4.086  78.803  1.00  0.00    -0.047 A 
ATOM      3  C   UNL     1      52.645   4.936  78.281  1.00  0.00     0.016 A 
ATOM      4  C   UNL     1      53.908   5.033  78.890  1.00  0.00     0.038 A 
ATOM      5  C   UNL     1      54.193   4.266  80.042  1.00  0.00     0.076 A 
ATOM      6  C   UNL     1      53.225   3.344  80.516  1.00  0.00     0.127 A 
ATOM      7  C   UNL     1      51.968   3.280  79.905  1.00  0.00     0.050 A 
ATOM      8  C   UNL     1      55.481   4.503  80.744  1.00  0.00     0.201 C 
ATOM      9  O   UNL     1      55.558   4.326  81.989  1.00  0.00    -0.288 OA
ATOM     10  C   UNL     1      56.614   5.128  80.014  1.00  0.00     0.076 A 
ATOM     11  C   UNL     1      56.326   5.892  78.860  1.00  0.00     0.041 A 
ATOM     12  C   UNL     1      54.944   5.930  78.327  1.00  0.00     0.194 C 
ATOM     13  O   UNL     1      54.656   6.708  77.375  1.00  0.00    -0.289 OA
ATOM     14  C   UNL     1      57.352   6.610  78.222  1.00  0.00     0.059 A 
ATOM     15  C   UNL     1      58.661   6.561  78.711  1.00  0.00     0.120 A 
ATOM     16  C   UNL     1      58.957   5.776  79.825  1.00  0.00     0.093 A 
ATOM     17  C   UNL     1      57.957   5.036  80.465  1.00  0.00     0.131 A 
ENDROOT
BRANCH   6  18
ATOM     18  O   UNL     1      53.479   2.452  81.560  1.00  0.00    -0.507 OA
ATOM     19  H   UNL     1      53.709   1.478  81.421  1.00  0.00     0.293 HD
ENDBRANCH   6  18
BRANCH  17  20
ATOM     20  O   UNL     1      58.347   4.202  81.516  1.00  0.00    -0.507 OA
ATOM     21  H   UNL     1      57.718   3.567  81.986  1.00  0.00     0.293 HD
ENDBRANCH  17  20
BRANCH  15  22
ATOM     22  O   UNL     1      59.678   7.281  78.089  1.00  0.00    -0.508 OA
ATOM     23  H   UNL     1      60.644   6.976  78.128  1.00  0.00     0.293 HD
ENDBRANCH  15  22
TORSDOF 3
ENDMDL
MODEL 3
REMARK VINA RESULT:    -6.452      3.373      4.422
REMARK INTER + INTRA:          -7.018
REMARK INTER:                  -7.018
REMARK INTRA:                   0.000
REMARK UNBOUND:                 0.000
REMARK SMILES Cc1cc(O)c2c(c1)C(=O)c1cc(O)cc(O)c1C2=O
REMARK SMILES IDX 1 1 2 2 8 3 7 4 6 5 4 6 3 7 19 8 20 9 18 10 11 11 9 12 10 13
REMARK SMILES IDX 12 14 13 15 15 16 16 17 5 18 17 20 14 22
REMARK H PARENT 5 19 17 21 14 23
REMARK Flexibility Score: inf
ROOT
ATOM      1  C   UNL     1      58.490   9.563  77.038  1.00  0.00     0.044 C 
ATOM      2  C   UNL     1      57.776   8.329  77.505  1.00  0.00    -0.047 A 
ATOM      3  C   UNL     1      56.398   8.196  77.305  1.00  0.00     0.016 A 
ATOM      4  C   UNL     1      55.714   7.057  77.764  1.00  0.00     0.038 A 
ATOM      5  C   UNL     1      56.422   6.034  78.435  1.00  0.00     0.076 A 
ATOM      6  C   UNL     1      57.802   6.215  78.710  1.00  0.00     0.127 A 
ATOM      7  C   UNL     1      58.465   7.348  78.225  1.00  0.00     0.050 A 
ATOM      8  C   UNL     1      55.697   4.783  78.774  1.00  0.00     0.201 C 
ATOM      9  O   UNL     1      56.323   3.690  78.822  1.00  0.00    -0.288 OA
ATOM     10  C   UNL     1      54.215   4.791  78.866  1.00  0.00     0.076 A 
ATOM     11  C   UNL     1      53.509   5.817  78.196  1.00  0.00     0.041 A 
ATOM     12  C   UNL     1      54.253   6.925  77.553  1.00  0.00     0.194 C 
ATOM     13  O   UNL     1      53.637   7.773  76.849  1.00  0.00    -0.289 OA
ATOM     14  C   UNL     1      52.105   5.782  78.145  1.00  0.00     0.059 A 
ATOM     15  C   UNL     1      51.399   4.748  78.767  1.00  0.00     0.120 A 
ATOM     16  C   UNL     1      52.089   3.757  79.463  1.00  0.00     0.093 A 
ATOM     17  C   UNL     1      53.485   3.780  79.545  1.00  0.00     0.131 A 
ENDROOT
BRANCH   6  18
ATOM     18  O   UNL     1      58.541   5.319  79.486  1.00  0.00    -0.507 OA
ATOM     19  H   UNL     1      58.126   4.570  80.022  1.00  0.00     0.293 HD
ENDBRANCH   6  18
BRANCH  17  20
ATOM     20  O   UNL     1      54.100   2.807  80.337  1.00  0.00    -0.507 OA
ATOM     21  H   UNL     1      54.651   2.048  79.961  1.00  0.00     0.293 HD
ENDBRANCH  17  20
BRANCH  15  22
ATOM     22  O   UNL     1      50.008   4.702  78.707  1.00  0.00    -0.508 OA
ATOM     23  H   UNL     1      49.438   5.473  79.035  1.00  0.00     0.293 HD
ENDBRANCH  15  22
TORSDOF 3
ENDMDL
MODEL 4
REMARK VINA RESULT:    -6.447      8.484     10.752
REMARK INTER + INTRA:          -7.012
REMARK INTER:                  -7.012
REMARK INTRA:                   0.000
REMARK UNBOUND:                 0.000
REMARK SMILES Cc1cc(O)c2c(c1)C(=O)c1cc(O)cc(O)c1C2=O
REMARK SMILES IDX 1 1 2 2 8 3 7 4 6 5 4 6 3 7 19 8 20 9 18 10 11 11 9 12 10 13
REMARK SMILES IDX 12 14 13 15 15 16 16 17 5 18 17 20 14 22
REMARK H PARENT 5 19 17 21 14 23
REMARK Flexibility Score: inf
ROOT
ATOM      1  C   UNL     1      46.574   5.019  72.498  1.00  0.00     0.044 C 
ATOM      2  C   UNL     1      46.327   3.586  72.866  1.00  0.00    -0.047 A 
ATOM      3  C   UNL     1      47.270   2.882  73.622  1.00  0.00     0.016 A 
ATOM      4  C   UNL     1      47.063   1.531  73.948  1.00  0.00     0.038 A 
ATOM      5  C   UNL     1      45.891   0.873  73.509  1.00  0.00     0.076 A 
ATOM      6  C   UNL     1      44.981   1.568  72.671  1.00  0.00     0.127 A 
ATOM      7  C   UNL     1      45.200   2.918  72.377  1.00  0.00     0.050 A 
ATOM      8  C   UNL     1      45.635  -0.507  73.996  1.00  0.00     0.201 C 
ATOM      9  O   UNL     1      44.450  -0.912  74.136  1.00  0.00    -0.288 OA
ATOM     10  C   UNL     1      46.764  -1.335  74.493  1.00  0.00     0.076 A 
ATOM     11  C   UNL     1      47.935  -0.675  74.929  1.00  0.00     0.041 A 
ATOM     12  C   UNL     1      48.069   0.789  74.745  1.00  0.00     0.194 C 
ATOM     13  O   UNL     1      49.055   1.401  75.243  1.00  0.00    -0.289 OA
ATOM     14  C   UNL     1      48.969  -1.411  75.532  1.00  0.00     0.059 A 
ATOM     15  C   UNL     1      48.856  -2.795  75.691  1.00  0.00     0.120 A 
ATOM     16  C   UNL     1      47.719  -3.455  75.225  1.00  0.00     0.093 A 
ATOM     17  C   UNL     1      46.684  -2.748  74.603  1.00  0.00     0.131 A 
ENDROOT
BRANCH   6  18
ATOM     18  O   UNL     1      43.875   0.951  72.083  1.00  0.00    -0.507 OA
ATOM     19  H   UNL     1      42.921   1.250  72.237  1.00  0.00     0.293 HD
ENDBRANCH   6  18
BRANCH  17  20
ATOM     20  O   UNL     1      45.622  -3.489  74.081  1.00  0.00    -0.507 OA
ATOM     21  H   UNL     1      45.691  -4.050  73.244  1.00  0.00     0.293 HD
ENDBRANCH  17  20
BRANCH  15  22
ATOM     22  O   UNL     1      49.872  -3.526  76.300  1.00  0.00    -0.508 OA
ATOM     23  H   UNL     1      49.883  -4.539  76.279  1.00  0.00     0.293 HD
ENDBRANCH  15  22
TORSDOF 3
ENDMDL
MODEL 5
REMARK VINA RESULT:    -6.416      2.412      5.568
REMARK INTER + INTRA:          -6.978
REMARK INTER:                  -6.978
REMARK INTRA:                   0.000
REMARK UNBOUND:                 0.000
REMARK SMILES Cc1cc(O)c2c(c1)C(=O)c1cc(O)cc(O)c1C2=O
REMARK SMILES IDX 1 1 2 2 8 3 7 4 6 5 4 6 3 7 19 8 20 9 18 10 11 11 9 12 10 13
REMARK SMILES IDX 12 14 13 15 15 16 16 17 5 18 17 20 14 22
REMARK H PARENT 5 19 17 21 14 23
REMARK Flexibility Score: inf
ROOT
ATOM      1  C   UNL     1      50.979   2.875  83.852  1.00  0.00     0.044 C 
ATOM      2  C   UNL     1      51.662   3.415  82.630  1.00  0.00    -0.047 A 
ATOM      3  C   UNL     1      53.059   3.463  82.568  1.00  0.00     0.016 A 
ATOM      4  C   UNL     1      53.708   3.992  81.440  1.00  0.00     0.038 A 
ATOM      5  C   UNL     1      52.945   4.482  80.355  1.00  0.00     0.076 A 
ATOM      6  C   UNL     1      51.531   4.509  80.461  1.00  0.00     0.127 A 
ATOM      7  C   UNL     1      50.908   3.958  81.585  1.00  0.00     0.050 A 
ATOM      8  C   UNL     1      53.663   4.896  79.122  1.00  0.00     0.201 C 
ATOM      9  O   UNL     1      53.097   4.787  78.002  1.00  0.00    -0.288 OA
ATOM     10  C   UNL     1      55.102   5.257  79.192  1.00  0.00     0.076 A 
ATOM     11  C   UNL     1      55.861   4.767  80.279  1.00  0.00     0.041 A 
ATOM     12  C   UNL     1      55.188   4.045  81.384  1.00  0.00     0.194 C 
ATOM     13  O   UNL     1      55.874   3.499  82.292  1.00  0.00    -0.289 OA
ATOM     14  C   UNL     1      57.252   4.971  80.309  1.00  0.00     0.059 A 
ATOM     15  C   UNL     1      57.889   5.669  79.279  1.00  0.00     0.120 A 
ATOM     16  C   UNL     1      57.138   6.188  78.225  1.00  0.00     0.093 A 
ATOM     17  C   UNL     1      55.750   6.016  78.182  1.00  0.00     0.131 A 
ENDROOT
BRANCH   6  18
ATOM     18  O   UNL     1      50.714   5.102  79.496  1.00  0.00    -0.507 OA
ATOM     19  H   UNL     1      50.152   5.925  79.668  1.00  0.00     0.293 HD
ENDBRANCH   6  18
BRANCH  17  20
ATOM     20  O   UNL     1      55.056   6.643  77.145  1.00  0.00    -0.507 OA
ATOM     21  H   UNL     1      54.716   6.158  76.327  1.00  0.00     0.293 HD
ENDBRANCH  17  20
BRANCH  15  22
ATOM     22  O   UNL     1      59.268   5.861  79.298  1.00  0.00    -0.508 OA
ATOM     23  H   UNL     1      59.913   5.082  79.242  1.00  0.00     0.293 HD
ENDBRANCH  15  22
TORSDOF 3
ENDMDL
MODEL 6
REMARK VINA RESULT:    -6.024      3.040      5.670
REMARK INTER + INTRA:          -6.552
REMARK INTER:                  -6.552
REMARK INTRA:                   0.000
REMARK UNBOUND:                 0.000
REMARK SMILES Cc1cc(O)c2c(c1)C(=O)c1cc(O)cc(O)c1C2=O
REMARK SMILES IDX 1 1 2 2 8 3 7 4 6 5 4 6 3 7 19 8 20 9 18 10 11 11 9 12 10 13
REMARK SMILES IDX 12 14 13 15 15 16 16 17 5 18 17 20 14 22
REMARK H PARENT 5 19 17 21 14 23
REMARK Flexibility Score: inf
ROOT
ATOM      1  C   UNL     1      53.634   8.095  75.872  1.00  0.00     0.044 C 
ATOM      2  C   UNL     1      53.686   7.431  77.216  1.00  0.00    -0.047 A 
ATOM      3  C   UNL     1      54.919   7.121  77.800  1.00  0.00     0.016 A 
ATOM      4  C   UNL     1      54.978   6.473  79.045  1.00  0.00     0.038 A 
ATOM      5  C   UNL     1      53.783   6.129  79.717  1.00  0.00     0.076 A 
ATOM      6  C   UNL     1      52.538   6.369  79.080  1.00  0.00     0.127 A 
ATOM      7  C   UNL     1      52.504   7.034  77.850  1.00  0.00     0.050 A 
ATOM      8  C   UNL     1      53.883   5.581  81.094  1.00  0.00     0.201 C 
ATOM      9  O   UNL     1      52.955   5.789  81.920  1.00  0.00    -0.288 OA
ATOM     10  C   UNL     1      55.152   4.956  81.549  1.00  0.00     0.076 A 
ATOM     11  C   UNL     1      56.345   5.300  80.873  1.00  0.00     0.041 A 
ATOM     12  C   UNL     1      56.288   6.142  79.655  1.00  0.00     0.194 C 
ATOM     13  O   UNL     1      57.355   6.554  79.122  1.00  0.00    -0.289 OA
ATOM     14  C   UNL     1      57.581   4.839  81.358  1.00  0.00     0.059 A 
ATOM     15  C   UNL     1      57.639   4.029  82.496  1.00  0.00     0.120 A 
ATOM     16  C   UNL     1      56.461   3.655  83.141  1.00  0.00     0.093 A 
ATOM     17  C   UNL     1      55.217   4.084  82.667  1.00  0.00     0.131 A 
ENDROOT
BRANCH   6  18
ATOM     18  O   UNL     1      51.322   5.936  79.612  1.00  0.00    -0.507 OA
ATOM     19  H   UNL     1      51.151   4.987  79.915  1.00  0.00     0.293 HD
ENDBRANCH   6  18
BRANCH  17  20
ATOM     20  O   UNL     1      54.078   3.593  83.310  1.00  0.00    -0.507 OA
ATOM     21  H   UNL     1      54.086   3.211  84.245  1.00  0.00     0.293 HD
ENDBRANCH  17  20
BRANCH  15  22
ATOM     22  O   UNL     1      58.863   3.580  82.987  1.00  0.00    -0.508 OA
ATOM     23  H   UNL     1      59.562   4.225  83.336  1.00  0.00     0.293 HD
ENDBRANCH  15  22
TORSDOF 3
ENDMDL
MODEL 7
REMARK VINA RESULT:    -6.006      2.761      4.653
REMARK INTER + INTRA:          -6.533
REMARK INTER:                  -6.533
REMARK INTRA:                   0.000
REMARK UNBOUND:                 0.000
REMARK SMILES Cc1cc(O)c2c(c1)C(=O)c1cc(O)cc(O)c1C2=O
REMARK SMILES IDX 1 1 2 2 8 3 7 4 6 5 4 6 3 7 19 8 20 9 18 10 11 11 9 12 10 13
REMARK SMILES IDX 12 14 13 15 15 16 16 17 5 18 17 20 14 22
REMARK H PARENT 5 19 17 21 14 23
REMARK Flexibility Score: inf
ROOT
ATOM      1  C   UNL     1      51.343   2.094  84.074  1.00  0.00     0.044 C 
ATOM      2  C   UNL     1      52.339   2.831  83.228  1.00  0.00    -0.047 A 
ATOM      3  C   UNL     1      51.911   3.558  82.112  1.00  0.00     0.016 A 
ATOM      4  C   UNL     1      52.839   4.228  81.296  1.00  0.00     0.038 A 
ATOM      5  C   UNL     1      54.217   4.169  81.602  1.00  0.00     0.076 A 
ATOM      6  C   UNL     1      54.650   3.359  82.684  1.00  0.00     0.127 A 
ATOM      7  C   UNL     1      53.707   2.719  83.494  1.00  0.00     0.050 A 
ATOM      8  C   UNL     1      55.151   5.007  80.808  1.00  0.00     0.201 C 
ATOM      9  O   UNL     1      56.207   5.443  81.338  1.00  0.00    -0.288 OA
ATOM     10  C   UNL     1      54.749   5.485  79.460  1.00  0.00     0.076 A 
ATOM     11  C   UNL     1      53.369   5.541  79.156  1.00  0.00     0.041 A 
ATOM     12  C   UNL     1      52.379   4.992  80.112  1.00  0.00     0.194 C 
ATOM     13  O   UNL     1      51.144   5.152  79.903  1.00  0.00    -0.289 OA
ATOM     14  C   UNL     1      52.943   6.114  77.945  1.00  0.00     0.059 A 
ATOM     15  C   UNL     1      53.874   6.616  77.031  1.00  0.00     0.120 A 
ATOM     16  C   UNL     1      55.237   6.526  77.310  1.00  0.00     0.093 A 
ATOM     17  C   UNL     1      55.688   5.942  78.499  1.00  0.00     0.131 A 
ENDROOT
BRANCH   6  18
ATOM     18  O   UNL     1      55.999   3.137  82.967  1.00  0.00    -0.507 OA
ATOM     19  H   UNL     1      56.712   3.046  82.256  1.00  0.00     0.293 HD
ENDBRANCH   6  18
BRANCH  17  20
ATOM     20  O   UNL     1      57.068   5.804  78.665  1.00  0.00    -0.507 OA
ATOM     21  H   UNL     1      57.584   4.981  78.387  1.00  0.00     0.293 HD
ENDBRANCH  17  20
BRANCH  15  22
ATOM     22  O   UNL     1      53.455   7.197  75.837  1.00  0.00    -0.508 OA
ATOM     23  H   UNL     1      52.612   6.892  75.366  1.00  0.00     0.293 HD
ENDBRANCH  15  22
TORSDOF 3
ENDMDL
