MODEL 1
REMARK VINA RESULT:    -5.102      0.000      0.000
REMARK INTER + INTRA:         -10.317
REMARK INTER:                  -8.681
REMARK INTRA:                  -1.636
REMARK UNBOUND:                -1.636
REMARK SMILES CCCCCCCCCCCCCC(=O)[O-]
REMARK SMILES IDX 8 1 9 2 10 3 11 4 12 5 13 6 14 7 15 8 16 9 7 10 6 11 5 12
REMARK SMILES IDX 4 13 3 14 2 15 1 16
REMARK H PARENT
REMARK Flexibility Score: inf
ROOT
ATOM      1  C   UNL     1       4.712   8.018   9.252  1.00  0.00     0.000 C 
ENDROOT
BRANCH   1   2
ATOM      2  C   UNL     1       3.530   7.606  10.145  1.00  0.00     0.000 C 
BRANCH   2   3
ATOM      3  C   UNL     1       3.985   6.895  11.431  1.00  0.00     0.000 C 
BRANCH   3   4
ATOM      4  C   UNL     1       3.724   7.735  12.693  1.00  0.00     0.000 C 
BRANCH   4   5
ATOM      5  C   UNL     1       4.923   7.746  13.657  1.00  0.00     0.006 C 
BRANCH   5   6
ATOM      6  C   UNL     1       5.705   6.426  13.622  1.00  0.00     0.053 C 
BRANCH   6   7
ATOM      7  C   UNL     1       6.567   6.256  14.835  1.00  0.00     0.041 C 
ATOM      8  O   UNL     1       6.073   6.383  15.987  1.00  0.00    -0.550 OA
ATOM      9  O   UNL     1       7.923   5.987  14.694  1.00  0.00    -0.550 OA
ENDBRANCH   6   7
ENDBRANCH   5   6
ENDBRANCH   4   5
ENDBRANCH   3   4
ENDBRANCH   2   3
ENDBRANCH   1   2
BRANCH   1  10
ATOM     10  C   UNL     1       5.025   9.523   9.339  1.00  0.00     0.000 C 
BRANCH  10  11
ATOM     11  C   UNL     1       6.034   9.857  10.452  1.00  0.00    -0.000 C 
BRANCH  11  12
ATOM     12  C   UNL     1       7.451   9.290  10.233  1.00  0.00    -0.000 C 
BRANCH  12  13
ATOM     13  C   UNL     1       7.924   8.278  11.297  1.00  0.00    -0.000 C 
BRANCH  13  14
ATOM     14  C   UNL     1       7.829   6.801  10.874  1.00  0.00    -0.000 C 
BRANCH  14  15
ATOM     15  C   UNL     1       9.151   6.043  11.055  1.00  0.00    -0.003 C 
ATOM     16  C   UNL     1       9.774   5.695   9.705  1.00  0.00     0.004 C 
ENDBRANCH  14  15
ENDBRANCH  13  14
ENDBRANCH  12  13
ENDBRANCH  11  12
ENDBRANCH  10  11
ENDBRANCH   1  10
TORSDOF 12
ENDMDL
MODEL 2
REMARK VINA RESULT:    -5.033      1.714      4.172
REMARK INTER + INTRA:         -10.200
REMARK INTER:                  -8.644
REMARK INTRA:                  -1.556
REMARK UNBOUND:                -1.636
REMARK SMILES CCCCCCCCCCCCCC(=O)[O-]
REMARK SMILES IDX 8 1 9 2 10 3 11 4 12 5 13 6 14 7 15 8 16 9 7 10 6 11 5 12
REMARK SMILES IDX 4 13 3 14 2 15 1 16
REMARK H PARENT
REMARK Flexibility Score: inf
ROOT
ATOM      1  C   UNL     1       4.675   8.165   9.278  1.00  0.00     0.000 C 
ENDROOT
BRANCH   1   2
ATOM      2  C   UNL     1       5.431   9.383   9.833  1.00  0.00     0.000 C 
BRANCH   2   3
ATOM      3  C   UNL     1       6.943   9.311   9.558  1.00  0.00     0.000 C 
BRANCH   3   4
ATOM      4  C   UNL     1       7.784   9.523  10.828  1.00  0.00     0.000 C 
BRANCH   4   5
ATOM      5  C   UNL     1       8.116   8.204  11.547  1.00  0.00     0.006 C 
BRANCH   5   6
ATOM      6  C   UNL     1       7.890   6.982  10.646  1.00  0.00     0.053 C 
BRANCH   6   7
ATOM      7  C   UNL     1       9.036   6.021  10.711  1.00  0.00     0.041 C 
ATOM      8  O   UNL     1       9.325   5.450  11.796  1.00  0.00    -0.550 OA
ATOM      9  O   UNL     1       9.807   5.777   9.581  1.00  0.00    -0.550 OA
ENDBRANCH   6   7
ENDBRANCH   5   6
ENDBRANCH   4   5
ENDBRANCH   3   4
ENDBRANCH   2   3
ENDBRANCH   1   2
BRANCH   1  10
ATOM     10  C   UNL     1       3.307   7.959   9.953  1.00  0.00     0.000 C 
BRANCH  10  11
ATOM     11  C   UNL     1       3.308   6.788  10.952  1.00  0.00    -0.000 C 
BRANCH  11  12
ATOM     12  C   UNL     1       4.536   6.733  11.883  1.00  0.00    -0.000 C 
BRANCH  12  13
ATOM     13  C   UNL     1       4.484   7.683  13.097  1.00  0.00    -0.000 C 
BRANCH  13  14
ATOM     14  C   UNL     1       5.530   7.399  14.189  1.00  0.00    -0.000 C 
BRANCH  14  15
ATOM     15  C   UNL     1       6.210   6.033  14.022  1.00  0.00    -0.003 C 
ATOM     16  C   UNL     1       7.595   6.026  14.664  1.00  0.00     0.004 C 
ENDBRANCH  14  15
ENDBRANCH  13  14
ENDBRANCH  12  13
ENDBRANCH  11  12
ENDBRANCH  10  11
ENDBRANCH   1  10
TORSDOF 12
ENDMDL
MODEL 3
REMARK VINA RESULT:    -5.021      1.252      1.606
REMARK INTER + INTRA:         -10.180
REMARK INTER:                  -8.395
REMARK INTRA:                  -1.786
REMARK UNBOUND:                -1.636
REMARK SMILES CCCCCCCCCCCCCC(=O)[O-]
REMARK SMILES IDX 8 1 9 2 10 3 11 4 12 5 13 6 14 7 15 8 16 9 7 10 6 11 5 12
REMARK SMILES IDX 4 13 3 14 2 15 1 16
REMARK H PARENT
REMARK Flexibility Score: inf
ROOT
ATOM      1  C   UNL     1       4.618   7.486   9.710  1.00  0.00     0.000 C 
ENDROOT
BRANCH   1   2
ATOM      2  C   UNL     1       4.396   6.778  11.056  1.00  0.00     0.000 C 
BRANCH   2   3
ATOM      3  C   UNL     1       4.016   7.758  12.180  1.00  0.00     0.000 C 
BRANCH   3   4
ATOM      4  C   UNL     1       5.031   7.753  13.335  1.00  0.00     0.000 C 
BRANCH   4   5
ATOM      5  C   UNL     1       5.619   6.357  13.601  1.00  0.00     0.006 C 
BRANCH   5   6
ATOM      6  C   UNL     1       6.218   6.240  15.009  1.00  0.00     0.053 C 
BRANCH   6   7
ATOM      7  C   UNL     1       5.162   6.275  16.070  1.00  0.00     0.041 C 
ATOM      8  O   UNL     1       4.509   5.235  16.350  1.00  0.00    -0.550 OA
ATOM      9  O   UNL     1       4.875   7.464  16.729  1.00  0.00    -0.550 OA
ENDBRANCH   6   7
ENDBRANCH   5   6
ENDBRANCH   4   5
ENDBRANCH   3   4
ENDBRANCH   2   3
ENDBRANCH   1   2
BRANCH   1  10
ATOM     10  C   UNL     1       4.516   9.018   9.821  1.00  0.00     0.000 C 
BRANCH  10  11
ATOM     11  C   UNL     1       5.853   9.724   9.531  1.00  0.00    -0.000 C 
BRANCH  11  12
ATOM     12  C   UNL     1       6.815   9.810  10.733  1.00  0.00    -0.000 C 
BRANCH  12  13
ATOM     13  C   UNL     1       8.146   9.048  10.563  1.00  0.00    -0.000 C 
BRANCH  13  14
ATOM     14  C   UNL     1       8.241   7.726  11.344  1.00  0.00    -0.000 C 
BRANCH  14  15
ATOM     15  C   UNL     1       8.074   6.491  10.447  1.00  0.00    -0.003 C 
ATOM     16  C   UNL     1       9.347   5.649  10.430  1.00  0.00     0.004 C 
ENDBRANCH  14  15
ENDBRANCH  13  14
ENDBRANCH  12  13
ENDBRANCH  11  12
ENDBRANCH  10  11
ENDBRANCH   1  10
TORSDOF 12
ENDMDL
MODEL 4
REMARK VINA RESULT:    -4.813      3.122      6.217
REMARK INTER + INTRA:          -9.826
REMARK INTER:                  -8.443
REMARK INTRA:                  -1.383
REMARK UNBOUND:                -1.636
REMARK SMILES CCCCCCCCCCCCCC(=O)[O-]
REMARK SMILES IDX 8 1 9 2 10 3 11 4 12 5 13 6 14 7 15 8 16 9 7 10 6 11 5 12
REMARK SMILES IDX 4 13 3 14 2 15 1 16
REMARK H PARENT
REMARK Flexibility Score: inf
ROOT
ATOM      1  C   UNL     1       5.991   5.931  14.226  1.00  0.00     0.000 C 
ENDROOT
BRANCH   1   2
ATOM      2  C   UNL     1       7.502   6.178  14.091  1.00  0.00     0.000 C 
BRANCH   2   3
ATOM      3  C   UNL     1       7.841   7.128  12.929  1.00  0.00     0.000 C 
BRANCH   3   4
ATOM      4  C   UNL     1       8.495   6.399  11.743  1.00  0.00     0.000 C 
BRANCH   4   5
ATOM      5  C   UNL     1       8.169   7.055  10.391  1.00  0.00     0.006 C 
BRANCH   5   6
ATOM      6  C   UNL     1       7.342   8.338  10.554  1.00  0.00     0.053 C 
BRANCH   6   7
ATOM      7  C   UNL     1       6.042   8.263   9.815  1.00  0.00     0.041 C 
ATOM      8  O   UNL     1       5.466   7.154   9.655  1.00  0.00    -0.550 OA
ATOM      9  O   UNL     1       5.481   9.413   9.274  1.00  0.00    -0.550 OA
ENDBRANCH   6   7
ENDBRANCH   5   6
ENDBRANCH   4   5
ENDBRANCH   3   4
ENDBRANCH   2   3
ENDBRANCH   1   2
BRANCH   1  10
ATOM     10  C   UNL     1       5.154   6.888  13.359  1.00  0.00     0.000 C 
BRANCH  10  11
ATOM     11  C   UNL     1       4.283   7.840  14.198  1.00  0.00    -0.000 C 
BRANCH  11  12
ATOM     12  C   UNL     1       4.782   8.076  15.638  1.00  0.00    -0.000 C 
BRANCH  12  13
ATOM     13  C   UNL     1       3.760   7.752  16.747  1.00  0.00    -0.000 C 
BRANCH  13  14
ATOM     14  C   UNL     1       2.623   6.805  16.326  1.00  0.00    -0.000 C 
BRANCH  14  15
ATOM     15  C   UNL     1       2.593   5.508  17.146  1.00  0.00    -0.003 C 
ATOM     16  C   UNL     1       3.962   4.833  17.157  1.00  0.00     0.004 C 
ENDBRANCH  14  15
ENDBRANCH  13  14
ENDBRANCH  12  13
ENDBRANCH  11  12
ENDBRANCH  10  11
ENDBRANCH   1  10
TORSDOF 12
ENDMDL
MODEL 5
REMARK VINA RESULT:    -4.786      2.062      4.268
REMARK INTER + INTRA:          -9.779
REMARK INTER:                  -8.403
REMARK INTRA:                  -1.376
REMARK UNBOUND:                -1.636
REMARK SMILES CCCCCCCCCCCCCC(=O)[O-]
REMARK SMILES IDX 8 1 9 2 10 3 11 4 12 5 13 6 14 7 15 8 16 9 7 10 6 11 5 12
REMARK SMILES IDX 4 13 3 14 2 15 1 16
REMARK H PARENT
REMARK Flexibility Score: inf
ROOT
ATOM      1  C   UNL     1       8.443   6.382  12.158  1.00  0.00     0.000 C 
ENDROOT
BRANCH   1   2
ATOM      2  C   UNL     1       7.503   7.032  13.186  1.00  0.00     0.000 C 
BRANCH   2   3
ATOM      3  C   UNL     1       7.406   6.219  14.489  1.00  0.00     0.000 C 
BRANCH   3   4
ATOM      4  C   UNL     1       6.003   5.629  14.712  1.00  0.00     0.000 C 
BRANCH   4   5
ATOM      5  C   UNL     1       5.185   6.421  15.747  1.00  0.00     0.006 C 
BRANCH   5   6
ATOM      6  C   UNL     1       4.308   5.507  16.613  1.00  0.00     0.053 C 
BRANCH   6   7
ATOM      7  C   UNL     1       3.475   6.287  17.582  1.00  0.00     0.041 C 
ATOM      8  O   UNL     1       2.755   5.688  18.426  1.00  0.00    -0.550 OA
ATOM      9  O   UNL     1       3.467   7.675  17.536  1.00  0.00    -0.550 OA
ENDBRANCH   6   7
ENDBRANCH   5   6
ENDBRANCH   4   5
ENDBRANCH   3   4
ENDBRANCH   2   3
ENDBRANCH   1   2
BRANCH   1  10
ATOM     10  C   UNL     1       8.228   6.923  10.733  1.00  0.00     0.000 C 
BRANCH  10  11
ATOM     11  C   UNL     1       7.801   8.401  10.717  1.00  0.00    -0.000 C 
BRANCH  11  12
ATOM     12  C   UNL     1       6.486   8.688   9.965  1.00  0.00    -0.000 C 
BRANCH  12  13
ATOM     13  C   UNL     1       5.658   7.440   9.592  1.00  0.00    -0.000 C 
BRANCH  13  14
ATOM     14  C   UNL     1       4.228   7.417  10.160  1.00  0.00    -0.000 C 
BRANCH  14  15
ATOM     15  C   UNL     1       4.148   6.754  11.542  1.00  0.00    -0.003 C 
ATOM     16  C   UNL     1       3.797   7.774  12.622  1.00  0.00     0.004 C 
ENDBRANCH  14  15
ENDBRANCH  13  14
ENDBRANCH  12  13
ENDBRANCH  11  12
ENDBRANCH  10  11
ENDBRANCH   1  10
TORSDOF 12
ENDMDL
MODEL 6
REMARK VINA RESULT:    -4.690      2.874      5.934
REMARK INTER + INTRA:          -9.616
REMARK INTER:                  -8.297
REMARK INTRA:                  -1.319
REMARK UNBOUND:                -1.636
REMARK SMILES CCCCCCCCCCCCCC(=O)[O-]
REMARK SMILES IDX 8 1 9 2 10 3 11 4 12 5 13 6 14 7 15 8 16 9 7 10 6 11 5 12
REMARK SMILES IDX 4 13 3 14 2 15 1 16
REMARK H PARENT
REMARK Flexibility Score: inf
ROOT
ATOM      1  C   UNL     1       8.222   6.336  12.628  1.00  0.00     0.000 C 
ENDROOT
BRANCH   1   2
ATOM      2  C   UNL     1       8.479   7.158  11.355  1.00  0.00     0.000 C 
BRANCH   2   3
ATOM      3  C   UNL     1       8.204   8.658  11.557  1.00  0.00     0.000 C 
BRANCH   3   4
ATOM      4  C   UNL     1       7.831   9.371  10.246  1.00  0.00     0.000 C 
BRANCH   4   5
ATOM      5  C   UNL     1       6.434  10.013  10.296  1.00  0.00     0.006 C 
BRANCH   5   6
ATOM      6  C   UNL     1       5.409   9.113  11.001  1.00  0.00     0.053 C 
BRANCH   6   7
ATOM      7  C   UNL     1       4.867   8.061  10.085  1.00  0.00     0.041 C 
ATOM      8  O   UNL     1       5.233   6.862  10.208  1.00  0.00    -0.550 OA
ATOM      9  O   UNL     1       3.980   8.407   9.073  1.00  0.00    -0.550 OA
ENDBRANCH   6   7
ENDBRANCH   5   6
ENDBRANCH   4   5
ENDBRANCH   3   4
ENDBRANCH   2   3
ENDBRANCH   1   2
BRANCH   1  10
ATOM     10  C   UNL     1       7.275   7.047  13.611  1.00  0.00     0.000 C 
BRANCH  10  11
ATOM     11  C   UNL     1       5.909   6.347  13.732  1.00  0.00    -0.000 C 
BRANCH  11  12
ATOM     12  C   UNL     1       4.745   7.265  14.155  1.00  0.00    -0.000 C 
BRANCH  12  13
ATOM     13  C   UNL     1       4.435   7.276  15.666  1.00  0.00    -0.000 C 
BRANCH  13  14
ATOM     14  C   UNL     1       5.120   6.163  16.478  1.00  0.00    -0.000 C 
BRANCH  14  15
ATOM     15  C   UNL     1       4.177   4.996  16.803  1.00  0.00    -0.003 C 
ATOM     16  C   UNL     1       2.815   5.504  17.269  1.00  0.00     0.004 C 
ENDBRANCH  14  15
ENDBRANCH  13  14
ENDBRANCH  12  13
ENDBRANCH  11  12
ENDBRANCH  10  11
ENDBRANCH   1  10
TORSDOF 12
ENDMDL
MODEL 7
REMARK VINA RESULT:    -4.688      2.824      5.949
REMARK INTER + INTRA:          -9.613
REMARK INTER:                  -8.625
REMARK INTRA:                  -0.988
REMARK UNBOUND:                -1.636
REMARK SMILES CCCCCCCCCCCCCC(=O)[O-]
REMARK SMILES IDX 8 1 9 2 10 3 11 4 12 5 13 6 14 7 15 8 16 9 7 10 6 11 5 12
REMARK SMILES IDX 4 13 3 14 2 15 1 16
REMARK H PARENT
REMARK Flexibility Score: inf
ROOT
ATOM      1  C   UNL     1       7.956   6.774  12.216  1.00  0.00     0.000 C 
ENDROOT
BRANCH   1   2
ATOM      2  C   UNL     1       8.233   8.098  11.484  1.00  0.00     0.000 C 
BRANCH   2   3
ATOM      3  C   UNL     1       7.202   8.385  10.379  1.00  0.00     0.000 C 
BRANCH   3   4
ATOM      4  C   UNL     1       6.368   7.146  10.014  1.00  0.00     0.000 C 
BRANCH   4   5
ATOM      5  C   UNL     1       4.922   7.498   9.624  1.00  0.00     0.006 C 
BRANCH   5   6
ATOM      6  C   UNL     1       3.911   7.057  10.691  1.00  0.00     0.053 C 
BRANCH   6   7
ATOM      7  C   UNL     1       3.601   8.158  11.657  1.00  0.00     0.041 C 
ATOM      8  O   UNL     1       3.963   9.339  11.409  1.00  0.00    -0.550 OA
ATOM      9  O   UNL     1       2.941   7.877  12.846  1.00  0.00    -0.550 OA
ENDBRANCH   6   7
ENDBRANCH   5   6
ENDBRANCH   4   5
ENDBRANCH   3   4
ENDBRANCH   2   3
ENDBRANCH   1   2
BRANCH   1  10
ATOM     10  C   UNL     1       7.310   6.984  13.597  1.00  0.00     0.000 C 
BRANCH  10  11
ATOM     11  C   UNL     1       5.936   6.302  13.721  1.00  0.00    -0.000 C 
BRANCH  11  12
ATOM     12  C   UNL     1       5.656   5.652  15.091  1.00  0.00    -0.000 C 
BRANCH  12  13
ATOM     13  C   UNL     1       5.050   6.594  16.152  1.00  0.00    -0.000 C 
BRANCH  13  14
ATOM     14  C   UNL     1       4.784   5.943  17.521  1.00  0.00    -0.000 C 
BRANCH  14  15
ATOM     15  C   UNL     1       3.664   4.894  17.474  1.00  0.00    -0.003 C 
ATOM     16  C   UNL     1       2.313   5.516  17.815  1.00  0.00     0.004 C 
ENDBRANCH  14  15
ENDBRANCH  13  14
ENDBRANCH  12  13
ENDBRANCH  11  12
ENDBRANCH  10  11
ENDBRANCH   1  10
TORSDOF 12
ENDMDL
MODEL 8
REMARK VINA RESULT:    -4.582      1.246      2.212
REMARK INTER + INTRA:          -9.432
REMARK INTER:                  -7.836
REMARK INTRA:                  -1.596
REMARK UNBOUND:                -1.636
REMARK SMILES CCCCCCCCCCCCCC(=O)[O-]
REMARK SMILES IDX 8 1 9 2 10 3 11 4 12 5 13 6 14 7 15 8 16 9 7 10 6 11 5 12
REMARK SMILES IDX 4 13 3 14 2 15 1 16
REMARK H PARENT
REMARK Flexibility Score: inf
ROOT
ATOM      1  C   UNL     1       2.485   7.780  11.923  1.00  0.00     0.000 C 
ENDROOT
BRANCH   1   2
ATOM      2  C   UNL     1       3.022   9.203  12.151  1.00  0.00     0.000 C 
BRANCH   2   3
ATOM      3  C   UNL     1       3.706   9.360  13.521  1.00  0.00     0.000 C 
BRANCH   3   4
ATOM      4  C   UNL     1       3.506   8.132  14.424  1.00  0.00     0.000 C 
BRANCH   4   5
ATOM      5  C   UNL     1       4.800   7.701  15.135  1.00  0.00     0.006 C 
BRANCH   5   6
ATOM      6  C   UNL     1       5.894   7.285  14.142  1.00  0.00     0.053 C 
BRANCH   6   7
ATOM      7  C   UNL     1       6.612   6.049  14.587  1.00  0.00     0.041 C 
ATOM      8  O   UNL     1       6.016   4.939  14.601  1.00  0.00    -0.550 OA
ATOM      9  O   UNL     1       7.931   6.125  15.016  1.00  0.00    -0.550 OA
ENDBRANCH   6   7
ENDBRANCH   5   6
ENDBRANCH   4   5
ENDBRANCH   3   4
ENDBRANCH   2   3
ENDBRANCH   1   2
BRANCH   1  10
ATOM     10  C   UNL     1       3.090   7.111  10.676  1.00  0.00     0.000 C 
BRANCH  10  11
ATOM     11  C   UNL     1       4.567   6.723  10.867  1.00  0.00    -0.000 C 
BRANCH  11  12
ATOM     12  C   UNL     1       5.559   7.485   9.966  1.00  0.00    -0.000 C 
BRANCH  12  13
ATOM     13  C   UNL     1       6.442   8.522  10.692  1.00  0.00    -0.000 C 
BRANCH  13  14
ATOM     14  C   UNL     1       7.956   8.264  10.598  1.00  0.00    -0.000 C 
BRANCH  14  15
ATOM     15  C   UNL     1       8.398   7.019  11.380  1.00  0.00    -0.003 C 
ATOM     16  C   UNL     1       9.030   5.983  10.455  1.00  0.00     0.004 C 
ENDBRANCH  14  15
ENDBRANCH  13  14
ENDBRANCH  12  13
ENDBRANCH  11  12
ENDBRANCH  10  11
ENDBRANCH   1  10
TORSDOF 12
ENDMDL
MODEL 9
REMARK VINA RESULT:    -4.519      2.854      4.292
REMARK INTER + INTRA:          -9.325
REMARK INTER:                  -8.502
REMARK INTRA:                  -0.823
REMARK UNBOUND:                -1.636
REMARK SMILES CCCCCCCCCCCCCC(=O)[O-]
REMARK SMILES IDX 8 1 9 2 10 3 11 4 12 5 13 6 14 7 15 8 16 9 7 10 6 11 5 12
REMARK SMILES IDX 4 13 3 14 2 15 1 16
REMARK H PARENT
REMARK Flexibility Score: inf
ROOT
ATOM      1  C   UNL     1       6.027   6.262  13.706  1.00  0.00     0.000 C 
ENDROOT
BRANCH   1   2
ATOM      2  C   UNL     1       6.274   6.367  15.219  1.00  0.00     0.000 C 
BRANCH   2   3
ATOM      3  C   UNL     1       4.981   6.637  16.008  1.00  0.00     0.000 C 
BRANCH   3   4
ATOM      4  C   UNL     1       4.448   5.379  16.714  1.00  0.00     0.000 C 
BRANCH   4   5
ATOM      5  C   UNL     1       2.959   5.494  17.086  1.00  0.00     0.006 C 
BRANCH   5   6
ATOM      6  C   UNL     1       2.440   6.932  16.955  1.00  0.00     0.053 C 
BRANCH   6   7
ATOM      7  C   UNL     1       2.584   7.696  18.235  1.00  0.00     0.041 C 
ATOM      8  O   UNL     1       2.610   7.088  19.338  1.00  0.00    -0.550 OA
ATOM      9  O   UNL     1       2.660   9.083  18.214  1.00  0.00    -0.550 OA
ENDBRANCH   6   7
ENDBRANCH   5   6
ENDBRANCH   4   5
ENDBRANCH   3   4
ENDBRANCH   2   3
ENDBRANCH   1   2
BRANCH   1  10
ATOM     10  C   UNL     1       4.838   7.120  13.237  1.00  0.00     0.000 C 
BRANCH  10  11
ATOM     11  C   UNL     1       4.535   6.947  11.739  1.00  0.00    -0.000 C 
BRANCH  11  12
ATOM     12  C   UNL     1       5.430   7.776  10.796  1.00  0.00    -0.000 C 
BRANCH  12  13
ATOM     13  C   UNL     1       6.653   7.028  10.227  1.00  0.00    -0.000 C 
BRANCH  13  14
ATOM     14  C   UNL     1       8.013   7.505  10.766  1.00  0.00    -0.000 C 
BRANCH  14  15
ATOM     15  C   UNL     1       8.920   6.346  11.202  1.00  0.00    -0.003 C 
ATOM     16  C   UNL     1       9.395   5.536   9.999  1.00  0.00     0.004 C 
ENDBRANCH  14  15
ENDBRANCH  13  14
ENDBRANCH  12  13
ENDBRANCH  11  12
ENDBRANCH  10  11
ENDBRANCH   1  10
TORSDOF 12
ENDMDL
