MODEL 1
REMARK VINA RESULT:    -3.738      0.000      0.000
REMARK INTER + INTRA:          -5.011
REMARK INTER:                  -4.831
REMARK INTRA:                  -0.180
REMARK UNBOUND:                -0.180
REMARK SMILES CCCCCCC(=O)[O-]
REMARK SMILES IDX 5 1 6 2 7 3 8 4 9 5 4 6 3 7 2 8 1 9
REMARK H PARENT
REMARK Flexibility Score: inf
ROOT
ATOM      1  C   UNL     1       6.753   4.703  19.756  1.00  0.00     0.006 C 
ENDROOT
BRANCH   1   2
ATOM      2  C   UNL     1       5.740   3.554  19.690  1.00  0.00     0.053 C 
BRANCH   2   3
ATOM      3  C   UNL     1       5.044   3.349  21.000  1.00  0.00     0.041 C 
ATOM      4  O   UNL     1       4.231   4.211  21.427  1.00  0.00    -0.550 OA
ATOM      5  O   UNL     1       5.266   2.190  21.734  1.00  0.00    -0.550 OA
ENDBRANCH   2   3
ENDBRANCH   1   2
BRANCH   1   6
ATOM      6  C   UNL     1       6.410   5.838  18.778  1.00  0.00     0.000 C 
BRANCH   6   7
ATOM      7  C   UNL     1       6.140   5.288  17.371  1.00  0.00    -0.000 C 
BRANCH   7   8
ATOM      8  C   UNL     1       6.350   6.343  16.273  1.00  0.00    -0.003 C 
ATOM      9  C   UNL     1       6.343   7.771  16.817  1.00  0.00     0.004 C 
ENDBRANCH   7   8
ENDBRANCH   6   7
ENDBRANCH   1   6
TORSDOF 5
ENDMDL
MODEL 2
REMARK VINA RESULT:    -3.676      6.195      7.484
REMARK INTER + INTRA:          -4.931
REMARK INTER:                  -4.764
REMARK INTRA:                  -0.167
REMARK UNBOUND:                -0.180
REMARK SMILES CCCCCCC(=O)[O-]
REMARK SMILES IDX 5 1 6 2 7 3 8 4 9 5 4 6 3 7 2 8 1 9
REMARK H PARENT
REMARK Flexibility Score: inf
ROOT
ATOM      1  C   UNL     1       9.772   5.697  14.855  1.00  0.00     0.006 C 
ENDROOT
BRANCH   1   2
ATOM      2  C   UNL     1      10.385   6.786  13.967  1.00  0.00     0.053 C 
BRANCH   2   3
ATOM      3  C   UNL     1      10.387   6.391  12.523  1.00  0.00     0.041 C 
ATOM      4  O   UNL     1       9.328   5.990  11.974  1.00  0.00    -0.550 OA
ATOM      5  O   UNL     1      11.553   6.497  11.773  1.00  0.00    -0.550 OA
ENDBRANCH   2   3
ENDBRANCH   1   2
BRANCH   1   6
ATOM      6  C   UNL     1       8.595   6.221  15.693  1.00  0.00     0.000 C 
BRANCH   6   7
ATOM      7  C   UNL     1       7.378   5.293  15.570  1.00  0.00    -0.000 C 
BRANCH   7   8
ATOM      8  C   UNL     1       6.123   5.874  16.240  1.00  0.00    -0.003 C 
ATOM      9  C   UNL     1       6.336   7.292  16.768  1.00  0.00     0.004 C 
ENDBRANCH   7   8
ENDBRANCH   6   7
ENDBRANCH   1   6
TORSDOF 5
ENDMDL
MODEL 3
REMARK VINA RESULT:    -3.675      1.381      1.990
REMARK INTER + INTRA:          -4.929
REMARK INTER:                  -4.642
REMARK INTRA:                  -0.288
REMARK UNBOUND:                -0.180
REMARK SMILES CCCCCCC(=O)[O-]
REMARK SMILES IDX 5 1 6 2 7 3 8 4 9 5 4 6 3 7 2 8 1 9
REMARK H PARENT
REMARK Flexibility Score: inf
ROOT
ATOM      1  C   UNL     1       6.860   5.850  18.936  1.00  0.00     0.006 C 
ENDROOT
BRANCH   1   2
ATOM      2  C   UNL     1       6.060   5.539  20.207  1.00  0.00     0.053 C 
BRANCH   2   3
ATOM      3  C   UNL     1       5.420   4.186  20.145  1.00  0.00     0.041 C 
ATOM      4  O   UNL     1       5.731   3.380  19.230  1.00  0.00    -0.550 OA
ATOM      5  O   UNL     1       4.504   3.803  21.118  1.00  0.00    -0.550 OA
ENDBRANCH   2   3
ENDBRANCH   1   2
BRANCH   1   6
ATOM      6  C   UNL     1       6.298   7.061  18.176  1.00  0.00     0.000 C 
BRANCH   6   7
ATOM      7  C   UNL     1       6.545   6.925  16.667  1.00  0.00    -0.000 C 
BRANCH   7   8
ATOM      8  C   UNL     1       6.579   5.460  16.203  1.00  0.00    -0.003 C 
ATOM      9  C   UNL     1       5.213   4.954  15.742  1.00  0.00     0.004 C 
ENDBRANCH   7   8
ENDBRANCH   6   7
ENDBRANCH   1   6
TORSDOF 5
ENDMDL
MODEL 4
REMARK VINA RESULT:    -3.659      1.259      1.733
REMARK INTER + INTRA:          -4.909
REMARK INTER:                  -4.753
REMARK INTRA:                  -0.156
REMARK UNBOUND:                -0.180
REMARK SMILES CCCCCCC(=O)[O-]
REMARK SMILES IDX 5 1 6 2 7 3 8 4 9 5 4 6 3 7 2 8 1 9
REMARK H PARENT
REMARK Flexibility Score: inf
ROOT
ATOM      1  C   UNL     1       6.393   5.242  18.657  1.00  0.00     0.006 C 
ENDROOT
BRANCH   1   2
ATOM      2  C   UNL     1       5.902   5.109  20.104  1.00  0.00     0.053 C 
BRANCH   2   3
ATOM      3  C   UNL     1       5.303   3.761  20.366  1.00  0.00     0.041 C 
ATOM      4  O   UNL     1       4.437   3.618  21.269  1.00  0.00    -0.550 OA
ATOM      5  O   UNL     1       5.676   2.670  19.591  1.00  0.00    -0.550 OA
ENDBRANCH   2   3
ENDBRANCH   1   2
BRANCH   1   6
ATOM      6  C   UNL     1       6.416   6.703  18.182  1.00  0.00     0.000 C 
BRANCH   6   7
ATOM      7  C   UNL     1       6.456   6.781  16.649  1.00  0.00    -0.000 C 
BRANCH   7   8
ATOM      8  C   UNL     1       6.302   5.405  15.983  1.00  0.00    -0.003 C 
ATOM      9  C   UNL     1       7.542   4.987  15.194  1.00  0.00     0.004 C 
ENDBRANCH   7   8
ENDBRANCH   6   7
ENDBRANCH   1   6
TORSDOF 5
ENDMDL
MODEL 5
REMARK VINA RESULT:    -3.649      1.431      1.605
REMARK INTER + INTRA:          -4.896
REMARK INTER:                  -4.671
REMARK INTRA:                  -0.225
REMARK UNBOUND:                -0.180
REMARK SMILES CCCCCCC(=O)[O-]
REMARK SMILES IDX 5 1 6 2 7 3 8 4 9 5 4 6 3 7 2 8 1 9
REMARK H PARENT
REMARK Flexibility Score: inf
ROOT
ATOM      1  C   UNL     1       6.337   6.319  20.775  1.00  0.00     0.006 C 
ENDROOT
BRANCH   1   2
ATOM      2  C   UNL     1       4.884   6.043  21.178  1.00  0.00     0.053 C 
BRANCH   2   3
ATOM      3  C   UNL     1       4.680   4.617  21.587  1.00  0.00     0.041 C 
ATOM      4  O   UNL     1       4.341   4.338  22.767  1.00  0.00    -0.550 OA
ATOM      5  O   UNL     1       4.833   3.597  20.656  1.00  0.00    -0.550 OA
ENDBRANCH   2   3
ENDBRANCH   1   2
BRANCH   1   6
ATOM      6  C   UNL     1       6.450   6.877  19.348  1.00  0.00     0.000 C 
BRANCH   6   7
ATOM      7  C   UNL     1       6.401   5.746  18.311  1.00  0.00    -0.000 C 
BRANCH   7   8
ATOM      8  C   UNL     1       6.157   6.262  16.884  1.00  0.00    -0.003 C 
ATOM      9  C   UNL     1       6.354   7.773  16.760  1.00  0.00     0.004 C 
ENDBRANCH   7   8
ENDBRANCH   6   7
ENDBRANCH   1   6
TORSDOF 5
ENDMDL
MODEL 6
REMARK VINA RESULT:    -3.645      5.324      6.597
REMARK INTER + INTRA:          -4.890
REMARK INTER:                  -4.737
REMARK INTRA:                  -0.153
REMARK UNBOUND:                -0.180
REMARK SMILES CCCCCCC(=O)[O-]
REMARK SMILES IDX 5 1 6 2 7 3 8 4 9 5 4 6 3 7 2 8 1 9
REMARK H PARENT
REMARK Flexibility Score: inf
ROOT
ATOM      1  C   UNL     1       8.352   6.002  15.648  1.00  0.00     0.006 C 
ENDROOT
BRANCH   1   2
ATOM      2  C   UNL     1       9.403   5.619  14.599  1.00  0.00     0.053 C 
BRANCH   2   3
ATOM      3  C   UNL     1      10.289   6.775  14.250  1.00  0.00     0.041 C 
ATOM      4  O   UNL     1      10.832   7.454  15.160  1.00  0.00    -0.550 OA
ATOM      5  O   UNL     1      10.543   7.081  12.918  1.00  0.00    -0.550 OA
ENDBRANCH   2   3
ENDBRANCH   1   2
BRANCH   1   6
ATOM      6  C   UNL     1       7.088   5.136  15.550  1.00  0.00     0.000 C 
BRANCH   6   7
ATOM      7  C   UNL     1       5.909   5.801  16.275  1.00  0.00    -0.000 C 
BRANCH   7   8
ATOM      8  C   UNL     1       6.357   6.916  17.232  1.00  0.00    -0.003 C 
ATOM      9  C   UNL     1       6.374   6.470  18.694  1.00  0.00     0.004 C 
ENDBRANCH   7   8
ENDBRANCH   6   7
ENDBRANCH   1   6
TORSDOF 5
ENDMDL
MODEL 7
REMARK VINA RESULT:    -3.543      3.771      5.337
REMARK INTER + INTRA:          -4.758
REMARK INTER:                  -4.597
REMARK INTRA:                  -0.161
REMARK UNBOUND:                -0.180
REMARK SMILES CCCCCCC(=O)[O-]
REMARK SMILES IDX 5 1 6 2 7 3 8 4 9 5 4 6 3 7 2 8 1 9
REMARK H PARENT
REMARK Flexibility Score: inf
ROOT
ATOM      1  C   UNL     1       6.397   6.618  17.287  1.00  0.00     0.006 C 
ENDROOT
BRANCH   1   2
ATOM      2  C   UNL     1       6.382   5.577  16.161  1.00  0.00     0.053 C 
BRANCH   2   3
ATOM      3  C   UNL     1       7.710   5.481  15.473  1.00  0.00     0.041 C 
ATOM      4  O   UNL     1       7.918   4.578  14.622  1.00  0.00    -0.550 OA
ATOM      5  O   UNL     1       8.705   6.411  15.748  1.00  0.00    -0.550 OA
ENDBRANCH   2   3
ENDBRANCH   1   2
BRANCH   1   6
ATOM      6  C   UNL     1       6.443   5.970  18.679  1.00  0.00     0.000 C 
BRANCH   6   7
ATOM      7  C   UNL     1       6.132   4.469  18.596  1.00  0.00    -0.000 C 
BRANCH   7   8
ATOM      8  C   UNL     1       5.653   3.889  19.936  1.00  0.00    -0.003 C 
ATOM      9  C   UNL     1       5.936   2.393  20.068  1.00  0.00     0.004 C 
ENDBRANCH   7   8
ENDBRANCH   6   7
ENDBRANCH   1   6
TORSDOF 5
ENDMDL
MODEL 8
REMARK VINA RESULT:    -3.479      2.628      3.533
REMARK INTER + INTRA:          -4.677
REMARK INTER:                  -4.485
REMARK INTRA:                  -0.192
REMARK UNBOUND:                -0.180
REMARK SMILES CCCCCCC(=O)[O-]
REMARK SMILES IDX 5 1 6 2 7 3 8 4 9 5 4 6 3 7 2 8 1 9
REMARK H PARENT
REMARK Flexibility Score: inf
ROOT
ATOM      1  C   UNL     1       6.020   5.678  16.405  1.00  0.00     0.006 C 
ENDROOT
BRANCH   1   2
ATOM      2  C   UNL     1       6.391   6.446  17.679  1.00  0.00     0.053 C 
BRANCH   2   3
ATOM      3  C   UNL     1       6.238   5.598  18.904  1.00  0.00     0.041 C 
ATOM      4  O   UNL     1       5.846   6.112  19.985  1.00  0.00    -0.550 OA
ATOM      5  O   UNL     1       6.496   4.234  18.845  1.00  0.00    -0.550 OA
ENDBRANCH   2   3
ENDBRANCH   1   2
BRANCH   1   6
ATOM      6  C   UNL     1       7.252   5.323  15.558  1.00  0.00     0.000 C 
BRANCH   6   7
ATOM      7  C   UNL     1       8.463   6.172  15.969  1.00  0.00    -0.000 C 
BRANCH   7   8
ATOM      8  C   UNL     1       9.602   6.116  14.939  1.00  0.00    -0.003 C 
ATOM      9  C   UNL     1      10.658   7.198  15.164  1.00  0.00     0.004 C 
ENDBRANCH   7   8
ENDBRANCH   6   7
ENDBRANCH   1   6
TORSDOF 5
ENDMDL
MODEL 9
REMARK VINA RESULT:    -3.376      2.972      3.795
REMARK INTER + INTRA:          -4.543
REMARK INTER:                  -4.322
REMARK INTRA:                  -0.221
REMARK UNBOUND:                -0.180
REMARK SMILES CCCCCCC(=O)[O-]
REMARK SMILES IDX 5 1 6 2 7 3 8 4 9 5 4 6 3 7 2 8 1 9
REMARK H PARENT
REMARK Flexibility Score: inf
ROOT
ATOM      1  C   UNL     1       6.114   5.904  20.109  1.00  0.00     0.006 C 
ENDROOT
BRANCH   1   2
ATOM      2  C   UNL     1       6.106   7.420  20.343  1.00  0.00     0.053 C 
BRANCH   2   3
ATOM      3  C   UNL     1       7.241   7.854  21.218  1.00  0.00     0.041 C 
ATOM      4  O   UNL     1       7.909   7.001  21.859  1.00  0.00    -0.550 OA
ATOM      5  O   UNL     1       7.582   9.199  21.300  1.00  0.00    -0.550 OA
ENDBRANCH   2   3
ENDBRANCH   1   2
BRANCH   1   6
ATOM      6  C   UNL     1       6.546   5.537  18.681  1.00  0.00     0.000 C 
BRANCH   6   7
ATOM      7  C   UNL     1       6.404   6.741  17.738  1.00  0.00    -0.000 C 
BRANCH   7   8
ATOM      8  C   UNL     1       6.420   6.336  16.256  1.00  0.00    -0.003 C 
ATOM      9  C   UNL     1       5.518   5.139  15.960  1.00  0.00     0.004 C 
ENDBRANCH   7   8
ENDBRANCH   6   7
ENDBRANCH   1   6
TORSDOF 5
ENDMDL
