MODEL 1
REMARK VINA RESULT:    36.518      0.000      0.000
REMARK INTER + INTRA:          50.630
REMARK INTER:                  49.327
REMARK INTRA:                   1.303
REMARK UNBOUND:                 1.303
REMARK SMILES COc1ccc(-c2cc(=O)c3c(OC)c(OC)c(OC)c(OC)c3o2)cc1
REMARK SMILES IDX 7 1 8 2 9 3 10 4 11 5 24 6 25 7 21 8 18 9 15 10 12 11 6 12
REMARK SMILES IDX 3 13 4 14 27 15 5 16 26 17 2 18 1 19 22 20 23 21 13 22 14 23
REMARK SMILES IDX 19 24 20 25 16 26 17 27
REMARK H PARENT
REMARK Flexibility Score: inf
ROOT
ATOM      1  C   UNL     1     -24.293  60.777  -1.361  1.00  0.00     0.138 A 
ATOM      2  C   UNL     1     -24.301  61.711  -0.316  1.00  0.00     0.100 A 
ATOM      3  C   UNL     1     -23.127  62.391   0.004  1.00  0.00     0.197 A 
ATOM      4  O   UNL     1     -23.144  63.214   0.960  1.00  0.00    -0.289 OA
ATOM      5  C   UNL     1     -21.949  62.137  -0.731  1.00  0.00     0.115 A 
ATOM      6  C   UNL     1     -22.008  61.152  -1.744  1.00  0.00     0.188 A 
ATOM      7  O   UNL     1     -23.157  60.533  -2.010  1.00  0.00    -0.452 OA
ATOM      8  C   UNL     1     -20.865  60.834  -2.494  1.00  0.00     0.209 A 
ATOM      9  C   UNL     1     -19.651  61.521  -2.259  1.00  0.00     0.211 A 
ATOM     10  C   UNL     1     -19.578  62.477  -1.234  1.00  0.00     0.208 A 
ATOM     11  C   UNL     1     -20.735  62.827  -0.503  1.00  0.00     0.179 A 
ENDROOT
BRANCH   1  12
ATOM     12  C   UNL     1     -25.521  60.042  -1.758  1.00  0.00     0.018 A 
ATOM     13  C   UNL     1     -27.874  58.692  -2.540  1.00  0.00     0.118 A 
ATOM     14  C   UNL     1     -27.257  58.391  -1.312  1.00  0.00     0.047 A 
ATOM     15  C   UNL     1     -27.314  59.675  -3.361  1.00  0.00     0.047 A 
ATOM     16  C   UNL     1     -26.093  59.062  -0.925  1.00  0.00     0.016 A 
ATOM     17  C   UNL     1     -26.153  60.348  -2.974  1.00  0.00     0.016 A 
BRANCH  13  18
ATOM     18  O   UNL     1     -29.036  58.040  -2.979  1.00  0.00    -0.497 OA
ATOM     19  C   UNL     1     -29.235  57.557  -4.303  1.00  0.00     0.278 C 
ENDBRANCH  13  18
ENDBRANCH   1  12
BRANCH   8  20
ATOM     20  O   UNL     1     -20.945  59.843  -3.477  1.00  0.00    -0.490 OA
ATOM     21  C   UNL     1     -21.533  60.087  -4.751  1.00  0.00     0.278 C 
ENDBRANCH   8  20
BRANCH  11  22
ATOM     22  O   UNL     1     -20.691  63.885   0.407  1.00  0.00    -0.492 OA
ATOM     23  C   UNL     1     -20.232  65.173   0.009  1.00  0.00     0.278 C 
ENDBRANCH  11  22
BRANCH   9  24
ATOM     24  O   UNL     1     -18.469  61.287  -2.991  1.00  0.00    -0.490 OA
ATOM     25  C   UNL     1     -17.137  61.506  -2.541  1.00  0.00     0.279 C 
ENDBRANCH   9  24
BRANCH  10  26
ATOM     26  O   UNL     1     -18.319  63.053  -0.988  1.00  0.00    -0.490 OA
ATOM     27  C   UNL     1     -17.661  63.084   0.280  1.00  0.00     0.278 C 
ENDBRANCH  10  26
TORSDOF 6
ENDMDL
MODEL 2
REMARK VINA RESULT:    36.582      2.249      8.172
REMARK INTER + INTRA:          50.716
REMARK INTER:                  49.683
REMARK INTRA:                   1.033
REMARK UNBOUND:                 1.303
REMARK SMILES COc1ccc(-c2cc(=O)c3c(OC)c(OC)c(OC)c(OC)c3o2)cc1
REMARK SMILES IDX 7 1 8 2 9 3 10 4 11 5 24 6 25 7 21 8 18 9 15 10 12 11 6 12
REMARK SMILES IDX 3 13 4 14 27 15 5 16 26 17 2 18 1 19 22 20 23 21 13 22 14 23
REMARK SMILES IDX 19 24 20 25 16 26 17 27
REMARK H PARENT
REMARK Flexibility Score: inf
ROOT
ATOM      1  C   UNL     1     -18.030  62.352  -1.159  1.00  0.00     0.138 A 
ATOM      2  C   UNL     1     -18.303  63.494  -0.394  1.00  0.00     0.100 A 
ATOM      3  C   UNL     1     -19.621  63.794  -0.056  1.00  0.00     0.197 A 
ATOM      4  O   UNL     1     -19.854  64.835   0.615  1.00  0.00    -0.289 OA
ATOM      5  C   UNL     1     -20.664  62.942  -0.483  1.00  0.00     0.115 A 
ATOM      6  C   UNL     1     -20.315  61.831  -1.285  1.00  0.00     0.188 A 
ATOM      7  O   UNL     1     -19.038  61.589  -1.577  1.00  0.00    -0.452 OA
ATOM      8  C   UNL     1     -21.307  60.959  -1.762  1.00  0.00     0.209 A 
ATOM      9  C   UNL     1     -22.662  61.173  -1.417  1.00  0.00     0.211 A 
ATOM     10  C   UNL     1     -23.018  62.292  -0.647  1.00  0.00     0.208 A 
ATOM     11  C   UNL     1     -22.019  63.148  -0.133  1.00  0.00     0.179 A 
ENDROOT
BRANCH   1  12
ATOM     12  C   UNL     1     -16.642  61.974  -1.528  1.00  0.00     0.018 A 
ATOM     13  C   UNL     1     -13.982  61.288  -2.183  1.00  0.00     0.118 A 
ATOM     14  C   UNL     1     -14.950  61.424  -3.194  1.00  0.00     0.047 A 
ATOM     15  C   UNL     1     -14.352  61.508  -0.852  1.00  0.00     0.047 A 
ATOM     16  C   UNL     1     -16.267  61.766  -2.868  1.00  0.00     0.016 A 
ATOM     17  C   UNL     1     -15.665  61.853  -0.525  1.00  0.00     0.016 A 
BRANCH  13  18
ATOM     18  O   UNL     1     -12.653  60.936  -2.455  1.00  0.00    -0.497 OA
ATOM     19  C   UNL     1     -11.876  60.048  -1.658  1.00  0.00     0.278 C 
ENDBRANCH  13  18
ENDBRANCH   1  12
BRANCH   8  20
ATOM     20  O   UNL     1     -20.938  59.880  -2.570  1.00  0.00    -0.490 OA
ATOM     21  C   UNL     1     -21.218  59.850  -3.967  1.00  0.00     0.278 C 
ENDBRANCH   8  20
BRANCH  11  22
ATOM     22  O   UNL     1     -22.365  64.166   0.757  1.00  0.00    -0.492 OA
ATOM     23  C   UNL     1     -22.682  63.875   2.115  1.00  0.00     0.278 C 
ENDBRANCH  11  22
BRANCH   9  24
ATOM     24  O   UNL     1     -23.712  60.326  -1.825  1.00  0.00    -0.490 OA
ATOM     25  C   UNL     1     -24.811  59.898  -1.029  1.00  0.00     0.279 C 
ENDBRANCH   9  24
BRANCH  10  26
ATOM     26  O   UNL     1     -24.389  62.500  -0.420  1.00  0.00    -0.490 OA
ATOM     27  C   UNL     1     -25.065  62.262   0.815  1.00  0.00     0.278 C 
ENDBRANCH  10  26
TORSDOF 6
ENDMDL
MODEL 3
REMARK VINA RESULT:    39.294      3.423      9.191
REMARK INTER + INTRA:          54.379
REMARK INTER:                  54.153
REMARK INTRA:                   0.225
REMARK UNBOUND:                 1.303
REMARK SMILES COc1ccc(-c2cc(=O)c3c(OC)c(OC)c(OC)c(OC)c3o2)cc1
REMARK SMILES IDX 7 1 8 2 9 3 10 4 11 5 24 6 25 7 21 8 18 9 15 10 12 11 6 12
REMARK SMILES IDX 3 13 4 14 27 15 5 16 26 17 2 18 1 19 22 20 23 21 13 22 14 23
REMARK SMILES IDX 19 24 20 25 16 26 17 27
REMARK H PARENT
REMARK Flexibility Score: inf
ROOT
ATOM      1  C   UNL     1     -17.850  65.545  -1.131  1.00  0.00     0.138 A 
ATOM      2  C   UNL     1     -18.813  65.940  -0.192  1.00  0.00     0.100 A 
ATOM      3  C   UNL     1     -19.894  65.102   0.074  1.00  0.00     0.197 A 
ATOM      4  O   UNL     1     -20.764  65.479   0.905  1.00  0.00    -0.289 OA
ATOM      5  C   UNL     1     -20.003  63.865  -0.599  1.00  0.00     0.115 A 
ATOM      6  C   UNL     1     -19.015  63.553  -1.560  1.00  0.00     0.188 A 
ATOM      7  O   UNL     1     -18.001  64.390  -1.774  1.00  0.00    -0.452 OA
ATOM      8  C   UNL     1     -19.078  62.350  -2.282  1.00  0.00     0.209 A 
ATOM      9  C   UNL     1     -20.121  61.428  -2.028  1.00  0.00     0.211 A 
ATOM     10  C   UNL     1     -21.122  61.746  -1.097  1.00  0.00     0.208 A 
ATOM     11  C   UNL     1     -21.039  62.937  -0.342  1.00  0.00     0.179 A 
ENDROOT
BRANCH   1  12
ATOM     12  C   UNL     1     -16.667  66.389  -1.435  1.00  0.00     0.018 A 
ATOM     13  C   UNL     1     -14.436  68.000  -2.069  1.00  0.00     0.118 A 
ATOM     14  C   UNL     1     -14.316  66.958  -1.132  1.00  0.00     0.047 A 
ATOM     15  C   UNL     1     -15.670  68.220  -2.689  1.00  0.00     0.047 A 
ATOM     16  C   UNL     1     -15.421  66.159  -0.821  1.00  0.00     0.016 A 
ATOM     17  C   UNL     1     -16.773  67.421  -2.382  1.00  0.00     0.016 A 
BRANCH  13  18
ATOM     18  O   UNL     1     -13.362  68.836  -2.407  1.00  0.00    -0.497 OA
ATOM     19  C   UNL     1     -12.041  68.697  -1.894  1.00  0.00     0.278 C 
ENDBRANCH  13  18
ENDBRANCH   1  12
BRANCH   8  20
ATOM     20  O   UNL     1     -18.100  62.075  -3.241  1.00  0.00    -0.490 OA
ATOM     21  C   UNL     1     -16.842  61.503  -2.896  1.00  0.00     0.278 C 
ENDBRANCH   8  20
BRANCH  11  22
ATOM     22  O   UNL     1     -21.951  63.173   0.688  1.00  0.00    -0.492 OA
ATOM     23  C   UNL     1     -23.354  63.061   0.464  1.00  0.00     0.278 C 
ENDBRANCH  11  22
BRANCH   9  24
ATOM     24  O   UNL     1     -20.237  60.185  -2.682  1.00  0.00    -0.490 OA
ATOM     25  C   UNL     1     -20.820  59.951  -3.958  1.00  0.00     0.279 C 
ENDBRANCH   9  24
BRANCH  10  26
ATOM     26  O   UNL     1     -22.180  60.830  -0.961  1.00  0.00    -0.490 OA
ATOM     27  C   UNL     1     -23.357  60.807  -1.770  1.00  0.00     0.278 C 
ENDBRANCH  10  26
TORSDOF 6
ENDMDL
