MODEL 1
REMARK VINA RESULT:    -5.722      0.000      0.000
REMARK INTER + INTRA:         -19.459
REMARK INTER:                 -15.088
REMARK INTRA:                  -4.371
REMARK UNBOUND:                -4.371
REMARK SMILES CCCCCCCCCCCCCCCCCCCCCCCCCCCCCC(=O)[O-]
REMARK SMILES IDX 16 1 17 2 18 3 19 4 20 5 21 6 22 7 23 8 24 9 25 10 26 11
REMARK SMILES IDX 27 12 28 13 29 14 30 15 31 16 32 17 15 18 14 19 13 20 12 21
REMARK SMILES IDX 11 22 10 23 9 24 8 25 7 26 6 27 5 28 4 29 3 30 2 31 1 32
REMARK H PARENT
REMARK Flexibility Score: inf
ROOT
ATOM      1  C   UNL     1     -18.390 -31.419  23.391  1.00  0.00     0.000 C 
ENDROOT
BRANCH   1   2
ATOM      2  C   UNL     1     -17.092 -30.633  23.612  1.00  0.00     0.000 C 
BRANCH   2   3
ATOM      3  C   UNL     1     -16.250 -30.588  22.326  1.00  0.00     0.000 C 
BRANCH   3   4
ATOM      4  C   UNL     1     -16.260 -29.205  21.655  1.00  0.00     0.000 C 
BRANCH   4   5
ATOM      5  C   UNL     1     -17.502 -28.375  22.022  1.00  0.00     0.000 C 
BRANCH   5   6
ATOM      6  C   UNL     1     -17.222 -26.862  22.050  1.00  0.00     0.000 C 
BRANCH   6   7
ATOM      7  C   UNL     1     -17.898 -26.091  23.199  1.00  0.00     0.000 C 
BRANCH   7   8
ATOM      8  C   UNL     1     -19.074 -25.185  22.785  1.00  0.00     0.000 C 
BRANCH   8   9
ATOM      9  C   UNL     1     -20.400 -25.507  23.507  1.00  0.00     0.000 C 
BRANCH   9  10
ATOM     10  C   UNL     1     -20.638 -27.020  23.668  1.00  0.00     0.000 C 
BRANCH  10  11
ATOM     11  C   UNL     1     -21.429 -27.627  22.495  1.00  0.00     0.000 C 
BRANCH  11  12
ATOM     12  C   UNL     1     -22.919 -27.900  22.785  1.00  0.00     0.000 C 
BRANCH  12  13
ATOM     13  C   UNL     1     -23.746 -28.377  21.574  1.00  0.00     0.006 C 
BRANCH  13  14
ATOM     14  C   UNL     1     -25.062 -27.611  21.364  1.00  0.00     0.053 C 
BRANCH  14  15
ATOM     15  C   UNL     1     -25.044 -26.803  20.104  1.00  0.00     0.041 C 
ATOM     16  O   UNL     1     -24.097 -26.006  19.874  1.00  0.00    -0.550 OA
ATOM     17  O   UNL     1     -26.089 -26.909  19.195  1.00  0.00    -0.550 OA
ENDBRANCH  14  15
ENDBRANCH  13  14
ENDBRANCH  12  13
ENDBRANCH  11  12
ENDBRANCH  10  11
ENDBRANCH   9  10
ENDBRANCH   8   9
ENDBRANCH   7   8
ENDBRANCH   6   7
ENDBRANCH   5   6
ENDBRANCH   4   5
ENDBRANCH   3   4
ENDBRANCH   2   3
ENDBRANCH   1   2
BRANCH   1  18
ATOM     18  C   UNL     1     -19.586 -30.694  24.025  1.00  0.00     0.000 C 
BRANCH  18  19
ATOM     19  C   UNL     1     -20.944 -31.226  23.531  1.00  0.00     0.000 C 
BRANCH  19  20
ATOM     20  C   UNL     1     -22.150 -30.856  24.413  1.00  0.00     0.000 C 
BRANCH  20  21
ATOM     21  C   UNL     1     -23.354 -31.791  24.205  1.00  0.00     0.000 C 
BRANCH  21  22
ATOM     22  C   UNL     1     -24.459 -31.567  25.250  1.00  0.00     0.000 C 
BRANCH  22  23
ATOM     23  C   UNL     1     -25.072 -32.887  25.749  1.00  0.00     0.000 C 
BRANCH  23  24
ATOM     24  C   UNL     1     -26.528 -32.731  26.224  1.00  0.00    -0.000 C 
BRANCH  24  25
ATOM     25  C   UNL     1     -27.016 -31.279  26.381  1.00  0.00    -0.000 C 
BRANCH  25  26
ATOM     26  C   UNL     1     -28.309 -30.994  25.598  1.00  0.00    -0.000 C 
BRANCH  26  27
ATOM     27  C   UNL     1     -28.280 -29.638  24.876  1.00  0.00    -0.000 C 
BRANCH  27  28
ATOM     28  C   UNL     1     -27.134 -29.527  23.853  1.00  0.00    -0.000 C 
BRANCH  28  29
ATOM     29  C   UNL     1     -27.464 -30.252  22.530  1.00  0.00    -0.000 C 
BRANCH  29  30
ATOM     30  C   UNL     1     -26.535 -31.442  22.233  1.00  0.00    -0.000 C 
BRANCH  30  31
ATOM     31  C   UNL     1     -27.148 -32.791  22.630  1.00  0.00    -0.003 C 
ATOM     32  C   UNL     1     -28.610 -32.878  22.202  1.00  0.00     0.004 C 
ENDBRANCH  30  31
ENDBRANCH  29  30
ENDBRANCH  28  29
ENDBRANCH  27  28
ENDBRANCH  26  27
ENDBRANCH  25  26
ENDBRANCH  24  25
ENDBRANCH  23  24
ENDBRANCH  22  23
ENDBRANCH  21  22
ENDBRANCH  20  21
ENDBRANCH  19  20
ENDBRANCH  18  19
ENDBRANCH   1  18
TORSDOF 28
ENDMDL
MODEL 2
REMARK VINA RESULT:    -5.705      1.913      4.121
REMARK INTER + INTRA:         -19.414
REMARK INTER:                 -13.910
REMARK INTRA:                  -5.504
REMARK UNBOUND:                -4.371
REMARK SMILES CCCCCCCCCCCCCCCCCCCCCCCCCCCCCC(=O)[O-]
REMARK SMILES IDX 16 1 17 2 18 3 19 4 20 5 21 6 22 7 23 8 24 9 25 10 26 11
REMARK SMILES IDX 27 12 28 13 29 14 30 15 31 16 32 17 15 18 14 19 13 20 12 21
REMARK SMILES IDX 11 22 10 23 9 24 8 25 7 26 6 27 5 28 4 29 3 30 2 31 1 32
REMARK H PARENT
REMARK Flexibility Score: inf
ROOT
ATOM      1  C   UNL     1     -22.513 -27.612  24.375  1.00  0.00     0.000 C 
ENDROOT
BRANCH   1   2
ATOM      2  C   UNL     1     -20.986 -27.732  24.443  1.00  0.00     0.000 C 
BRANCH   2   3
ATOM      3  C   UNL     1     -20.551 -28.527  25.684  1.00  0.00     0.000 C 
BRANCH   3   4
ATOM      4  C   UNL     1     -19.237 -29.297  25.470  1.00  0.00     0.000 C 
BRANCH   4   5
ATOM      5  C   UNL     1     -18.824 -29.364  23.990  1.00  0.00     0.000 C 
BRANCH   5   6
ATOM      6  C   UNL     1     -18.699 -30.808  23.470  1.00  0.00     0.000 C 
BRANCH   6   7
ATOM      7  C   UNL     1     -19.970 -31.667  23.610  1.00  0.00     0.000 C 
BRANCH   7   8
ATOM      8  C   UNL     1     -21.263 -31.026  23.071  1.00  0.00     0.000 C 
BRANCH   8   9
ATOM      9  C   UNL     1     -22.553 -31.766  23.486  1.00  0.00     0.000 C 
BRANCH   9  10
ATOM     10  C   UNL     1     -23.813 -31.188  22.817  1.00  0.00     0.000 C 
BRANCH  10  11
ATOM     11  C   UNL     1     -23.494 -30.044  21.837  1.00  0.00     0.000 C 
BRANCH  11  12
ATOM     12  C   UNL     1     -24.727 -29.337  21.236  1.00  0.00     0.000 C 
BRANCH  12  13
ATOM     13  C   UNL     1     -24.562 -27.823  20.996  1.00  0.00     0.006 C 
BRANCH  13  14
ATOM     14  C   UNL     1     -25.875 -27.026  21.052  1.00  0.00     0.053 C 
BRANCH  14  15
ATOM     15  C   UNL     1     -25.725 -25.658  20.461  1.00  0.00     0.041 C 
ATOM     16  O   UNL     1     -24.663 -25.336  19.867  1.00  0.00    -0.550 OA
ATOM     17  O   UNL     1     -26.749 -24.728  20.593  1.00  0.00    -0.550 OA
ENDBRANCH  14  15
ENDBRANCH  13  14
ENDBRANCH  12  13
ENDBRANCH  11  12
ENDBRANCH  10  11
ENDBRANCH   9  10
ENDBRANCH   8   9
ENDBRANCH   7   8
ENDBRANCH   6   7
ENDBRANCH   5   6
ENDBRANCH   4   5
ENDBRANCH   3   4
ENDBRANCH   2   3
ENDBRANCH   1   2
BRANCH   1  18
ATOM     18  C   UNL     1     -23.183 -28.549  25.392  1.00  0.00     0.000 C 
BRANCH  18  19
ATOM     19  C   UNL     1     -24.589 -28.078  25.809  1.00  0.00     0.000 C 
BRANCH  19  20
ATOM     20  C   UNL     1     -25.605 -27.957  24.660  1.00  0.00     0.000 C 
BRANCH  20  21
ATOM     21  C   UNL     1     -26.473 -29.216  24.491  1.00  0.00     0.000 C 
BRANCH  21  22
ATOM     22  C   UNL     1     -26.517 -30.075  25.766  1.00  0.00     0.000 C 
BRANCH  22  23
ATOM     23  C   UNL     1     -26.035 -31.515  25.520  1.00  0.00     0.000 C 
BRANCH  23  24
ATOM     24  C   UNL     1     -27.173 -32.550  25.597  1.00  0.00    -0.000 C 
BRANCH  24  25
ATOM     25  C   UNL     1     -27.417 -33.355  24.308  1.00  0.00    -0.000 C 
BRANCH  25  26
ATOM     26  C   UNL     1     -27.270 -32.505  23.034  1.00  0.00    -0.000 C 
BRANCH  26  27
ATOM     27  C   UNL     1     -28.349 -32.814  21.984  1.00  0.00    -0.000 C 
BRANCH  27  28
ATOM     28  C   UNL     1     -29.577 -31.892  22.098  1.00  0.00    -0.000 C 
BRANCH  28  29
ATOM     29  C   UNL     1     -29.307 -30.674  23.008  1.00  0.00    -0.000 C 
BRANCH  29  30
ATOM     30  C   UNL     1     -30.495 -30.307  23.914  1.00  0.00    -0.000 C 
BRANCH  30  31
ATOM     31  C   UNL     1     -30.100 -30.175  25.391  1.00  0.00    -0.003 C 
ATOM     32  C   UNL     1     -30.001 -28.709  25.804  1.00  0.00     0.004 C 
ENDBRANCH  30  31
ENDBRANCH  29  30
ENDBRANCH  28  29
ENDBRANCH  27  28
ENDBRANCH  26  27
ENDBRANCH  25  26
ENDBRANCH  24  25
ENDBRANCH  23  24
ENDBRANCH  22  23
ENDBRANCH  21  22
ENDBRANCH  20  21
ENDBRANCH  19  20
ENDBRANCH  18  19
ENDBRANCH   1  18
TORSDOF 28
ENDMDL
MODEL 3
REMARK VINA RESULT:    -5.698      1.320      2.849
REMARK INTER + INTRA:         -19.397
REMARK INTER:                 -14.779
REMARK INTRA:                  -4.617
REMARK UNBOUND:                -4.371
REMARK SMILES CCCCCCCCCCCCCCCCCCCCCCCCCCCCCC(=O)[O-]
REMARK SMILES IDX 16 1 17 2 18 3 19 4 20 5 21 6 22 7 23 8 24 9 25 10 26 11
REMARK SMILES IDX 27 12 28 13 29 14 30 15 31 16 32 17 15 18 14 19 13 20 12 21
REMARK SMILES IDX 11 22 10 23 9 24 8 25 7 26 6 27 5 28 4 29 3 30 2 31 1 32
REMARK H PARENT
REMARK Flexibility Score: inf
ROOT
ATOM      1  C   UNL     1     -19.926 -32.089  23.226  1.00  0.00     0.000 C 
ENDROOT
BRANCH   1   2
ATOM      2  C   UNL     1     -19.869 -30.756  23.983  1.00  0.00     0.000 C 
BRANCH   2   3
ATOM      3  C   UNL     1     -18.418 -30.273  24.137  1.00  0.00     0.000 C 
BRANCH   3   4
ATOM      4  C   UNL     1     -17.391 -31.287  23.609  1.00  0.00     0.000 C 
BRANCH   4   5
ATOM      5  C   UNL     1     -16.259 -30.623  22.807  1.00  0.00     0.000 C 
BRANCH   5   6
ATOM      6  C   UNL     1     -16.572 -30.525  21.302  1.00  0.00     0.000 C 
BRANCH   6   7
ATOM      7  C   UNL     1     -16.395 -29.125  20.686  1.00  0.00     0.000 C 
BRANCH   7   8
ATOM      8  C   UNL     1     -16.931 -27.957  21.536  1.00  0.00     0.000 C 
BRANCH   8   9
ATOM      9  C   UNL     1     -17.763 -26.929  20.739  1.00  0.00     0.000 C 
BRANCH   9  10
ATOM     10  C   UNL     1     -18.933 -26.350  21.556  1.00  0.00     0.000 C 
BRANCH  10  11
ATOM     11  C   UNL     1     -19.280 -27.205  22.788  1.00  0.00     0.000 C 
BRANCH  11  12
ATOM     12  C   UNL     1     -20.618 -26.855  23.470  1.00  0.00     0.000 C 
BRANCH  12  13
ATOM     13  C   UNL     1     -21.872 -27.446  22.796  1.00  0.00     0.006 C 
BRANCH  13  14
ATOM     14  C   UNL     1     -22.410 -26.618  21.619  1.00  0.00     0.053 C 
BRANCH  14  15
ATOM     15  C   UNL     1     -23.281 -27.432  20.714  1.00  0.00     0.041 C 
ATOM     16  O   UNL     1     -23.939 -26.876  19.796  1.00  0.00    -0.550 OA
ATOM     17  O   UNL     1     -23.389 -28.804  20.902  1.00  0.00    -0.550 OA
ENDBRANCH  14  15
ENDBRANCH  13  14
ENDBRANCH  12  13
ENDBRANCH  11  12
ENDBRANCH  10  11
ENDBRANCH   9  10
ENDBRANCH   8   9
ENDBRANCH   7   8
ENDBRANCH   6   7
ENDBRANCH   5   6
ENDBRANCH   4   5
ENDBRANCH   3   4
ENDBRANCH   2   3
ENDBRANCH   1   2
BRANCH   1  18
ATOM     18  C   UNL     1     -21.374 -32.455  22.866  1.00  0.00     0.000 C 
BRANCH  18  19
ATOM     19  C   UNL     1     -22.365 -31.303  23.112  1.00  0.00     0.000 C 
BRANCH  19  20
ATOM     20  C   UNL     1     -23.759 -31.734  23.603  1.00  0.00     0.000 C 
BRANCH  20  21
ATOM     21  C   UNL     1     -23.929 -31.592  25.125  1.00  0.00     0.000 C 
BRANCH  21  22
ATOM     22  C   UNL     1     -24.570 -32.835  25.764  1.00  0.00     0.000 C 
BRANCH  22  23
ATOM     23  C   UNL     1     -26.104 -32.830  25.647  1.00  0.00     0.000 C 
BRANCH  23  24
ATOM     24  C   UNL     1     -26.755 -31.620  26.342  1.00  0.00    -0.000 C 
BRANCH  24  25
ATOM     25  C   UNL     1     -27.991 -31.040  25.630  1.00  0.00    -0.000 C 
BRANCH  25  26
ATOM     26  C   UNL     1     -28.288 -31.732  24.288  1.00  0.00    -0.000 C 
BRANCH  26  27
ATOM     27  C   UNL     1     -28.313 -30.751  23.106  1.00  0.00    -0.000 C 
BRANCH  27  28
ATOM     28  C   UNL     1     -27.079 -30.880  22.194  1.00  0.00    -0.000 C 
BRANCH  28  29
ATOM     29  C   UNL     1     -26.412 -29.513  21.923  1.00  0.00    -0.000 C 
BRANCH  29  30
ATOM     30  C   UNL     1     -26.510 -28.536  23.107  1.00  0.00    -0.000 C 
BRANCH  30  31
ATOM     31  C   UNL     1     -25.201 -28.427  23.901  1.00  0.00    -0.003 C 
ATOM     32  C   UNL     1     -25.475 -28.205  25.386  1.00  0.00     0.004 C 
ENDBRANCH  30  31
ENDBRANCH  29  30
ENDBRANCH  28  29
ENDBRANCH  27  28
ENDBRANCH  26  27
ENDBRANCH  25  26
ENDBRANCH  24  25
ENDBRANCH  23  24
ENDBRANCH  22  23
ENDBRANCH  21  22
ENDBRANCH  20  21
ENDBRANCH  19  20
ENDBRANCH  18  19
ENDBRANCH   1  18
TORSDOF 28
ENDMDL
MODEL 4
REMARK VINA RESULT:    -5.689      2.873      6.282
REMARK INTER + INTRA:         -19.372
REMARK INTER:                 -14.463
REMARK INTRA:                  -4.909
REMARK UNBOUND:                -4.371
REMARK SMILES CCCCCCCCCCCCCCCCCCCCCCCCCCCCCC(=O)[O-]
REMARK SMILES IDX 16 1 17 2 18 3 19 4 20 5 21 6 22 7 23 8 24 9 25 10 26 11
REMARK SMILES IDX 27 12 28 13 29 14 30 15 31 16 32 17 15 18 14 19 13 20 12 21
REMARK SMILES IDX 11 22 10 23 9 24 8 25 7 26 6 27 5 28 4 29 3 30 2 31 1 32
REMARK H PARENT
REMARK Flexibility Score: inf
ROOT
ATOM      1  C   UNL     1     -25.054 -31.765  21.987  1.00  0.00     0.000 C 
ENDROOT
BRANCH   1   2
ATOM      2  C   UNL     1     -25.858 -30.534  21.552  1.00  0.00     0.000 C 
BRANCH   2   3
ATOM      3  C   UNL     1     -25.128 -29.237  21.937  1.00  0.00     0.000 C 
BRANCH   3   4
ATOM      4  C   UNL     1     -26.056 -28.012  21.953  1.00  0.00     0.000 C 
BRANCH   4   5
ATOM      5  C   UNL     1     -26.336 -27.498  23.376  1.00  0.00     0.000 C 
BRANCH   5   6
ATOM      6  C   UNL     1     -26.643 -28.632  24.370  1.00  0.00     0.000 C 
BRANCH   6   7
ATOM      7  C   UNL     1     -25.632 -28.786  25.521  1.00  0.00     0.000 C 
BRANCH   7   8
ATOM      8  C   UNL     1     -24.516 -27.723  25.567  1.00  0.00     0.000 C 
BRANCH   8   9
ATOM      9  C   UNL     1     -23.091 -28.301  25.426  1.00  0.00     0.000 C 
BRANCH   9  10
ATOM     10  C   UNL     1     -22.405 -27.875  24.115  1.00  0.00     0.000 C 
BRANCH  10  11
ATOM     11  C   UNL     1     -21.336 -28.880  23.649  1.00  0.00     0.000 C 
BRANCH  11  12
ATOM     12  C   UNL     1     -20.701 -29.726  24.771  1.00  0.00     0.000 C 
BRANCH  12  13
ATOM     13  C   UNL     1     -19.173 -29.579  24.919  1.00  0.00     0.006 C 
BRANCH  13  14
ATOM     14  C   UNL     1     -18.357 -30.615  24.130  1.00  0.00     0.053 C 
BRANCH  14  15
ATOM     15  C   UNL     1     -17.422 -29.966  23.157  1.00  0.00     0.041 C 
ATOM     16  O   UNL     1     -17.723 -28.868  22.622  1.00  0.00    -0.550 OA
ATOM     17  O   UNL     1     -16.228 -30.591  22.820  1.00  0.00    -0.550 OA
ENDBRANCH  14  15
ENDBRANCH  13  14
ENDBRANCH  12  13
ENDBRANCH  11  12
ENDBRANCH  10  11
ENDBRANCH   9  10
ENDBRANCH   8   9
ENDBRANCH   7   8
ENDBRANCH   6   7
ENDBRANCH   5   6
ENDBRANCH   4   5
ENDBRANCH   3   4
ENDBRANCH   2   3
ENDBRANCH   1   2
BRANCH   1  18
ATOM     18  C   UNL     1     -23.656 -31.363  22.480  1.00  0.00     0.000 C 
BRANCH  18  19
ATOM     19  C   UNL     1     -23.267 -32.044  23.806  1.00  0.00     0.000 C 
BRANCH  19  20
ATOM     20  C   UNL     1     -24.102 -31.620  25.027  1.00  0.00     0.000 C 
BRANCH  20  21
ATOM     21  C   UNL     1     -24.554 -32.812  25.888  1.00  0.00     0.000 C 
BRANCH  21  22
ATOM     22  C   UNL     1     -26.084 -32.904  26.008  1.00  0.00     0.000 C 
BRANCH  22  23
ATOM     23  C   UNL     1     -26.737 -33.506  24.752  1.00  0.00     0.000 C 
BRANCH  23  24
ATOM     24  C   UNL     1     -27.806 -32.587  24.132  1.00  0.00    -0.000 C 
BRANCH  24  25
ATOM     25  C   UNL     1     -28.347 -33.040  22.764  1.00  0.00    -0.000 C 
BRANCH  25  26
ATOM     26  C   UNL     1     -29.352 -32.044  22.159  1.00  0.00    -0.000 C 
BRANCH  26  27
ATOM     27  C   UNL     1     -29.321 -30.673  22.851  1.00  0.00    -0.000 C 
BRANCH  27  28
ATOM     28  C   UNL     1     -30.617 -30.359  23.620  1.00  0.00    -0.000 C 
BRANCH  28  29
ATOM     29  C   UNL     1     -30.337 -29.910  25.071  1.00  0.00    -0.000 C 
BRANCH  29  30
ATOM     30  C   UNL     1     -31.151 -28.677  25.501  1.00  0.00    -0.000 C 
BRANCH  30  31
ATOM     31  C   UNL     1     -30.267 -27.481  25.878  1.00  0.00    -0.003 C 
ATOM     32  C   UNL     1     -30.930 -26.626  26.955  1.00  0.00     0.004 C 
ENDBRANCH  30  31
ENDBRANCH  29  30
ENDBRANCH  28  29
ENDBRANCH  27  28
ENDBRANCH  26  27
ENDBRANCH  25  26
ENDBRANCH  24  25
ENDBRANCH  23  24
ENDBRANCH  22  23
ENDBRANCH  21  22
ENDBRANCH  20  21
ENDBRANCH  19  20
ENDBRANCH  18  19
ENDBRANCH   1  18
TORSDOF 28
ENDMDL
MODEL 5
REMARK VINA RESULT:    -5.670      1.398      3.064
REMARK INTER + INTRA:         -19.323
REMARK INTER:                 -14.928
REMARK INTRA:                  -4.395
REMARK UNBOUND:                -4.371
REMARK SMILES CCCCCCCCCCCCCCCCCCCCCCCCCCCCCC(=O)[O-]
REMARK SMILES IDX 16 1 17 2 18 3 19 4 20 5 21 6 22 7 23 8 24 9 25 10 26 11
REMARK SMILES IDX 27 12 28 13 29 14 30 15 31 16 32 17 15 18 14 19 13 20 12 21
REMARK SMILES IDX 11 22 10 23 9 24 8 25 7 26 6 27 5 28 4 29 3 30 2 31 1 32
REMARK H PARENT
REMARK Flexibility Score: inf
ROOT
ATOM      1  C   UNL     1     -16.245 -30.495  22.481  1.00  0.00     0.000 C 
ENDROOT
BRANCH   1   2
ATOM      2  C   UNL     1     -17.079 -29.441  21.742  1.00  0.00     0.000 C 
BRANCH   2   3
ATOM      3  C   UNL     1     -16.301 -28.122  21.602  1.00  0.00     0.000 C 
BRANCH   3   4
ATOM      4  C   UNL     1     -17.078 -26.911  22.143  1.00  0.00     0.000 C 
BRANCH   4   5
ATOM      5  C   UNL     1     -18.552 -26.908  21.707  1.00  0.00     0.000 C 
BRANCH   5   6
ATOM      6  C   UNL     1     -19.520 -26.641  22.874  1.00  0.00     0.000 C 
BRANCH   6   7
ATOM      7  C   UNL     1     -20.895 -27.323  22.755  1.00  0.00     0.000 C 
BRANCH   7   8
ATOM      8  C   UNL     1     -21.538 -27.752  24.089  1.00  0.00     0.000 C 
BRANCH   8   9
ATOM      9  C   UNL     1     -23.033 -27.388  24.212  1.00  0.00     0.000 C 
BRANCH   9  10
ATOM     10  C   UNL     1     -23.793 -28.318  25.176  1.00  0.00     0.000 C 
BRANCH  10  11
ATOM     11  C   UNL     1     -25.255 -27.885  25.391  1.00  0.00     0.000 C 
BRANCH  11  12
ATOM     12  C   UNL     1     -26.258 -28.436  24.358  1.00  0.00     0.000 C 
BRANCH  12  13
ATOM     13  C   UNL     1     -25.639 -28.897  23.023  1.00  0.00     0.006 C 
BRANCH  13  14
ATOM     14  C   UNL     1     -25.792 -27.891  21.872  1.00  0.00     0.053 C 
BRANCH  14  15
ATOM     15  C   UNL     1     -24.673 -27.999  20.883  1.00  0.00     0.041 C 
ATOM     16  O   UNL     1     -24.636 -27.237  19.881  1.00  0.00    -0.550 OA
ATOM     17  O   UNL     1     -23.686 -28.961  21.052  1.00  0.00    -0.550 OA
ENDBRANCH  14  15
ENDBRANCH  13  14
ENDBRANCH  12  13
ENDBRANCH  11  12
ENDBRANCH  10  11
ENDBRANCH   9  10
ENDBRANCH   8   9
ENDBRANCH   7   8
ENDBRANCH   6   7
ENDBRANCH   5   6
ENDBRANCH   4   5
ENDBRANCH   3   4
ENDBRANCH   2   3
ENDBRANCH   1   2
BRANCH   1  18
ATOM     18  C   UNL     1     -17.065 -31.164  23.593  1.00  0.00     0.000 C 
BRANCH  18  19
ATOM     19  C   UNL     1     -18.148 -30.241  24.182  1.00  0.00     0.000 C 
BRANCH  19  20
ATOM     20  C   UNL     1     -19.598 -30.680  23.912  1.00  0.00     0.000 C 
BRANCH  20  21
ATOM     21  C   UNL     1     -19.692 -32.071  23.262  1.00  0.00     0.000 C 
BRANCH  21  22
ATOM     22  C   UNL     1     -21.135 -32.449  22.887  1.00  0.00     0.000 C 
BRANCH  22  23
ATOM     23  C   UNL     1     -22.127 -31.301  23.140  1.00  0.00     0.000 C 
BRANCH  23  24
ATOM     24  C   UNL     1     -23.517 -31.797  23.583  1.00  0.00    -0.000 C 
BRANCH  24  25
ATOM     25  C   UNL     1     -23.748 -31.830  25.105  1.00  0.00    -0.000 C 
BRANCH  25  26
ATOM     26  C   UNL     1     -24.971 -32.673  25.506  1.00  0.00    -0.000 C 
BRANCH  26  27
ATOM     27  C   UNL     1     -26.219 -31.818  25.776  1.00  0.00    -0.000 C 
BRANCH  27  28
ATOM     28  C   UNL     1     -27.512 -32.459  25.239  1.00  0.00    -0.000 C 
BRANCH  28  29
ATOM     29  C   UNL     1     -27.273 -33.235  23.925  1.00  0.00    -0.000 C 
BRANCH  29  30
ATOM     30  C   UNL     1     -27.315 -32.346  22.670  1.00  0.00    -0.000 C 
BRANCH  30  31
ATOM     31  C   UNL     1     -28.680 -32.367  21.970  1.00  0.00    -0.003 C 
ATOM     32  C   UNL     1     -29.493 -31.121  22.315  1.00  0.00     0.004 C 
ENDBRANCH  30  31
ENDBRANCH  29  30
ENDBRANCH  28  29
ENDBRANCH  27  28
ENDBRANCH  26  27
ENDBRANCH  25  26
ENDBRANCH  24  25
ENDBRANCH  23  24
ENDBRANCH  22  23
ENDBRANCH  21  22
ENDBRANCH  20  21
ENDBRANCH  19  20
ENDBRANCH  18  19
ENDBRANCH   1  18
TORSDOF 28
ENDMDL
MODEL 6
REMARK VINA RESULT:    -5.647      2.342      7.888
REMARK INTER + INTRA:         -19.261
REMARK INTER:                 -13.863
REMARK INTRA:                  -5.399
REMARK UNBOUND:                -4.371
REMARK SMILES CCCCCCCCCCCCCCCCCCCCCCCCCCCCCC(=O)[O-]
REMARK SMILES IDX 16 1 17 2 18 3 19 4 20 5 21 6 22 7 23 8 24 9 25 10 26 11
REMARK SMILES IDX 27 12 28 13 29 14 30 15 31 16 32 17 15 18 14 19 13 20 12 21
REMARK SMILES IDX 11 22 10 23 9 24 8 25 7 26 6 27 5 28 4 29 3 30 2 31 1 32
REMARK H PARENT
REMARK Flexibility Score: inf
ROOT
ATOM      1  C   UNL     1     -27.985 -33.205  22.750  1.00  0.00     0.000 C 
ENDROOT
BRANCH   1   2
ATOM      2  C   UNL     1     -29.001 -32.239  22.127  1.00  0.00     0.000 C 
BRANCH   2   3
ATOM      3  C   UNL     1     -28.874 -30.836  22.740  1.00  0.00     0.000 C 
BRANCH   3   4
ATOM      4  C   UNL     1     -30.018 -30.502  23.710  1.00  0.00     0.000 C 
BRANCH   4   5
ATOM      5  C   UNL     1     -29.606 -30.643  25.185  1.00  0.00     0.000 C 
BRANCH   5   6
ATOM      6  C   UNL     1     -29.419 -29.285  25.885  1.00  0.00     0.000 C 
BRANCH   6   7
ATOM      7  C   UNL     1     -30.498 -28.232  25.573  1.00  0.00     0.000 C 
BRANCH   7   8
ATOM      8  C   UNL     1     -29.989 -26.786  25.428  1.00  0.00     0.000 C 
BRANCH   8   9
ATOM      9  C   UNL     1     -28.455 -26.644  25.539  1.00  0.00     0.000 C 
BRANCH   9  10
ATOM     10  C   UNL     1     -27.818 -26.061  24.264  1.00  0.00     0.000 C 
BRANCH  10  11
ATOM     11  C   UNL     1     -26.412 -25.485  24.511  1.00  0.00     0.000 C 
BRANCH  11  12
ATOM     12  C   UNL     1     -25.952 -24.423  23.493  1.00  0.00     0.000 C 
BRANCH  12  13
ATOM     13  C   UNL     1     -25.803 -24.926  22.042  1.00  0.00     0.006 C 
BRANCH  13  14
ATOM     14  C   UNL     1     -24.484 -25.662  21.759  1.00  0.00     0.053 C 
BRANCH  14  15
ATOM     15  C   UNL     1     -24.356 -26.046  20.318  1.00  0.00     0.041 C 
ATOM     16  O   UNL     1     -23.253 -25.926  19.725  1.00  0.00    -0.550 OA
ATOM     17  O   UNL     1     -25.465 -26.508  19.621  1.00  0.00    -0.550 OA
ENDBRANCH  14  15
ENDBRANCH  13  14
ENDBRANCH  12  13
ENDBRANCH  11  12
ENDBRANCH  10  11
ENDBRANCH   9  10
ENDBRANCH   8   9
ENDBRANCH   7   8
ENDBRANCH   6   7
ENDBRANCH   5   6
ENDBRANCH   4   5
ENDBRANCH   3   4
ENDBRANCH   2   3
ENDBRANCH   1   2
BRANCH   1  18
ATOM     18  C   UNL     1     -26.764 -32.444  23.290  1.00  0.00     0.000 C 
BRANCH  18  19
ATOM     19  C   UNL     1     -26.358 -32.888  24.708  1.00  0.00     0.000 C 
BRANCH  19  20
ATOM     20  C   UNL     1     -25.646 -31.813  25.549  1.00  0.00     0.000 C 
BRANCH  20  21
ATOM     21  C   UNL     1     -26.045 -30.380  25.154  1.00  0.00     0.000 C 
BRANCH  21  22
ATOM     22  C   UNL     1     -24.890 -29.380  25.323  1.00  0.00     0.000 C 
BRANCH  22  23
ATOM     23  C   UNL     1     -24.678 -28.511  24.071  1.00  0.00     0.000 C 
BRANCH  23  24
ATOM     24  C   UNL     1     -25.594 -28.911  22.901  1.00  0.00    -0.000 C 
BRANCH  24  25
ATOM     25  C   UNL     1     -24.875 -29.523  21.684  1.00  0.00    -0.000 C 
BRANCH  25  26
ATOM     26  C   UNL     1     -23.453 -30.011  22.012  1.00  0.00    -0.000 C 
BRANCH  26  27
ATOM     27  C   UNL     1     -23.410 -31.493  22.415  1.00  0.00    -0.000 C 
BRANCH  27  28
ATOM     28  C   UNL     1     -22.122 -31.873  23.167  1.00  0.00    -0.000 C 
BRANCH  28  29
ATOM     29  C   UNL     1     -21.772 -30.851  24.272  1.00  0.00    -0.000 C 
BRANCH  29  30
ATOM     30  C   UNL     1     -20.414 -30.160  24.063  1.00  0.00    -0.000 C 
BRANCH  30  31
ATOM     31  C   UNL     1     -19.316 -31.129  23.607  1.00  0.00    -0.003 C 
ATOM     32  C   UNL     1     -17.935 -30.628  24.022  1.00  0.00     0.004 C 
ENDBRANCH  30  31
ENDBRANCH  29  30
ENDBRANCH  28  29
ENDBRANCH  27  28
ENDBRANCH  26  27
ENDBRANCH  25  26
ENDBRANCH  24  25
ENDBRANCH  23  24
ENDBRANCH  22  23
ENDBRANCH  21  22
ENDBRANCH  20  21
ENDBRANCH  19  20
ENDBRANCH  18  19
ENDBRANCH   1  18
TORSDOF 28
ENDMDL
MODEL 7
REMARK VINA RESULT:    -5.647      1.498      2.791
REMARK INTER + INTRA:         -19.261
REMARK INTER:                 -14.125
REMARK INTRA:                  -5.136
REMARK UNBOUND:                -4.371
REMARK SMILES CCCCCCCCCCCCCCCCCCCCCCCCCCCCCC(=O)[O-]
REMARK SMILES IDX 16 1 17 2 18 3 19 4 20 5 21 6 22 7 23 8 24 9 25 10 26 11
REMARK SMILES IDX 27 12 28 13 29 14 30 15 31 16 32 17 15 18 14 19 13 20 12 21
REMARK SMILES IDX 11 22 10 23 9 24 8 25 7 26 6 27 5 28 4 29 3 30 2 31 1 32
REMARK H PARENT
REMARK Flexibility Score: inf
ROOT
ATOM      1  C   UNL     1     -20.679 -30.232  24.828  1.00  0.00     0.000 C 
ENDROOT
BRANCH   1   2
ATOM      2  C   UNL     1     -19.236 -29.716  24.889  1.00  0.00     0.000 C 
BRANCH   2   3
ATOM      3  C   UNL     1     -18.465 -30.087  23.613  1.00  0.00     0.000 C 
BRANCH   3   4
ATOM      4  C   UNL     1     -17.911 -28.858  22.872  1.00  0.00     0.000 C 
BRANCH   4   5
ATOM      5  C   UNL     1     -18.622 -27.554  23.272  1.00  0.00     0.000 C 
BRANCH   5   6
ATOM      6  C   UNL     1     -19.055 -26.714  22.057  1.00  0.00     0.000 C 
BRANCH   6   7
ATOM      7  C   UNL     1     -20.574 -26.496  21.919  1.00  0.00     0.000 C 
BRANCH   7   8
ATOM      8  C   UNL     1     -21.457 -27.636  22.461  1.00  0.00     0.000 C 
BRANCH   8   9
ATOM      9  C   UNL     1     -22.872 -27.188  22.887  1.00  0.00     0.000 C 
BRANCH   9  10
ATOM     10  C   UNL     1     -23.646 -26.501  21.747  1.00  0.00     0.000 C 
BRANCH  10  11
ATOM     11  C   UNL     1     -23.782 -27.391  20.499  1.00  0.00     0.000 C 
BRANCH  11  12
ATOM     12  C   UNL     1     -25.223 -27.825  20.160  1.00  0.00     0.000 C 
BRANCH  12  13
ATOM     13  C   UNL     1     -26.283 -26.710  20.254  1.00  0.00     0.006 C 
BRANCH  13  14
ATOM     14  C   UNL     1     -26.221 -25.678  19.116  1.00  0.00     0.053 C 
BRANCH  14  15
ATOM     15  C   UNL     1     -25.885 -24.309  19.621  1.00  0.00     0.041 C 
ATOM     16  O   UNL     1     -26.219 -23.961  20.784  1.00  0.00    -0.550 OA
ATOM     17  O   UNL     1     -25.228 -23.406  18.795  1.00  0.00    -0.550 OA
ENDBRANCH  14  15
ENDBRANCH  13  14
ENDBRANCH  12  13
ENDBRANCH  11  12
ENDBRANCH  10  11
ENDBRANCH   9  10
ENDBRANCH   8   9
ENDBRANCH   7   8
ENDBRANCH   6   7
ENDBRANCH   5   6
ENDBRANCH   4   5
ENDBRANCH   3   4
ENDBRANCH   2   3
ENDBRANCH   1   2
BRANCH   1  18
ATOM     18  C   UNL     1     -20.870 -31.189  23.641  1.00  0.00     0.000 C 
BRANCH  18  19
ATOM     19  C   UNL     1     -22.297 -31.762  23.553  1.00  0.00     0.000 C 
BRANCH  19  20
ATOM     20  C   UNL     1     -23.425 -30.743  23.794  1.00  0.00     0.000 C 
BRANCH  20  21
ATOM     21  C   UNL     1     -24.271 -31.067  25.037  1.00  0.00     0.000 C 
BRANCH  21  22
ATOM     22  C   UNL     1     -24.143 -32.538  25.469  1.00  0.00     0.000 C 
BRANCH  22  23
ATOM     23  C   UNL     1     -25.425 -33.070  26.132  1.00  0.00     0.000 C 
BRANCH  23  24
ATOM     24  C   UNL     1     -26.683 -32.282  25.723  1.00  0.00    -0.000 C 
BRANCH  24  25
ATOM     25  C   UNL     1     -27.710 -33.072  24.890  1.00  0.00    -0.000 C 
BRANCH  25  26
ATOM     26  C   UNL     1     -28.035 -32.398  23.545  1.00  0.00    -0.000 C 
BRANCH  26  27
ATOM     27  C   UNL     1     -26.834 -32.375  22.586  1.00  0.00    -0.000 C 
BRANCH  27  28
ATOM     28  C   UNL     1     -26.552 -30.974  22.014  1.00  0.00    -0.000 C 
BRANCH  28  29
ATOM     29  C   UNL     1     -27.391 -29.881  22.712  1.00  0.00    -0.000 C 
BRANCH  29  30
ATOM     30  C   UNL     1     -26.543 -28.852  23.480  1.00  0.00    -0.000 C 
BRANCH  30  31
ATOM     31  C   UNL     1     -27.311 -28.186  24.630  1.00  0.00    -0.003 C 
ATOM     32  C   UNL     1     -28.433 -29.088  25.136  1.00  0.00     0.004 C 
ENDBRANCH  30  31
ENDBRANCH  29  30
ENDBRANCH  28  29
ENDBRANCH  27  28
ENDBRANCH  26  27
ENDBRANCH  25  26
ENDBRANCH  24  25
ENDBRANCH  23  24
ENDBRANCH  22  23
ENDBRANCH  21  22
ENDBRANCH  20  21
ENDBRANCH  19  20
ENDBRANCH  18  19
ENDBRANCH   1  18
TORSDOF 28
ENDMDL
MODEL 8
REMARK VINA RESULT:    -5.643      1.572      3.339
REMARK INTER + INTRA:         -19.249
REMARK INTER:                 -14.720
REMARK INTRA:                  -4.529
REMARK UNBOUND:                -4.371
REMARK SMILES CCCCCCCCCCCCCCCCCCCCCCCCCCCCCC(=O)[O-]
REMARK SMILES IDX 16 1 17 2 18 3 19 4 20 5 21 6 22 7 23 8 24 9 25 10 26 11
REMARK SMILES IDX 27 12 28 13 29 14 30 15 31 16 32 17 15 18 14 19 13 20 12 21
REMARK SMILES IDX 11 22 10 23 9 24 8 25 7 26 6 27 5 28 4 29 3 30 2 31 1 32
REMARK H PARENT
REMARK Flexibility Score: inf
ROOT
ATOM      1  C   UNL     1     -21.968 -32.036  23.050  1.00  0.00     0.000 C 
ENDROOT
BRANCH   1   2
ATOM      2  C   UNL     1     -21.090 -30.938  23.663  1.00  0.00     0.000 C 
BRANCH   2   3
ATOM      3  C   UNL     1     -19.606 -31.336  23.627  1.00  0.00     0.000 C 
BRANCH   3   4
ATOM      4  C   UNL     1     -18.695 -30.302  24.309  1.00  0.00     0.000 C 
BRANCH   4   5
ATOM      5  C   UNL     1     -19.473 -29.325  25.206  1.00  0.00     0.000 C 
BRANCH   5   6
ATOM      6  C   UNL     1     -19.356 -27.863  24.738  1.00  0.00     0.000 C 
BRANCH   6   7
ATOM      7  C   UNL     1     -18.905 -27.677  23.277  1.00  0.00     0.000 C 
BRANCH   7   8
ATOM      8  C   UNL     1     -19.741 -26.681  22.449  1.00  0.00     0.000 C 
BRANCH   8   9
ATOM      9  C   UNL     1     -21.129 -26.371  23.051  1.00  0.00     0.000 C 
BRANCH   9  10
ATOM     10  C   UNL     1     -22.222 -27.332  22.550  1.00  0.00     0.000 C 
BRANCH  10  11
ATOM     11  C   UNL     1     -23.050 -27.942  23.696  1.00  0.00     0.000 C 
BRANCH  11  12
ATOM     12  C   UNL     1     -24.550 -27.585  23.680  1.00  0.00     0.000 C 
BRANCH  12  13
ATOM     13  C   UNL     1     -25.331 -28.090  22.450  1.00  0.00     0.006 C 
BRANCH  13  14
ATOM     14  C   UNL     1     -25.883 -26.974  21.548  1.00  0.00     0.053 C 
BRANCH  14  15
ATOM     15  C   UNL     1     -25.402 -27.107  20.136  1.00  0.00     0.041 C 
ATOM     16  O   UNL     1     -24.365 -27.773  19.879  1.00  0.00    -0.550 OA
ATOM     17  O   UNL     1     -26.083 -26.470  19.107  1.00  0.00    -0.550 OA
ENDBRANCH  14  15
ENDBRANCH  13  14
ENDBRANCH  12  13
ENDBRANCH  11  12
ENDBRANCH  10  11
ENDBRANCH   9  10
ENDBRANCH   8   9
ENDBRANCH   7   8
ENDBRANCH   6   7
ENDBRANCH   5   6
ENDBRANCH   4   5
ENDBRANCH   3   4
ENDBRANCH   2   3
ENDBRANCH   1   2
BRANCH   1  18
ATOM     18  C   UNL     1     -23.458 -31.734  23.268  1.00  0.00     0.000 C 
BRANCH  18  19
ATOM     19  C   UNL     1     -23.867 -31.759  24.752  1.00  0.00     0.000 C 
BRANCH  19  20
ATOM     20  C   UNL     1     -24.961 -30.751  25.144  1.00  0.00     0.000 C 
BRANCH  20  21
ATOM     21  C   UNL     1     -26.155 -31.408  25.858  1.00  0.00     0.000 C 
BRANCH  21  22
ATOM     22  C   UNL     1     -26.358 -32.873  25.436  1.00  0.00     0.000 C 
BRANCH  22  23
ATOM     23  C   UNL     1     -27.787 -33.148  24.937  1.00  0.00     0.000 C 
BRANCH  23  24
ATOM     24  C   UNL     1     -27.839 -33.528  23.446  1.00  0.00    -0.000 C 
BRANCH  24  25
ATOM     25  C   UNL     1     -27.128 -32.549  22.493  1.00  0.00    -0.000 C 
BRANCH  25  26
ATOM     26  C   UNL     1     -27.830 -31.182  22.407  1.00  0.00    -0.000 C 
BRANCH  26  27
ATOM     27  C   UNL     1     -29.359 -31.303  22.311  1.00  0.00    -0.000 C 
BRANCH  27  28
ATOM     28  C   UNL     1     -30.092 -30.542  23.430  1.00  0.00    -0.000 C 
BRANCH  28  29
ATOM     29  C   UNL     1     -29.111 -29.845  24.398  1.00  0.00    -0.000 C 
BRANCH  29  30
ATOM     30  C   UNL     1     -29.780 -29.326  25.683  1.00  0.00    -0.000 C 
BRANCH  30  31
ATOM     31  C   UNL     1     -31.000 -28.439  25.403  1.00  0.00    -0.003 C 
ATOM     32  C   UNL     1     -31.772 -28.145  26.687  1.00  0.00     0.004 C 
ENDBRANCH  30  31
ENDBRANCH  29  30
ENDBRANCH  28  29
ENDBRANCH  27  28
ENDBRANCH  26  27
ENDBRANCH  25  26
ENDBRANCH  24  25
ENDBRANCH  23  24
ENDBRANCH  22  23
ENDBRANCH  21  22
ENDBRANCH  20  21
ENDBRANCH  19  20
ENDBRANCH  18  19
ENDBRANCH   1  18
TORSDOF 28
ENDMDL
MODEL 9
REMARK VINA RESULT:    -5.635      3.000      7.838
REMARK INTER + INTRA:         -19.229
REMARK INTER:                 -14.276
REMARK INTRA:                  -4.952
REMARK UNBOUND:                -4.371
REMARK SMILES CCCCCCCCCCCCCCCCCCCCCCCCCCCCCC(=O)[O-]
REMARK SMILES IDX 16 1 17 2 18 3 19 4 20 5 21 6 22 7 23 8 24 9 25 10 26 11
REMARK SMILES IDX 27 12 28 13 29 14 30 15 31 16 32 17 15 18 14 19 13 20 12 21
REMARK SMILES IDX 11 22 10 23 9 24 8 25 7 26 6 27 5 28 4 29 3 30 2 31 1 32
REMARK H PARENT
REMARK Flexibility Score: inf
ROOT
ATOM      1  C   UNL     1     -28.858 -32.500  21.926  1.00  0.00     0.000 C 
ENDROOT
BRANCH   1   2
ATOM      2  C   UNL     1     -29.114 -31.142  22.591  1.00  0.00     0.000 C 
BRANCH   2   3
ATOM      3  C   UNL     1     -30.612 -30.943  22.876  1.00  0.00     0.000 C 
BRANCH   3   4
ATOM      4  C   UNL     1     -30.874 -29.957  24.026  1.00  0.00     0.000 C 
BRANCH   4   5
ATOM      5  C   UNL     1     -29.806 -30.034  25.130  1.00  0.00     0.000 C 
BRANCH   5   6
ATOM      6  C   UNL     1     -28.853 -28.825  25.124  1.00  0.00     0.000 C 
BRANCH   6   7
ATOM      7  C   UNL     1     -27.397 -29.136  25.519  1.00  0.00     0.000 C 
BRANCH   7   8
ATOM      8  C   UNL     1     -26.333 -28.205  24.907  1.00  0.00     0.000 C 
BRANCH   8   9
ATOM      9  C   UNL     1     -24.880 -28.670  25.142  1.00  0.00     0.000 C 
BRANCH   9  10
ATOM     10  C   UNL     1     -23.841 -27.635  24.671  1.00  0.00     0.000 C 
BRANCH  10  11
ATOM     11  C   UNL     1     -22.533 -28.284  24.185  1.00  0.00     0.000 C 
BRANCH  11  12
ATOM     12  C   UNL     1     -21.349 -28.184  25.169  1.00  0.00     0.000 C 
BRANCH  12  13
ATOM     13  C   UNL     1     -20.681 -29.526  25.530  1.00  0.00     0.006 C 
BRANCH  13  14
ATOM     14  C   UNL     1     -19.260 -29.697  24.971  1.00  0.00     0.053 C 
BRANCH  14  15
ATOM     15  C   UNL     1     -19.210 -30.712  23.871  1.00  0.00     0.041 C 
ATOM     16  O   UNL     1     -20.204 -31.450  23.643  1.00  0.00    -0.550 OA
ATOM     17  O   UNL     1     -18.054 -30.863  23.117  1.00  0.00    -0.550 OA
ENDBRANCH  14  15
ENDBRANCH  13  14
ENDBRANCH  12  13
ENDBRANCH  11  12
ENDBRANCH  10  11
ENDBRANCH   9  10
ENDBRANCH   8   9
ENDBRANCH   7   8
ENDBRANCH   6   7
ENDBRANCH   5   6
ENDBRANCH   4   5
ENDBRANCH   3   4
ENDBRANCH   2   3
ENDBRANCH   1   2
BRANCH   1  18
ATOM     18  C   UNL     1     -28.142 -33.457  22.892  1.00  0.00     0.000 C 
BRANCH  18  19
ATOM     19  C   UNL     1     -27.412 -32.726  24.034  1.00  0.00     0.000 C 
BRANCH  19  20
ATOM     20  C   UNL     1     -27.838 -33.144  25.453  1.00  0.00     0.000 C 
BRANCH  20  21
ATOM     21  C   UNL     1     -26.692 -33.049  26.475  1.00  0.00     0.000 C 
BRANCH  21  22
ATOM     22  C   UNL     1     -25.634 -32.007  26.077  1.00  0.00     0.000 C 
BRANCH  22  23
ATOM     23  C   UNL     1     -24.268 -32.644  25.768  1.00  0.00     0.000 C 
BRANCH  23  24
ATOM     24  C   UNL     1     -23.458 -31.851  24.726  1.00  0.00    -0.000 C 
BRANCH  24  25
ATOM     25  C   UNL     1     -23.828 -32.129  23.257  1.00  0.00    -0.000 C 
BRANCH  25  26
ATOM     26  C   UNL     1     -24.094 -30.844  22.454  1.00  0.00    -0.000 C 
BRANCH  26  27
ATOM     27  C   UNL     1     -25.445 -30.869  21.722  1.00  0.00    -0.000 C 
BRANCH  27  28
ATOM     28  C   UNL     1     -26.033 -29.464  21.500  1.00  0.00    -0.000 C 
BRANCH  28  29
ATOM     29  C   UNL     1     -24.942 -28.425  21.160  1.00  0.00    -0.000 C 
BRANCH  29  30
ATOM     30  C   UNL     1     -25.300 -27.525  19.964  1.00  0.00    -0.000 C 
BRANCH  30  31
ATOM     31  C   UNL     1     -25.207 -26.030  20.294  1.00  0.00    -0.003 C 
ATOM     32  C   UNL     1     -23.851 -25.461  19.887  1.00  0.00     0.004 C 
ENDBRANCH  30  31
ENDBRANCH  29  30
ENDBRANCH  28  29
ENDBRANCH  27  28
ENDBRANCH  26  27
ENDBRANCH  25  26
ENDBRANCH  24  25
ENDBRANCH  23  24
ENDBRANCH  22  23
ENDBRANCH  21  22
ENDBRANCH  20  21
ENDBRANCH  19  20
ENDBRANCH  18  19
ENDBRANCH   1  18
TORSDOF 28
ENDMDL
