MODEL 1
REMARK VINA RESULT:    -4.166      0.000      0.000
REMARK INTER + INTRA:          -6.047
REMARK INTER:                  -5.628
REMARK INTRA:                  -0.419
REMARK UNBOUND:                -0.419
REMARK SMILES O=C[C@@H](O)[C@@H](O)[C@@H](O)CO
REMARK SMILES IDX 7 1 9 2 10 3 5 5 3 6 2 7 1 8 4 9 6 11 8 13
REMARK H PARENT 10 4 4 10 6 12 8 14
REMARK Flexibility Score: inf
ROOT
ATOM      1  C   UNL     1      11.803  12.388  13.895  1.00  0.00     0.171 C 
ENDROOT
BRANCH   1   2
ATOM      2  C   UNL     1      11.014  13.275  14.878  1.00  0.00     0.190 C 
BRANCH   2   3
ATOM      3  O   UNL     1      10.576  14.455  14.260  1.00  0.00    -0.394 OA
ATOM      4  H   UNL     1      10.252  15.052  14.986  1.00  0.00     0.210 HD
ENDBRANCH   2   3
ENDBRANCH   1   2
BRANCH   1   5
ATOM      5  C   UNL     1      11.145  10.997  13.658  1.00  0.00     0.181 C 
BRANCH   5   6
ATOM      6  C   UNL     1      12.127   9.801  13.547  1.00  0.00     0.209 C 
BRANCH   6   7
ATOM      7  C   UNL     1      11.535   8.606  12.845  1.00  0.00     0.258 C 
ATOM      8  O   UNL     1      10.519   8.711  12.177  1.00  0.00    -0.300 OA
ENDBRANCH   6   7
BRANCH   6   9
ATOM      9  O   UNL     1      13.287  10.218  12.873  1.00  0.00    -0.383 OA
ATOM     10  H   UNL     1      13.135  11.157  12.587  1.00  0.00     0.211 HD
ENDBRANCH   6   9
ENDBRANCH   5   6
BRANCH   5  11
ATOM     11  O   UNL     1      10.142  10.745  14.613  1.00  0.00    -0.387 OA
ATOM     12  H   UNL     1      10.427   9.971  15.163  1.00  0.00     0.211 HD
ENDBRANCH   5  11
ENDBRANCH   1   5
BRANCH   1  13
ATOM     13  O   UNL     1      11.969  13.068  12.677  1.00  0.00    -0.388 OA
ATOM     14  H   UNL     1      11.512  13.944  12.769  1.00  0.00     0.211 HD
ENDBRANCH   1  13
TORSDOF 8
ENDMDL
MODEL 2
REMARK VINA RESULT:    -4.155      1.661      2.063
REMARK INTER + INTRA:          -6.031
REMARK INTER:                  -5.217
REMARK INTRA:                  -0.814
REMARK UNBOUND:                -0.419
REMARK SMILES O=C[C@@H](O)[C@@H](O)[C@@H](O)CO
REMARK SMILES IDX 7 1 9 2 10 3 5 5 3 6 2 7 1 8 4 9 6 11 8 13
REMARK H PARENT 10 4 4 10 6 12 8 14
REMARK Flexibility Score: inf
ROOT
ATOM      1  C   UNL     1      12.112  12.572  13.992  1.00  0.00     0.171 C 
ENDROOT
BRANCH   1   2
ATOM      2  C   UNL     1      10.919  12.923  14.903  1.00  0.00     0.190 C 
BRANCH   2   3
ATOM      3  O   UNL     1       9.739  12.311  14.454  1.00  0.00    -0.394 OA
ATOM      4  H   UNL     1      10.007  11.660  13.753  1.00  0.00     0.210 HD
ENDBRANCH   2   3
ENDBRANCH   1   2
BRANCH   1   5
ATOM      5  C   UNL     1      12.387  11.042  13.902  1.00  0.00     0.181 C 
BRANCH   5   6
ATOM      6  C   UNL     1      12.610  10.320  15.257  1.00  0.00     0.209 C 
BRANCH   6   7
ATOM      7  C   UNL     1      11.550   9.292  15.566  1.00  0.00     0.258 C 
ATOM      8  O   UNL     1      10.397   9.627  15.787  1.00  0.00    -0.300 OA
ENDBRANCH   6   7
BRANCH   6   9
ATOM      9  O   UNL     1      13.873   9.707  15.251  1.00  0.00    -0.383 OA
ATOM     10  H   UNL     1      14.177   9.676  14.306  1.00  0.00     0.211 HD
ENDBRANCH   6   9
ENDBRANCH   5   6
BRANCH   5  11
ATOM     11  O   UNL     1      11.397  10.396  13.138  1.00  0.00    -0.387 OA
ATOM     12  H   UNL     1      11.176   9.537  13.580  1.00  0.00     0.211 HD
ENDBRANCH   5  11
ENDBRANCH   1   5
BRANCH   1  13
ATOM     13  O   UNL     1      11.902  13.111  12.712  1.00  0.00    -0.388 OA
ATOM     14  H   UNL     1      11.025  13.575  12.734  1.00  0.00     0.211 HD
ENDBRANCH   1  13
TORSDOF 8
ENDMDL
MODEL 3
REMARK VINA RESULT:    -4.099      1.573      4.138
REMARK INTER + INTRA:          -5.956
REMARK INTER:                  -5.491
REMARK INTRA:                  -0.466
REMARK UNBOUND:                -0.419
REMARK SMILES O=C[C@@H](O)[C@@H](O)[C@@H](O)CO
REMARK SMILES IDX 7 1 9 2 10 3 5 5 3 6 2 7 1 8 4 9 6 11 8 13
REMARK H PARENT 10 4 4 10 6 12 8 14
REMARK Flexibility Score: inf
ROOT
ATOM      1  C   UNL     1      12.762   9.964  13.754  1.00  0.00     0.171 C 
ENDROOT
BRANCH   1   2
ATOM      2  C   UNL     1      14.124   9.684  13.088  1.00  0.00     0.190 C 
BRANCH   2   3
ATOM      3  O   UNL     1      13.973   9.402  11.722  1.00  0.00    -0.394 OA
ATOM      4  H   UNL     1      12.997   9.329  11.554  1.00  0.00     0.210 HD
ENDBRANCH   2   3
ENDBRANCH   1   2
BRANCH   1   5
ATOM      5  C   UNL     1      12.675  11.378  14.402  1.00  0.00     0.181 C 
BRANCH   5   6
ATOM      6  C   UNL     1      11.522  12.280  13.888  1.00  0.00     0.209 C 
BRANCH   6   7
ATOM      7  C   UNL     1      11.035  13.269  14.917  1.00  0.00     0.258 C 
ATOM      8  O   UNL     1      10.256  12.930  15.793  1.00  0.00    -0.300 OA
ENDBRANCH   6   7
BRANCH   6   9
ATOM      9  O   UNL     1      11.951  12.967  12.740  1.00  0.00    -0.383 OA
ATOM     10  H   UNL     1      12.626  12.391  12.294  1.00  0.00     0.211 HD
ENDBRANCH   6   9
ENDBRANCH   5   6
BRANCH   5  11
ATOM     11  O   UNL     1      12.662  11.287  15.808  1.00  0.00    -0.387 OA
ATOM     12  H   UNL     1      11.757  10.996  16.090  1.00  0.00     0.211 HD
ENDBRANCH   5  11
ENDBRANCH   1   5
BRANCH   1  13
ATOM     13  O   UNL     1      11.733   9.789  12.814  1.00  0.00    -0.388 OA
ATOM     14  H   UNL     1      11.074   9.166  13.219  1.00  0.00     0.211 HD
ENDBRANCH   1  13
TORSDOF 8
ENDMDL
MODEL 4
REMARK VINA RESULT:    -4.081      1.820      3.974
REMARK INTER + INTRA:          -5.931
REMARK INTER:                  -5.127
REMARK INTRA:                  -0.804
REMARK UNBOUND:                -0.419
REMARK SMILES O=C[C@@H](O)[C@@H](O)[C@@H](O)CO
REMARK SMILES IDX 7 1 9 2 10 3 5 5 3 6 2 7 1 8 4 9 6 11 8 13
REMARK H PARENT 10 4 4 10 6 12 8 14
REMARK Flexibility Score: inf
ROOT
ATOM      1  C   UNL     1      12.457   9.721  13.894  1.00  0.00     0.171 C 
ENDROOT
BRANCH   1   2
ATOM      2  C   UNL     1      11.316   9.230  14.807  1.00  0.00     0.190 C 
BRANCH   2   3
ATOM      3  O   UNL     1      11.606   9.471  16.158  1.00  0.00    -0.394 OA
ATOM      4  H   UNL     1      12.469   9.017  16.347  1.00  0.00     0.210 HD
ENDBRANCH   2   3
ENDBRANCH   1   2
BRANCH   1   5
ATOM      5  C   UNL     1      12.758  11.241  14.049  1.00  0.00     0.181 C 
BRANCH   5   6
ATOM      6  C   UNL     1      11.563  12.192  13.779  1.00  0.00     0.209 C 
BRANCH   6   7
ATOM      7  C   UNL     1      11.150  12.990  14.990  1.00  0.00     0.258 C 
ATOM      8  O   UNL     1      10.707  12.437  15.984  1.00  0.00    -0.300 OA
ENDBRANCH   6   7
BRANCH   6   9
ATOM      9  O   UNL     1      11.896  13.065  12.730  1.00  0.00    -0.383 OA
ATOM     10  H   UNL     1      12.592  13.682  13.077  1.00  0.00     0.211 HD
ENDBRANCH   6   9
ENDBRANCH   5   6
BRANCH   5  11
ATOM     11  O   UNL     1      13.352  11.511  15.297  1.00  0.00    -0.387 OA
ATOM     12  H   UNL     1      13.159  12.455  15.533  1.00  0.00     0.211 HD
ENDBRANCH   5  11
ENDBRANCH   1   5
BRANCH   1  13
ATOM     13  O   UNL     1      13.614   8.962  14.137  1.00  0.00    -0.388 OA
ATOM     14  H   UNL     1      14.386   9.582  14.073  1.00  0.00     0.211 HD
ENDBRANCH   1  13
TORSDOF 8
ENDMDL
MODEL 5
REMARK VINA RESULT:    -3.999      2.311      4.239
REMARK INTER + INTRA:          -5.821
REMARK INTER:                  -5.041
REMARK INTRA:                  -0.780
REMARK UNBOUND:                -0.419
REMARK SMILES O=C[C@@H](O)[C@@H](O)[C@@H](O)CO
REMARK SMILES IDX 7 1 9 2 10 3 5 5 3 6 2 7 1 8 4 9 6 11 8 13
REMARK H PARENT 10 4 4 10 6 12 8 14
REMARK Flexibility Score: inf
ROOT
ATOM      1  C   UNL     1      11.856   8.549  12.773  1.00  0.00     0.171 C 
ENDROOT
BRANCH   1   2
ATOM      2  C   UNL     1      13.260   8.318  12.181  1.00  0.00     0.190 C 
BRANCH   2   3
ATOM      3  O   UNL     1      13.851   9.526  11.784  1.00  0.00    -0.394 OA
ATOM      4  H   UNL     1      13.210  10.247  12.025  1.00  0.00     0.210 HD
ENDBRANCH   2   3
ENDBRANCH   1   2
BRANCH   1   5
ATOM      5  C   UNL     1      11.822   9.668  13.856  1.00  0.00     0.181 C 
BRANCH   5   6
ATOM      6  C   UNL     1      12.696   9.411  15.112  1.00  0.00     0.209 C 
BRANCH   6   7
ATOM      7  C   UNL     1      13.809  10.415  15.279  1.00  0.00     0.258 C 
ATOM      8  O   UNL     1      14.779  10.405  14.538  1.00  0.00    -0.300 OA
ENDBRANCH   6   7
BRANCH   6   9
ATOM      9  O   UNL     1      11.877   9.420  16.254  1.00  0.00    -0.383 OA
ATOM     10  H   UNL     1      10.946   9.564  15.941  1.00  0.00     0.211 HD
ENDBRANCH   6   9
ENDBRANCH   5   6
BRANCH   5  11
ATOM     11  O   UNL     1      12.102  10.926  13.289  1.00  0.00    -0.387 OA
ATOM     12  H   UNL     1      11.597  11.612  13.796  1.00  0.00     0.211 HD
ENDBRANCH   5  11
ENDBRANCH   1   5
BRANCH   1  13
ATOM     13  O   UNL     1      10.950   8.838  11.739  1.00  0.00    -0.388 OA
ATOM     14  H   UNL     1      10.163   8.248  11.870  1.00  0.00     0.211 HD
ENDBRANCH   1  13
TORSDOF 8
ENDMDL
MODEL 6
REMARK VINA RESULT:    -3.991      3.805      4.987
REMARK INTER + INTRA:          -5.810
REMARK INTER:                  -4.987
REMARK INTRA:                  -0.823
REMARK UNBOUND:                -0.419
REMARK SMILES O=C[C@@H](O)[C@@H](O)[C@@H](O)CO
REMARK SMILES IDX 7 1 9 2 10 3 5 5 3 6 2 7 1 8 4 9 6 11 8 13
REMARK H PARENT 10 4 4 10 6 12 8 14
REMARK Flexibility Score: inf
ROOT
ATOM      1  C   UNL     1      10.293   7.291  11.402  1.00  0.00     0.171 C 
ENDROOT
BRANCH   1   2
ATOM      2  C   UNL     1      11.628   7.985  11.735  1.00  0.00     0.190 C 
BRANCH   2   3
ATOM      3  O   UNL     1      11.419   9.194  12.413  1.00  0.00    -0.394 OA
ATOM      4  H   UNL     1      10.500   9.152  12.789  1.00  0.00     0.210 HD
ENDBRANCH   2   3
ENDBRANCH   1   2
BRANCH   1   5
ATOM      5  C   UNL     1       9.478   6.886  12.666  1.00  0.00     0.181 C 
BRANCH   5   6
ATOM      6  C   UNL     1      10.288   6.186  13.789  1.00  0.00     0.209 C 
BRANCH   6   7
ATOM      7  C   UNL     1      10.311   6.963  15.081  1.00  0.00     0.258 C 
ATOM      8  O   UNL     1      10.830   8.067  15.140  1.00  0.00    -0.300 OA
ENDBRANCH   6   7
BRANCH   6   9
ATOM      9  O   UNL     1       9.751   4.908  14.017  1.00  0.00    -0.383 OA
ATOM     10  H   UNL     1      10.512   4.308  14.234  1.00  0.00     0.211 HD
ENDBRANCH   6   9
ENDBRANCH   5   6
BRANCH   5  11
ATOM     11  O   UNL     1       8.752   7.982  13.170  1.00  0.00    -0.387 OA
ATOM     12  H   UNL     1       8.046   8.213  12.514  1.00  0.00     0.211 HD
ENDBRANCH   5  11
ENDBRANCH   1   5
BRANCH   1  13
ATOM     13  O   UNL     1       9.526   8.122  10.568  1.00  0.00    -0.388 OA
ATOM     14  H   UNL     1       9.632   9.049  10.905  1.00  0.00     0.211 HD
ENDBRANCH   1  13
TORSDOF 8
ENDMDL
MODEL 7
REMARK VINA RESULT:    -3.984      3.518      5.661
REMARK INTER + INTRA:          -5.800
REMARK INTER:                  -5.001
REMARK INTRA:                  -0.799
REMARK UNBOUND:                -0.419
REMARK SMILES O=C[C@@H](O)[C@@H](O)[C@@H](O)CO
REMARK SMILES IDX 7 1 9 2 10 3 5 5 3 6 2 7 1 8 4 9 6 11 8 13
REMARK H PARENT 10 4 4 10 6 12 8 14
REMARK Flexibility Score: inf
ROOT
ATOM      1  C   UNL     1       9.964   5.762  13.504  1.00  0.00     0.171 C 
ENDROOT
BRANCH   1   2
ATOM      2  C   UNL     1       8.675   6.543  13.180  1.00  0.00     0.190 C 
BRANCH   2   3
ATOM      3  O   UNL     1       7.931   6.801  14.341  1.00  0.00    -0.394 OA
ATOM      4  H   UNL     1       7.024   6.427  14.185  1.00  0.00     0.210 HD
ENDBRANCH   2   3
ENDBRANCH   1   2
BRANCH   1   5
ATOM      5  C   UNL     1      10.905   6.512  14.493  1.00  0.00     0.181 C 
BRANCH   5   6
ATOM      6  C   UNL     1      11.089   8.028  14.224  1.00  0.00     0.209 C 
BRANCH   6   7
ATOM      7  C   UNL     1      10.640   8.897  15.371  1.00  0.00     0.258 C 
ATOM      8  O   UNL     1       9.453   9.058  15.609  1.00  0.00    -0.300 OA
ENDBRANCH   6   7
BRANCH   6   9
ATOM      9  O   UNL     1      12.440   8.286  13.938  1.00  0.00    -0.383 OA
ATOM     10  H   UNL     1      12.626   7.900  13.042  1.00  0.00     0.211 HD
ENDBRANCH   6   9
ENDBRANCH   5   6
BRANCH   5  11
ATOM     11  O   UNL     1      10.524   6.275  15.828  1.00  0.00    -0.387 OA
ATOM     12  H   UNL     1      11.317   6.416  16.405  1.00  0.00     0.211 HD
ENDBRANCH   5  11
ENDBRANCH   1   5
BRANCH   1  13
ATOM     13  O   UNL     1       9.633   4.493  14.006  1.00  0.00    -0.388 OA
ATOM     14  H   UNL     1      10.241   4.316  14.770  1.00  0.00     0.211 HD
ENDBRANCH   1  13
TORSDOF 8
ENDMDL
MODEL 8
REMARK VINA RESULT:    -3.896      1.329      2.404
REMARK INTER + INTRA:          -5.681
REMARK INTER:                  -4.981
REMARK INTRA:                  -0.701
REMARK UNBOUND:                -0.419
REMARK SMILES O=C[C@@H](O)[C@@H](O)[C@@H](O)CO
REMARK SMILES IDX 7 1 9 2 10 3 5 5 3 6 2 7 1 8 4 9 6 11 8 13
REMARK H PARENT 10 4 4 10 6 12 8 14
REMARK Flexibility Score: inf
ROOT
ATOM      1  C   UNL     1      10.832  11.360  14.105  1.00  0.00     0.171 C 
ENDROOT
BRANCH   1   2
ATOM      2  C   UNL     1      11.535  12.731  14.068  1.00  0.00     0.190 C 
BRANCH   2   3
ATOM      3  O   UNL     1      11.913  13.074  12.761  1.00  0.00    -0.394 OA
ATOM      4  H   UNL     1      11.814  12.251  12.213  1.00  0.00     0.210 HD
ENDBRANCH   2   3
ENDBRANCH   1   2
BRANCH   1   5
ATOM      5  C   UNL     1      11.825  10.160  14.107  1.00  0.00     0.181 C 
BRANCH   5   6
ATOM      6  C   UNL     1      11.195   8.770  14.384  1.00  0.00     0.209 C 
BRANCH   6   7
ATOM      7  C   UNL     1      11.976   7.630  13.781  1.00  0.00     0.258 C 
ATOM      8  O   UNL     1      11.850   7.337  12.602  1.00  0.00    -0.300 OA
ENDBRANCH   6   7
BRANCH   6   9
ATOM      9  O   UNL     1      11.085   8.583  15.772  1.00  0.00    -0.383 OA
ATOM     10  H   UNL     1      11.940   8.886  16.175  1.00  0.00     0.211 HD
ENDBRANCH   6   9
ENDBRANCH   5   6
BRANCH   5  11
ATOM     11  O   UNL     1      12.596  10.143  12.928  1.00  0.00    -0.387 OA
ATOM     12  H   UNL     1      13.376  10.741  13.061  1.00  0.00     0.211 HD
ENDBRANCH   5  11
ENDBRANCH   1   5
BRANCH   1  13
ATOM     13  O   UNL     1       9.982  11.297  15.221  1.00  0.00    -0.388 OA
ATOM     14  H   UNL     1       9.388  12.090  15.178  1.00  0.00     0.211 HD
ENDBRANCH   1  13
TORSDOF 8
ENDMDL
MODEL 9
REMARK VINA RESULT:    -3.816      1.986      4.282
REMARK INTER + INTRA:          -5.573
REMARK INTER:                  -4.858
REMARK INTRA:                  -0.715
REMARK UNBOUND:                -0.419
REMARK SMILES O=C[C@@H](O)[C@@H](O)[C@@H](O)CO
REMARK SMILES IDX 7 1 9 2 10 3 5 5 3 6 2 7 1 8 4 9 6 11 8 13
REMARK H PARENT 10 4 4 10 6 12 8 14
REMARK Flexibility Score: inf
ROOT
ATOM      1  C   UNL     1      12.711   8.987  13.418  1.00  0.00     0.171 C 
ENDROOT
BRANCH   1   2
ATOM      2  C   UNL     1      13.726   8.616  12.319  1.00  0.00     0.190 C 
BRANCH   2   3
ATOM      3  O   UNL     1      14.302   9.762  11.751  1.00  0.00    -0.394 OA
ATOM      4  H   UNL     1      13.551  10.322  11.419  1.00  0.00     0.210 HD
ENDBRANCH   2   3
ENDBRANCH   1   2
BRANCH   1   5
ATOM      5  C   UNL     1      13.282   9.977  14.475  1.00  0.00     0.181 C 
BRANCH   5   6
ATOM      6  C   UNL     1      12.460  10.109  15.784  1.00  0.00     0.209 C 
BRANCH   6   7
ATOM      7  C   UNL     1      11.645  11.375  15.851  1.00  0.00     0.258 C 
ATOM      8  O   UNL     1      11.064  11.801  14.865  1.00  0.00    -0.300 OA
ENDBRANCH   6   7
BRANCH   6   9
ATOM      9  O   UNL     1      11.613   8.995  15.910  1.00  0.00    -0.383 OA
ATOM     10  H   UNL     1      11.646   8.713  16.862  1.00  0.00     0.211 HD
ENDBRANCH   6   9
ENDBRANCH   5   6
BRANCH   5  11
ATOM     11  O   UNL     1      14.634   9.696  14.750  1.00  0.00    -0.387 OA
ATOM     12  H   UNL     1      15.119  10.556  14.834  1.00  0.00     0.211 HD
ENDBRANCH   5  11
ENDBRANCH   1   5
BRANCH   1  13
ATOM     13  O   UNL     1      11.550   9.513  12.828  1.00  0.00    -0.388 OA
ATOM     14  H   UNL     1      11.710  10.482  12.686  1.00  0.00     0.211 HD
ENDBRANCH   1  13
TORSDOF 8
ENDMDL
