MODEL 1
REMARK VINA RESULT:    -3.661      0.000      0.000
REMARK INTER + INTRA:         -13.946
REMARK INTER:                  -9.225
REMARK INTRA:                  -4.721
REMARK UNBOUND:                -4.721
REMARK SMILES CCCCCCCCCCCCCCCCCCCCCCCCCCCC(=O)[O-]
REMARK SMILES IDX 15 1 16 2 17 3 18 4 19 5 20 6 21 7 22 8 23 9 24 10 25 11
REMARK SMILES IDX 26 12 27 13 28 14 29 15 30 16 14 17 13 18 12 19 11 20 10 21
REMARK SMILES IDX 9 22 8 23 7 24 6 25 5 26 4 27 3 28 2 29 1 30
REMARK H PARENT
REMARK Flexibility Score: inf
ROOT
ATOM      1  C   UNL     1     -18.095  25.003  45.960  1.00  0.00     0.000 C 
ENDROOT
BRANCH   1   2
ATOM      2  C   UNL     1     -16.875  24.106  45.693  1.00  0.00     0.000 C 
BRANCH   2   3
ATOM      3  C   UNL     1     -15.852  24.762  44.750  1.00  0.00     0.000 C 
BRANCH   3   4
ATOM      4  C   UNL     1     -16.487  25.222  43.429  1.00  0.00     0.000 C 
BRANCH   4   5
ATOM      5  C   UNL     1     -17.036  24.052  42.598  1.00  0.00     0.000 C 
BRANCH   5   6
ATOM      6  C   UNL     1     -18.494  24.267  42.154  1.00  0.00     0.000 C 
BRANCH   6   7
ATOM      7  C   UNL     1     -18.923  25.750  42.129  1.00  0.00     0.000 C 
BRANCH   7   8
ATOM      8  C   UNL     1     -20.205  26.006  42.932  1.00  0.00     0.000 C 
BRANCH   8   9
ATOM      9  C   UNL     1     -20.161  27.377  43.624  1.00  0.00     0.000 C 
BRANCH   9  10
ATOM     10  C   UNL     1     -18.870  28.160  43.327  1.00  0.00     0.000 C 
BRANCH  10  11
ATOM     11  C   UNL     1     -18.894  28.988  42.026  1.00  0.00     0.000 C 
BRANCH  11  12
ATOM     12  C   UNL     1     -19.612  30.344  42.134  1.00  0.00     0.006 C 
BRANCH  12  13
ATOM     13  C   UNL     1     -20.524  30.634  40.935  1.00  0.00     0.053 C 
BRANCH  13  14
ATOM     14  C   UNL     1     -21.940  30.810  41.389  1.00  0.00     0.041 C 
ATOM     15  O   UNL     1     -22.601  31.821  41.028  1.00  0.00    -0.550 OA
ATOM     16  O   UNL     1     -22.555  29.820  42.144  1.00  0.00    -0.550 OA
ENDBRANCH  13  14
ENDBRANCH  12  13
ENDBRANCH  11  12
ENDBRANCH  10  11
ENDBRANCH   9  10
ENDBRANCH   8   9
ENDBRANCH   7   8
ENDBRANCH   6   7
ENDBRANCH   5   6
ENDBRANCH   4   5
ENDBRANCH   3   4
ENDBRANCH   2   3
ENDBRANCH   1   2
BRANCH   1  17
ATOM     17  C   UNL     1     -19.437  24.250  46.053  1.00  0.00     0.000 C 
BRANCH  17  18
ATOM     18  C   UNL     1     -19.547  22.993  45.164  1.00  0.00     0.000 C 
BRANCH  18  19
ATOM     19  C   UNL     1     -19.657  21.660  45.928  1.00  0.00     0.000 C 
BRANCH  19  20
ATOM     20  C   UNL     1     -18.585  20.612  45.574  1.00  0.00     0.000 C 
BRANCH  20  21
ATOM     21  C   UNL     1     -18.062  20.715  44.127  1.00  0.00     0.000 C 
BRANCH  21  22
ATOM     22  C   UNL     1     -16.547  20.979  44.064  1.00  0.00    -0.000 C 
BRANCH  22  23
ATOM     23  C   UNL     1     -15.809  20.503  45.330  1.00  0.00    -0.000 C 
BRANCH  23  24
ATOM     24  C   UNL     1     -14.276  20.653  45.277  1.00  0.00    -0.000 C 
BRANCH  24  25
ATOM     25  C   UNL     1     -13.788  21.333  43.988  1.00  0.00    -0.000 C 
BRANCH  25  26
ATOM     26  C   UNL     1     -12.627  22.296  44.277  1.00  0.00    -0.000 C 
BRANCH  26  27
ATOM     27  C   UNL     1     -12.642  23.526  43.345  1.00  0.00    -0.000 C 
BRANCH  27  28
ATOM     28  C   UNL     1     -13.414  23.298  42.031  1.00  0.00    -0.000 C 
BRANCH  28  29
ATOM     29  C   UNL     1     -13.561  24.546  41.146  1.00  0.00    -0.003 C 
ATOM     30  C   UNL     1     -12.462  25.577  41.392  1.00  0.00     0.004 C 
ENDBRANCH  28  29
ENDBRANCH  27  28
ENDBRANCH  26  27
ENDBRANCH  25  26
ENDBRANCH  24  25
ENDBRANCH  23  24
ENDBRANCH  22  23
ENDBRANCH  21  22
ENDBRANCH  20  21
ENDBRANCH  19  20
ENDBRANCH  18  19
ENDBRANCH  17  18
ENDBRANCH   1  17
TORSDOF 26
ENDMDL
MODEL 2
REMARK VINA RESULT:    -3.600      1.833      5.382
REMARK INTER + INTRA:         -13.793
REMARK INTER:                  -9.081
REMARK INTRA:                  -4.712
REMARK UNBOUND:                -4.721
REMARK SMILES CCCCCCCCCCCCCCCCCCCCCCCCCCCC(=O)[O-]
REMARK SMILES IDX 15 1 16 2 17 3 18 4 19 5 20 6 21 7 22 8 23 9 24 10 25 11
REMARK SMILES IDX 26 12 27 13 28 14 29 15 30 16 14 17 13 18 12 19 11 20 10 21
REMARK SMILES IDX 9 22 8 23 7 24 6 25 5 26 4 27 3 28 2 29 1 30
REMARK H PARENT
REMARK Flexibility Score: inf
ROOT
ATOM      1  C   UNL     1     -12.972  22.299  45.581  1.00  0.00     0.000 C 
ENDROOT
BRANCH   1   2
ATOM      2  C   UNL     1     -12.394  22.414  44.161  1.00  0.00     0.000 C 
BRANCH   2   3
ATOM      3  C   UNL     1     -12.811  23.716  43.455  1.00  0.00     0.000 C 
BRANCH   3   4
ATOM      4  C   UNL     1     -13.542  23.455  42.130  1.00  0.00     0.000 C 
BRANCH   4   5
ATOM      5  C   UNL     1     -14.978  24.003  42.131  1.00  0.00     0.000 C 
BRANCH   5   6
ATOM      6  C   UNL     1     -15.116  25.315  42.923  1.00  0.00     0.000 C 
BRANCH   6   7
ATOM      7  C   UNL     1     -16.502  25.505  43.575  1.00  0.00     0.000 C 
BRANCH   7   8
ATOM      8  C   UNL     1     -17.470  24.359  43.246  1.00  0.00     0.000 C 
BRANCH   8   9
ATOM      9  C   UNL     1     -18.623  24.847  42.357  1.00  0.00     0.000 C 
BRANCH   9  10
ATOM     10  C   UNL     1     -18.794  26.376  42.375  1.00  0.00     0.000 C 
BRANCH  10  11
ATOM     11  C   UNL     1     -20.253  26.871  42.316  1.00  0.00     0.000 C 
BRANCH  11  12
ATOM     12  C   UNL     1     -20.542  28.139  43.137  1.00  0.00     0.006 C 
BRANCH  12  13
ATOM     13  C   UNL     1     -21.784  28.896  42.651  1.00  0.00     0.053 C 
BRANCH  13  14
ATOM     14  C   UNL     1     -21.392  29.986  41.702  1.00  0.00     0.041 C 
ATOM     15  O   UNL     1     -22.243  30.836  41.326  1.00  0.00    -0.550 OA
ATOM     16  O   UNL     1     -20.070  30.109  41.294  1.00  0.00    -0.550 OA
ENDBRANCH  13  14
ENDBRANCH  12  13
ENDBRANCH  11  12
ENDBRANCH  10  11
ENDBRANCH   9  10
ENDBRANCH   8   9
ENDBRANCH   7   8
ENDBRANCH   6   7
ENDBRANCH   5   6
ENDBRANCH   4   5
ENDBRANCH   3   4
ENDBRANCH   2   3
ENDBRANCH   1   2
BRANCH   1  17
ATOM     17  C   UNL     1     -14.125  23.276  45.885  1.00  0.00     0.000 C 
BRANCH  17  18
ATOM     18  C   UNL     1     -15.522  22.630  45.997  1.00  0.00     0.000 C 
BRANCH  18  19
ATOM     19  C   UNL     1     -15.609  21.173  45.502  1.00  0.00     0.000 C 
BRANCH  19  20
ATOM     20  C   UNL     1     -16.044  21.006  44.034  1.00  0.00     0.000 C 
BRANCH  20  21
ATOM     21  C   UNL     1     -17.570  20.883  43.842  1.00  0.00     0.000 C 
BRANCH  21  22
ATOM     22  C   UNL     1     -18.241  20.070  44.963  1.00  0.00    -0.000 C 
BRANCH  22  23
ATOM     23  C   UNL     1     -19.394  20.834  45.642  1.00  0.00    -0.000 C 
BRANCH  23  24
ATOM     24  C   UNL     1     -19.238  22.367  45.642  1.00  0.00    -0.000 C 
BRANCH  24  25
ATOM     25  C   UNL     1     -20.588  23.103  45.648  1.00  0.00    -0.000 C 
BRANCH  25  26
ATOM     26  C   UNL     1     -20.388  24.625  45.619  1.00  0.00    -0.000 C 
BRANCH  26  27
ATOM     27  C   UNL     1     -21.715  25.385  45.413  1.00  0.00    -0.000 C 
BRANCH  27  28
ATOM     28  C   UNL     1     -22.630  24.757  44.344  1.00  0.00    -0.000 C 
BRANCH  28  29
ATOM     29  C   UNL     1     -24.066  24.472  44.813  1.00  0.00    -0.003 C 
ATOM     30  C   UNL     1     -24.288  23.006  45.178  1.00  0.00     0.004 C 
ENDBRANCH  28  29
ENDBRANCH  27  28
ENDBRANCH  26  27
ENDBRANCH  25  26
ENDBRANCH  24  25
ENDBRANCH  23  24
ENDBRANCH  22  23
ENDBRANCH  21  22
ENDBRANCH  20  21
ENDBRANCH  19  20
ENDBRANCH  18  19
ENDBRANCH  17  18
ENDBRANCH   1  17
TORSDOF 26
ENDMDL
MODEL 3
REMARK VINA RESULT:    -3.575      2.256      6.229
REMARK INTER + INTRA:         -13.730
REMARK INTER:                  -9.692
REMARK INTRA:                  -4.038
REMARK UNBOUND:                -4.721
REMARK SMILES CCCCCCCCCCCCCCCCCCCCCCCCCCCC(=O)[O-]
REMARK SMILES IDX 15 1 16 2 17 3 18 4 19 5 20 6 21 7 22 8 23 9 24 10 25 11
REMARK SMILES IDX 26 12 27 13 28 14 29 15 30 16 14 17 13 18 12 19 11 20 10 21
REMARK SMILES IDX 9 22 8 23 7 24 6 25 5 26 4 27 3 28 2 29 1 30
REMARK H PARENT
REMARK Flexibility Score: inf
ROOT
ATOM      1  C   UNL     1     -13.565  22.612  44.642  1.00  0.00     0.000 C 
ENDROOT
BRANCH   1   2
ATOM      2  C   UNL     1     -12.915  22.732  43.253  1.00  0.00     0.000 C 
BRANCH   2   3
ATOM      3  C   UNL     1     -12.542  24.182  42.897  1.00  0.00     0.000 C 
BRANCH   3   4
ATOM      4  C   UNL     1     -13.401  24.742  41.753  1.00  0.00     0.000 C 
BRANCH   4   5
ATOM      5  C   UNL     1     -14.131  26.037  42.143  1.00  0.00     0.000 C 
BRANCH   5   6
ATOM      6  C   UNL     1     -14.760  25.969  43.546  1.00  0.00     0.000 C 
BRANCH   6   7
ATOM      7  C   UNL     1     -16.186  26.556  43.616  1.00  0.00     0.000 C 
BRANCH   7   8
ATOM      8  C   UNL     1     -17.256  25.479  43.837  1.00  0.00     0.000 C 
BRANCH   8   9
ATOM      9  C   UNL     1     -17.639  24.798  42.514  1.00  0.00     0.000 C 
BRANCH   9  10
ATOM     10  C   UNL     1     -19.098  25.062  42.101  1.00  0.00     0.000 C 
BRANCH  10  11
ATOM     11  C   UNL     1     -19.435  26.537  41.801  1.00  0.00     0.000 C 
BRANCH  11  12
ATOM     12  C   UNL     1     -20.556  27.135  42.668  1.00  0.00     0.006 C 
BRANCH  12  13
ATOM     13  C   UNL     1     -20.329  28.615  43.000  1.00  0.00     0.053 C 
BRANCH  13  14
ATOM     14  C   UNL     1     -21.109  29.485  42.062  1.00  0.00     0.041 C 
ATOM     15  O   UNL     1     -20.510  30.271  41.280  1.00  0.00    -0.550 OA
ATOM     16  O   UNL     1     -22.491  29.370  41.997  1.00  0.00    -0.550 OA
ENDBRANCH  13  14
ENDBRANCH  12  13
ENDBRANCH  11  12
ENDBRANCH  10  11
ENDBRANCH   9  10
ENDBRANCH   8   9
ENDBRANCH   7   8
ENDBRANCH   6   7
ENDBRANCH   5   6
ENDBRANCH   4   5
ENDBRANCH   3   4
ENDBRANCH   2   3
ENDBRANCH   1   2
BRANCH   1  17
ATOM     17  C   UNL     1     -15.086  22.365  44.618  1.00  0.00     0.000 C 
BRANCH  17  18
ATOM     18  C   UNL     1     -15.657  21.908  43.259  1.00  0.00     0.000 C 
BRANCH  18  19
ATOM     19  C   UNL     1     -17.126  21.446  43.289  1.00  0.00     0.000 C 
BRANCH  19  20
ATOM     20  C   UNL     1     -17.514  20.577  44.500  1.00  0.00     0.000 C 
BRANCH  20  21
ATOM     21  C   UNL     1     -18.774  21.066  45.244  1.00  0.00     0.000 C 
BRANCH  21  22
ATOM     22  C   UNL     1     -19.143  22.517  44.889  1.00  0.00    -0.000 C 
BRANCH  22  23
ATOM     23  C   UNL     1     -20.346  23.038  45.697  1.00  0.00    -0.000 C 
BRANCH  23  24
ATOM     24  C   UNL     1     -20.887  24.406  45.238  1.00  0.00    -0.000 C 
BRANCH  24  25
ATOM     25  C   UNL     1     -22.337  24.654  45.682  1.00  0.00    -0.000 C 
BRANCH  25  26
ATOM     26  C   UNL     1     -23.281  24.728  44.473  1.00  0.00    -0.000 C 
BRANCH  26  27
ATOM     27  C   UNL     1     -24.347  23.612  44.494  1.00  0.00    -0.000 C 
BRANCH  27  28
ATOM     28  C   UNL     1     -24.780  23.196  45.913  1.00  0.00    -0.000 C 
BRANCH  28  29
ATOM     29  C   UNL     1     -24.679  21.689  46.200  1.00  0.00    -0.003 C 
ATOM     30  C   UNL     1     -23.407  21.316  46.959  1.00  0.00     0.004 C 
ENDBRANCH  28  29
ENDBRANCH  27  28
ENDBRANCH  26  27
ENDBRANCH  25  26
ENDBRANCH  24  25
ENDBRANCH  23  24
ENDBRANCH  22  23
ENDBRANCH  21  22
ENDBRANCH  20  21
ENDBRANCH  19  20
ENDBRANCH  18  19
ENDBRANCH  17  18
ENDBRANCH   1  17
TORSDOF 26
ENDMDL
MODEL 4
REMARK VINA RESULT:    -3.555      2.893      7.906
REMARK INTER + INTRA:         -13.679
REMARK INTER:                  -9.044
REMARK INTRA:                  -4.636
REMARK UNBOUND:                -4.721
REMARK SMILES CCCCCCCCCCCCCCCCCCCCCCCCCCCC(=O)[O-]
REMARK SMILES IDX 15 1 16 2 17 3 18 4 19 5 20 6 21 7 22 8 23 9 24 10 25 11
REMARK SMILES IDX 26 12 27 13 28 14 29 15 30 16 14 17 13 18 12 19 11 20 10 21
REMARK SMILES IDX 9 22 8 23 7 24 6 25 5 26 4 27 3 28 2 29 1 30
REMARK H PARENT
REMARK Flexibility Score: inf
ROOT
ATOM      1  C   UNL     1     -17.090  26.221  45.353  1.00  0.00     0.000 C 
ENDROOT
BRANCH   1   2
ATOM      2  C   UNL     1     -18.323  25.561  45.992  1.00  0.00     0.000 C 
BRANCH   2   3
ATOM      3  C   UNL     1     -18.133  24.054  46.230  1.00  0.00     0.000 C 
BRANCH   3   4
ATOM      4  C   UNL     1     -19.469  23.300  46.306  1.00  0.00     0.000 C 
BRANCH   4   5
ATOM      5  C   UNL     1     -19.587  22.198  45.242  1.00  0.00     0.000 C 
BRANCH   5   6
ATOM      6  C   UNL     1     -19.359  20.788  45.815  1.00  0.00     0.000 C 
BRANCH   6   7
ATOM      7  C   UNL     1     -18.271  19.984  45.071  1.00  0.00     0.000 C 
BRANCH   7   8
ATOM      8  C   UNL     1     -17.469  20.847  44.087  1.00  0.00     0.000 C 
BRANCH   8   9
ATOM      9  C   UNL     1     -16.028  21.052  44.578  1.00  0.00     0.000 C 
BRANCH   9  10
ATOM     10  C   UNL     1     -15.119  21.706  43.521  1.00  0.00     0.000 C 
BRANCH  10  11
ATOM     11  C   UNL     1     -13.978  22.574  44.089  1.00  0.00     0.000 C 
BRANCH  11  12
ATOM     12  C   UNL     1     -12.814  22.832  43.116  1.00  0.00     0.006 C 
BRANCH  12  13
ATOM     13  C   UNL     1     -12.457  24.319  42.993  1.00  0.00     0.053 C 
BRANCH  13  14
ATOM     14  C   UNL     1     -13.089  24.906  41.769  1.00  0.00     0.041 C 
ATOM     15  O   UNL     1     -13.212  26.155  41.656  1.00  0.00    -0.550 OA
ATOM     16  O   UNL     1     -13.471  24.080  40.720  1.00  0.00    -0.550 OA
ENDBRANCH  13  14
ENDBRANCH  12  13
ENDBRANCH  11  12
ENDBRANCH  10  11
ENDBRANCH   9  10
ENDBRANCH   8   9
ENDBRANCH   7   8
ENDBRANCH   6   7
ENDBRANCH   5   6
ENDBRANCH   4   5
ENDBRANCH   3   4
ENDBRANCH   2   3
ENDBRANCH   1   2
BRANCH   1  17
ATOM     17  C   UNL     1     -16.238  25.278  44.481  1.00  0.00     0.000 C 
BRANCH  17  18
ATOM     18  C   UNL     1     -16.575  25.293  42.975  1.00  0.00     0.000 C 
BRANCH  18  19
ATOM     19  C   UNL     1     -17.556  24.197  42.514  1.00  0.00     0.000 C 
BRANCH  19  20
ATOM     20  C   UNL     1     -19.025  24.645  42.388  1.00  0.00     0.000 C 
BRANCH  20  21
ATOM     21  C   UNL     1     -19.197  26.107  41.926  1.00  0.00     0.000 C 
BRANCH  21  22
ATOM     22  C   UNL     1     -20.120  26.915  42.855  1.00  0.00    -0.000 C 
BRANCH  22  23
ATOM     23  C   UNL     1     -19.441  28.182  43.410  1.00  0.00    -0.000 C 
BRANCH  23  24
ATOM     24  C   UNL     1     -18.141  28.585  42.688  1.00  0.00    -0.000 C 
BRANCH  24  25
ATOM     25  C   UNL     1     -17.921  30.107  42.662  1.00  0.00    -0.000 C 
BRANCH  25  26
ATOM     26  C   UNL     1     -17.595  30.595  41.243  1.00  0.00    -0.000 C 
BRANCH  26  27
ATOM     27  C   UNL     1     -18.610  31.641  40.737  1.00  0.00    -0.000 C 
BRANCH  27  28
ATOM     28  C   UNL     1     -19.949  31.033  40.274  1.00  0.00    -0.000 C 
BRANCH  28  29
ATOM     29  C   UNL     1     -21.200  31.729  40.836  1.00  0.00    -0.003 C 
ATOM     30  C   UNL     1     -22.175  30.752  41.489  1.00  0.00     0.004 C 
ENDBRANCH  28  29
ENDBRANCH  27  28
ENDBRANCH  26  27
ENDBRANCH  25  26
ENDBRANCH  24  25
ENDBRANCH  23  24
ENDBRANCH  22  23
ENDBRANCH  21  22
ENDBRANCH  20  21
ENDBRANCH  19  20
ENDBRANCH  18  19
ENDBRANCH  17  18
ENDBRANCH   1  17
TORSDOF 26
ENDMDL
MODEL 5
REMARK VINA RESULT:    -3.490      1.809      5.584
REMARK INTER + INTRA:         -13.517
REMARK INTER:                  -8.308
REMARK INTRA:                  -5.209
REMARK UNBOUND:                -4.721
REMARK SMILES CCCCCCCCCCCCCCCCCCCCCCCCCCCC(=O)[O-]
REMARK SMILES IDX 15 1 16 2 17 3 18 4 19 5 20 6 21 7 22 8 23 9 24 10 25 11
REMARK SMILES IDX 26 12 27 13 28 14 29 15 30 16 14 17 13 18 12 19 11 20 10 21
REMARK SMILES IDX 9 22 8 23 7 24 6 25 5 26 4 27 3 28 2 29 1 30
REMARK H PARENT
REMARK Flexibility Score: inf
ROOT
ATOM      1  C   UNL     1     -14.880  21.897  44.760  1.00  0.00     0.000 C 
ENDROOT
BRANCH   1   2
ATOM      2  C   UNL     1     -16.411  21.754  44.788  1.00  0.00     0.000 C 
BRANCH   2   3
ATOM      3  C   UNL     1     -17.019  21.623  43.381  1.00  0.00     0.000 C 
BRANCH   3   4
ATOM      4  C   UNL     1     -18.248  22.524  43.190  1.00  0.00     0.000 C 
BRANCH   4   5
ATOM      5  C   UNL     1     -17.926  23.800  42.397  1.00  0.00     0.000 C 
BRANCH   5   6
ATOM      6  C   UNL     1     -19.153  24.709  42.204  1.00  0.00     0.000 C 
BRANCH   6   7
ATOM      7  C   UNL     1     -18.803  26.209  42.091  1.00  0.00     0.000 C 
BRANCH   7   8
ATOM      8  C   UNL     1     -20.038  27.113  42.208  1.00  0.00     0.000 C 
BRANCH   8   9
ATOM      9  C   UNL     1     -20.072  27.833  43.564  1.00  0.00     0.000 C 
BRANCH   9  10
ATOM     10  C   UNL     1     -21.430  28.493  43.863  1.00  0.00     0.000 C 
BRANCH  10  11
ATOM     11  C   UNL     1     -21.418  30.034  43.877  1.00  0.00     0.000 C 
BRANCH  11  12
ATOM     12  C   UNL     1     -22.278  30.699  42.788  1.00  0.00     0.006 C 
BRANCH  12  13
ATOM     13  C   UNL     1     -21.892  30.259  41.370  1.00  0.00     0.053 C 
BRANCH  13  14
ATOM     14  C   UNL     1     -20.704  31.033  40.890  1.00  0.00     0.041 C 
ATOM     15  O   UNL     1     -19.631  30.436  40.606  1.00  0.00    -0.550 OA
ATOM     16  O   UNL     1     -20.805  32.402  40.682  1.00  0.00    -0.550 OA
ENDBRANCH  13  14
ENDBRANCH  12  13
ENDBRANCH  11  12
ENDBRANCH  10  11
ENDBRANCH   9  10
ENDBRANCH   8   9
ENDBRANCH   7   8
ENDBRANCH   6   7
ENDBRANCH   5   6
ENDBRANCH   4   5
ENDBRANCH   3   4
ENDBRANCH   2   3
ENDBRANCH   1   2
BRANCH   1  17
ATOM     17  C   UNL     1     -14.248  21.760  43.361  1.00  0.00     0.000 C 
BRANCH  17  18
ATOM     18  C   UNL     1     -13.449  22.989  42.878  1.00  0.00     0.000 C 
BRANCH  18  19
ATOM     19  C   UNL     1     -14.278  24.062  42.147  1.00  0.00     0.000 C 
BRANCH  19  20
ATOM     20  C   UNL     1     -14.030  25.510  42.611  1.00  0.00     0.000 C 
BRANCH  20  21
ATOM     21  C   UNL     1     -15.250  26.169  43.288  1.00  0.00     0.000 C 
BRANCH  21  22
ATOM     22  C   UNL     1     -15.615  25.500  44.625  1.00  0.00    -0.000 C 
BRANCH  22  23
ATOM     23  C   UNL     1     -16.926  26.044  45.222  1.00  0.00    -0.000 C 
BRANCH  23  24
ATOM     24  C   UNL     1     -17.689  25.048  46.117  1.00  0.00    -0.000 C 
BRANCH  24  25
ATOM     25  C   UNL     1     -19.208  25.081  45.886  1.00  0.00    -0.000 C 
BRANCH  25  26
ATOM     26  C   UNL     1     -19.847  23.724  46.217  1.00  0.00    -0.000 C 
BRANCH  26  27
ATOM     27  C   UNL     1     -21.199  23.525  45.501  1.00  0.00    -0.000 C 
BRANCH  27  28
ATOM     28  C   UNL     1     -21.720  24.792  44.796  1.00  0.00    -0.000 C 
BRANCH  28  29
ATOM     29  C   UNL     1     -23.203  24.741  44.392  1.00  0.00    -0.003 C 
ATOM     30  C   UNL     1     -24.139  25.125  45.535  1.00  0.00     0.004 C 
ENDBRANCH  28  29
ENDBRANCH  27  28
ENDBRANCH  26  27
ENDBRANCH  25  26
ENDBRANCH  24  25
ENDBRANCH  23  24
ENDBRANCH  22  23
ENDBRANCH  21  22
ENDBRANCH  20  21
ENDBRANCH  19  20
ENDBRANCH  18  19
ENDBRANCH  17  18
ENDBRANCH   1  17
TORSDOF 26
ENDMDL
MODEL 6
REMARK VINA RESULT:    -3.457      1.598      3.548
REMARK INTER + INTRA:         -13.433
REMARK INTER:                  -7.936
REMARK INTRA:                  -5.497
REMARK UNBOUND:                -4.721
REMARK SMILES CCCCCCCCCCCCCCCCCCCCCCCCCCCC(=O)[O-]
REMARK SMILES IDX 15 1 16 2 17 3 18 4 19 5 20 6 21 7 22 8 23 9 24 10 25 11
REMARK SMILES IDX 26 12 27 13 28 14 29 15 30 16 14 17 13 18 12 19 11 20 10 21
REMARK SMILES IDX 9 22 8 23 7 24 6 25 5 26 4 27 3 28 2 29 1 30
REMARK H PARENT
REMARK Flexibility Score: inf
ROOT
ATOM      1  C   UNL     1     -16.656  21.325  43.917  1.00  0.00     0.000 C 
ENDROOT
BRANCH   1   2
ATOM      2  C   UNL     1     -17.224  20.527  45.102  1.00  0.00     0.000 C 
BRANCH   2   3
ATOM      3  C   UNL     1     -18.761  20.557  45.155  1.00  0.00     0.000 C 
BRANCH   3   4
ATOM      4  C   UNL     1     -19.289  21.470  46.271  1.00  0.00     0.000 C 
BRANCH   4   5
ATOM      5  C   UNL     1     -20.433  22.380  45.797  1.00  0.00     0.000 C 
BRANCH   5   6
ATOM      6  C   UNL     1     -20.932  23.335  46.896  1.00  0.00     0.000 C 
BRANCH   6   7
ATOM      7  C   UNL     1     -21.633  24.598  46.351  1.00  0.00     0.000 C 
BRANCH   7   8
ATOM      8  C   UNL     1     -22.081  24.440  44.891  1.00  0.00     0.000 C 
BRANCH   8   9
ATOM      9  C   UNL     1     -21.941  25.762  44.122  1.00  0.00     0.000 C 
BRANCH   9  10
ATOM     10  C   UNL     1     -21.802  26.985  45.046  1.00  0.00     0.000 C 
BRANCH  10  11
ATOM     11  C   UNL     1     -20.460  27.735  44.939  1.00  0.00     0.000 C 
BRANCH  11  12
ATOM     12  C   UNL     1     -20.456  28.923  43.962  1.00  0.00     0.006 C 
BRANCH  12  13
ATOM     13  C   UNL     1     -21.854  29.509  43.729  1.00  0.00     0.053 C 
BRANCH  13  14
ATOM     14  C   UNL     1     -22.214  29.435  42.276  1.00  0.00     0.041 C 
ATOM     15  O   UNL     1     -22.478  30.487  41.635  1.00  0.00    -0.550 OA
ATOM     16  O   UNL     1     -22.180  28.215  41.614  1.00  0.00    -0.550 OA
ENDBRANCH  13  14
ENDBRANCH  12  13
ENDBRANCH  11  12
ENDBRANCH  10  11
ENDBRANCH   9  10
ENDBRANCH   8   9
ENDBRANCH   7   8
ENDBRANCH   6   7
ENDBRANCH   5   6
ENDBRANCH   4   5
ENDBRANCH   3   4
ENDBRANCH   2   3
ENDBRANCH   1   2
BRANCH   1  17
ATOM     17  C   UNL     1     -17.703  21.751  42.870  1.00  0.00     0.000 C 
BRANCH  17  18
ATOM     18  C   UNL     1     -17.639  23.233  42.442  1.00  0.00     0.000 C 
BRANCH  18  19
ATOM     19  C   UNL     1     -18.712  24.142  43.072  1.00  0.00     0.000 C 
BRANCH  19  20
ATOM     20  C   UNL     1     -18.166  25.296  43.935  1.00  0.00     0.000 C 
BRANCH  20  21
ATOM     21  C   UNL     1     -17.917  24.913  45.408  1.00  0.00     0.000 C 
BRANCH  21  22
ATOM     22  C   UNL     1     -16.425  24.697  45.718  1.00  0.00    -0.000 C 
BRANCH  22  23
ATOM     23  C   UNL     1     -16.193  23.632  46.806  1.00  0.00    -0.000 C 
BRANCH  23  24
ATOM     24  C   UNL     1     -14.818  22.940  46.748  1.00  0.00    -0.000 C 
BRANCH  24  25
ATOM     25  C   UNL     1     -13.916  23.499  45.635  1.00  0.00    -0.000 C 
BRANCH  25  26
ATOM     26  C   UNL     1     -13.239  22.365  44.850  1.00  0.00    -0.000 C 
BRANCH  26  27
ATOM     27  C   UNL     1     -12.729  22.833  43.471  1.00  0.00    -0.000 C 
BRANCH  27  28
ATOM     28  C   UNL     1     -13.850  23.046  42.436  1.00  0.00    -0.000 C 
BRANCH  28  29
ATOM     29  C   UNL     1     -13.846  24.426  41.758  1.00  0.00    -0.003 C 
ATOM     30  C   UNL     1     -14.626  25.473  42.549  1.00  0.00     0.004 C 
ENDBRANCH  28  29
ENDBRANCH  27  28
ENDBRANCH  26  27
ENDBRANCH  25  26
ENDBRANCH  24  25
ENDBRANCH  23  24
ENDBRANCH  22  23
ENDBRANCH  21  22
ENDBRANCH  20  21
ENDBRANCH  19  20
ENDBRANCH  18  19
ENDBRANCH  17  18
ENDBRANCH   1  17
TORSDOF 26
ENDMDL
MODEL 7
REMARK VINA RESULT:    -3.442      3.266      6.654
REMARK INTER + INTRA:         -13.395
REMARK INTER:                  -8.410
REMARK INTRA:                  -4.985
REMARK UNBOUND:                -4.721
REMARK SMILES CCCCCCCCCCCCCCCCCCCCCCCCCCCC(=O)[O-]
REMARK SMILES IDX 15 1 16 2 17 3 18 4 19 5 20 6 21 7 22 8 23 9 24 10 25 11
REMARK SMILES IDX 26 12 27 13 28 14 29 15 30 16 14 17 13 18 12 19 11 20 10 21
REMARK SMILES IDX 9 22 8 23 7 24 6 25 5 26 4 27 3 28 2 29 1 30
REMARK H PARENT
REMARK Flexibility Score: inf
ROOT
ATOM      1  C   UNL     1     -16.686  21.892  43.269  1.00  0.00     0.000 C 
ENDROOT
BRANCH   1   2
ATOM      2  C   UNL     1     -18.009  22.248  42.569  1.00  0.00     0.000 C 
BRANCH   2   3
ATOM      3  C   UNL     1     -18.385  23.730  42.731  1.00  0.00     0.000 C 
BRANCH   3   4
ATOM      4  C   UNL     1     -17.327  24.520  43.516  1.00  0.00     0.000 C 
BRANCH   4   5
ATOM      5  C   UNL     1     -17.950  25.529  44.494  1.00  0.00     0.000 C 
BRANCH   5   6
ATOM      6  C   UNL     1     -19.488  25.527  44.456  1.00  0.00     0.000 C 
BRANCH   6   7
ATOM      7  C   UNL     1     -20.134  26.597  45.363  1.00  0.00     0.000 C 
BRANCH   7   8
ATOM      8  C   UNL     1     -21.262  27.364  44.659  1.00  0.00     0.000 C 
BRANCH   8   9
ATOM      9  C   UNL     1     -21.317  27.019  43.164  1.00  0.00     0.000 C 
BRANCH   9  10
ATOM     10  C   UNL     1     -21.010  28.223  42.256  1.00  0.00     0.000 C 
BRANCH  10  11
ATOM     11  C   UNL     1     -19.604  28.830  42.431  1.00  0.00     0.000 C 
BRANCH  11  12
ATOM     12  C   UNL     1     -18.453  27.969  41.880  1.00  0.00     0.006 C 
BRANCH  12  13
ATOM     13  C   UNL     1     -17.184  28.782  41.592  1.00  0.00     0.053 C 
BRANCH  13  14
ATOM     14  C   UNL     1     -16.131  28.481  42.614  1.00  0.00     0.041 C 
ATOM     15  O   UNL     1     -16.413  28.506  43.841  1.00  0.00    -0.550 OA
ATOM     16  O   UNL     1     -14.860  28.098  42.207  1.00  0.00    -0.550 OA
ENDBRANCH  13  14
ENDBRANCH  12  13
ENDBRANCH  11  12
ENDBRANCH  10  11
ENDBRANCH   9  10
ENDBRANCH   8   9
ENDBRANCH   7   8
ENDBRANCH   6   7
ENDBRANCH   5   6
ENDBRANCH   4   5
ENDBRANCH   3   4
ENDBRANCH   2   3
ENDBRANCH   1   2
BRANCH   1  17
ATOM     17  C   UNL     1     -16.840  21.006  44.520  1.00  0.00     0.000 C 
BRANCH  17  18
ATOM     18  C   UNL     1     -18.202  20.293  44.656  1.00  0.00     0.000 C 
BRANCH  18  19
ATOM     19  C   UNL     1     -19.032  20.697  45.890  1.00  0.00     0.000 C 
BRANCH  19  20
ATOM     20  C   UNL     1     -19.330  22.203  46.012  1.00  0.00     0.000 C 
BRANCH  20  21
ATOM     21  C   UNL     1     -20.835  22.542  46.054  1.00  0.00     0.000 C 
BRANCH  21  22
ATOM     22  C   UNL     1     -21.674  21.425  46.698  1.00  0.00    -0.000 C 
BRANCH  22  23
ATOM     23  C   UNL     1     -22.453  21.906  47.937  1.00  0.00    -0.000 C 
BRANCH  23  24
ATOM     24  C   UNL     1     -23.982  21.745  47.838  1.00  0.00    -0.000 C 
BRANCH  24  25
ATOM     25  C   UNL     1     -24.456  21.412  46.414  1.00  0.00    -0.000 C 
BRANCH  25  26
ATOM     26  C   UNL     1     -25.115  22.631  45.751  1.00  0.00    -0.000 C 
BRANCH  26  27
ATOM     27  C   UNL     1     -24.215  23.268  44.673  1.00  0.00    -0.000 C 
BRANCH  27  28
ATOM     28  C   UNL     1     -23.775  24.707  45.003  1.00  0.00    -0.000 C 
BRANCH  28  29
ATOM     29  C   UNL     1     -24.249  25.227  46.370  1.00  0.00    -0.003 C 
ATOM     30  C   UNL     1     -23.097  25.477  47.339  1.00  0.00     0.004 C 
ENDBRANCH  28  29
ENDBRANCH  27  28
ENDBRANCH  26  27
ENDBRANCH  25  26
ENDBRANCH  24  25
ENDBRANCH  23  24
ENDBRANCH  22  23
ENDBRANCH  21  22
ENDBRANCH  20  21
ENDBRANCH  19  20
ENDBRANCH  18  19
ENDBRANCH  17  18
ENDBRANCH   1  17
TORSDOF 26
ENDMDL
MODEL 8
REMARK VINA RESULT:    -3.416      1.480      2.997
REMARK INTER + INTRA:         -13.329
REMARK INTER:                  -8.188
REMARK INTRA:                  -5.141
REMARK UNBOUND:                -4.721
REMARK SMILES CCCCCCCCCCCCCCCCCCCCCCCCCCCC(=O)[O-]
REMARK SMILES IDX 15 1 16 2 17 3 18 4 19 5 20 6 21 7 22 8 23 9 24 10 25 11
REMARK SMILES IDX 26 12 27 13 28 14 29 15 30 16 14 17 13 18 12 19 11 20 10 21
REMARK SMILES IDX 9 22 8 23 7 24 6 25 5 26 4 27 3 28 2 29 1 30
REMARK H PARENT
REMARK Flexibility Score: inf
ROOT
ATOM      1  C   UNL     1     -19.366  21.827  45.531  1.00  0.00     0.000 C 
ENDROOT
BRANCH   1   2
ATOM      2  C   UNL     1     -18.077  20.992  45.453  1.00  0.00     0.000 C 
BRANCH   2   3
ATOM      3  C   UNL     1     -17.657  20.682  44.006  1.00  0.00     0.000 C 
BRANCH   3   4
ATOM      4  C   UNL     1     -17.011  21.892  43.314  1.00  0.00     0.000 C 
BRANCH   4   5
ATOM      5  C   UNL     1     -18.007  22.676  42.446  1.00  0.00     0.000 C 
BRANCH   5   6
ATOM      6  C   UNL     1     -17.824  24.200  42.556  1.00  0.00     0.000 C 
BRANCH   6   7
ATOM      7  C   UNL     1     -19.075  25.008  42.149  1.00  0.00     0.000 C 
BRANCH   7   8
ATOM      8  C   UNL     1     -20.002  25.298  43.338  1.00  0.00     0.000 C 
BRANCH   8   9
ATOM      9  C   UNL     1     -19.491  26.491  44.160  1.00  0.00     0.000 C 
BRANCH   9  10
ATOM     10  C   UNL     1     -20.111  27.832  43.725  1.00  0.00     0.000 C 
BRANCH  10  11
ATOM     11  C   UNL     1     -21.562  27.743  43.210  1.00  0.00     0.000 C 
BRANCH  11  12
ATOM     12  C   UNL     1     -21.820  28.459  41.874  1.00  0.00     0.006 C 
BRANCH  12  13
ATOM     13  C   UNL     1     -22.291  29.908  42.053  1.00  0.00     0.053 C 
BRANCH  13  14
ATOM     14  C   UNL     1     -21.271  30.858  41.505  1.00  0.00     0.041 C 
ATOM     15  O   UNL     1     -21.464  32.101  41.570  1.00  0.00    -0.550 OA
ATOM     16  O   UNL     1     -20.074  30.373  40.994  1.00  0.00    -0.550 OA
ENDBRANCH  13  14
ENDBRANCH  12  13
ENDBRANCH  11  12
ENDBRANCH  10  11
ENDBRANCH   9  10
ENDBRANCH   8   9
ENDBRANCH   7   8
ENDBRANCH   6   7
ENDBRANCH   5   6
ENDBRANCH   4   5
ENDBRANCH   3   4
ENDBRANCH   2   3
ENDBRANCH   1   2
BRANCH   1  17
ATOM     17  C   UNL     1     -19.187  23.229  46.146  1.00  0.00     0.000 C 
BRANCH  17  18
ATOM     18  C   UNL     1     -17.791  23.510  46.743  1.00  0.00     0.000 C 
BRANCH  18  19
ATOM     19  C   UNL     1     -17.001  24.638  46.053  1.00  0.00     0.000 C 
BRANCH  19  20
ATOM     20  C   UNL     1     -15.574  24.261  45.610  1.00  0.00     0.000 C 
BRANCH  20  21
ATOM     21  C   UNL     1     -15.012  23.006  46.309  1.00  0.00     0.000 C 
BRANCH  21  22
ATOM     22  C   UNL     1     -13.581  22.669  45.856  1.00  0.00    -0.000 C 
BRANCH  22  23
ATOM     23  C   UNL     1     -13.536  22.038  44.451  1.00  0.00    -0.000 C 
BRANCH  23  24
ATOM     24  C   UNL     1     -12.784  22.870  43.395  1.00  0.00    -0.000 C 
BRANCH  24  25
ATOM     25  C   UNL     1     -13.581  23.039  42.091  1.00  0.00    -0.000 C 
BRANCH  25  26
ATOM     26  C   UNL     1     -14.205  24.439  42.002  1.00  0.00    -0.000 C 
BRANCH  26  27
ATOM     27  C   UNL     1     -13.441  25.475  42.852  1.00  0.00    -0.000 C 
BRANCH  27  28
ATOM     28  C   UNL     1     -13.924  26.924  42.646  1.00  0.00    -0.000 C 
BRANCH  28  29
ATOM     29  C   UNL     1     -15.098  27.345  43.545  1.00  0.00    -0.003 C 
ATOM     30  C   UNL     1     -16.369  27.646  42.754  1.00  0.00     0.004 C 
ENDBRANCH  28  29
ENDBRANCH  27  28
ENDBRANCH  26  27
ENDBRANCH  25  26
ENDBRANCH  24  25
ENDBRANCH  23  24
ENDBRANCH  22  23
ENDBRANCH  21  22
ENDBRANCH  20  21
ENDBRANCH  19  20
ENDBRANCH  18  19
ENDBRANCH  17  18
ENDBRANCH   1  17
TORSDOF 26
ENDMDL
MODEL 9
REMARK VINA RESULT:    -3.347      2.200      4.138
REMARK INTER + INTRA:         -13.157
REMARK INTER:                  -8.299
REMARK INTRA:                  -4.857
REMARK UNBOUND:                -4.721
REMARK SMILES CCCCCCCCCCCCCCCCCCCCCCCCCCCC(=O)[O-]
REMARK SMILES IDX 15 1 16 2 17 3 18 4 19 5 20 6 21 7 22 8 23 9 24 10 25 11
REMARK SMILES IDX 26 12 27 13 28 14 29 15 30 16 14 17 13 18 12 19 11 20 10 21
REMARK SMILES IDX 9 22 8 23 7 24 6 25 5 26 4 27 3 28 2 29 1 30
REMARK H PARENT
REMARK Flexibility Score: inf
ROOT
ATOM      1  C   UNL     1     -17.626  20.630  44.298  1.00  0.00     0.000 C 
ENDROOT
BRANCH   1   2
ATOM      2  C   UNL     1     -18.369  21.323  45.452  1.00  0.00     0.000 C 
BRANCH   2   3
ATOM      3  C   UNL     1     -19.549  20.491  45.982  1.00  0.00     0.000 C 
BRANCH   3   4
ATOM      4  C   UNL     1     -20.621  21.360  46.657  1.00  0.00     0.000 C 
BRANCH   4   5
ATOM      5  C   UNL     1     -20.952  22.624  45.847  1.00  0.00     0.000 C 
BRANCH   5   6
ATOM      6  C   UNL     1     -22.447  22.985  45.887  1.00  0.00     0.000 C 
BRANCH   6   7
ATOM      7  C   UNL     1     -22.720  24.458  46.261  1.00  0.00     0.000 C 
BRANCH   7   8
ATOM      8  C   UNL     1     -21.622  25.406  45.761  1.00  0.00     0.000 C 
BRANCH   8   9
ATOM      9  C   UNL     1     -21.930  25.913  44.344  1.00  0.00     0.000 C 
BRANCH   9  10
ATOM     10  C   UNL     1     -21.215  27.233  44.007  1.00  0.00     0.000 C 
BRANCH  10  11
ATOM     11  C   UNL     1     -20.872  27.427  42.516  1.00  0.00     0.000 C 
BRANCH  11  12
ATOM     12  C   UNL     1     -19.726  28.416  42.238  1.00  0.00     0.006 C 
BRANCH  12  13
ATOM     13  C   UNL     1     -18.958  28.813  43.505  1.00  0.00     0.053 C 
BRANCH  13  14
ATOM     14  C   UNL     1     -17.483  28.807  43.242  1.00  0.00     0.041 C 
ATOM     15  O   UNL     1     -16.689  29.318  44.077  1.00  0.00    -0.550 OA
ATOM     16  O   UNL     1     -16.981  28.170  42.116  1.00  0.00    -0.550 OA
ENDBRANCH  13  14
ENDBRANCH  12  13
ENDBRANCH  11  12
ENDBRANCH  10  11
ENDBRANCH   9  10
ENDBRANCH   8   9
ENDBRANCH   7   8
ENDBRANCH   6   7
ENDBRANCH   5   6
ENDBRANCH   4   5
ENDBRANCH   3   4
ENDBRANCH   2   3
ENDBRANCH   1   2
BRANCH   1  17
ATOM     17  C   UNL     1     -16.996  21.591  43.272  1.00  0.00     0.000 C 
BRANCH  17  18
ATOM     18  C   UNL     1     -17.998  22.464  42.487  1.00  0.00     0.000 C 
BRANCH  18  19
ATOM     19  C   UNL     1     -17.728  23.980  42.545  1.00  0.00     0.000 C 
BRANCH  19  20
ATOM     20  C   UNL     1     -18.494  24.739  43.646  1.00  0.00     0.000 C 
BRANCH  20  21
ATOM     21  C   UNL     1     -17.669  24.985  44.926  1.00  0.00     0.000 C 
BRANCH  21  22
ATOM     22  C   UNL     1     -16.316  25.659  44.636  1.00  0.00    -0.000 C 
BRANCH  22  23
ATOM     23  C   UNL     1     -15.132  24.913  45.279  1.00  0.00    -0.000 C 
BRANCH  23  24
ATOM     24  C   UNL     1     -15.452  23.482  45.751  1.00  0.00    -0.000 C 
BRANCH  24  25
ATOM     25  C   UNL     1     -14.193  22.618  45.931  1.00  0.00    -0.000 C 
BRANCH  25  26
ATOM     26  C   UNL     1     -13.146  22.934  44.853  1.00  0.00    -0.000 C 
BRANCH  26  27
ATOM     27  C   UNL     1     -13.340  22.081  43.582  1.00  0.00    -0.000 C 
BRANCH  27  28
ATOM     28  C   UNL     1     -13.616  22.911  42.314  1.00  0.00    -0.000 C 
BRANCH  28  29
ATOM     29  C   UNL     1     -12.908  24.275  42.270  1.00  0.00    -0.003 C 
ATOM     30  C   UNL     1     -13.832  25.406  41.825  1.00  0.00     0.004 C 
ENDBRANCH  28  29
ENDBRANCH  27  28
ENDBRANCH  26  27
ENDBRANCH  25  26
ENDBRANCH  24  25
ENDBRANCH  23  24
ENDBRANCH  22  23
ENDBRANCH  21  22
ENDBRANCH  20  21
ENDBRANCH  19  20
ENDBRANCH  18  19
ENDBRANCH  17  18
ENDBRANCH   1  17
TORSDOF 26
ENDMDL
