MODEL 1
REMARK VINA RESULT:    -6.282      0.000      0.000
REMARK INTER + INTRA:          -7.208
REMARK INTER:                  -7.016
REMARK INTRA:                  -0.192
REMARK UNBOUND:                -0.192
REMARK SMILES CC(C)c1ccc(C=O)cc1
REMARK SMILES IDX 4 1 5 2 6 3 7 4 10 5 11 6 2 7 1 8 3 9 8 10 9 11
REMARK H PARENT
REMARK Flexibility Score: inf
ROOT
ATOM      1  C   UNL     1     -13.281   2.275  -9.293  1.00  0.00    -0.045 A 
ATOM      2  C   UNL     1     -14.654   2.077  -9.521  1.00  0.00     0.005 A 
ATOM      3  C   UNL     1     -15.125   0.845  -9.984  1.00  0.00     0.012 A 
ATOM      4  C   UNL     1     -14.233  -0.212 -10.227  1.00  0.00     0.014 A 
ATOM      5  C   UNL     1     -12.863  -0.017  -9.999  1.00  0.00     0.012 A 
ATOM      6  C   UNL     1     -12.390   1.214  -9.537  1.00  0.00     0.005 A 
ENDROOT
BRANCH   1   7
ATOM      7  C   UNL     1     -12.782   3.618  -8.790  1.00  0.00     0.013 C 
ATOM      8  C   UNL     1     -11.366   3.499  -8.211  1.00  0.00     0.012 C 
ATOM      9  C   UNL     1     -13.749   4.218  -7.763  1.00  0.00     0.012 C 
ENDBRANCH   1   7
BRANCH   4  10
ATOM     10  C   UNL     1     -14.712  -1.518 -10.715  1.00  0.00     0.260 C 
ATOM     11  O   UNL     1     -14.364  -2.591 -10.154  1.00  0.00    -0.298 OA
ENDBRANCH   4  10
TORSDOF 2
ENDMDL
MODEL 2
REMARK VINA RESULT:    -5.526      2.456      4.681
REMARK INTER + INTRA:          -6.364
REMARK INTER:                  -6.173
REMARK INTRA:                  -0.191
REMARK UNBOUND:                -0.192
REMARK SMILES CC(C)c1ccc(C=O)cc1
REMARK SMILES IDX 4 1 5 2 6 3 7 4 10 5 11 6 2 7 1 8 3 9 8 10 9 11
REMARK H PARENT
REMARK Flexibility Score: inf
ROOT
ATOM      1  C   UNL     1     -13.568   0.143 -10.018  1.00  0.00    -0.045 A 
ATOM      2  C   UNL     1     -14.825   0.755  -9.871  1.00  0.00     0.005 A 
ATOM      3  C   UNL     1     -14.929   2.046  -9.346  1.00  0.00     0.012 A 
ATOM      4  C   UNL     1     -13.777   2.750  -8.958  1.00  0.00     0.014 A 
ATOM      5  C   UNL     1     -12.522   2.143  -9.104  1.00  0.00     0.012 A 
ATOM      6  C   UNL     1     -12.416   0.852  -9.629  1.00  0.00     0.005 A 
ENDROOT
BRANCH   1   7
ATOM      7  C   UNL     1     -13.470  -1.259 -10.590  1.00  0.00     0.013 C 
ATOM      8  C   UNL     1     -14.789  -2.022 -10.410  1.00  0.00     0.012 C 
ATOM      9  C   UNL     1     -12.298  -2.029  -9.969  1.00  0.00     0.012 C 
ENDBRANCH   1   7
BRANCH   4  10
ATOM     10  C   UNL     1     -13.868   4.113  -8.403  1.00  0.00     0.260 C 
ATOM     11  O   UNL     1     -13.589   4.345  -7.197  1.00  0.00    -0.298 OA
ENDBRANCH   4  10
TORSDOF 2
ENDMDL
MODEL 3
REMARK VINA RESULT:    -4.986      5.926      7.925
REMARK INTER + INTRA:          -5.762
REMARK INTER:                  -5.567
REMARK INTRA:                  -0.195
REMARK UNBOUND:                -0.192
REMARK SMILES CC(C)c1ccc(C=O)cc1
REMARK SMILES IDX 4 1 5 2 6 3 7 4 10 5 11 6 2 7 1 8 3 9 8 10 9 11
REMARK H PARENT
REMARK Flexibility Score: inf
ROOT
ATOM      1  C   UNL     1     -10.518  -5.466  -7.541  1.00  0.00    -0.045 A 
ATOM      2  C   UNL     1     -10.482  -5.491  -8.946  1.00  0.00     0.005 A 
ATOM      3  C   UNL     1     -10.480  -4.299  -9.676  1.00  0.00     0.012 A 
ATOM      4  C   UNL     1     -10.512  -3.061  -9.016  1.00  0.00     0.014 A 
ATOM      5  C   UNL     1     -10.546  -3.033  -7.614  1.00  0.00     0.012 A 
ATOM      6  C   UNL     1     -10.549  -4.223  -6.882  1.00  0.00     0.005 A 
ENDROOT
BRANCH   1   7
ATOM      7  C   UNL     1     -10.520  -6.767  -6.760  1.00  0.00     0.013 C 
ATOM      8  C   UNL     1     -10.780  -7.965  -7.682  1.00  0.00     0.012 C 
ATOM      9  C   UNL     1     -11.537  -6.724  -5.613  1.00  0.00     0.012 C 
ENDBRANCH   1   7
BRANCH   4  10
ATOM     10  C   UNL     1     -10.509  -1.794  -9.771  1.00  0.00     0.260 C 
ATOM     11  O   UNL     1     -10.867  -0.713  -9.231  1.00  0.00    -0.298 OA
ENDBRANCH   4  10
TORSDOF 2
ENDMDL
MODEL 4
REMARK VINA RESULT:    -4.816      6.618      8.338
REMARK INTER + INTRA:          -5.571
REMARK INTER:                  -5.391
REMARK INTRA:                  -0.181
REMARK UNBOUND:                -0.192
REMARK SMILES CC(C)c1ccc(C=O)cc1
REMARK SMILES IDX 4 1 5 2 6 3 7 4 10 5 11 6 2 7 1 8 3 9 8 10 9 11
REMARK H PARENT
REMARK Flexibility Score: inf
ROOT
ATOM      1  C   UNL     1     -12.063  -5.933  -6.502  1.00  0.00    -0.045 A 
ATOM      2  C   UNL     1     -10.949  -5.124  -6.220  1.00  0.00     0.005 A 
ATOM      3  C   UNL     1     -10.290  -4.440  -7.246  1.00  0.00     0.012 A 
ATOM      4  C   UNL     1     -10.735  -4.551  -8.573  1.00  0.00     0.014 A 
ATOM      5  C   UNL     1     -11.847  -5.357  -8.858  1.00  0.00     0.012 A 
ATOM      6  C   UNL     1     -12.506  -6.042  -7.834  1.00  0.00     0.005 A 
ENDROOT
BRANCH   1   7
ATOM      7  C   UNL     1     -12.769  -6.670  -5.379  1.00  0.00     0.013 C 
ATOM      8  C   UNL     1     -12.008  -7.945  -4.991  1.00  0.00     0.012 C 
ATOM      9  C   UNL     1     -14.222  -6.987  -5.751  1.00  0.00     0.012 C 
ENDBRANCH   1   7
BRANCH   4  10
ATOM     10  C   UNL     1     -10.053  -3.837  -9.668  1.00  0.00     0.260 C 
ATOM     11  O   UNL     1     -10.429  -2.691 -10.032  1.00  0.00    -0.298 OA
ENDBRANCH   4  10
TORSDOF 2
ENDMDL
MODEL 5
REMARK VINA RESULT:    -4.759      6.194      7.698
REMARK INTER + INTRA:          -5.508
REMARK INTER:                  -5.326
REMARK INTRA:                  -0.182
REMARK UNBOUND:                -0.192
REMARK SMILES CC(C)c1ccc(C=O)cc1
REMARK SMILES IDX 4 1 5 2 6 3 7 4 10 5 11 6 2 7 1 8 3 9 8 10 9 11
REMARK H PARENT
REMARK Flexibility Score: inf
ROOT
ATOM      1  C   UNL     1     -11.077  -4.574  -7.612  1.00  0.00    -0.045 A 
ATOM      2  C   UNL     1     -11.914  -5.400  -8.382  1.00  0.00     0.005 A 
ATOM      3  C   UNL     1     -12.605  -6.460  -7.789  1.00  0.00     0.012 A 
ATOM      4  C   UNL     1     -12.474  -6.713  -6.414  1.00  0.00     0.014 A 
ATOM      5  C   UNL     1     -11.641  -5.890  -5.643  1.00  0.00     0.012 A 
ATOM      6  C   UNL     1     -10.949  -4.830  -6.234  1.00  0.00     0.005 A 
ENDROOT
BRANCH   1   7
ATOM      7  C   UNL     1     -10.332  -3.426  -8.268  1.00  0.00     0.013 C 
ATOM      8  C   UNL     1     -11.073  -2.929  -9.516  1.00  0.00     0.012 C 
ATOM      9  C   UNL     1      -8.890  -3.822  -8.604  1.00  0.00     0.012 C 
ENDBRANCH   1   7
BRANCH   4  10
ATOM     10  C   UNL     1     -13.197  -7.827  -5.772  1.00  0.00     0.260 C 
ATOM     11  O   UNL     1     -14.365  -7.675  -5.328  1.00  0.00    -0.298 OA
ENDBRANCH   4  10
TORSDOF 2
ENDMDL
MODEL 6
REMARK VINA RESULT:    -3.969     17.384     18.157
REMARK INTER + INTRA:          -4.625
REMARK INTER:                  -4.435
REMARK INTRA:                  -0.190
REMARK UNBOUND:                -0.192
REMARK SMILES CC(C)c1ccc(C=O)cc1
REMARK SMILES IDX 4 1 5 2 6 3 7 4 10 5 11 6 2 7 1 8 3 9 8 10 9 11
REMARK H PARENT
REMARK Flexibility Score: inf
ROOT
ATOM      1  C   UNL     1     -11.353   5.647   7.494  1.00  0.00    -0.045 A 
ATOM      2  C   UNL     1     -11.849   6.787   6.838  1.00  0.00     0.005 A 
ATOM      3  C   UNL     1     -10.983   7.644   6.153  1.00  0.00     0.012 A 
ATOM      4  C   UNL     1      -9.605   7.376   6.108  1.00  0.00     0.014 A 
ATOM      5  C   UNL     1      -9.108   6.238   6.760  1.00  0.00     0.012 A 
ATOM      6  C   UNL     1      -9.972   5.381   7.447  1.00  0.00     0.005 A 
ENDROOT
BRANCH   1   7
ATOM      7  C   UNL     1     -12.304   4.725   8.234  1.00  0.00     0.013 C 
ATOM      8  C   UNL     1     -13.265   5.523   9.125  1.00  0.00     0.012 C 
ATOM      9  C   UNL     1     -11.538   3.678   9.051  1.00  0.00     0.012 C 
ENDBRANCH   1   7
BRANCH   4  10
ATOM     10  C   UNL     1      -8.677   8.268   5.389  1.00  0.00     0.260 C 
ATOM     11  O   UNL     1      -7.850   8.985   6.011  1.00  0.00    -0.298 OA
ENDBRANCH   4  10
TORSDOF 2
ENDMDL
MODEL 7
REMARK VINA RESULT:    -3.937     17.402     17.542
REMARK INTER + INTRA:          -4.590
REMARK INTER:                  -4.400
REMARK INTRA:                  -0.191
REMARK UNBOUND:                -0.192
REMARK SMILES CC(C)c1ccc(C=O)cc1
REMARK SMILES IDX 4 1 5 2 6 3 7 4 10 5 11 6 2 7 1 8 3 9 8 10 9 11
REMARK H PARENT
REMARK Flexibility Score: inf
ROOT
ATOM      1  C   UNL     1      -9.903   7.294   6.272  1.00  0.00    -0.045 A 
ATOM      2  C   UNL     1     -11.300   7.372   6.401  1.00  0.00     0.005 A 
ATOM      3  C   UNL     1     -12.029   6.288   6.896  1.00  0.00     0.012 A 
ATOM      4  C   UNL     1     -11.375   5.104   7.273  1.00  0.00     0.014 A 
ATOM      5  C   UNL     1      -9.981   5.022   7.146  1.00  0.00     0.012 A 
ATOM      6  C   UNL     1      -9.250   6.106   6.650  1.00  0.00     0.005 A 
ENDROOT
BRANCH   1   7
ATOM      7  C   UNL     1      -9.123   8.479   5.733  1.00  0.00     0.013 C 
ATOM      8  C   UNL     1      -7.842   8.712   6.545  1.00  0.00     0.012 C 
ATOM      9  C   UNL     1      -9.991   9.742   5.697  1.00  0.00     0.012 C 
ENDBRANCH   1   7
BRANCH   4  10
ATOM     10  C   UNL     1     -12.128   3.950   7.797  1.00  0.00     0.260 C 
ATOM     11  O   UNL     1     -12.158   3.698   9.031  1.00  0.00    -0.298 OA
ENDBRANCH   4  10
TORSDOF 2
ENDMDL
MODEL 8
REMARK VINA RESULT:    -3.936     17.397     17.583
REMARK INTER + INTRA:          -4.588
REMARK INTER:                  -4.398
REMARK INTRA:                  -0.190
REMARK UNBOUND:                -0.192
REMARK SMILES CC(C)c1ccc(C=O)cc1
REMARK SMILES IDX 4 1 5 2 6 3 7 4 10 5 11 6 2 7 1 8 3 9 8 10 9 11
REMARK H PARENT
REMARK Flexibility Score: inf
ROOT
ATOM      1  C   UNL     1      -9.900   7.311   6.249  1.00  0.00    -0.045 A 
ATOM      2  C   UNL     1      -9.223   6.129   6.596  1.00  0.00     0.005 A 
ATOM      3  C   UNL     1      -9.926   5.028   7.092  1.00  0.00     0.012 A 
ATOM      4  C   UNL     1     -11.320   5.086   7.247  1.00  0.00     0.014 A 
ATOM      5  C   UNL     1     -11.999   6.263   6.900  1.00  0.00     0.012 A 
ATOM      6  C   UNL     1     -11.298   7.366   6.406  1.00  0.00     0.005 A 
ENDROOT
BRANCH   1   7
ATOM      7  C   UNL     1      -9.124   8.500   5.712  1.00  0.00     0.013 C 
ATOM      8  C   UNL     1      -7.841   8.732   6.521  1.00  0.00     0.012 C 
ATOM      9  C   UNL     1      -9.994   9.762   5.683  1.00  0.00     0.012 C 
ENDBRANCH   1   7
BRANCH   4  10
ATOM     10  C   UNL     1     -12.079   3.933   7.767  1.00  0.00     0.260 C 
ATOM     11  O   UNL     1     -12.175   3.722   9.005  1.00  0.00    -0.298 OA
ENDBRANCH   4  10
TORSDOF 2
ENDMDL
