MODEL 1
REMARK VINA RESULT:    -3.497      0.000      0.000
REMARK INTER + INTRA:          -5.438
REMARK INTER:                  -5.133
REMARK INTRA:                  -0.305
REMARK UNBOUND:                -0.305
REMARK SMILES O=C([O-])CCCCCCCC(=O)[O-]
REMARK SMILES IDX 7 1 6 2 5 3 4 4 2 5 1 6 3 7 8 8 9 9 10 10 11 11 12 12 13 13
REMARK H PARENT
REMARK Flexibility Score: inf
ROOT
ATOM      1  C   UNL     1       9.212  -0.339  46.326  1.00  0.00     0.000 C 
ENDROOT
BRANCH   1   2
ATOM      2  C   UNL     1      10.233   0.036  45.242  1.00  0.00     0.000 C 
BRANCH   2   3
ATOM      3  C   UNL     1      11.686  -0.161  45.702  1.00  0.00     0.006 C 
BRANCH   3   4
ATOM      4  C   UNL     1      12.606  -0.633  44.568  1.00  0.00     0.053 C 
BRANCH   4   5
ATOM      5  C   UNL     1      13.299  -1.902  44.954  1.00  0.00     0.041 C 
ATOM      6  O   UNL     1      14.414  -2.194  44.448  1.00  0.00    -0.550 OA
ATOM      7  O   UNL     1      12.691  -2.786  45.835  1.00  0.00    -0.550 OA
ENDBRANCH   4   5
ENDBRANCH   3   4
ENDBRANCH   2   3
ENDBRANCH   1   2
BRANCH   1   8
ATOM      8  C   UNL     1       8.003   0.604  46.291  1.00  0.00     0.000 C 
BRANCH   8   9
ATOM      9  C   UNL     1       7.762   1.140  44.875  1.00  0.00     0.006 C 
BRANCH   9  10
ATOM     10  C   UNL     1       6.364   0.767  44.376  1.00  0.00     0.053 C 
BRANCH  10  11
ATOM     11  C   UNL     1       5.550   1.997  44.128  1.00  0.00     0.041 C 
ATOM     12  O   UNL     1       4.326   1.902  43.850  1.00  0.00    -0.550 OA
ATOM     13  O   UNL     1       6.155   3.248  44.155  1.00  0.00    -0.550 OA
ENDBRANCH  10  11
ENDBRANCH   9  10
ENDBRANCH   8   9
ENDBRANCH   1   8
TORSDOF 8
ENDMDL
MODEL 2
REMARK VINA RESULT:    -3.406      0.907      7.310
REMARK INTER + INTRA:          -5.303
REMARK INTER:                  -5.064
REMARK INTRA:                  -0.239
REMARK UNBOUND:                -0.305
REMARK SMILES O=C([O-])CCCCCCCC(=O)[O-]
REMARK SMILES IDX 7 1 6 2 5 3 4 4 2 5 1 6 3 7 8 8 9 9 10 10 11 11 12 12 13 13
REMARK H PARENT
REMARK Flexibility Score: inf
ROOT
ATOM      1  C   UNL     1       9.895   0.140  45.447  1.00  0.00     0.000 C 
ENDROOT
BRANCH   1   2
ATOM      2  C   UNL     1       8.569   0.872  45.702  1.00  0.00     0.000 C 
BRANCH   2   3
ATOM      3  C   UNL     1       7.691   0.965  44.445  1.00  0.00     0.006 C 
BRANCH   3   4
ATOM      4  C   UNL     1       6.203   0.749  44.747  1.00  0.00     0.053 C 
BRANCH   4   5
ATOM      5  C   UNL     1       5.390   1.877  44.196  1.00  0.00     0.041 C 
ATOM      6  O   UNL     1       4.133   1.803  44.176  1.00  0.00    -0.550 OA
ATOM      7  O   UNL     1       6.021   2.992  43.660  1.00  0.00    -0.550 OA
ENDBRANCH   4   5
ENDBRANCH   3   4
ENDBRANCH   2   3
ENDBRANCH   1   2
BRANCH   1   8
ATOM      8  C   UNL     1      10.891   0.394  46.585  1.00  0.00     0.000 C 
BRANCH   8   9
ATOM      9  C   UNL     1      12.337   0.263  46.093  1.00  0.00     0.006 C 
BRANCH   9  10
ATOM     10  C   UNL     1      12.407  -0.559  44.804  1.00  0.00     0.053 C 
BRANCH  10  11
ATOM     11  C   UNL     1      13.815  -0.977  44.524  1.00  0.00     0.041 C 
ATOM     12  O   UNL     1      14.116  -2.198  44.473  1.00  0.00    -0.550 OA
ATOM     13  O   UNL     1      14.807  -0.016  44.367  1.00  0.00    -0.550 OA
ENDBRANCH  10  11
ENDBRANCH   9  10
ENDBRANCH   8   9
ENDBRANCH   1   8
TORSDOF 8
ENDMDL
MODEL 3
REMARK VINA RESULT:    -3.290      9.982     12.242
REMARK INTER + INTRA:          -5.134
REMARK INTER:                  -4.587
REMARK INTRA:                  -0.548
REMARK UNBOUND:                -0.305
REMARK SMILES O=C([O-])CCCCCCCC(=O)[O-]
REMARK SMILES IDX 7 1 6 2 5 3 4 4 2 5 1 6 3 7 8 8 9 9 10 10 11 11 12 12 13 13
REMARK H PARENT
REMARK Flexibility Score: inf
ROOT
ATOM      1  C   UNL     1      17.182   3.297  34.689  1.00  0.00     0.000 C 
ENDROOT
BRANCH   1   2
ATOM      2  C   UNL     1      15.871   3.273  35.490  1.00  0.00     0.000 C 
BRANCH   2   3
ATOM      3  C   UNL     1      16.090   2.948  36.975  1.00  0.00     0.006 C 
BRANCH   3   4
ATOM      4  C   UNL     1      14.786   2.971  37.783  1.00  0.00     0.053 C 
BRANCH   4   5
ATOM      5  C   UNL     1      14.412   1.587  38.209  1.00  0.00     0.041 C 
ATOM      6  O   UNL     1      15.296   0.785  38.609  1.00  0.00    -0.550 OA
ATOM      7  O   UNL     1      13.092   1.164  38.118  1.00  0.00    -0.550 OA
ENDBRANCH   4   5
ENDBRANCH   3   4
ENDBRANCH   2   3
ENDBRANCH   1   2
BRANCH   1   8
ATOM      8  C   UNL     1      17.605   1.879  34.287  1.00  0.00     0.000 C 
BRANCH   8   9
ATOM      9  C   UNL     1      16.745   1.353  33.132  1.00  0.00     0.006 C 
BRANCH   9  10
ATOM     10  C   UNL     1      16.370  -0.115  33.349  1.00  0.00     0.053 C 
BRANCH  10  11
ATOM     11  C   UNL     1      15.028  -0.222  34.001  1.00  0.00     0.041 C 
ATOM     12  O   UNL     1      13.979  -0.139  33.310  1.00  0.00    -0.550 OA
ATOM     13  O   UNL     1      14.934  -0.365  35.380  1.00  0.00    -0.550 OA
ENDBRANCH  10  11
ENDBRANCH   9  10
ENDBRANCH   8   9
ENDBRANCH   1   8
TORSDOF 8
ENDMDL
MODEL 4
REMARK VINA RESULT:    -3.287     10.187     11.552
REMARK INTER + INTRA:          -5.129
REMARK INTER:                  -4.389
REMARK INTRA:                  -0.740
REMARK UNBOUND:                -0.305
REMARK SMILES O=C([O-])CCCCCCCC(=O)[O-]
REMARK SMILES IDX 7 1 6 2 5 3 4 4 2 5 1 6 3 7 8 8 9 9 10 10 11 11 12 12 13 13
REMARK H PARENT
REMARK Flexibility Score: inf
ROOT
ATOM      1  C   UNL     1      14.805   0.721  37.362  1.00  0.00     0.000 C 
ENDROOT
BRANCH   1   2
ATOM      2  C   UNL     1      15.939  -0.032  36.652  1.00  0.00     0.000 C 
BRANCH   2   3
ATOM      3  C   UNL     1      16.708   0.852  35.659  1.00  0.00     0.006 C 
BRANCH   3   4
ATOM      4  C   UNL     1      15.866   1.235  34.435  1.00  0.00     0.053 C 
BRANCH   4   5
ATOM      5  C   UNL     1      15.427   0.008  33.700  1.00  0.00     0.041 C 
ATOM      6  O   UNL     1      16.281  -0.785  33.223  1.00  0.00    -0.550 OA
ATOM      7  O   UNL     1      14.075  -0.235  33.499  1.00  0.00    -0.550 OA
ENDBRANCH   4   5
ENDBRANCH   3   4
ENDBRANCH   2   3
ENDBRANCH   1   2
BRANCH   1   8
ATOM      8  C   UNL     1      15.235   1.164  38.767  1.00  0.00     0.000 C 
BRANCH   8   9
ATOM      9  C   UNL     1      15.331   2.692  38.859  1.00  0.00     0.006 C 
BRANCH   9  10
ATOM     10  C   UNL     1      14.690   3.357  37.639  1.00  0.00     0.053 C 
BRANCH  10  11
ATOM     11  C   UNL     1      15.664   4.273  36.969  1.00  0.00     0.041 C 
ATOM     12  O   UNL     1      16.582   4.820  37.635  1.00  0.00    -0.550 OA
ATOM     13  O   UNL     1      15.529   4.563  35.616  1.00  0.00    -0.550 OA
ENDBRANCH  10  11
ENDBRANCH   9  10
ENDBRANCH   8   9
ENDBRANCH   1   8
TORSDOF 8
ENDMDL
MODEL 5
REMARK VINA RESULT:    -3.270      9.711     11.721
REMARK INTER + INTRA:          -5.104
REMARK INTER:                  -4.419
REMARK INTRA:                  -0.686
REMARK UNBOUND:                -0.305
REMARK SMILES O=C([O-])CCCCCCCC(=O)[O-]
REMARK SMILES IDX 7 1 6 2 5 3 4 4 2 5 1 6 3 7 8 8 9 9 10 10 11 11 12 12 13 13
REMARK H PARENT
REMARK Flexibility Score: inf
ROOT
ATOM      1  C   UNL     1      14.484   0.551  36.958  1.00  0.00     0.000 C 
ENDROOT
BRANCH   1   2
ATOM      2  C   UNL     1      14.236   1.007  38.404  1.00  0.00     0.000 C 
BRANCH   2   3
ATOM      3  C   UNL     1      15.499   1.572  39.072  1.00  0.00     0.006 C 
BRANCH   3   4
ATOM      4  C   UNL     1      15.465   3.100  39.202  1.00  0.00     0.053 C 
BRANCH   4   5
ATOM      5  C   UNL     1      16.013   3.741  37.966  1.00  0.00     0.041 C 
ATOM      6  O   UNL     1      17.234   4.039  37.894  1.00  0.00    -0.550 OA
ATOM      7  O   UNL     1      15.165   4.055  36.912  1.00  0.00    -0.550 OA
ENDBRANCH   4   5
ENDBRANCH   3   4
ENDBRANCH   2   3
ENDBRANCH   1   2
BRANCH   1   8
ATOM      8  C   UNL     1      15.911   0.015  36.788  1.00  0.00     0.000 C 
BRANCH   8   9
ATOM      9  C   UNL     1      16.683   0.824  35.739  1.00  0.00     0.006 C 
BRANCH   9  10
ATOM     10  C   UNL     1      15.799   1.142  34.530  1.00  0.00     0.053 C 
BRANCH  10  11
ATOM     11  C   UNL     1      15.627  -0.071  33.673  1.00  0.00     0.041 C 
ATOM     12  O   UNL     1      14.477  -0.433  33.310  1.00  0.00    -0.550 OA
ATOM     13  O   UNL     1      16.734  -0.832  33.314  1.00  0.00    -0.550 OA
ENDBRANCH  10  11
ENDBRANCH   9  10
ENDBRANCH   8   9
ENDBRANCH   1   8
TORSDOF 8
ENDMDL
MODEL 6
REMARK VINA RESULT:    -3.269      8.477     10.591
REMARK INTER + INTRA:          -5.103
REMARK INTER:                  -4.755
REMARK INTRA:                  -0.348
REMARK UNBOUND:                -0.305
REMARK SMILES O=C([O-])CCCCCCCC(=O)[O-]
REMARK SMILES IDX 7 1 6 2 5 3 4 4 2 5 1 6 3 7 8 8 9 9 10 10 11 11 12 12 13 13
REMARK H PARENT
REMARK Flexibility Score: inf
ROOT
ATOM      1  C   UNL     1      16.506   2.126  41.070  1.00  0.00     0.000 C 
ENDROOT
BRANCH   1   2
ATOM      2  C   UNL     1      15.936   3.272  40.222  1.00  0.00     0.000 C 
BRANCH   2   3
ATOM      3  C   UNL     1      15.262   2.778  38.932  1.00  0.00     0.006 C 
BRANCH   3   4
ATOM      4  C   UNL     1      15.332   1.253  38.778  1.00  0.00     0.053 C 
BRANCH   4   5
ATOM      5  C   UNL     1      14.241   0.770  37.875  1.00  0.00     0.041 C 
ATOM      6  O   UNL     1      13.071   0.622  38.317  1.00  0.00    -0.550 OA
ATOM      7  O   UNL     1      14.526   0.435  36.558  1.00  0.00    -0.550 OA
ENDBRANCH   4   5
ENDBRANCH   3   4
ENDBRANCH   2   3
ENDBRANCH   1   2
BRANCH   1   8
ATOM      8  C   UNL     1      16.664   2.553  42.535  1.00  0.00     0.000 C 
BRANCH   8   9
ATOM      9  C   UNL     1      17.197   1.398  43.391  1.00  0.00     0.006 C 
BRANCH   9  10
ATOM     10  C   UNL     1      18.521   0.867  42.837  1.00  0.00     0.053 C 
BRANCH  10  11
ATOM     11  C   UNL     1      19.667   1.678  43.352  1.00  0.00     0.041 C 
ATOM     12  O   UNL     1      19.710   2.018  44.563  1.00  0.00    -0.550 OA
ATOM     13  O   UNL     1      20.665   2.101  42.482  1.00  0.00    -0.550 OA
ENDBRANCH  10  11
ENDBRANCH   9  10
ENDBRANCH   8   9
ENDBRANCH   1   8
TORSDOF 8
ENDMDL
MODEL 7
REMARK VINA RESULT:    -3.243      9.756     11.583
REMARK INTER + INTRA:          -5.065
REMARK INTER:                  -4.347
REMARK INTRA:                  -0.718
REMARK UNBOUND:                -0.305
REMARK SMILES O=C([O-])CCCCCCCC(=O)[O-]
REMARK SMILES IDX 7 1 6 2 5 3 4 4 2 5 1 6 3 7 8 8 9 9 10 10 11 11 12 12 13 13
REMARK H PARENT
REMARK Flexibility Score: inf
ROOT
ATOM      1  C   UNL     1      15.711   3.340  36.782  1.00  0.00     0.000 C 
ENDROOT
BRANCH   1   2
ATOM      2  C   UNL     1      15.915   2.137  35.848  1.00  0.00     0.000 C 
BRANCH   2   3
ATOM      3  C   UNL     1      15.097   0.909  36.276  1.00  0.00     0.006 C 
BRANCH   3   4
ATOM      4  C   UNL     1      15.598  -0.388  35.630  1.00  0.00     0.053 C 
BRANCH   4   5
ATOM      5  C   UNL     1      15.288  -0.395  34.166  1.00  0.00     0.041 C 
ATOM      6  O   UNL     1      16.190  -0.660  33.328  1.00  0.00    -0.550 OA
ATOM      7  O   UNL     1      14.015  -0.061  33.724  1.00  0.00    -0.550 OA
ENDBRANCH   4   5
ENDBRANCH   3   4
ENDBRANCH   2   3
ENDBRANCH   1   2
BRANCH   1   8
ATOM      8  C   UNL     1      14.800   2.972  37.960  1.00  0.00     0.000 C 
BRANCH   8   9
ATOM      9  C   UNL     1      15.521   3.173  39.298  1.00  0.00     0.006 C 
BRANCH   9  10
ATOM     10  C   UNL     1      15.974   1.834  39.885  1.00  0.00     0.053 C 
BRANCH  10  11
ATOM     11  C   UNL     1      17.348   1.489  39.405  1.00  0.00     0.041 C 
ATOM     12  O   UNL     1      18.299   2.298  39.569  1.00  0.00    -0.550 OA
ATOM     13  O   UNL     1      17.570   0.294  38.731  1.00  0.00    -0.550 OA
ENDBRANCH  10  11
ENDBRANCH   9  10
ENDBRANCH   8   9
ENDBRANCH   1   8
TORSDOF 8
ENDMDL
MODEL 8
REMARK VINA RESULT:    -3.231      8.578      9.243
REMARK INTER + INTRA:          -5.047
REMARK INTER:                  -4.639
REMARK INTRA:                  -0.408
REMARK UNBOUND:                -0.305
REMARK SMILES O=C([O-])CCCCCCCC(=O)[O-]
REMARK SMILES IDX 7 1 6 2 5 3 4 4 2 5 1 6 3 7 8 8 9 9 10 10 11 11 12 12 13 13
REMARK H PARENT
REMARK Flexibility Score: inf
ROOT
ATOM      1  C   UNL     1      16.434   1.902  41.284  1.00  0.00     0.000 C 
ENDROOT
BRANCH   1   2
ATOM      2  C   UNL     1      16.988   2.354  42.644  1.00  0.00     0.000 C 
BRANCH   2   3
ATOM      3  C   UNL     1      18.304   3.137  42.516  1.00  0.00     0.006 C 
BRANCH   3   4
ATOM      4  C   UNL     1      19.530   2.219  42.421  1.00  0.00     0.053 C 
BRANCH   4   5
ATOM      5  C   UNL     1      19.697   1.439  43.686  1.00  0.00     0.041 C 
ATOM      6  O   UNL     1      19.750   0.181  43.653  1.00  0.00    -0.550 OA
ATOM      7  O   UNL     1      19.745   2.098  44.908  1.00  0.00    -0.550 OA
ENDBRANCH   4   5
ENDBRANCH   3   4
ENDBRANCH   2   3
ENDBRANCH   1   2
BRANCH   1   8
ATOM      8  C   UNL     1      16.360   3.078  40.303  1.00  0.00     0.000 C 
BRANCH   8   9
ATOM      9  C   UNL     1      15.483   2.733  39.093  1.00  0.00     0.006 C 
BRANCH   9  10
ATOM     10  C   UNL     1      15.380   1.218  38.903  1.00  0.00     0.053 C 
BRANCH  10  11
ATOM     11  C   UNL     1      14.317   0.886  37.905  1.00  0.00     0.041 C 
ATOM     12  O   UNL     1      13.120   0.753  38.273  1.00  0.00    -0.550 OA
ATOM     13  O   UNL     1      14.655   0.675  36.573  1.00  0.00    -0.550 OA
ENDBRANCH  10  11
ENDBRANCH   9  10
ENDBRANCH   8   9
ENDBRANCH   1   8
TORSDOF 8
ENDMDL
MODEL 9
REMARK VINA RESULT:    -3.188      9.973     12.040
REMARK INTER + INTRA:          -4.984
REMARK INTER:                  -4.450
REMARK INTRA:                  -0.534
REMARK UNBOUND:                -0.305
REMARK SMILES O=C([O-])CCCCCCCC(=O)[O-]
REMARK SMILES IDX 7 1 6 2 5 3 4 4 2 5 1 6 3 7 8 8 9 9 10 10 11 11 12 12 13 13
REMARK H PARENT
REMARK Flexibility Score: inf
ROOT
ATOM      1  C   UNL     1      16.254   3.471  34.945  1.00  0.00     0.000 C 
ENDROOT
BRANCH   1   2
ATOM      2  C   UNL     1      17.111   2.572  34.042  1.00  0.00     0.000 C 
BRANCH   2   3
ATOM      3  C   UNL     1      16.271   1.771  33.034  1.00  0.00     0.006 C 
BRANCH   3   4
ATOM      4  C   UNL     1      16.227   0.273  33.360  1.00  0.00     0.053 C 
BRANCH   4   5
ATOM      5  C   UNL     1      14.934  -0.078  34.026  1.00  0.00     0.041 C 
ATOM      6  O   UNL     1      14.909  -0.367  35.252  1.00  0.00    -0.550 OA
ATOM      7  O   UNL     1      13.762  -0.134  33.283  1.00  0.00    -0.550 OA
ENDBRANCH   4   5
ENDBRANCH   3   4
ENDBRANCH   2   3
ENDBRANCH   1   2
BRANCH   1   8
ATOM      8  C   UNL     1      17.016   3.854  36.219  1.00  0.00     0.000 C 
BRANCH   8   9
ATOM      9  C   UNL     1      16.459   3.112  37.440  1.00  0.00     0.006 C 
BRANCH   9  10
ATOM     10  C   UNL     1      14.995   2.720  37.225  1.00  0.00     0.053 C 
BRANCH  10  11
ATOM     11  C   UNL     1      14.599   1.631  38.170  1.00  0.00     0.041 C 
ATOM     12  O   UNL     1      13.484   1.059  38.047  1.00  0.00    -0.550 OA
ATOM     13  O   UNL     1      15.441   1.281  39.220  1.00  0.00    -0.550 OA
ENDBRANCH  10  11
ENDBRANCH   9  10
ENDBRANCH   8   9
ENDBRANCH   1   8
TORSDOF 8
ENDMDL
