MODEL 1
REMARK VINA RESULT:    -3.210      0.000      0.000
REMARK INTER + INTRA:          -3.787
REMARK INTER:                  -3.773
REMARK INTRA:                  -0.014
REMARK UNBOUND:                -0.014
REMARK SMILES O=C([O-])CCC(=O)[O-]
REMARK SMILES IDX 4 1 2 2 1 3 3 4 5 5 6 6 7 7 8 8
REMARK H PARENT
REMARK Flexibility Score: inf
ROOT
ATOM      1  C   UNL     1      21.577  13.082 -20.046  1.00  0.00     0.059 C 
ENDROOT
BRANCH   1   2
ATOM      2  C   UNL     1      20.664  13.719 -21.049  1.00  0.00     0.042 C 
ATOM      3  O   UNL     1      19.628  14.326 -20.669  1.00  0.00    -0.550 OA
ATOM      4  O   UNL     1      20.938  13.609 -22.406  1.00  0.00    -0.550 OA
ENDBRANCH   1   2
BRANCH   1   5
ATOM      5  C   UNL     1      21.427  13.724 -18.662  1.00  0.00     0.059 C 
BRANCH   5   6
ATOM      6  C   UNL     1      20.563  12.897 -17.760  1.00  0.00     0.042 C 
ATOM      7  O   UNL     1      19.728  12.091 -18.248  1.00  0.00    -0.550 OA
ATOM      8  O   UNL     1      20.710  12.988 -16.382  1.00  0.00    -0.550 OA
ENDBRANCH   5   6
ENDBRANCH   1   5
TORSDOF 3
ENDMDL
MODEL 2
REMARK VINA RESULT:    -3.209      0.045      3.916
REMARK INTER + INTRA:          -3.785
REMARK INTER:                  -3.791
REMARK INTRA:                   0.006
REMARK UNBOUND:                -0.014
REMARK SMILES O=C([O-])CCC(=O)[O-]
REMARK SMILES IDX 4 1 2 2 1 3 3 4 5 5 6 6 7 7 8 8
REMARK H PARENT
REMARK Flexibility Score: inf
ROOT
ATOM      1  C   UNL     1      21.471  13.676 -18.645  1.00  0.00     0.059 C 
ENDROOT
BRANCH   1   2
ATOM      2  C   UNL     1      20.586  12.871 -17.742  1.00  0.00     0.042 C 
ATOM      3  O   UNL     1      19.716  12.102 -18.228  1.00  0.00    -0.550 OA
ATOM      4  O   UNL     1      20.698  13.000 -16.364  1.00  0.00    -0.550 OA
ENDBRANCH   1   2
BRANCH   1   5
ATOM      5  C   UNL     1      21.587  13.038 -20.033  1.00  0.00     0.059 C 
BRANCH   5   6
ATOM      6  C   UNL     1      20.671  13.692 -21.021  1.00  0.00     0.042 C 
ATOM      7  O   UNL     1      19.671  14.345 -20.621  1.00  0.00    -0.550 OA
ATOM      8  O   UNL     1      20.944  13.615 -22.381  1.00  0.00    -0.550 OA
ENDBRANCH   5   6
ENDBRANCH   1   5
TORSDOF 3
ENDMDL
MODEL 3
REMARK VINA RESULT:    -3.189      0.077      1.147
REMARK INTER + INTRA:          -3.762
REMARK INTER:                  -3.738
REMARK INTRA:                  -0.025
REMARK UNBOUND:                -0.014
REMARK SMILES O=C([O-])CCC(=O)[O-]
REMARK SMILES IDX 4 1 2 2 1 3 3 4 5 5 6 6 7 7 8 8
REMARK H PARENT
REMARK Flexibility Score: inf
ROOT
ATOM      1  C   UNL     1      21.602  13.036 -20.031  1.00  0.00     0.059 C 
ENDROOT
BRANCH   1   2
ATOM      2  C   UNL     1      20.699  13.667 -21.047  1.00  0.00     0.042 C 
ATOM      3  O   UNL     1      20.982  13.606 -22.273  1.00  0.00    -0.550 OA
ATOM      4  O   UNL     1      19.565  14.356 -20.636  1.00  0.00    -0.550 OA
ENDBRANCH   1   2
BRANCH   1   5
ATOM      5  C   UNL     1      21.462  13.704 -18.660  1.00  0.00     0.059 C 
BRANCH   5   6
ATOM      6  C   UNL     1      20.597  12.900 -17.738  1.00  0.00     0.042 C 
ATOM      7  O   UNL     1      19.714  12.135 -18.206  1.00  0.00    -0.550 OA
ATOM      8  O   UNL     1      20.796  12.965 -16.365  1.00  0.00    -0.550 OA
ENDBRANCH   5   6
ENDBRANCH   1   5
TORSDOF 3
ENDMDL
MODEL 4
REMARK VINA RESULT:    -3.144      0.126      3.718
REMARK INTER + INTRA:          -3.709
REMARK INTER:                  -3.656
REMARK INTRA:                  -0.053
REMARK UNBOUND:                -0.014
REMARK SMILES O=C([O-])CCC(=O)[O-]
REMARK SMILES IDX 4 1 2 2 1 3 3 4 5 5 6 6 7 7 8 8
REMARK H PARENT
REMARK Flexibility Score: inf
ROOT
ATOM      1  C   UNL     1      21.351  13.838 -18.647  1.00  0.00     0.059 C 
ENDROOT
BRANCH   1   2
ATOM      2  C   UNL     1      20.571  12.914 -17.762  1.00  0.00     0.042 C 
ATOM      3  O   UNL     1      20.665  13.004 -16.509  1.00  0.00    -0.550 OA
ATOM      4  O   UNL     1      19.769  11.927 -18.321  1.00  0.00    -0.550 OA
ENDBRANCH   1   2
BRANCH   1   5
ATOM      5  C   UNL     1      21.622  13.209 -20.017  1.00  0.00     0.059 C 
BRANCH   5   6
ATOM      6  C   UNL     1      20.680  13.727 -21.060  1.00  0.00     0.042 C 
ATOM      7  O   UNL     1      20.949  13.587 -22.282  1.00  0.00    -0.550 OA
ATOM      8  O   UNL     1      19.485  14.328 -20.682  1.00  0.00    -0.550 OA
ENDBRANCH   5   6
ENDBRANCH   1   5
TORSDOF 3
ENDMDL
MODEL 5
REMARK VINA RESULT:    -2.747      2.744      3.258
REMARK INTER + INTRA:          -3.243
REMARK INTER:                  -3.128
REMARK INTRA:                  -0.115
REMARK UNBOUND:                -0.014
REMARK SMILES O=C([O-])CCC(=O)[O-]
REMARK SMILES IDX 4 1 2 2 1 3 3 4 5 5 6 6 7 7 8 8
REMARK H PARENT
REMARK Flexibility Score: inf
ROOT
ATOM      1  C   UNL     1      21.808  14.863 -18.591  1.00  0.00     0.059 C 
ENDROOT
BRANCH   1   2
ATOM      2  C   UNL     1      23.228  15.240 -18.886  1.00  0.00     0.042 C 
ATOM      3  O   UNL     1      23.521  16.428 -19.184  1.00  0.00    -0.550 OA
ATOM      4  O   UNL     1      24.222  14.270 -18.869  1.00  0.00    -0.550 OA
ENDBRANCH   1   2
BRANCH   1   5
ATOM      5  C   UNL     1      21.201  14.026 -19.722  1.00  0.00     0.059 C 
BRANCH   5   6
ATOM      6  C   UNL     1      21.186  12.567 -19.384  1.00  0.00     0.042 C 
ATOM      7  O   UNL     1      20.224  12.077 -18.736  1.00  0.00    -0.550 OA
ATOM      8  O   UNL     1      22.214  11.741 -19.820  1.00  0.00    -0.550 OA
ENDBRANCH   5   6
ENDBRANCH   1   5
TORSDOF 3
ENDMDL
MODEL 6
REMARK VINA RESULT:    -2.707      2.717      3.614
REMARK INTER + INTRA:          -3.196
REMARK INTER:                  -3.085
REMARK INTRA:                  -0.111
REMARK UNBOUND:                -0.014
REMARK SMILES O=C([O-])CCC(=O)[O-]
REMARK SMILES IDX 4 1 2 2 1 3 3 4 5 5 6 6 7 7 8 8
REMARK H PARENT
REMARK Flexibility Score: inf
ROOT
ATOM      1  C   UNL     1      21.207  14.002 -19.750  1.00  0.00     0.059 C 
ENDROOT
BRANCH   1   2
ATOM      2  C   UNL     1      21.200  12.544 -19.403  1.00  0.00     0.042 C 
ATOM      3  O   UNL     1      22.148  11.800 -19.768  1.00  0.00    -0.550 OA
ATOM      4  O   UNL     1      20.126  11.999 -18.711  1.00  0.00    -0.550 OA
ENDBRANCH   1   2
BRANCH   1   5
ATOM      5  C   UNL     1      21.788  14.848 -18.612  1.00  0.00     0.059 C 
BRANCH   5   6
ATOM      6  C   UNL     1      23.211  15.233 -18.879  1.00  0.00     0.042 C 
ATOM      7  O   UNL     1      24.122  14.367 -18.819  1.00  0.00    -0.550 OA
ATOM      8  O   UNL     1      23.523  16.539 -19.235  1.00  0.00    -0.550 OA
ENDBRANCH   5   6
ENDBRANCH   1   5
TORSDOF 3
ENDMDL
MODEL 7
REMARK VINA RESULT:    -2.657      1.435      3.946
REMARK INTER + INTRA:          -3.137
REMARK INTER:                  -3.057
REMARK INTRA:                  -0.080
REMARK UNBOUND:                -0.014
REMARK SMILES O=C([O-])CCC(=O)[O-]
REMARK SMILES IDX 4 1 2 2 1 3 3 4 5 5 6 6 7 7 8 8
REMARK H PARENT
REMARK Flexibility Score: inf
ROOT
ATOM      1  C   UNL     1      20.226  12.106 -18.645  1.00  0.00     0.059 C 
ENDROOT
BRANCH   1   2
ATOM      2  C   UNL     1      20.140  12.711 -17.276  1.00  0.00     0.042 C 
ATOM      3  O   UNL     1      21.185  13.089 -16.683  1.00  0.00    -0.550 OA
ATOM      4  O   UNL     1      18.910  12.821 -16.640  1.00  0.00    -0.550 OA
ENDBRANCH   1   2
BRANCH   1   5
ATOM      5  C   UNL     1      21.535  12.483 -19.346  1.00  0.00     0.059 C 
BRANCH   5   6
ATOM      6  C   UNL     1      21.466  13.852 -19.949  1.00  0.00     0.042 C 
ATOM      7  O   UNL     1      22.091  14.809 -19.421  1.00  0.00    -0.550 OA
ATOM      8  O   UNL     1      20.744  14.062 -21.117  1.00  0.00    -0.550 OA
ENDBRANCH   5   6
ENDBRANCH   1   5
TORSDOF 3
ENDMDL
MODEL 8
REMARK VINA RESULT:    -2.603      2.775      3.239
REMARK INTER + INTRA:          -3.073
REMARK INTER:                  -2.971
REMARK INTRA:                  -0.102
REMARK UNBOUND:                -0.014
REMARK SMILES O=C([O-])CCC(=O)[O-]
REMARK SMILES IDX 4 1 2 2 1 3 3 4 5 5 6 6 7 7 8 8
REMARK H PARENT
REMARK Flexibility Score: inf
ROOT
ATOM      1  C   UNL     1      21.227  12.623 -18.897  1.00  0.00     0.059 C 
ENDROOT
BRANCH   1   2
ATOM      2  C   UNL     1      21.097  14.067 -19.277  1.00  0.00     0.042 C 
ATOM      3  O   UNL     1      20.210  14.431 -20.093  1.00  0.00    -0.550 OA
ATOM      4  O   UNL     1      21.982  15.004 -18.759  1.00  0.00    -0.550 OA
ENDBRANCH   1   2
BRANCH   1   5
ATOM      5  C   UNL     1      22.046  11.841 -19.928  1.00  0.00     0.059 C 
BRANCH   5   6
ATOM      6  C   UNL     1      23.469  11.671 -19.491  1.00  0.00     0.042 C 
ATOM      7  O   UNL     1      23.908  10.528 -19.196  1.00  0.00    -0.550 OA
ATOM      8  O   UNL     1      24.320  12.768 -19.450  1.00  0.00    -0.550 OA
ENDBRANCH   5   6
ENDBRANCH   1   5
TORSDOF 3
ENDMDL
MODEL 9
REMARK VINA RESULT:    -2.563      2.762      3.661
REMARK INTER + INTRA:          -3.026
REMARK INTER:                  -2.944
REMARK INTRA:                  -0.082
REMARK UNBOUND:                -0.014
REMARK SMILES O=C([O-])CCC(=O)[O-]
REMARK SMILES IDX 4 1 2 2 1 3 3 4 5 5 6 6 7 7 8 8
REMARK H PARENT
REMARK Flexibility Score: inf
ROOT
ATOM      1  C   UNL     1      21.999  11.821 -19.824  1.00  0.00     0.059 C 
ENDROOT
BRANCH   1   2
ATOM      2  C   UNL     1      23.456  11.662 -19.507  1.00  0.00     0.042 C 
ATOM      3  O   UNL     1      23.931  10.522 -19.261  1.00  0.00    -0.550 OA
ATOM      4  O   UNL     1      24.280  12.778 -19.445  1.00  0.00    -0.550 OA
ENDBRANCH   1   2
BRANCH   1   5
ATOM      5  C   UNL     1      21.285  12.680 -18.775  1.00  0.00     0.059 C 
BRANCH   5   6
ATOM      6  C   UNL     1      21.151  14.102 -19.223  1.00  0.00     0.042 C 
ATOM      7  O   UNL     1      21.891  14.994 -18.729  1.00  0.00    -0.550 OA
ATOM      8  O   UNL     1      20.239  14.437 -20.215  1.00  0.00    -0.550 OA
ENDBRANCH   5   6
ENDBRANCH   1   5
TORSDOF 3
ENDMDL
