MODEL 1
REMARK VINA RESULT:    -6.042      0.000      0.000
REMARK INTER + INTRA:          -7.107
REMARK INTER:                  -6.572
REMARK INTRA:                  -0.535
REMARK UNBOUND:                -0.535
REMARK SMILES C=C(C)[C@H]1CC[C@]2(C)CC[C@]3(C)[C@@H](CC[C@@H]4[C@]5(C)CC[C@H](O)C(C)(C)[C@H]5CC[C@@]43C)[C@@H]12
REMARK SMILES IDX 4 1 5 2 6 3 7 4 31 5 13 6 14 7 15 8 16 9 17 10 19 11 20 12
REMARK SMILES IDX 21 13 23 14 26 15 27 16 28 17 29 18 11 19 10 20 9 21 12 22
REMARK SMILES IDX 30 23 24 24 25 25 18 26 8 27 2 28 3 29 1 30 22 31
REMARK H PARENT 22 32
REMARK Flexibility Score: inf
ROOT
ATOM      1  C   UNL     1      -6.064  29.758  45.008  1.00  0.00     0.018 C 
ATOM      2  C   UNL     1      -4.977  29.010  45.810  1.00  0.00     0.009 C 
ATOM      3  C   UNL     1      -4.908  27.551  45.293  1.00  0.00     0.008 C 
ATOM      4  C   UNL     1      -6.287  27.301  44.660  1.00  0.00    -0.029 C 
ATOM      5  C   UNL     1      -6.552  28.681  44.018  1.00  0.00     0.006 C 
ATOM      6  C   UNL     1      -7.797  28.832  43.083  1.00  0.00    -0.000 C 
ATOM      7  C   UNL     1      -9.145  28.746  43.830  1.00  0.00     0.005 C 
ATOM      8  C   UNL     1     -10.293  27.997  43.194  1.00  0.00     0.005 C 
ATOM      9  C   UNL     1     -10.393  28.136  41.668  1.00  0.00     0.002 C 
ATOM     10  C   UNL     1     -11.583  27.292  41.056  1.00  0.00    -0.026 C 
ATOM     11  C   UNL     1     -12.885  27.342  41.925  1.00  0.00     0.010 C 
ATOM     12  C   UNL     1     -14.013  26.372  41.488  1.00  0.00     0.033 C 
ATOM     13  C   UNL     1     -13.603  25.205  40.577  1.00  0.00     0.120 C 
ATOM     14  C   UNL     1     -12.189  24.654  40.940  1.00  0.00    -0.006 C 
ATOM     15  C   UNL     1     -11.080  25.806  40.896  1.00  0.00     0.003 C 
ATOM     16  C   UNL     1     -10.074  25.735  39.741  1.00  0.00     0.005 C 
ATOM     17  C   UNL     1      -8.935  26.798  39.801  1.00  0.00     0.008 C 
ATOM     18  C   UNL     1      -8.982  27.968  40.908  1.00  0.00    -0.024 C 
ATOM     19  C   UNL     1      -7.690  27.802  41.884  1.00  0.00    -0.024 C 
ATOM     20  C   UNL     1      -7.522  26.367  42.566  1.00  0.00     0.008 C 
ATOM     21  C   UNL     1      -6.319  26.216  43.539  1.00  0.00     0.007 C 
ATOM     22  C   UNL     1      -6.397  28.091  41.033  1.00  0.00     0.012 C 
ATOM     23  C   UNL     1      -8.821  29.307  40.100  1.00  0.00     0.012 C 
ATOM     24  C   UNL     1     -11.861  23.487  39.946  1.00  0.00     0.014 C 
ATOM     25  C   UNL     1     -12.224  24.024  42.369  1.00  0.00     0.014 C 
ATOM     26  C   UNL     1     -11.949  27.962  39.691  1.00  0.00     0.012 C 
ATOM     27  C   UNL     1      -7.247  26.860  45.797  1.00  0.00     0.011 C 
ENDROOT
BRANCH   1  28
ATOM     28  C   UNL     1      -7.174  30.481  45.801  1.00  0.00    -0.077 C 
ATOM     29  C   UNL     1      -7.407  30.226  47.258  1.00  0.00     0.039 C 
ATOM     30  C   UNL     1      -7.537  31.694  45.344  1.00  0.00     0.008 C 
ENDBRANCH   1  28
BRANCH  13  31
ATOM     31  O   UNL     1     -14.554  24.175  40.683  1.00  0.00    -0.393 OA
ATOM     32  H   UNL     1     -15.058  24.296  41.536  1.00  0.00     0.210 HD
ENDBRANCH  13  31
TORSDOF 2
ENDMDL
MODEL 2
REMARK VINA RESULT:    -5.949      1.492      2.404
REMARK INTER + INTRA:          -7.006
REMARK INTER:                  -6.458
REMARK INTRA:                  -0.548
REMARK UNBOUND:                -0.535
REMARK SMILES C=C(C)[C@H]1CC[C@]2(C)CC[C@]3(C)[C@@H](CC[C@@H]4[C@]5(C)CC[C@H](O)C(C)(C)[C@H]5CC[C@@]43C)[C@@H]12
REMARK SMILES IDX 4 1 5 2 6 3 7 4 31 5 13 6 14 7 15 8 16 9 17 10 19 11 20 12
REMARK SMILES IDX 21 13 23 14 26 15 27 16 28 17 29 18 11 19 10 20 9 21 12 22
REMARK SMILES IDX 30 23 24 24 25 25 18 26 8 27 2 28 3 29 1 30 22 31
REMARK H PARENT 22 32
REMARK Flexibility Score: inf
ROOT
ATOM      1  C   UNL     1      -5.550  31.635  45.170  1.00  0.00     0.018 C 
ATOM      2  C   UNL     1      -5.243  31.483  46.675  1.00  0.00     0.009 C 
ATOM      3  C   UNL     1      -5.720  30.081  47.131  1.00  0.00     0.008 C 
ATOM      4  C   UNL     1      -6.792  29.686  46.101  1.00  0.00    -0.029 C 
ATOM      5  C   UNL     1      -6.167  30.267  44.814  1.00  0.00     0.006 C 
ATOM      6  C   UNL     1      -6.847  29.928  43.447  1.00  0.00    -0.000 C 
ATOM      7  C   UNL     1      -8.228  30.592  43.262  1.00  0.00     0.005 C 
ATOM      8  C   UNL     1      -9.344  29.804  42.615  1.00  0.00     0.005 C 
ATOM      9  C   UNL     1      -8.904  28.870  41.477  1.00  0.00     0.002 C 
ATOM     10  C   UNL     1     -10.106  28.039  40.873  1.00  0.00    -0.026 C 
ATOM     11  C   UNL     1     -11.421  28.875  40.723  1.00  0.00     0.010 C 
ATOM     12  C   UNL     1     -12.683  28.063  40.333  1.00  0.00     0.033 C 
ATOM     13  C   UNL     1     -12.622  26.545  40.559  1.00  0.00     0.120 C 
ATOM     14  C   UNL     1     -11.821  26.181  41.847  1.00  0.00    -0.006 C 
ATOM     15  C   UNL     1     -10.344  26.795  41.812  1.00  0.00     0.003 C 
ATOM     16  C   UNL     1      -9.197  25.793  41.625  1.00  0.00     0.005 C 
ATOM     17  C   UNL     1      -7.769  26.410  41.721  1.00  0.00     0.008 C 
ATOM     18  C   UNL     1      -7.586  28.007  41.820  1.00  0.00    -0.024 C 
ATOM     19  C   UNL     1      -6.886  28.357  43.247  1.00  0.00    -0.024 C 
ATOM     20  C   UNL     1      -7.631  27.780  44.538  1.00  0.00     0.008 C 
ATOM     21  C   UNL     1      -6.996  28.151  45.908  1.00  0.00     0.007 C 
ATOM     22  C   UNL     1      -5.423  27.775  43.227  1.00  0.00     0.012 C 
ATOM     23  C   UNL     1      -6.577  28.379  40.672  1.00  0.00     0.012 C 
ATOM     24  C   UNL     1     -11.803  24.618  41.973  1.00  0.00     0.014 C 
ATOM     25  C   UNL     1     -12.575  26.719  43.104  1.00  0.00     0.014 C 
ATOM     26  C   UNL     1      -9.684  27.635  39.422  1.00  0.00     0.012 C 
ATOM     27  C   UNL     1      -8.136  30.305  46.569  1.00  0.00     0.011 C 
ENDROOT
BRANCH   1  28
ATOM     28  C   UNL     1      -6.365  32.866  44.722  1.00  0.00    -0.077 C 
ATOM     29  C   UNL     1      -7.186  33.670  45.682  1.00  0.00     0.039 C 
ATOM     30  C   UNL     1      -5.906  33.522  43.639  1.00  0.00     0.008 C 
ENDBRANCH   1  28
BRANCH  13  31
ATOM     31  O   UNL     1     -13.930  26.036  40.655  1.00  0.00    -0.393 OA
ATOM     32  H   UNL     1     -14.561  26.713  40.283  1.00  0.00     0.210 HD
ENDBRANCH  13  31
TORSDOF 2
ENDMDL
MODEL 3
REMARK VINA RESULT:    -5.879      8.753     10.929
REMARK INTER + INTRA:          -6.930
REMARK INTER:                  -6.383
REMARK INTRA:                  -0.547
REMARK UNBOUND:                -0.535
REMARK SMILES C=C(C)[C@H]1CC[C@]2(C)CC[C@]3(C)[C@@H](CC[C@@H]4[C@]5(C)CC[C@H](O)C(C)(C)[C@H]5CC[C@@]43C)[C@@H]12
REMARK SMILES IDX 4 1 5 2 6 3 7 4 31 5 13 6 14 7 15 8 16 9 17 10 19 11 20 12
REMARK SMILES IDX 21 13 23 14 26 15 27 16 28 17 29 18 11 19 10 20 9 21 12 22
REMARK SMILES IDX 30 23 24 24 25 25 18 26 8 27 2 28 3 29 1 30 22 31
REMARK H PARENT 22 32
REMARK Flexibility Score: inf
ROOT
ATOM      1  C   UNL     1      -8.249  20.913  34.385  1.00  0.00     0.018 C 
ATOM      2  C   UNL     1      -7.912  19.645  33.571  1.00  0.00     0.009 C 
ATOM      3  C   UNL     1      -8.977  19.485  32.456  1.00  0.00     0.008 C 
ATOM      4  C   UNL     1     -10.198  20.262  32.977  1.00  0.00    -0.029 C 
ATOM      5  C   UNL     1      -9.496  21.457  33.659  1.00  0.00     0.006 C 
ATOM      6  C   UNL     1     -10.385  22.633  34.181  1.00  0.00    -0.000 C 
ATOM      7  C   UNL     1     -11.263  22.255  35.393  1.00  0.00     0.005 C 
ATOM      8  C   UNL     1     -12.680  22.776  35.467  1.00  0.00     0.005 C 
ATOM      9  C   UNL     1     -12.878  24.201  34.930  1.00  0.00     0.002 C 
ATOM     10  C   UNL     1     -14.386  24.671  34.990  1.00  0.00    -0.026 C 
ATOM     11  C   UNL     1     -15.118  24.231  36.303  1.00  0.00     0.010 C 
ATOM     12  C   UNL     1     -16.648  24.480  36.326  1.00  0.00     0.033 C 
ATOM     13  C   UNL     1     -17.329  24.707  34.968  1.00  0.00     0.120 C 
ATOM     14  C   UNL     1     -16.694  23.830  33.846  1.00  0.00    -0.006 C 
ATOM     15  C   UNL     1     -15.119  24.083  33.723  1.00  0.00     0.003 C 
ATOM     16  C   UNL     1     -14.648  24.836  32.473  1.00  0.00     0.005 C 
ATOM     17  C   UNL     1     -13.101  24.955  32.325  1.00  0.00     0.008 C 
ATOM     18  C   UNL     1     -12.138  24.472  33.523  1.00  0.00    -0.024 C 
ATOM     19  C   UNL     1     -11.221  23.241  32.980  1.00  0.00    -0.024 C 
ATOM     20  C   UNL     1     -12.024  22.011  32.351  1.00  0.00     0.008 C 
ATOM     21  C   UNL     1     -11.157  20.811  31.875  1.00  0.00     0.007 C 
ATOM     22  C   UNL     1     -10.252  23.808  31.875  1.00  0.00     0.012 C 
ATOM     23  C   UNL     1     -11.197  25.697  33.816  1.00  0.00     0.012 C 
ATOM     24  C   UNL     1     -17.445  24.149  32.507  1.00  0.00     0.014 C 
ATOM     25  C   UNL     1     -16.952  22.320  34.150  1.00  0.00     0.014 C 
ATOM     26  C   UNL     1     -14.366  26.235  35.011  1.00  0.00     0.012 C 
ATOM     27  C   UNL     1     -11.003  19.303  33.894  1.00  0.00     0.011 C 
ENDROOT
BRANCH   1  28
ATOM     28  C   UNL     1      -8.382  20.772  35.916  1.00  0.00    -0.077 C 
ATOM     29  C   UNL     1      -8.605  19.447  36.576  1.00  0.00     0.039 C 
ATOM     30  C   UNL     1      -7.759  21.708  36.656  1.00  0.00     0.008 C 
ENDBRANCH   1  28
BRANCH  13  31
ATOM     31  O   UNL     1     -18.700  24.413  35.080  1.00  0.00    -0.393 OA
ATOM     32  H   UNL     1     -18.804  23.606  35.658  1.00  0.00     0.210 HD
ENDBRANCH  13  31
TORSDOF 2
ENDMDL
MODEL 4
REMARK VINA RESULT:    -5.831      3.055      7.791
REMARK INTER + INTRA:          -6.878
REMARK INTER:                  -6.330
REMARK INTRA:                  -0.548
REMARK UNBOUND:                -0.535
REMARK SMILES C=C(C)[C@H]1CC[C@]2(C)CC[C@]3(C)[C@@H](CC[C@@H]4[C@]5(C)CC[C@H](O)C(C)(C)[C@H]5CC[C@@]43C)[C@@H]12
REMARK SMILES IDX 4 1 5 2 6 3 7 4 31 5 13 6 14 7 15 8 16 9 17 10 19 11 20 12
REMARK SMILES IDX 21 13 23 14 26 15 27 16 28 17 29 18 11 19 10 20 9 21 12 22
REMARK SMILES IDX 30 23 24 24 25 25 18 26 8 27 2 28 3 29 1 30 22 31
REMARK H PARENT 22 32
REMARK Flexibility Score: inf
ROOT
ATOM      1  C   UNL     1     -10.849  26.784  40.852  1.00  0.00     0.018 C 
ATOM      2  C   UNL     1     -11.108  27.164  39.378  1.00  0.00     0.009 C 
ATOM      3  C   UNL     1      -9.963  28.096  38.907  1.00  0.00     0.008 C 
ATOM      4  C   UNL     1      -9.411  28.713  40.204  1.00  0.00    -0.029 C 
ATOM      5  C   UNL     1      -9.516  27.500  41.154  1.00  0.00     0.006 C 
ATOM      6  C   UNL     1      -8.874  27.620  42.575  1.00  0.00    -0.000 C 
ATOM      7  C   UNL     1      -9.609  28.610  43.504  1.00  0.00     0.005 C 
ATOM      8  C   UNL     1      -8.800  29.512  44.407  1.00  0.00     0.005 C 
ATOM      9  C   UNL     1      -7.531  28.875  44.994  1.00  0.00     0.002 C 
ATOM     10  C   UNL     1      -6.703  29.882  45.889  1.00  0.00    -0.026 C 
ATOM     11  C   UNL     1      -7.604  30.788  46.795  1.00  0.00     0.010 C 
ATOM     12  C   UNL     1      -6.865  31.931  47.536  1.00  0.00     0.033 C 
ATOM     13  C   UNL     1      -5.481  32.321  46.994  1.00  0.00     0.120 C 
ATOM     14  C   UNL     1      -5.418  32.225  45.438  1.00  0.00    -0.006 C 
ATOM     15  C   UNL     1      -5.822  30.764  44.924  1.00  0.00     0.003 C 
ATOM     16  C   UNL     1      -4.686  29.908  44.353  1.00  0.00     0.005 C 
ATOM     17  C   UNL     1      -5.136  28.544  43.748  1.00  0.00     0.008 C 
ATOM     18  C   UNL     1      -6.661  28.052  43.915  1.00  0.00    -0.024 C 
ATOM     19  C   UNL     1      -7.328  27.937  42.436  1.00  0.00    -0.024 C 
ATOM     20  C   UNL     1      -7.241  29.256  41.537  1.00  0.00     0.008 C 
ATOM     21  C   UNL     1      -7.920  29.169  40.141  1.00  0.00     0.007 C 
ATOM     22  C   UNL     1      -6.602  26.772  41.664  1.00  0.00     0.012 C 
ATOM     23  C   UNL     1      -6.563  26.606  44.527  1.00  0.00     0.012 C 
ATOM     24  C   UNL     1      -3.969  32.623  44.993  1.00  0.00     0.014 C 
ATOM     25  C   UNL     1      -6.383  33.280  44.808  1.00  0.00     0.014 C 
ATOM     26  C   UNL     1      -5.848  29.009  46.867  1.00  0.00     0.012 C 
ATOM     27  C   UNL     1     -10.289  29.947  40.541  1.00  0.00     0.011 C 
ENDROOT
BRANCH   1  28
ATOM     28  C   UNL     1     -11.981  27.035  41.871  1.00  0.00    -0.077 C 
ATOM     29  C   UNL     1     -13.128  27.951  41.575  1.00  0.00     0.039 C 
ATOM     30  C   UNL     1     -12.222  26.043  42.748  1.00  0.00     0.008 C 
ENDBRANCH   1  28
BRANCH  13  31
ATOM     31  O   UNL     1      -5.175  33.632  47.400  1.00  0.00    -0.393 OA
ATOM     32  H   UNL     1      -5.634  34.269  46.784  1.00  0.00     0.210 HD
ENDBRANCH  13  31
TORSDOF 2
ENDMDL
MODEL 5
REMARK VINA RESULT:    -5.607      2.569      7.500
REMARK INTER + INTRA:          -6.634
REMARK INTER:                  -6.086
REMARK INTRA:                  -0.548
REMARK UNBOUND:                -0.535
REMARK SMILES C=C(C)[C@H]1CC[C@]2(C)CC[C@]3(C)[C@@H](CC[C@@H]4[C@]5(C)CC[C@H](O)C(C)(C)[C@H]5CC[C@@]43C)[C@@H]12
REMARK SMILES IDX 4 1 5 2 6 3 7 4 31 5 13 6 14 7 15 8 16 9 17 10 19 11 20 12
REMARK SMILES IDX 21 13 23 14 26 15 27 16 28 17 29 18 11 19 10 20 9 21 12 22
REMARK SMILES IDX 30 23 24 24 25 25 18 26 8 27 2 28 3 29 1 30 22 31
REMARK H PARENT 22 32
REMARK Flexibility Score: inf
ROOT
ATOM      1  C   UNL     1     -12.237  25.615  39.039  1.00  0.00     0.018 C 
ATOM      2  C   UNL     1     -13.562  24.977  39.507  1.00  0.00     0.009 C 
ATOM      3  C   UNL     1     -13.831  25.428  40.966  1.00  0.00     0.008 C 
ATOM      4  C   UNL     1     -12.443  25.801  41.514  1.00  0.00    -0.029 C 
ATOM      5  C   UNL     1     -11.816  26.454  40.262  1.00  0.00     0.006 C 
ATOM      6  C   UNL     1     -10.432  27.166  40.418  1.00  0.00    -0.000 C 
ATOM      7  C   UNL     1      -9.263  26.196  40.690  1.00  0.00     0.005 C 
ATOM      8  C   UNL     1      -8.196  26.588  41.685  1.00  0.00     0.005 C 
ATOM      9  C   UNL     1      -7.829  28.079  41.690  1.00  0.00     0.002 C 
ATOM     10  C   UNL     1      -6.744  28.435  42.784  1.00  0.00    -0.026 C 
ATOM     11  C   UNL     1      -5.612  27.359  42.905  1.00  0.00     0.010 C 
ATOM     12  C   UNL     1      -4.640  27.548  44.097  1.00  0.00     0.033 C 
ATOM     13  C   UNL     1      -5.118  28.459  45.238  1.00  0.00     0.120 C 
ATOM     14  C   UNL     1      -6.651  28.318  45.490  1.00  0.00    -0.006 C 
ATOM     15  C   UNL     1      -7.493  28.608  44.160  1.00  0.00     0.003 C 
ATOM     16  C   UNL     1      -8.297  29.914  44.137  1.00  0.00     0.005 C 
ATOM     17  C   UNL     1      -9.202  30.102  42.883  1.00  0.00     0.008 C 
ATOM     18  C   UNL     1      -9.106  29.062  41.657  1.00  0.00    -0.024 C 
ATOM     19  C   UNL     1     -10.544  28.315  41.503  1.00  0.00    -0.024 C 
ATOM     20  C   UNL     1     -11.095  27.603  42.824  1.00  0.00     0.008 C 
ATOM     21  C   UNL     1     -12.444  26.846  42.673  1.00  0.00     0.007 C 
ATOM     22  C   UNL     1     -11.604  29.389  41.051  1.00  0.00     0.012 C 
ATOM     23  C   UNL     1      -8.873  29.949  40.379  1.00  0.00     0.012 C 
ATOM     24  C   UNL     1      -7.037  29.296  46.652  1.00  0.00     0.014 C 
ATOM     25  C   UNL     1      -6.969  26.876  45.999  1.00  0.00     0.014 C 
ATOM     26  C   UNL     1      -6.041  29.748  42.304  1.00  0.00     0.012 C 
ATOM     27  C   UNL     1     -11.781  24.496  42.032  1.00  0.00     0.011 C 
ENDROOT
BRANCH   1  28
ATOM     28  C   UNL     1     -11.148  24.679  38.471  1.00  0.00    -0.077 C 
ATOM     29  C   UNL     1     -11.168  23.201  38.706  1.00  0.00     0.039 C 
ATOM     30  C   UNL     1     -10.534  25.094  37.347  1.00  0.00     0.008 C 
ENDBRANCH   1  28
BRANCH  13  31
ATOM     31  O   UNL     1      -4.414  28.142  46.413  1.00  0.00    -0.393 OA
ATOM     32  H   UNL     1      -5.062  28.112  47.172  1.00  0.00     0.210 HD
ENDBRANCH  13  31
TORSDOF 2
ENDMDL
MODEL 6
REMARK VINA RESULT:    -5.575     10.737     12.940
REMARK INTER + INTRA:          -6.599
REMARK INTER:                  -6.051
REMARK INTRA:                  -0.548
REMARK UNBOUND:                -0.535
REMARK SMILES C=C(C)[C@H]1CC[C@]2(C)CC[C@]3(C)[C@@H](CC[C@@H]4[C@]5(C)CC[C@H](O)C(C)(C)[C@H]5CC[C@@]43C)[C@@H]12
REMARK SMILES IDX 4 1 5 2 6 3 7 4 31 5 13 6 14 7 15 8 16 9 17 10 19 11 20 12
REMARK SMILES IDX 21 13 23 14 26 15 27 16 28 17 29 18 11 19 10 20 9 21 12 22
REMARK SMILES IDX 30 23 24 24 25 25 18 26 8 27 2 28 3 29 1 30 22 31
REMARK H PARENT 22 32
REMARK Flexibility Score: inf
ROOT
ATOM      1  C   UNL     1     -19.880  31.886  36.032  1.00  0.00     0.018 C 
ATOM      2  C   UNL     1     -18.867  32.800  36.753  1.00  0.00     0.009 C 
ATOM      3  C   UNL     1     -17.444  32.229  36.521  1.00  0.00     0.008 C 
ATOM      4  C   UNL     1     -17.674  30.741  36.206  1.00  0.00    -0.029 C 
ATOM      5  C   UNL     1     -18.970  30.832  35.370  1.00  0.00     0.006 C 
ATOM      6  C   UNL     1     -19.481  29.534  34.662  1.00  0.00    -0.000 C 
ATOM      7  C   UNL     1     -20.003  28.460  35.640  1.00  0.00     0.005 C 
ATOM      8  C   UNL     1     -19.685  27.006  35.376  1.00  0.00     0.005 C 
ATOM      9  C   UNL     1     -19.681  26.601  33.895  1.00  0.00     0.002 C 
ATOM     10  C   UNL     1     -19.296  25.083  33.679  1.00  0.00    -0.026 C 
ATOM     11  C   UNL     1     -19.937  24.127  34.741  1.00  0.00     0.010 C 
ATOM     12  C   UNL     1     -19.432  22.662  34.707  1.00  0.00     0.033 C 
ATOM     13  C   UNL     1     -18.103  22.409  33.978  1.00  0.00     0.120 C 
ATOM     14  C   UNL     1     -17.096  23.582  34.181  1.00  0.00    -0.006 C 
ATOM     15  C   UNL     1     -17.723  24.980  33.719  1.00  0.00     0.003 C 
ATOM     16  C   UNL     1     -17.144  25.593  32.438  1.00  0.00     0.005 C 
ATOM     17  C   UNL     1     -17.689  27.010  32.088  1.00  0.00     0.008 C 
ATOM     18  C   UNL     1     -18.902  27.641  32.940  1.00  0.00    -0.024 C 
ATOM     19  C   UNL     1     -18.363  28.985  33.683  1.00  0.00    -0.024 C 
ATOM     20  C   UNL     1     -17.058  28.797  34.586  1.00  0.00     0.008 C 
ATOM     21  C   UNL     1     -16.567  30.066  35.338  1.00  0.00     0.007 C 
ATOM     22  C   UNL     1     -18.038  30.056  32.574  1.00  0.00     0.012 C 
ATOM     23  C   UNL     1     -19.979  28.063  31.875  1.00  0.00     0.012 C 
ATOM     24  C   UNL     1     -15.790  23.235  33.387  1.00  0.00     0.014 C 
ATOM     25  C   UNL     1     -16.690  23.671  35.687  1.00  0.00     0.014 C 
ATOM     26  C   UNL     1     -19.900  24.661  32.299  1.00  0.00     0.012 C 
ATOM     27  C   UNL     1     -17.764  29.988  37.560  1.00  0.00     0.011 C 
ENDROOT
BRANCH   1  28
ATOM     28  C   UNL     1     -21.056  31.321  36.856  1.00  0.00    -0.077 C 
ATOM     29  C   UNL     1     -21.031  31.280  38.353  1.00  0.00     0.039 C 
ATOM     30  C   UNL     1     -22.272  31.392  36.284  1.00  0.00     0.008 C 
ENDBRANCH   1  28
BRANCH  13  31
ATOM     31  O   UNL     1     -17.535  21.211  34.448  1.00  0.00    -0.393 OA
ATOM     32  H   UNL     1     -17.370  21.302  35.428  1.00  0.00     0.210 HD
ENDBRANCH  13  31
TORSDOF 2
ENDMDL
MODEL 7
REMARK VINA RESULT:    -5.496      5.656      9.238
REMARK INTER + INTRA:          -6.513
REMARK INTER:                  -5.966
REMARK INTRA:                  -0.547
REMARK UNBOUND:                -0.535
REMARK SMILES C=C(C)[C@H]1CC[C@]2(C)CC[C@]3(C)[C@@H](CC[C@@H]4[C@]5(C)CC[C@H](O)C(C)(C)[C@H]5CC[C@@]43C)[C@@H]12
REMARK SMILES IDX 4 1 5 2 6 3 7 4 31 5 13 6 14 7 15 8 16 9 17 10 19 11 20 12
REMARK SMILES IDX 21 13 23 14 26 15 27 16 28 17 29 18 11 19 10 20 9 21 12 22
REMARK SMILES IDX 30 23 24 24 25 25 18 26 8 27 2 28 3 29 1 30 22 31
REMARK H PARENT 22 32
REMARK Flexibility Score: inf
ROOT
ATOM      1  C   UNL     1     -12.446  24.934  39.882  1.00  0.00     0.018 C 
ATOM      2  C   UNL     1     -11.612  25.959  40.679  1.00  0.00     0.009 C 
ATOM      3  C   UNL     1     -10.430  26.422  39.789  1.00  0.00     0.008 C 
ATOM      4  C   UNL     1     -10.240  25.279  38.777  1.00  0.00    -0.029 C 
ATOM      5  C   UNL     1     -11.712  24.883  38.527  1.00  0.00     0.006 C 
ATOM      6  C   UNL     1     -12.015  23.852  37.390  1.00  0.00    -0.000 C 
ATOM      7  C   UNL     1     -11.521  22.424  37.704  1.00  0.00     0.005 C 
ATOM      8  C   UNL     1     -10.894  21.602  36.601  1.00  0.00     0.005 C 
ATOM      9  C   UNL     1     -11.522  21.792  35.212  1.00  0.00     0.002 C 
ATOM     10  C   UNL     1     -10.794  20.945  34.093  1.00  0.00    -0.026 C 
ATOM     11  C   UNL     1     -10.391  19.509  34.570  1.00  0.00     0.010 C 
ATOM     12  C   UNL     1      -9.494  18.710  33.591  1.00  0.00     0.033 C 
ATOM     13  C   UNL     1      -8.758  19.522  32.514  1.00  0.00     0.120 C 
ATOM     14  C   UNL     1      -8.293  20.911  33.050  1.00  0.00    -0.006 C 
ATOM     15  C   UNL     1      -9.520  21.754  33.636  1.00  0.00     0.003 C 
ATOM     16  C   UNL     1      -9.962  22.970  32.813  1.00  0.00     0.005 C 
ATOM     17  C   UNL     1     -11.074  23.838  33.476  1.00  0.00     0.008 C 
ATOM     18  C   UNL     1     -11.791  23.335  34.828  1.00  0.00    -0.024 C 
ATOM     19  C   UNL     1     -11.467  24.405  36.010  1.00  0.00    -0.024 C 
ATOM     20  C   UNL     1      -9.917  24.710  36.257  1.00  0.00     0.008 C 
ATOM     21  C   UNL     1      -9.597  25.694  37.418  1.00  0.00     0.007 C 
ATOM     22  C   UNL     1     -12.179  25.762  35.647  1.00  0.00     0.012 C 
ATOM     23  C   UNL     1     -13.332  23.389  34.523  1.00  0.00     0.012 C 
ATOM     24  C   UNL     1      -7.575  21.661  31.875  1.00  0.00     0.014 C 
ATOM     25  C   UNL     1      -7.222  20.710  34.169  1.00  0.00     0.014 C 
ATOM     26  C   UNL     1     -11.832  20.741  32.941  1.00  0.00     0.012 C 
ATOM     27  C   UNL     1      -9.331  24.213  39.445  1.00  0.00     0.011 C 
ENDROOT
BRANCH   1  28
ATOM     28  C   UNL     1     -12.722  23.564  40.538  1.00  0.00    -0.077 C 
ATOM     29  C   UNL     1     -11.937  23.073  41.715  1.00  0.00     0.039 C 
ATOM     30  C   UNL     1     -13.976  23.089  40.420  1.00  0.00     0.008 C 
ENDBRANCH   1  28
BRANCH  13  31
ATOM     31  O   UNL     1      -7.645  18.792  32.061  1.00  0.00    -0.393 OA
ATOM     32  H   UNL     1      -7.892  17.826  32.026  1.00  0.00     0.210 HD
ENDBRANCH  13  31
TORSDOF 2
ENDMDL
MODEL 8
REMARK VINA RESULT:    -5.456      2.744      7.515
REMARK INTER + INTRA:          -6.470
REMARK INTER:                  -5.924
REMARK INTRA:                  -0.546
REMARK UNBOUND:                -0.535
REMARK SMILES C=C(C)[C@H]1CC[C@]2(C)CC[C@]3(C)[C@@H](CC[C@@H]4[C@]5(C)CC[C@H](O)C(C)(C)[C@H]5CC[C@@]43C)[C@@H]12
REMARK SMILES IDX 4 1 5 2 6 3 7 4 31 5 13 6 14 7 15 8 16 9 17 10 19 11 20 12
REMARK SMILES IDX 21 13 23 14 26 15 27 16 28 17 29 18 11 19 10 20 9 21 12 22
REMARK SMILES IDX 30 23 24 24 25 25 18 26 8 27 2 28 3 29 1 30 22 31
REMARK H PARENT 22 32
REMARK Flexibility Score: inf
ROOT
ATOM      1  C   UNL     1     -11.004  25.362  40.217  1.00  0.00     0.018 C 
ATOM      2  C   UNL     1     -12.511  25.586  39.970  1.00  0.00     0.009 C 
ATOM      3  C   UNL     1     -12.857  27.045  40.363  1.00  0.00     0.008 C 
ATOM      4  C   UNL     1     -11.752  27.449  41.353  1.00  0.00    -0.029 C 
ATOM      5  C   UNL     1     -10.535  26.745  40.713  1.00  0.00     0.006 C 
ATOM      6  C   UNL     1      -9.117  27.045  41.302  1.00  0.00    -0.000 C 
ATOM      7  C   UNL     1      -8.901  26.471  42.718  1.00  0.00     0.005 C 
ATOM      8  C   UNL     1      -8.152  27.294  43.740  1.00  0.00     0.005 C 
ATOM      9  C   UNL     1      -6.985  28.120  43.180  1.00  0.00     0.002 C 
ATOM     10  C   UNL     1      -6.271  28.995  44.287  1.00  0.00    -0.026 C 
ATOM     11  C   UNL     1      -6.104  28.247  45.652  1.00  0.00     0.010 C 
ATOM     12  C   UNL     1      -5.603  29.120  46.831  1.00  0.00     0.033 C 
ATOM     13  C   UNL     1      -5.740  30.641  46.668  1.00  0.00     0.120 C 
ATOM     14  C   UNL     1      -7.043  31.028  45.903  1.00  0.00    -0.006 C 
ATOM     15  C   UNL     1      -7.121  30.309  44.476  1.00  0.00     0.003 C 
ATOM     16  C   UNL     1      -6.934  31.213  43.251  1.00  0.00     0.005 C 
ATOM     17  C   UNL     1      -7.140  30.504  41.878  1.00  0.00     0.008 C 
ATOM     18  C   UNL     1      -7.343  28.907  41.819  1.00  0.00    -0.024 C 
ATOM     19  C   UNL     1      -8.822  28.599  41.215  1.00  0.00    -0.024 C 
ATOM     20  C   UNL     1     -10.037  29.308  41.974  1.00  0.00     0.008 C 
ATOM     21  C   UNL     1     -11.457  28.979  41.433  1.00  0.00     0.007 C 
ATOM     22  C   UNL     1      -8.843  29.073  39.713  1.00  0.00     0.012 C 
ATOM     23  C   UNL     1      -6.272  28.393  40.788  1.00  0.00     0.012 C 
ATOM     24  C   UNL     1      -7.077  32.590  45.776  1.00  0.00     0.014 C 
ATOM     25  C   UNL     1      -8.290  30.625  46.754  1.00  0.00     0.014 C 
ATOM     26  C   UNL     1      -4.822  29.275  43.768  1.00  0.00     0.012 C 
ATOM     27  C   UNL     1     -12.186  26.959  42.760  1.00  0.00     0.011 C 
ENDROOT
BRANCH   1  28
ATOM     28  C   UNL     1     -10.588  24.166  41.099  1.00  0.00    -0.077 C 
ATOM     29  C   UNL     1     -11.562  23.457  41.988  1.00  0.00     0.039 C 
ATOM     30  C   UNL     1      -9.543  23.438  40.661  1.00  0.00     0.008 C 
ENDBRANCH   1  28
BRANCH  13  31
ATOM     31  O   UNL     1      -5.739  31.247  47.937  1.00  0.00    -0.393 OA
ATOM     32  H   UNL     1      -6.630  31.097  48.360  1.00  0.00     0.210 HD
ENDBRANCH  13  31
TORSDOF 2
ENDMDL
MODEL 9
REMARK VINA RESULT:    -5.402      5.351     11.020
REMARK INTER + INTRA:          -6.411
REMARK INTER:                  -5.880
REMARK INTRA:                  -0.531
REMARK UNBOUND:                -0.535
REMARK SMILES C=C(C)[C@H]1CC[C@]2(C)CC[C@]3(C)[C@@H](CC[C@@H]4[C@]5(C)CC[C@H](O)C(C)(C)[C@H]5CC[C@@]43C)[C@@H]12
REMARK SMILES IDX 4 1 5 2 6 3 7 4 31 5 13 6 14 7 15 8 16 9 17 10 19 11 20 12
REMARK SMILES IDX 21 13 23 14 26 15 27 16 28 17 29 18 11 19 10 20 9 21 12 22
REMARK SMILES IDX 30 23 24 24 25 25 18 26 8 27 2 28 3 29 1 30 22 31
REMARK H PARENT 22 32
REMARK Flexibility Score: inf
ROOT
ATOM      1  C   UNL     1     -17.500  24.181  33.335  1.00  0.00     0.018 C 
ATOM      2  C   UNL     1     -18.590  25.137  32.803  1.00  0.00     0.009 C 
ATOM      3  C   UNL     1     -18.332  26.546  33.394  1.00  0.00     0.008 C 
ATOM      4  C   UNL     1     -17.513  26.285  34.669  1.00  0.00    -0.029 C 
ATOM      5  C   UNL     1     -16.623  25.115  34.193  1.00  0.00     0.006 C 
ATOM      6  C   UNL     1     -15.471  24.635  35.135  1.00  0.00    -0.000 C 
ATOM      7  C   UNL     1     -15.971  23.937  36.418  1.00  0.00     0.005 C 
ATOM      8  C   UNL     1     -15.269  24.213  37.728  1.00  0.00     0.005 C 
ATOM      9  C   UNL     1     -13.747  24.389  37.625  1.00  0.00     0.002 C 
ATOM     10  C   UNL     1     -13.077  24.722  39.018  1.00  0.00    -0.026 C 
ATOM     11  C   UNL     1     -13.682  23.900  40.206  1.00  0.00     0.010 C 
ATOM     12  C   UNL     1     -13.213  24.331  41.619  1.00  0.00     0.033 C 
ATOM     13  C   UNL     1     -12.586  25.728  41.740  1.00  0.00     0.120 C 
ATOM     14  C   UNL     1     -13.277  26.759  40.794  1.00  0.00    -0.006 C 
ATOM     15  C   UNL     1     -13.247  26.269  39.271  1.00  0.00     0.003 C 
ATOM     16  C   UNL     1     -12.315  27.040  38.328  1.00  0.00     0.005 C 
ATOM     17  C   UNL     1     -12.405  26.619  36.831  1.00  0.00     0.008 C 
ATOM     18  C   UNL     1     -13.286  25.338  36.406  1.00  0.00    -0.024 C 
ATOM     19  C   UNL     1     -14.489  25.842  35.433  1.00  0.00    -0.024 C 
ATOM     20  C   UNL     1     -15.410  27.007  36.024  1.00  0.00     0.008 C 
ATOM     21  C   UNL     1     -16.592  27.460  35.122  1.00  0.00     0.007 C 
ATOM     22  C   UNL     1     -13.846  26.363  34.093  1.00  0.00     0.012 C 
ATOM     23  C   UNL     1     -12.316  24.432  35.562  1.00  0.00     0.012 C 
ATOM     24  C   UNL     1     -12.556  28.138  40.980  1.00  0.00     0.014 C 
ATOM     25  C   UNL     1     -14.759  26.969  41.240  1.00  0.00     0.014 C 
ATOM     26  C   UNL     1     -11.579  24.283  38.908  1.00  0.00     0.012 C 
ATOM     27  C   UNL     1     -18.518  25.981  35.812  1.00  0.00     0.011 C 
ENDROOT
BRANCH   1  28
ATOM     28  C   UNL     1     -17.958  22.880  34.028  1.00  0.00    -0.077 C 
ATOM     29  C   UNL     1     -19.375  22.666  34.461  1.00  0.00     0.039 C 
ATOM     30  C   UNL     1     -17.250  21.772  33.740  1.00  0.00     0.008 C 
ENDBRANCH   1  28
BRANCH  13  31
ATOM     31  O   UNL     1     -12.684  26.169  43.072  1.00  0.00    -0.393 OA
ATOM     32  H   UNL     1     -11.826  25.964  43.537  1.00  0.00     0.210 HD
ENDBRANCH  13  31
TORSDOF 2
ENDMDL
