MODEL 1
REMARK VINA RESULT:    -4.365      0.000      0.000
REMARK INTER + INTRA:          -6.180
REMARK INTER:                  -5.896
REMARK INTRA:                  -0.284
REMARK UNBOUND:                -0.284
REMARK SMILES CCCCCCC=CC(=O)[O-]
REMARK SMILES IDX 5 1 6 2 7 3 8 4 9 5 10 6 11 7 4 8 3 9 2 10 1 11
REMARK H PARENT
REMARK Flexibility Score: inf
ROOT
ATOM      1  C   UNL     1       6.056  -5.783  21.945  1.00  0.00     0.004 C 
ENDROOT
BRANCH   1   2
ATOM      2  C   UNL     1       7.081  -6.722  21.291  1.00  0.00     0.027 C 
BRANCH   2   3
ATOM      3  C   UNL     1       6.547  -7.377  20.048  1.00  0.00    -0.025 C 
ATOM      4  C   UNL     1       7.089  -7.149  18.847  1.00  0.00     0.020 C 
BRANCH   4   5
ATOM      5  C   UNL     1       6.571  -7.777  17.624  1.00  0.00     0.064 C 
ATOM      6  O   UNL     1       5.582  -8.551  17.694  1.00  0.00    -0.545 OA
ATOM      7  O   UNL     1       7.157  -7.528  16.388  1.00  0.00    -0.545 OA
ENDBRANCH   4   5
ENDBRANCH   2   3
ENDBRANCH   1   2
BRANCH   1   8
ATOM      8  C   UNL     1       6.607  -4.361  22.127  1.00  0.00     0.000 C 
BRANCH   8   9
ATOM      9  C   UNL     1       7.759  -4.343  23.138  1.00  0.00    -0.000 C 
BRANCH   9  10
ATOM     10  C   UNL     1       7.374  -3.555  24.395  1.00  0.00    -0.003 C 
ATOM     11  C   UNL     1       6.648  -4.444  25.402  1.00  0.00     0.004 C 
ENDBRANCH   9  10
ENDBRANCH   8   9
ENDBRANCH   1   8
TORSDOF 6
ENDMDL
MODEL 2
REMARK VINA RESULT:    -4.063      3.955      6.582
REMARK INTER + INTRA:          -5.772
REMARK INTER:                  -5.558
REMARK INTRA:                  -0.214
REMARK UNBOUND:                -0.284
REMARK SMILES CCCCCCC=CC(=O)[O-]
REMARK SMILES IDX 5 1 6 2 7 3 8 4 9 5 10 6 11 7 4 8 3 9 2 10 1 11
REMARK H PARENT
REMARK Flexibility Score: inf
ROOT
ATOM      1  C   UNL     1       6.691  -7.428  21.208  1.00  0.00     0.004 C 
ENDROOT
BRANCH   1   2
ATOM      2  C   UNL     1       5.735  -6.263  21.507  1.00  0.00     0.027 C 
BRANCH   2   3
ATOM      3  C   UNL     1       5.940  -5.693  22.882  1.00  0.00    -0.025 C 
ATOM      4  C   UNL     1       6.775  -4.672  23.100  1.00  0.00     0.020 C 
BRANCH   4   5
ATOM      5  C   UNL     1       6.989  -4.110  24.441  1.00  0.00     0.064 C 
ATOM      6  O   UNL     1       7.676  -3.064  24.574  1.00  0.00    -0.545 OA
ATOM      7  O   UNL     1       6.443  -4.716  25.567  1.00  0.00    -0.545 OA
ENDBRANCH   4   5
ENDBRANCH   2   3
ENDBRANCH   1   2
BRANCH   1   8
ATOM      8  C   UNL     1       7.482  -7.210  19.908  1.00  0.00     0.000 C 
BRANCH   8   9
ATOM      9  C   UNL     1       6.613  -7.507  18.681  1.00  0.00    -0.000 C 
BRANCH   9  10
ATOM     10  C   UNL     1       7.220  -6.890  17.416  1.00  0.00    -0.003 C 
ATOM     11  C   UNL     1       6.911  -7.739  16.185  1.00  0.00     0.004 C 
ENDBRANCH   9  10
ENDBRANCH   8   9
ENDBRANCH   1   8
TORSDOF 6
ENDMDL
MODEL 3
REMARK VINA RESULT:    -3.968     13.188     13.880
REMARK INTER + INTRA:          -5.645
REMARK INTER:                  -5.132
REMARK INTRA:                  -0.512
REMARK UNBOUND:                -0.284
REMARK SMILES CCCCCCC=CC(=O)[O-]
REMARK SMILES IDX 5 1 6 2 7 3 8 4 9 5 10 6 11 7 4 8 3 9 2 10 1 11
REMARK H PARENT
REMARK Flexibility Score: inf
ROOT
ATOM      1  C   UNL     1      -2.193   3.869  16.598  1.00  0.00     0.004 C 
ENDROOT
BRANCH   1   2
ATOM      2  C   UNL     1      -2.345   4.725  15.331  1.00  0.00     0.027 C 
BRANCH   2   3
ATOM      3  C   UNL     1      -2.708   3.904  14.125  1.00  0.00    -0.025 C 
ATOM      4  C   UNL     1      -1.991   2.836  13.764  1.00  0.00     0.020 C 
BRANCH   4   5
ATOM      5  C   UNL     1      -2.330   2.029  12.584  1.00  0.00     0.064 C 
ATOM      6  O   UNL     1      -3.363   1.309  12.599  1.00  0.00    -0.545 OA
ATOM      7  O   UNL     1      -1.530   2.049  11.448  1.00  0.00    -0.545 OA
ENDBRANCH   4   5
ENDBRANCH   2   3
ENDBRANCH   1   2
BRANCH   1   8
ATOM      8  C   UNL     1      -1.078   4.390  17.518  1.00  0.00     0.000 C 
BRANCH   8   9
ATOM      9  C   UNL     1       0.282   4.347  16.811  1.00  0.00    -0.000 C 
BRANCH   9  10
ATOM     10  C   UNL     1       1.090   3.120  17.249  1.00  0.00    -0.003 C 
ATOM     11  C   UNL     1       1.470   2.254  16.050  1.00  0.00     0.004 C 
ENDBRANCH   9  10
ENDBRANCH   8   9
ENDBRANCH   1   8
TORSDOF 6
ENDMDL
MODEL 4
REMARK VINA RESULT:    -3.957      3.587      6.338
REMARK INTER + INTRA:          -5.630
REMARK INTER:                  -5.373
REMARK INTRA:                  -0.257
REMARK UNBOUND:                -0.284
REMARK SMILES CCCCCCC=CC(=O)[O-]
REMARK SMILES IDX 5 1 6 2 7 3 8 4 9 5 10 6 11 7 4 8 3 9 2 10 1 11
REMARK H PARENT
REMARK Flexibility Score: inf
ROOT
ATOM      1  C   UNL     1       7.353  -7.231  19.974  1.00  0.00     0.004 C 
ENDROOT
BRANCH   1   2
ATOM      2  C   UNL     1       6.483  -6.881  21.191  1.00  0.00     0.027 C 
BRANCH   2   3
ATOM      3  C   UNL     1       7.033  -5.721  21.973  1.00  0.00    -0.025 C 
ATOM      4  C   UNL     1       6.629  -4.468  21.743  1.00  0.00     0.020 C 
BRANCH   4   5
ATOM      5  C   UNL     1       7.163  -3.324  22.495  1.00  0.00     0.064 C 
ATOM      6  O   UNL     1       7.439  -3.458  23.716  1.00  0.00    -0.545 OA
ATOM      7  O   UNL     1       7.370  -2.095  21.880  1.00  0.00    -0.545 OA
ENDBRANCH   4   5
ENDBRANCH   2   3
ENDBRANCH   1   2
BRANCH   1   8
ATOM      8  C   UNL     1       6.523  -7.364  18.688  1.00  0.00     0.000 C 
BRANCH   8   9
ATOM      9  C   UNL     1       7.314  -6.871  17.470  1.00  0.00    -0.000 C 
BRANCH   9  10
ATOM     10  C   UNL     1       6.919  -7.646  16.208  1.00  0.00    -0.003 C 
ATOM     11  C   UNL     1       6.163  -8.924  16.561  1.00  0.00     0.004 C 
ENDBRANCH   9  10
ENDBRANCH   8   9
ENDBRANCH   1   8
TORSDOF 6
ENDMDL
MODEL 5
REMARK VINA RESULT:    -3.906     15.241     15.949
REMARK INTER + INTRA:          -5.560
REMARK INTER:                  -5.236
REMARK INTRA:                  -0.324
REMARK UNBOUND:                -0.284
REMARK SMILES CCCCCCC=CC(=O)[O-]
REMARK SMILES IDX 5 1 6 2 7 3 8 4 9 5 10 6 11 7 4 8 3 9 2 10 1 11
REMARK H PARENT
REMARK Flexibility Score: inf
ROOT
ATOM      1  C   UNL     1      -2.874   2.713  13.454  1.00  0.00     0.004 C 
ENDROOT
BRANCH   1   2
ATOM      2  C   UNL     1      -1.990   2.138  12.336  1.00  0.00     0.027 C 
BRANCH   2   3
ATOM      3  C   UNL     1      -2.798   1.557  11.210  1.00  0.00    -0.025 C 
ATOM      4  C   UNL     1      -4.106   1.315  11.338  1.00  0.00     0.020 C 
BRANCH   4   5
ATOM      5  C   UNL     1      -4.906   0.742  10.247  1.00  0.00     0.064 C 
ATOM      6  O   UNL     1      -6.086   1.139  10.065  1.00  0.00    -0.545 OA
ATOM      7  O   UNL     1      -4.378  -0.234   9.408  1.00  0.00    -0.545 OA
ENDBRANCH   4   5
ENDBRANCH   2   3
ENDBRANCH   1   2
BRANCH   1   8
ATOM      8  C   UNL     1      -2.062   3.068  14.709  1.00  0.00     0.000 C 
BRANCH   8   9
ATOM      9  C   UNL     1      -2.614   4.330  15.382  1.00  0.00    -0.000 C 
BRANCH   9  10
ATOM     10  C   UNL     1      -3.346   5.217  14.369  1.00  0.00    -0.003 C 
ATOM     11  C   UNL     1      -2.408   6.267  13.778  1.00  0.00     0.004 C 
ENDBRANCH   9  10
ENDBRANCH   8   9
ENDBRANCH   1   8
TORSDOF 6
ENDMDL
MODEL 6
REMARK VINA RESULT:    -3.880     12.775     13.709
REMARK INTER + INTRA:          -5.526
REMARK INTER:                  -4.869
REMARK INTRA:                  -0.657
REMARK UNBOUND:                -0.284
REMARK SMILES CCCCCCC=CC(=O)[O-]
REMARK SMILES IDX 5 1 6 2 7 3 8 4 9 5 10 6 11 7 4 8 3 9 2 10 1 11
REMARK H PARENT
REMARK Flexibility Score: inf
ROOT
ATOM      1  C   UNL     1       0.768   4.087  16.342  1.00  0.00     0.004 C 
ENDROOT
BRANCH   1   2
ATOM      2  C   UNL     1      -0.307   4.334  17.412  1.00  0.00     0.027 C 
BRANCH   2   3
ATOM      3  C   UNL     1      -1.693   4.382  16.831  1.00  0.00    -0.025 C 
ATOM      4  C   UNL     1      -1.904   4.289  15.515  1.00  0.00     0.020 C 
BRANCH   4   5
ATOM      5  C   UNL     1      -3.252   4.341  14.934  1.00  0.00     0.064 C 
ATOM      6  O   UNL     1      -3.712   5.440  14.526  1.00  0.00    -0.545 OA
ATOM      7  O   UNL     1      -4.032   3.195  14.827  1.00  0.00    -0.545 OA
ENDBRANCH   4   5
ENDBRANCH   2   3
ENDBRANCH   1   2
BRANCH   1   8
ATOM      8  C   UNL     1       1.311   2.651  16.387  1.00  0.00     0.000 C 
BRANCH   8   9
ATOM      9  C   UNL     1       1.083   2.021  17.766  1.00  0.00    -0.000 C 
BRANCH   9  10
ATOM     10  C   UNL     1       0.403   0.653  17.639  1.00  0.00    -0.003 C 
ATOM     11  C   UNL     1      -0.632   0.655  16.516  1.00  0.00     0.004 C 
ENDBRANCH   9  10
ENDBRANCH   8   9
ENDBRANCH   1   8
TORSDOF 6
ENDMDL
MODEL 7
REMARK VINA RESULT:    -3.783     13.694     14.843
REMARK INTER + INTRA:          -5.394
REMARK INTER:                  -4.771
REMARK INTRA:                  -0.624
REMARK UNBOUND:                -0.284
REMARK SMILES CCCCCCC=CC(=O)[O-]
REMARK SMILES IDX 5 1 6 2 7 3 8 4 9 5 10 6 11 7 4 8 3 9 2 10 1 11
REMARK H PARENT
REMARK Flexibility Score: inf
ROOT
ATOM      1  C   UNL     1      -3.415   4.754  14.744  1.00  0.00     0.004 C 
ENDROOT
BRANCH   1   2
ATOM      2  C   UNL     1      -3.024   4.075  16.066  1.00  0.00     0.027 C 
BRANCH   2   3
ATOM      3  C   UNL     1      -1.552   4.179  16.350  1.00  0.00    -0.025 C 
ATOM      4  C   UNL     1      -0.713   3.175  16.075  1.00  0.00     0.020 C 
BRANCH   4   5
ATOM      5  C   UNL     1       0.727   3.261  16.355  1.00  0.00     0.064 C 
ATOM      6  O   UNL     1       1.137   4.012  17.278  1.00  0.00    -0.545 OA
ATOM      7  O   UNL     1       1.646   2.525  15.615  1.00  0.00    -0.545 OA
ENDBRANCH   4   5
ENDBRANCH   2   3
ENDBRANCH   1   2
BRANCH   1   8
ATOM      8  C   UNL     1      -4.189   3.808  13.814  1.00  0.00     0.000 C 
BRANCH   8   9
ATOM      9  C   UNL     1      -3.842   2.343  14.107  1.00  0.00    -0.000 C 
BRANCH   9  10
ATOM     10  C   UNL     1      -3.292   1.648  12.857  1.00  0.00    -0.003 C 
ATOM     11  C   UNL     1      -1.891   2.150  12.518  1.00  0.00     0.004 C 
ENDBRANCH   9  10
ENDBRANCH   8   9
ENDBRANCH   1   8
TORSDOF 6
ENDMDL
MODEL 8
REMARK VINA RESULT:    -3.757      3.802      5.918
REMARK INTER + INTRA:          -5.359
REMARK INTER:                  -5.123
REMARK INTRA:                  -0.237
REMARK UNBOUND:                -0.284
REMARK SMILES CCCCCCC=CC(=O)[O-]
REMARK SMILES IDX 5 1 6 2 7 3 8 4 9 5 10 6 11 7 4 8 3 9 2 10 1 11
REMARK H PARENT
REMARK Flexibility Score: inf
ROOT
ATOM      1  C   UNL     1       6.602  -8.436  16.358  1.00  0.00     0.004 C 
ENDROOT
BRANCH   1   2
ATOM      2  C   UNL     1       5.943  -8.337  14.974  1.00  0.00     0.027 C 
BRANCH   2   3
ATOM      3  C   UNL     1       6.610  -7.318  14.094  1.00  0.00    -0.025 C 
ATOM      4  C   UNL     1       5.903  -6.504  13.304  1.00  0.00     0.020 C 
BRANCH   4   5
ATOM      5  C   UNL     1       6.544  -5.509  12.434  1.00  0.00     0.064 C 
ATOM      6  O   UNL     1       6.198  -4.301  12.510  1.00  0.00    -0.545 OA
ATOM      7  O   UNL     1       7.530  -5.879  11.526  1.00  0.00    -0.545 OA
ENDBRANCH   4   5
ENDBRANCH   2   3
ENDBRANCH   1   2
BRANCH   1   8
ATOM      8  C   UNL     1       6.760  -7.061  17.025  1.00  0.00     0.000 C 
BRANCH   8   9
ATOM      9  C   UNL     1       7.443  -7.189  18.391  1.00  0.00    -0.000 C 
BRANCH   9  10
ATOM     10  C   UNL     1       6.409  -7.205  19.523  1.00  0.00    -0.003 C 
ATOM     11  C   UNL     1       7.085  -7.332  20.885  1.00  0.00     0.004 C 
ENDBRANCH   9  10
ENDBRANCH   8   9
ENDBRANCH   1   8
TORSDOF 6
ENDMDL
MODEL 9
REMARK VINA RESULT:    -3.726      5.529      7.641
REMARK INTER + INTRA:          -5.317
REMARK INTER:                  -4.737
REMARK INTRA:                  -0.580
REMARK UNBOUND:                -0.284
REMARK SMILES CCCCCCC=CC(=O)[O-]
REMARK SMILES IDX 5 1 6 2 7 3 8 4 9 5 10 6 11 7 4 8 3 9 2 10 1 11
REMARK H PARENT
REMARK Flexibility Score: inf
ROOT
ATOM      1  C   UNL     1       5.183  -7.258  13.997  1.00  0.00     0.004 C 
ENDROOT
BRANCH   1   2
ATOM      2  C   UNL     1       6.286  -6.516  13.228  1.00  0.00     0.027 C 
BRANCH   2   3
ATOM      3  C   UNL     1       5.963  -5.063  13.023  1.00  0.00    -0.025 C 
ATOM      4  C   UNL     1       6.012  -4.185  14.030  1.00  0.00     0.020 C 
BRANCH   4   5
ATOM      5  C   UNL     1       5.691  -2.763  13.843  1.00  0.00     0.064 C 
ATOM      6  O   UNL     1       6.496  -1.886  14.253  1.00  0.00    -0.545 OA
ATOM      7  O   UNL     1       4.513  -2.370  13.220  1.00  0.00    -0.545 OA
ENDBRANCH   4   5
ENDBRANCH   2   3
ENDBRANCH   1   2
BRANCH   1   8
ATOM      8  C   UNL     1       5.739  -8.423  14.830  1.00  0.00     0.000 C 
BRANCH   8   9
ATOM      9  C   UNL     1       7.001  -8.000  15.591  1.00  0.00    -0.000 C 
BRANCH   9  10
ATOM     10  C   UNL     1       6.678  -7.680  17.055  1.00  0.00    -0.003 C 
ATOM     11  C   UNL     1       6.695  -6.174  17.306  1.00  0.00     0.004 C 
ENDBRANCH   9  10
ENDBRANCH   8   9
ENDBRANCH   1   8
TORSDOF 6
ENDMDL
