MODEL 1
REMARK VINA RESULT:    -1.784      0.000      0.000
REMARK INTER + INTRA:          -2.010
REMARK INTER:                  -1.993
REMARK INTRA:                  -0.017
REMARK UNBOUND:                -0.017
REMARK SMILES CCCC(=O)[O-]
REMARK SMILES IDX 3 1 4 2 5 3 6 4 2 5 1 6
REMARK H PARENT
REMARK Flexibility Score: inf
ROOT
ATOM      1  C   UNL     1     -18.863  16.587  13.117  1.00  0.00     0.052 C 
ENDROOT
BRANCH   1   2
ATOM      2  C   UNL     1     -19.055  17.383  14.372  1.00  0.00     0.041 C 
ATOM      3  O   UNL     1     -19.125  18.638  14.321  1.00  0.00    -0.550 OA
ATOM      4  O   UNL     1     -19.122  16.738  15.601  1.00  0.00    -0.550 OA
ENDBRANCH   1   2
BRANCH   1   5
ATOM      5  C   UNL     1     -18.761  17.490  11.881  1.00  0.00     0.003 C 
ATOM      6  C   UNL     1     -17.800  16.934  10.831  1.00  0.00     0.004 C 
ENDBRANCH   1   5
TORSDOF 2
ENDMDL
MODEL 2
REMARK VINA RESULT:    -1.487      1.888      3.522
REMARK INTER + INTRA:          -1.678
REMARK INTER:                  -1.670
REMARK INTRA:                  -0.008
REMARK UNBOUND:                -0.017
REMARK SMILES CCCC(=O)[O-]
REMARK SMILES IDX 3 1 4 2 5 3 6 4 2 5 1 6
REMARK H PARENT
REMARK Flexibility Score: inf
ROOT
ATOM      1  C   UNL     1     -19.107  16.652  14.374  1.00  0.00     0.052 C 
ENDROOT
BRANCH   1   2
ATOM      2  C   UNL     1     -18.835  17.558  13.212  1.00  0.00     0.041 C 
ATOM      3  O   UNL     1     -18.410  17.083  12.126  1.00  0.00    -0.550 OA
ATOM      4  O   UNL     1     -19.019  18.929  13.339  1.00  0.00    -0.550 OA
ENDBRANCH   1   2
BRANCH   1   5
ATOM      5  C   UNL     1     -19.124  17.422  15.701  1.00  0.00     0.003 C 
ATOM      6  C   UNL     1     -19.122  16.490  16.914  1.00  0.00     0.004 C 
ENDBRANCH   1   5
TORSDOF 2
ENDMDL
MODEL 3
REMARK VINA RESULT:    -1.336      9.070      9.509
REMARK INTER + INTRA:          -1.509
REMARK INTER:                  -1.495
REMARK INTRA:                  -0.014
REMARK UNBOUND:                -0.017
REMARK SMILES CCCC(=O)[O-]
REMARK SMILES IDX 3 1 4 2 5 3 6 4 2 5 1 6
REMARK H PARENT
REMARK Flexibility Score: inf
ROOT
ATOM      1  C   UNL     1     -16.677  25.806  15.755  1.00  0.00     0.052 C 
ENDROOT
BRANCH   1   2
ATOM      2  C   UNL     1     -18.002  25.922  16.444  1.00  0.00     0.041 C 
ATOM      3  O   UNL     1     -18.312  25.117  17.360  1.00  0.00    -0.550 OA
ATOM      4  O   UNL     1     -18.908  26.900  16.050  1.00  0.00    -0.550 OA
ENDBRANCH   1   2
BRANCH   1   5
ATOM      5  C   UNL     1     -15.512  25.861  16.751  1.00  0.00     0.003 C 
ATOM      6  C   UNL     1     -14.305  25.048  16.281  1.00  0.00     0.004 C 
ENDBRANCH   1   5
TORSDOF 2
ENDMDL
MODEL 4
REMARK VINA RESULT:    -1.150      9.293      9.796
REMARK INTER + INTRA:          -1.301
REMARK INTER:                  -1.275
REMARK INTRA:                  -0.026
REMARK UNBOUND:                -0.017
REMARK SMILES CCCC(=O)[O-]
REMARK SMILES IDX 3 1 4 2 5 3 6 4 2 5 1 6
REMARK H PARENT
REMARK Flexibility Score: inf
ROOT
ATOM      1  C   UNL     1     -16.616  25.707  15.675  1.00  0.00     0.052 C 
ENDROOT
BRANCH   1   2
ATOM      2  C   UNL     1     -15.341  25.706  16.464  1.00  0.00     0.041 C 
ATOM      3  O   UNL     1     -15.246  26.393  17.514  1.00  0.00    -0.550 OA
ATOM      4  O   UNL     1     -14.249  24.971  16.020  1.00  0.00    -0.550 OA
ENDBRANCH   1   2
BRANCH   1   5
ATOM      5  C   UNL     1     -17.848  25.762  16.587  1.00  0.00     0.003 C 
ATOM      6  C   UNL     1     -18.903  26.746  16.082  1.00  0.00     0.004 C 
ENDBRANCH   1   5
TORSDOF 2
ENDMDL
MODEL 5
REMARK VINA RESULT:    -0.831      7.142      8.142
REMARK INTER + INTRA:          -0.944
REMARK INTER:                  -0.936
REMARK INTRA:                  -0.009
REMARK UNBOUND:                -0.017
REMARK SMILES CCCC(=O)[O-]
REMARK SMILES IDX 3 1 4 2 5 3 6 4 2 5 1 6
REMARK H PARENT
REMARK Flexibility Score: inf
ROOT
ATOM      1  C   UNL     1     -19.120  19.463  20.711  1.00  0.00     0.052 C 
ENDROOT
BRANCH   1   2
ATOM      2  C   UNL     1     -18.273  20.136  21.748  1.00  0.00     0.041 C 
ATOM      3  O   UNL     1     -18.117  21.386  21.725  1.00  0.00    -0.550 OA
ATOM      4  O   UNL     1     -17.630  19.380  22.720  1.00  0.00    -0.550 OA
ENDBRANCH   1   2
BRANCH   1   5
ATOM      5  C   UNL     1     -18.741  17.987  20.538  1.00  0.00     0.003 C 
ATOM      6  C   UNL     1     -19.029  17.474  19.128  1.00  0.00     0.004 C 
ENDBRANCH   1   5
TORSDOF 2
ENDMDL
MODEL 6
REMARK VINA RESULT:    -0.599      3.236      3.964
REMARK INTER + INTRA:          -0.686
REMARK INTER:                  -0.681
REMARK INTRA:                  -0.005
REMARK UNBOUND:                -0.017
REMARK SMILES CCCC(=O)[O-]
REMARK SMILES IDX 3 1 4 2 5 3 6 4 2 5 1 6
REMARK H PARENT
REMARK Flexibility Score: inf
ROOT
ATOM      1  C   UNL     1     -17.716  17.323  11.817  1.00  0.00     0.052 C 
ENDROOT
BRANCH   1   2
ATOM      2  C   UNL     1     -17.712  16.857  10.393  1.00  0.00     0.041 C 
ATOM      3  O   UNL     1     -18.198  17.585   9.487  1.00  0.00    -0.550 OA
ATOM      4  O   UNL     1     -17.202  15.605  10.071  1.00  0.00    -0.550 OA
ENDBRANCH   1   2
BRANCH   1   5
ATOM      5  C   UNL     1     -19.124  17.284  12.424  1.00  0.00     0.003 C 
ATOM      6  C   UNL     1     -19.098  17.169  13.948  1.00  0.00     0.004 C 
ENDBRANCH   1   5
TORSDOF 2
ENDMDL
MODEL 7
REMARK VINA RESULT:     0.522      2.508      4.153
REMARK INTER + INTRA:           0.567
REMARK INTER:                   0.578
REMARK INTRA:                  -0.011
REMARK UNBOUND:                -0.017
REMARK SMILES CCCC(=O)[O-]
REMARK SMILES IDX 3 1 4 2 5 3 6 4 2 5 1 6
REMARK H PARENT
REMARK Flexibility Score: inf
ROOT
ATOM      1  C   UNL     1     -18.851  15.993  15.882  1.00  0.00     0.052 C 
ENDROOT
BRANCH   1   2
ATOM      2  C   UNL     1     -18.934  16.961  14.742  1.00  0.00     0.041 C 
ATOM      3  O   UNL     1     -19.030  18.196  14.966  1.00  0.00    -0.550 OA
ATOM      4  O   UNL     1     -18.939  16.496  13.432  1.00  0.00    -0.550 OA
ENDBRANCH   1   2
BRANCH   1   5
ATOM      5  C   UNL     1     -19.122  16.676  17.229  1.00  0.00     0.003 C 
ATOM      6  C   UNL     1     -19.012  15.706  18.406  1.00  0.00     0.004 C 
ENDBRANCH   1   5
TORSDOF 2
ENDMDL
MODEL 8
REMARK VINA RESULT:     0.962     20.392     20.787
REMARK INTER + INTRA:           1.058
REMARK INTER:                   1.070
REMARK INTRA:                  -0.012
REMARK UNBOUND:                -0.017
REMARK SMILES CCCC(=O)[O-]
REMARK SMILES IDX 3 1 4 2 5 3 6 4 2 5 1 6
REMARK H PARENT
REMARK Flexibility Score: inf
ROOT
ATOM      1  C   UNL     1      -3.428  29.506  20.087  1.00  0.00     0.052 C 
ENDROOT
BRANCH   1   2
ATOM      2  C   UNL     1      -3.688  28.048  19.858  1.00  0.00     0.041 C 
ATOM      3  O   UNL     1      -3.615  27.567  18.697  1.00  0.00    -0.550 OA
ATOM      4  O   UNL     1      -4.044  27.229  20.923  1.00  0.00    -0.550 OA
ENDBRANCH   1   2
BRANCH   1   5
ATOM      5  C   UNL     1      -2.009  29.904  19.660  1.00  0.00     0.003 C 
ATOM      6  C   UNL     1      -1.179  30.439  20.827  1.00  0.00     0.004 C 
ENDBRANCH   1   5
TORSDOF 2
ENDMDL
