MODEL 1
REMARK VINA RESULT:    -3.788      0.000      0.000
REMARK INTER + INTRA:          -5.471
REMARK INTER:                  -5.117
REMARK INTRA:                  -0.354
REMARK UNBOUND:                -0.354
REMARK SMILES CCCCCCC=CC(=O)[O-]
REMARK SMILES IDX 5 1 6 2 7 3 8 4 9 5 10 6 11 7 4 8 3 9 2 10 1 11
REMARK H PARENT
REMARK Flexibility Score: inf
ROOT
ATOM      1  C   UNL     1      56.591  28.313  50.734  1.00  0.00     0.004 C 
ENDROOT
BRANCH   1   2
ATOM      2  C   UNL     1      57.724  29.332  50.934  1.00  0.00     0.027 C 
BRANCH   2   3
ATOM      3  C   UNL     1      58.553  29.517  49.689  1.00  0.00    -0.025 C 
ATOM      4  C   UNL     1      59.570  28.734  49.294  1.00  0.00     0.020 C 
BRANCH   4   5
ATOM      5  C   UNL     1      60.112  27.561  50.013  1.00  0.00     0.064 C 
ATOM      6  O   UNL     1      61.176  27.620  50.683  1.00  0.00    -0.545 OA
ATOM      7  O   UNL     1      59.439  26.350  49.925  1.00  0.00    -0.545 OA
ENDBRANCH   4   5
ENDBRANCH   2   3
ENDBRANCH   1   2
BRANCH   1   8
ATOM      8  C   UNL     1      55.204  28.980  50.773  1.00  0.00     0.000 C 
BRANCH   8   9
ATOM      9  C   UNL     1      54.074  28.020  50.369  1.00  0.00    -0.000 C 
BRANCH   9  10
ATOM     10  C   UNL     1      54.575  26.594  50.105  1.00  0.00    -0.003 C 
ATOM     11  C   UNL     1      53.465  25.720  49.525  1.00  0.00     0.004 C 
ENDBRANCH   9  10
ENDBRANCH   8   9
ENDBRANCH   1   8
TORSDOF 6
ENDMDL
MODEL 2
REMARK VINA RESULT:    -3.580      1.160      1.609
REMARK INTER + INTRA:          -5.190
REMARK INTER:                  -4.741
REMARK INTRA:                  -0.448
REMARK UNBOUND:                -0.354
REMARK SMILES CCCCCCC=CC(=O)[O-]
REMARK SMILES IDX 5 1 6 2 7 3 8 4 9 5 10 6 11 7 4 8 3 9 2 10 1 11
REMARK H PARENT
REMARK Flexibility Score: inf
ROOT
ATOM      1  C   UNL     1      57.026  29.027  51.890  1.00  0.00     0.004 C 
ENDROOT
BRANCH   1   2
ATOM      2  C   UNL     1      58.360  29.697  51.521  1.00  0.00     0.027 C 
BRANCH   2   3
ATOM      3  C   UNL     1      58.612  29.693  50.035  1.00  0.00    -0.025 C 
ATOM      4  C   UNL     1      59.161  28.690  49.330  1.00  0.00     0.020 C 
BRANCH   4   5
ATOM      5  C   UNL     1      59.668  27.410  49.866  1.00  0.00     0.064 C 
ATOM      6  O   UNL     1      60.895  27.197  50.042  1.00  0.00    -0.545 OA
ATOM      7  O   UNL     1      58.762  26.399  50.158  1.00  0.00    -0.545 OA
ENDBRANCH   4   5
ENDBRANCH   2   3
ENDBRANCH   1   2
BRANCH   1   8
ATOM      8  C   UNL     1      55.965  29.217  50.792  1.00  0.00     0.000 C 
BRANCH   8   9
ATOM      9  C   UNL     1      55.070  27.979  50.615  1.00  0.00    -0.000 C 
BRANCH   9  10
ATOM     10  C   UNL     1      53.603  28.342  50.348  1.00  0.00    -0.003 C 
ATOM     11  C   UNL     1      53.349  29.826  50.607  1.00  0.00     0.004 C 
ENDBRANCH   9  10
ENDBRANCH   8   9
ENDBRANCH   1   8
TORSDOF 6
ENDMDL
MODEL 3
REMARK VINA RESULT:    -3.562      1.401      2.099
REMARK INTER + INTRA:          -5.166
REMARK INTER:                  -4.779
REMARK INTRA:                  -0.387
REMARK UNBOUND:                -0.354
REMARK SMILES CCCCCCC=CC(=O)[O-]
REMARK SMILES IDX 5 1 6 2 7 3 8 4 9 5 10 6 11 7 4 8 3 9 2 10 1 11
REMARK H PARENT
REMARK Flexibility Score: inf
ROOT
ATOM      1  C   UNL     1      57.860  29.449  50.485  1.00  0.00     0.004 C 
ENDROOT
BRANCH   1   2
ATOM      2  C   UNL     1      58.955  28.986  49.511  1.00  0.00     0.027 C 
BRANCH   2   3
ATOM      3  C   UNL     1      59.397  27.570  49.776  1.00  0.00    -0.025 C 
ATOM      4  C   UNL     1      60.639  27.180  50.105  1.00  0.00     0.020 C 
BRANCH   4   5
ATOM      5  C   UNL     1      61.831  28.044  50.233  1.00  0.00     0.064 C 
ATOM      6  O   UNL     1      62.669  28.170  49.303  1.00  0.00    -0.545 OA
ATOM      7  O   UNL     1      62.046  28.718  51.428  1.00  0.00    -0.545 OA
ENDBRANCH   4   5
ENDBRANCH   2   3
ENDBRANCH   1   2
BRANCH   1   8
ATOM      8  C   UNL     1      56.793  28.363  50.710  1.00  0.00     0.000 C 
BRANCH   8   9
ATOM      9  C   UNL     1      55.375  28.943  50.837  1.00  0.00    -0.000 C 
BRANCH   9  10
ATOM     10  C   UNL     1      54.289  27.958  50.383  1.00  0.00    -0.003 C 
ATOM     11  C   UNL     1      54.878  26.575  50.118  1.00  0.00     0.004 C 
ENDBRANCH   9  10
ENDBRANCH   8   9
ENDBRANCH   1   8
TORSDOF 6
ENDMDL
MODEL 4
REMARK VINA RESULT:    -3.470      2.895      5.183
REMARK INTER + INTRA:          -5.041
REMARK INTER:                  -4.594
REMARK INTRA:                  -0.447
REMARK UNBOUND:                -0.354
REMARK SMILES CCCCCCC=CC(=O)[O-]
REMARK SMILES IDX 5 1 6 2 7 3 8 4 9 5 10 6 11 7 4 8 3 9 2 10 1 11
REMARK H PARENT
REMARK Flexibility Score: inf
ROOT
ATOM      1  C   UNL     1      57.204  29.120  51.592  1.00  0.00     0.004 C 
ENDROOT
BRANCH   1   2
ATOM      2  C   UNL     1      56.358  28.217  50.680  1.00  0.00     0.027 C 
BRANCH   2   3
ATOM      3  C   UNL     1      54.942  28.712  50.537  1.00  0.00    -0.025 C 
ATOM      4  C   UNL     1      53.844  27.945  50.432  1.00  0.00     0.020 C 
BRANCH   4   5
ATOM      5  C   UNL     1      53.800  26.468  50.392  1.00  0.00     0.064 C 
ATOM      6  O   UNL     1      53.962  25.822  49.324  1.00  0.00    -0.545 OA
ATOM      7  O   UNL     1      53.546  25.773  51.566  1.00  0.00    -0.545 OA
ENDBRANCH   4   5
ENDBRANCH   2   3
ENDBRANCH   1   2
BRANCH   1   8
ATOM      8  C   UNL     1      58.337  29.818  50.820  1.00  0.00     0.000 C 
BRANCH   8   9
ATOM      9  C   UNL     1      58.717  29.076  49.528  1.00  0.00    -0.000 C 
BRANCH   9  10
ATOM     10  C   UNL     1      59.985  28.225  49.685  1.00  0.00    -0.003 C 
ATOM     11  C   UNL     1      59.635  26.763  49.957  1.00  0.00     0.004 C 
ENDBRANCH   9  10
ENDBRANCH   8   9
ENDBRANCH   1   8
TORSDOF 6
ENDMDL
MODEL 5
REMARK VINA RESULT:    -3.327     12.006     13.721
REMARK INTER + INTRA:          -4.848
REMARK INTER:                  -4.518
REMARK INTRA:                  -0.331
REMARK UNBOUND:                -0.354
REMARK SMILES CCCCCCC=CC(=O)[O-]
REMARK SMILES IDX 5 1 6 2 7 3 8 4 9 5 10 6 11 7 4 8 3 9 2 10 1 11
REMARK H PARENT
REMARK Flexibility Score: inf
ROOT
ATOM      1  C   UNL     1      63.706  33.306  60.186  1.00  0.00     0.004 C 
ENDROOT
BRANCH   1   2
ATOM      2  C   UNL     1      63.047  31.918  60.139  1.00  0.00     0.027 C 
BRANCH   2   3
ATOM      3  C   UNL     1      63.809  30.895  60.940  1.00  0.00    -0.025 C 
ATOM      4  C   UNL     1      63.395  29.649  61.226  1.00  0.00     0.020 C 
BRANCH   4   5
ATOM      5  C   UNL     1      62.100  29.042  60.855  1.00  0.00     0.064 C 
ATOM      6  O   UNL     1      61.913  28.495  59.738  1.00  0.00    -0.545 OA
ATOM      7  O   UNL     1      61.049  29.100  61.760  1.00  0.00    -0.545 OA
ENDBRANCH   4   5
ENDBRANCH   2   3
ENDBRANCH   1   2
BRANCH   1   8
ATOM      8  C   UNL     1      62.690  34.434  59.934  1.00  0.00     0.000 C 
BRANCH   8   9
ATOM      9  C   UNL     1      62.459  35.310  61.177  1.00  0.00    -0.000 C 
BRANCH   9  10
ATOM     10  C   UNL     1      63.666  35.324  62.124  1.00  0.00    -0.003 C 
ATOM     11  C   UNL     1      63.503  36.388  63.207  1.00  0.00     0.004 C 
ENDBRANCH   9  10
ENDBRANCH   8   9
ENDBRANCH   1   8
TORSDOF 6
ENDMDL
MODEL 6
REMARK VINA RESULT:    -3.283      1.839      2.760
REMARK INTER + INTRA:          -4.789
REMARK INTER:                  -4.281
REMARK INTRA:                  -0.508
REMARK UNBOUND:                -0.354
REMARK SMILES CCCCCCC=CC(=O)[O-]
REMARK SMILES IDX 5 1 6 2 7 3 8 4 9 5 10 6 11 7 4 8 3 9 2 10 1 11
REMARK H PARENT
REMARK Flexibility Score: inf
ROOT
ATOM      1  C   UNL     1      56.757  26.379  51.696  1.00  0.00     0.004 C 
ENDROOT
BRANCH   1   2
ATOM      2  C   UNL     1      58.169  26.986  51.706  1.00  0.00     0.027 C 
BRANCH   2   3
ATOM      3  C   UNL     1      58.902  26.755  50.410  1.00  0.00    -0.025 C 
ATOM      4  C   UNL     1      59.461  27.703  49.640  1.00  0.00     0.020 C 
BRANCH   4   5
ATOM      5  C   UNL     1      59.439  29.161  49.879  1.00  0.00     0.064 C 
ATOM      6  O   UNL     1      58.486  29.888  49.496  1.00  0.00    -0.545 OA
ATOM      7  O   UNL     1      60.517  29.751  50.526  1.00  0.00    -0.545 OA
ENDBRANCH   4   5
ENDBRANCH   2   3
ENDBRANCH   1   2
BRANCH   1   8
ATOM      8  C   UNL     1      56.041  26.612  50.354  1.00  0.00     0.000 C 
BRANCH   8   9
ATOM      9  C   UNL     1      54.828  27.549  50.485  1.00  0.00    -0.000 C 
BRANCH   9  10
ATOM     10  C   UNL     1      55.231  29.002  50.768  1.00  0.00    -0.003 C 
ATOM     11  C   UNL     1      54.015  29.925  50.738  1.00  0.00     0.004 C 
ENDBRANCH   9  10
ENDBRANCH   8   9
ENDBRANCH   1   8
TORSDOF 6
ENDMDL
MODEL 7
REMARK VINA RESULT:    -3.205      1.773      2.865
REMARK INTER + INTRA:          -4.684
REMARK INTER:                  -4.207
REMARK INTRA:                  -0.477
REMARK UNBOUND:                -0.354
REMARK SMILES CCCCCCC=CC(=O)[O-]
REMARK SMILES IDX 5 1 6 2 7 3 8 4 9 5 10 6 11 7 4 8 3 9 2 10 1 11
REMARK H PARENT
REMARK Flexibility Score: inf
ROOT
ATOM      1  C   UNL     1      58.836  29.296  49.756  1.00  0.00     0.004 C 
ENDROOT
BRANCH   1   2
ATOM      2  C   UNL     1      59.398  27.882  49.545  1.00  0.00     0.027 C 
BRANCH   2   3
ATOM      3  C   UNL     1      60.556  27.582  50.461  1.00  0.00    -0.025 C 
ATOM      4  C   UNL     1      60.773  26.424  51.107  1.00  0.00     0.020 C 
BRANCH   4   5
ATOM      5  C   UNL     1      59.906  25.228  51.088  1.00  0.00     0.064 C 
ATOM      6  O   UNL     1      58.839  25.163  51.752  1.00  0.00    -0.545 OA
ATOM      7  O   UNL     1      60.295  24.130  50.332  1.00  0.00    -0.545 OA
ENDBRANCH   4   5
ENDBRANCH   2   3
ENDBRANCH   1   2
BRANCH   1   8
ATOM      8  C   UNL     1      57.517  29.279  50.549  1.00  0.00     0.000 C 
BRANCH   8   9
ATOM      9  C   UNL     1      56.880  27.881  50.606  1.00  0.00    -0.000 C 
BRANCH   9  10
ATOM     10  C   UNL     1      55.356  27.931  50.778  1.00  0.00    -0.003 C 
ATOM     11  C   UNL     1      54.844  29.369  50.725  1.00  0.00     0.004 C 
ENDBRANCH   9  10
ENDBRANCH   8   9
ENDBRANCH   1   8
TORSDOF 6
ENDMDL
MODEL 8
REMARK VINA RESULT:    -3.149      3.255      5.150
REMARK INTER + INTRA:          -4.608
REMARK INTER:                  -3.968
REMARK INTRA:                  -0.640
REMARK UNBOUND:                -0.354
REMARK SMILES CCCCCCC=CC(=O)[O-]
REMARK SMILES IDX 5 1 6 2 7 3 8 4 9 5 10 6 11 7 4 8 3 9 2 10 1 11
REMARK H PARENT
REMARK Flexibility Score: inf
ROOT
ATOM      1  C   UNL     1      55.611  29.632  51.908  1.00  0.00     0.004 C 
ENDROOT
BRANCH   1   2
ATOM      2  C   UNL     1      55.095  28.780  50.738  1.00  0.00     0.027 C 
BRANCH   2   3
ATOM      3  C   UNL     1      55.936  27.551  50.508  1.00  0.00    -0.025 C 
ATOM      4  C   UNL     1      55.475  26.305  50.308  1.00  0.00     0.020 C 
BRANCH   4   5
ATOM      5  C   UNL     1      54.061  25.876  50.313  1.00  0.00     0.064 C 
ATOM      6  O   UNL     1      53.467  25.543  51.371  1.00  0.00    -0.545 OA
ATOM      7  O   UNL     1      53.375  25.813  49.107  1.00  0.00    -0.545 OA
ENDBRANCH   4   5
ENDBRANCH   2   3
ENDBRANCH   1   2
BRANCH   1   8
ATOM      8  C   UNL     1      57.019  29.201  52.356  1.00  0.00     0.000 C 
BRANCH   8   9
ATOM      9  C   UNL     1      58.104  30.212  51.951  1.00  0.00    -0.000 C 
BRANCH   9  10
ATOM     10  C   UNL     1      59.151  29.609  51.004  1.00  0.00    -0.003 C 
ATOM     11  C   UNL     1      58.708  29.728  49.548  1.00  0.00     0.004 C 
ENDBRANCH   9  10
ENDBRANCH   8   9
ENDBRANCH   1   8
TORSDOF 6
ENDMDL
MODEL 9
REMARK VINA RESULT:    -3.147      2.892      4.947
REMARK INTER + INTRA:          -4.605
REMARK INTER:                  -3.744
REMARK INTRA:                  -0.861
REMARK UNBOUND:                -0.354
REMARK SMILES CCCCCCC=CC(=O)[O-]
REMARK SMILES IDX 5 1 6 2 7 3 8 4 9 5 10 6 11 7 4 8 3 9 2 10 1 11
REMARK H PARENT
REMARK Flexibility Score: inf
ROOT
ATOM      1  C   UNL     1      57.506  26.469  51.531  1.00  0.00     0.004 C 
ENDROOT
BRANCH   1   2
ATOM      2  C   UNL     1      55.974  26.409  51.420  1.00  0.00     0.027 C 
BRANCH   2   3
ATOM      3  C   UNL     1      55.426  27.457  50.486  1.00  0.00    -0.025 C 
ATOM      4  C   UNL     1      55.201  28.746  50.791  1.00  0.00     0.020 C 
BRANCH   4   5
ATOM      5  C   UNL     1      55.402  29.390  52.106  1.00  0.00     0.064 C 
ATOM      6  O   UNL     1      56.407  30.105  52.354  1.00  0.00    -0.545 OA
ATOM      7  O   UNL     1      54.464  29.178  53.107  1.00  0.00    -0.545 OA
ENDBRANCH   4   5
ENDBRANCH   2   3
ENDBRANCH   1   2
BRANCH   1   8
ATOM      8  C   UNL     1      58.189  26.310  50.162  1.00  0.00     0.000 C 
BRANCH   8   9
ATOM      9  C   UNL     1      59.347  27.300  49.960  1.00  0.00    -0.000 C 
BRANCH   9  10
ATOM     10  C   UNL     1      59.050  28.687  50.548  1.00  0.00    -0.003 C 
ATOM     11  C   UNL     1      58.647  29.673  49.454  1.00  0.00     0.004 C 
ENDBRANCH   9  10
ENDBRANCH   8   9
ENDBRANCH   1   8
TORSDOF 6
ENDMDL
