MODEL 1
REMARK VINA RESULT:    -4.442      0.000      0.000
REMARK INTER + INTRA:          -6.171
REMARK INTER:                  -5.999
REMARK INTRA:                  -0.172
REMARK UNBOUND:                -0.172
REMARK SMILES CCCCCCCC(=O)[O-]
REMARK SMILES IDX 5 1 6 2 7 3 8 4 9 5 10 6 4 7 3 8 2 9 1 10
REMARK H PARENT
REMARK Flexibility Score: inf
ROOT
ATOM      1  C   UNL     1       5.292  42.603  44.502  1.00  0.00     0.000 C 
ENDROOT
BRANCH   1   2
ATOM      2  C   UNL     1       5.908  42.152  45.836  1.00  0.00     0.006 C 
BRANCH   2   3
ATOM      3  C   UNL     1       4.886  42.132  46.981  1.00  0.00     0.053 C 
BRANCH   3   4
ATOM      4  C   UNL     1       5.528  41.656  48.245  1.00  0.00     0.041 C 
ATOM      5  O   UNL     1       6.059  40.514  48.296  1.00  0.00    -0.550 OA
ATOM      6  O   UNL     1       5.498  42.452  49.383  1.00  0.00    -0.550 OA
ENDBRANCH   3   4
ENDBRANCH   2   3
ENDBRANCH   1   2
BRANCH   1   7
ATOM      7  C   UNL     1       6.354  42.978  43.457  1.00  0.00     0.000 C 
BRANCH   7   8
ATOM      8  C   UNL     1       6.946  44.364  43.751  1.00  0.00    -0.000 C 
BRANCH   8   9
ATOM      9  C   UNL     1       7.351  45.118  42.475  1.00  0.00    -0.003 C 
ATOM     10  C   UNL     1       7.771  44.179  41.343  1.00  0.00     0.004 C 
ENDBRANCH   8   9
ENDBRANCH   7   8
ENDBRANCH   1   7
TORSDOF 6
ENDMDL
MODEL 2
REMARK VINA RESULT:    -4.441      3.732      5.969
REMARK INTER + INTRA:          -6.170
REMARK INTER:                  -5.954
REMARK INTRA:                  -0.216
REMARK UNBOUND:                -0.172
REMARK SMILES CCCCCCCC(=O)[O-]
REMARK SMILES IDX 5 1 6 2 7 3 8 4 9 5 10 6 4 7 3 8 2 9 1 10
REMARK H PARENT
REMARK Flexibility Score: inf
ROOT
ATOM      1  C   UNL     1       5.754  42.542  44.943  1.00  0.00     0.000 C 
ENDROOT
BRANCH   1   2
ATOM      2  C   UNL     1       6.372  42.991  43.610  1.00  0.00     0.006 C 
BRANCH   2   3
ATOM      3  C   UNL     1       6.942  44.414  43.673  1.00  0.00     0.053 C 
BRANCH   3   4
ATOM      4  C   UNL     1       7.350  44.874  42.309  1.00  0.00     0.041 C 
ATOM      5  O   UNL     1       7.400  46.104  42.044  1.00  0.00    -0.550 OA
ATOM      6  O   UNL     1       7.626  43.943  41.316  1.00  0.00    -0.550 OA
ENDBRANCH   3   4
ENDBRANCH   2   3
ENDBRANCH   1   2
BRANCH   1   7
ATOM      7  C   UNL     1       6.367  41.236  45.471  1.00  0.00     0.000 C 
BRANCH   7   8
ATOM      8  C   UNL     1       6.125  41.089  46.981  1.00  0.00    -0.000 C 
BRANCH   8   9
ATOM      9  C   UNL     1       5.152  42.144  47.530  1.00  0.00    -0.003 C 
ATOM     10  C   UNL     1       5.306  42.362  49.036  1.00  0.00     0.004 C 
ENDBRANCH   8   9
ENDBRANCH   7   8
ENDBRANCH   1   7
TORSDOF 6
ENDMDL
MODEL 3
REMARK VINA RESULT:    -4.393     10.204     11.539
REMARK INTER + INTRA:          -6.105
REMARK INTER:                  -5.569
REMARK INTRA:                  -0.537
REMARK UNBOUND:                -0.172
REMARK SMILES CCCCCCCC(=O)[O-]
REMARK SMILES IDX 5 1 6 2 7 3 8 4 9 5 10 6 4 7 3 8 2 9 1 10
REMARK H PARENT
REMARK Flexibility Score: inf
ROOT
ATOM      1  C   UNL     1      10.132  34.687  43.288  1.00  0.00     0.000 C 
ENDROOT
BRANCH   1   2
ATOM      2  C   UNL     1      10.641  33.464  42.511  1.00  0.00     0.006 C 
BRANCH   2   3
ATOM      3  C   UNL     1      10.106  33.412  41.073  1.00  0.00     0.053 C 
BRANCH   3   4
ATOM      4  C   UNL     1       8.757  32.767  41.041  1.00  0.00     0.041 C 
ATOM      5  O   UNL     1       7.716  33.475  41.028  1.00  0.00    -0.550 OA
ATOM      6  O   UNL     1       8.648  31.383  41.076  1.00  0.00    -0.550 OA
ENDBRANCH   3   4
ENDBRANCH   2   3
ENDBRANCH   1   2
BRANCH   1   7
ATOM      7  C   UNL     1       9.717  34.345  44.727  1.00  0.00     0.000 C 
BRANCH   7   8
ATOM      8  C   UNL     1       9.383  32.851  44.859  1.00  0.00    -0.000 C 
BRANCH   8   9
ATOM      9  C   UNL     1       7.948  32.608  45.352  1.00  0.00    -0.003 C 
ATOM     10  C   UNL     1       7.038  32.038  44.262  1.00  0.00     0.004 C 
ENDBRANCH   8   9
ENDBRANCH   7   8
ENDBRANCH   1   7
TORSDOF 6
ENDMDL
MODEL 4
REMARK VINA RESULT:    -4.341      3.197      5.613
REMARK INTER + INTRA:          -6.036
REMARK INTER:                  -5.794
REMARK INTRA:                  -0.242
REMARK UNBOUND:                -0.172
REMARK SMILES CCCCCCCC(=O)[O-]
REMARK SMILES IDX 5 1 6 2 7 3 8 4 9 5 10 6 4 7 3 8 2 9 1 10
REMARK H PARENT
REMARK Flexibility Score: inf
ROOT
ATOM      1  C   UNL     1       5.802  41.775  46.232  1.00  0.00     0.000 C 
ENDROOT
BRANCH   1   2
ATOM      2  C   UNL     1       5.286  42.795  45.205  1.00  0.00     0.006 C 
BRANCH   2   3
ATOM      3  C   UNL     1       5.725  42.466  43.772  1.00  0.00     0.053 C 
BRANCH   3   4
ATOM      4  C   UNL     1       6.720  43.472  43.287  1.00  0.00     0.041 C 
ATOM      5  O   UNL     1       6.933  44.522  43.949  1.00  0.00    -0.550 OA
ATOM      6  O   UNL     1       7.375  43.275  42.079  1.00  0.00    -0.550 OA
ENDBRANCH   3   4
ENDBRANCH   2   3
ENDBRANCH   1   2
BRANCH   1   7
ATOM      7  C   UNL     1       5.288  42.052  47.653  1.00  0.00     0.000 C 
BRANCH   7   8
ATOM      8  C   UNL     1       6.142  41.318  48.697  1.00  0.00    -0.000 C 
BRANCH   8   9
ATOM      9  C   UNL     1       7.276  40.497  48.063  1.00  0.00    -0.003 C 
ATOM     10  C   UNL     1       8.588  40.603  48.839  1.00  0.00     0.004 C 
ENDBRANCH   8   9
ENDBRANCH   7   8
ENDBRANCH   1   7
TORSDOF 6
ENDMDL
MODEL 5
REMARK VINA RESULT:    -4.218      9.771     10.493
REMARK INTER + INTRA:          -5.870
REMARK INTER:                  -5.355
REMARK INTRA:                  -0.515
REMARK UNBOUND:                -0.172
REMARK SMILES CCCCCCCC(=O)[O-]
REMARK SMILES IDX 5 1 6 2 7 3 8 4 9 5 10 6 4 7 3 8 2 9 1 10
REMARK H PARENT
REMARK Flexibility Score: inf
ROOT
ATOM      1  C   UNL     1      10.243  34.523  43.803  1.00  0.00     0.000 C 
ENDROOT
BRANCH   1   2
ATOM      2  C   UNL     1       9.478  33.982  45.020  1.00  0.00     0.006 C 
BRANCH   2   3
ATOM      3  C   UNL     1       9.033  32.525  44.839  1.00  0.00     0.053 C 
BRANCH   3   4
ATOM      4  C   UNL     1       7.603  32.360  45.249  1.00  0.00     0.041 C 
ATOM      5  O   UNL     1       6.723  32.100  44.387  1.00  0.00    -0.550 OA
ATOM      6  O   UNL     1       7.235  32.544  46.575  1.00  0.00    -0.550 OA
ENDBRANCH   3   4
ENDBRANCH   2   3
ENDBRANCH   1   2
BRANCH   1   7
ATOM      7  C   UNL     1      10.761  33.406  42.884  1.00  0.00     0.000 C 
BRANCH   7   8
ATOM      8  C   UNL     1      10.319  33.641  41.432  1.00  0.00    -0.000 C 
BRANCH   8   9
ATOM      9  C   UNL     1       9.190  32.694  40.996  1.00  0.00    -0.003 C 
ATOM     10  C   UNL     1       7.803  33.314  41.162  1.00  0.00     0.004 C 
ENDBRANCH   8   9
ENDBRANCH   7   8
ENDBRANCH   1   7
TORSDOF 6
ENDMDL
MODEL 6
REMARK VINA RESULT:    -4.158      1.618      2.363
REMARK INTER + INTRA:          -5.789
REMARK INTER:                  -5.663
REMARK INTRA:                  -0.126
REMARK UNBOUND:                -0.172
REMARK SMILES CCCCCCCC(=O)[O-]
REMARK SMILES IDX 5 1 6 2 7 3 8 4 9 5 10 6 4 7 3 8 2 9 1 10
REMARK H PARENT
REMARK Flexibility Score: inf
ROOT
ATOM      1  C   UNL     1       6.728  43.947  43.827  1.00  0.00     0.000 C 
ENDROOT
BRANCH   1   2
ATOM      2  C   UNL     1       5.844  42.702  43.997  1.00  0.00     0.006 C 
BRANCH   2   3
ATOM      3  C   UNL     1       5.385  42.496  45.447  1.00  0.00     0.053 C 
BRANCH   3   4
ATOM      4  C   UNL     1       6.092  41.328  46.057  1.00  0.00     0.041 C 
ATOM      5  O   UNL     1       6.425  40.344  45.344  1.00  0.00    -0.550 OA
ATOM      6  O   UNL     1       6.340  41.302  47.424  1.00  0.00    -0.550 OA
ENDBRANCH   3   4
ENDBRANCH   2   3
ENDBRANCH   1   2
BRANCH   1   7
ATOM      7  C   UNL     1       7.139  44.187  42.367  1.00  0.00     0.000 C 
BRANCH   7   8
ATOM      8  C   UNL     1       7.902  45.513  42.223  1.00  0.00    -0.000 C 
BRANCH   8   9
ATOM      9  C   UNL     1       7.394  46.364  41.049  1.00  0.00    -0.003 C 
ATOM     10  C   UNL     1       7.359  47.857  41.374  1.00  0.00     0.004 C 
ENDBRANCH   8   9
ENDBRANCH   7   8
ENDBRANCH   1   7
TORSDOF 6
ENDMDL
MODEL 7
REMARK VINA RESULT:    -4.157      4.644      6.713
REMARK INTER + INTRA:          -5.787
REMARK INTER:                  -5.657
REMARK INTRA:                  -0.131
REMARK UNBOUND:                -0.172
REMARK SMILES CCCCCCCC(=O)[O-]
REMARK SMILES IDX 5 1 6 2 7 3 8 4 9 5 10 6 4 7 3 8 2 9 1 10
REMARK H PARENT
REMARK Flexibility Score: inf
ROOT
ATOM      1  C   UNL     1       7.107  44.410  43.363  1.00  0.00     0.000 C 
ENDROOT
BRANCH   1   2
ATOM      2  C   UNL     1       7.448  44.731  41.900  1.00  0.00     0.006 C 
BRANCH   2   3
ATOM      3  C   UNL     1       8.397  45.929  41.763  1.00  0.00     0.053 C 
BRANCH   3   4
ATOM      4  C   UNL     1       7.689  47.088  41.137  1.00  0.00     0.041 C 
ATOM      5  O   UNL     1       7.896  47.380  39.930  1.00  0.00    -0.550 OA
ATOM      6  O   UNL     1       6.837  47.876  41.900  1.00  0.00    -0.550 OA
ENDBRANCH   3   4
ENDBRANCH   2   3
ENDBRANCH   1   2
BRANCH   1   7
ATOM      7  C   UNL     1       6.666  42.952  43.563  1.00  0.00     0.000 C 
BRANCH   7   8
ATOM      8  C   UNL     1       5.535  42.859  44.598  1.00  0.00    -0.000 C 
BRANCH   8   9
ATOM      9  C   UNL     1       5.860  41.890  45.745  1.00  0.00    -0.003 C 
ATOM     10  C   UNL     1       5.046  42.175  47.007  1.00  0.00     0.004 C 
ENDBRANCH   8   9
ENDBRANCH   7   8
ENDBRANCH   1   7
TORSDOF 6
ENDMDL
MODEL 8
REMARK VINA RESULT:    -4.097      2.428      4.031
REMARK INTER + INTRA:          -5.706
REMARK INTER:                  -5.449
REMARK INTRA:                  -0.257
REMARK UNBOUND:                -0.172
REMARK SMILES CCCCCCCC(=O)[O-]
REMARK SMILES IDX 5 1 6 2 7 3 8 4 9 5 10 6 4 7 3 8 2 9 1 10
REMARK H PARENT
REMARK Flexibility Score: inf
ROOT
ATOM      1  C   UNL     1       6.374  41.048  47.515  1.00  0.00     0.000 C 
ENDROOT
BRANCH   1   2
ATOM      2  C   UNL     1       7.155  40.954  48.835  1.00  0.00     0.006 C 
BRANCH   2   3
ATOM      3  C   UNL     1       8.581  40.420  48.641  1.00  0.00     0.053 C 
BRANCH   3   4
ATOM      4  C   UNL     1       8.552  39.085  47.967  1.00  0.00     0.041 C 
ATOM      5  O   UNL     1       9.190  38.901  46.898  1.00  0.00    -0.550 OA
ATOM      6  O   UNL     1       7.780  38.058  48.493  1.00  0.00    -0.550 OA
ENDBRANCH   3   4
ENDBRANCH   2   3
ENDBRANCH   1   2
BRANCH   1   7
ATOM      7  C   UNL     1       5.251  42.096  47.564  1.00  0.00     0.000 C 
BRANCH   7   8
ATOM      8  C   UNL     1       4.753  42.430  46.150  1.00  0.00    -0.000 C 
BRANCH   8   9
ATOM      9  C   UNL     1       5.783  42.089  45.063  1.00  0.00    -0.003 C 
ATOM     10  C   UNL     1       6.109  43.282  44.163  1.00  0.00     0.004 C 
ENDBRANCH   8   9
ENDBRANCH   7   8
ENDBRANCH   1   7
TORSDOF 6
ENDMDL
MODEL 9
REMARK VINA RESULT:    -4.077     10.978     11.637
REMARK INTER + INTRA:          -5.679
REMARK INTER:                  -5.288
REMARK INTRA:                  -0.391
REMARK UNBOUND:                -0.172
REMARK SMILES CCCCCCCC(=O)[O-]
REMARK SMILES IDX 5 1 6 2 7 3 8 4 9 5 10 6 4 7 3 8 2 9 1 10
REMARK H PARENT
REMARK Flexibility Score: inf
ROOT
ATOM      1  C   UNL     1       8.117  31.932  42.331  1.00  0.00     0.000 C 
ENDROOT
BRANCH   1   2
ATOM      2  C   UNL     1       7.376  32.231  43.644  1.00  0.00     0.006 C 
BRANCH   2   3
ATOM      3  C   UNL     1       7.640  31.176  44.726  1.00  0.00     0.053 C 
BRANCH   3   4
ATOM      4  C   UNL     1       6.913  29.908  44.406  1.00  0.00     0.041 C 
ATOM      5  O   UNL     1       7.555  28.873  44.084  1.00  0.00    -0.550 OA
ATOM      6  O   UNL     1       5.524  29.882  44.416  1.00  0.00    -0.550 OA
ENDBRANCH   3   4
ENDBRANCH   2   3
ENDBRANCH   1   2
BRANCH   1   7
ATOM      7  C   UNL     1       8.365  33.193  41.489  1.00  0.00     0.000 C 
BRANCH   7   8
ATOM      8  C   UNL     1       9.845  33.305  41.094  1.00  0.00    -0.000 C 
BRANCH   8   9
ATOM      9  C   UNL     1      10.784  33.308  42.310  1.00  0.00    -0.003 C 
ATOM     10  C   UNL     1      10.642  34.569  43.163  1.00  0.00     0.004 C 
ENDBRANCH   8   9
ENDBRANCH   7   8
ENDBRANCH   1   7
TORSDOF 6
ENDMDL
