MODEL 1
REMARK VINA RESULT:    -6.816      0.000      0.000
REMARK INTER + INTRA:         -13.210
REMARK INTER:                 -12.395
REMARK INTRA:                  -0.815
REMARK UNBOUND:                -0.815
REMARK SMILES CCCCCCCCCCCCCC[C@H](C)C(=O)[O-]
REMARK SMILES IDX 9 1 10 2 11 3 12 4 13 5 14 6 15 7 16 8 17 9 18 10 19 11 8 12
REMARK SMILES IDX 7 13 6 14 5 15 4 16 3 17 2 18 1 19
REMARK H PARENT
REMARK Flexibility Score: inf
ROOT
ATOM      1  C   UNL     1      31.682  -9.255  20.437  1.00  0.00     0.000 C 
ENDROOT
BRANCH   1   2
ATOM      2  C   UNL     1      33.206  -9.045  20.359  1.00  0.00     0.000 C 
BRANCH   2   3
ATOM      3  C   UNL     1      33.879  -9.020  21.741  1.00  0.00     0.000 C 
BRANCH   3   4
ATOM      4  C   UNL     1      35.095  -8.077  21.800  1.00  0.00     0.000 C 
BRANCH   4   5
ATOM      5  C   UNL     1      36.461  -8.769  21.983  1.00  0.00     0.001 C 
BRANCH   5   6
ATOM      6  C   UNL     1      36.575 -10.191  21.396  1.00  0.00     0.009 C 
BRANCH   6   7
ATOM      7  C   UNL     1      37.521 -11.126  22.191  1.00  0.00     0.032 C 
ATOM      8  C   UNL     1      38.233 -10.355  23.308  1.00  0.00     0.014 C 
BRANCH   7   9
ATOM      9  C   UNL     1      38.553 -11.765  21.301  1.00  0.00     0.044 C 
ATOM     10  O   UNL     1      38.960 -12.933  21.541  1.00  0.00    -0.550 OA
ATOM     11  O   UNL     1      39.099 -11.057  20.235  1.00  0.00    -0.550 OA
ENDBRANCH   7   9
ENDBRANCH   6   7
ENDBRANCH   5   6
ENDBRANCH   4   5
ENDBRANCH   3   4
ENDBRANCH   2   3
ENDBRANCH   1   2
BRANCH   1  12
ATOM     12  C   UNL     1      31.063  -9.104  21.843  1.00  0.00     0.000 C 
BRANCH  12  13
ATOM     13  C   UNL     1      29.598  -8.631  21.866  1.00  0.00    -0.000 C 
BRANCH  13  14
ATOM     14  C   UNL     1      28.643  -9.449  20.976  1.00  0.00    -0.000 C 
BRANCH  14  15
ATOM     15  C   UNL     1      28.270 -10.824  21.571  1.00  0.00    -0.000 C 
BRANCH  15  16
ATOM     16  C   UNL     1      28.013 -11.882  20.485  1.00  0.00    -0.000 C 
BRANCH  16  17
ATOM     17  C   UNL     1      26.635 -11.733  19.815  1.00  0.00    -0.000 C 
BRANCH  17  18
ATOM     18  C   UNL     1      26.491 -12.451  18.461  1.00  0.00    -0.003 C 
ATOM     19  C   UNL     1      27.111 -13.848  18.457  1.00  0.00     0.004 C 
ENDBRANCH  17  18
ENDBRANCH  16  17
ENDBRANCH  15  16
ENDBRANCH  14  15
ENDBRANCH  13  14
ENDBRANCH  12  13
ENDBRANCH   1  12
TORSDOF 14
ENDMDL
MODEL 2
REMARK VINA RESULT:    -6.730      1.404      2.026
REMARK INTER + INTRA:         -13.052
REMARK INTER:                 -12.626
REMARK INTRA:                  -0.427
REMARK UNBOUND:                -0.815
REMARK SMILES CCCCCCCCCCCCCC[C@H](C)C(=O)[O-]
REMARK SMILES IDX 9 1 10 2 11 3 12 4 13 5 14 6 15 7 16 8 17 9 18 10 19 11 8 12
REMARK SMILES IDX 7 13 6 14 5 15 4 16 3 17 2 18 1 19
REMARK H PARENT
REMARK Flexibility Score: inf
ROOT
ATOM      1  C   UNL     1      33.138  -8.875  21.843  1.00  0.00     0.000 C 
ENDROOT
BRANCH   1   2
ATOM      2  C   UNL     1      34.399  -8.622  20.994  1.00  0.00     0.000 C 
BRANCH   2   3
ATOM      3  C   UNL     1      35.231  -9.894  20.766  1.00  0.00     0.000 C 
BRANCH   3   4
ATOM      4  C   UNL     1      36.578  -9.871  21.513  1.00  0.00     0.000 C 
BRANCH   4   5
ATOM      5  C   UNL     1      37.516 -11.061  21.225  1.00  0.00     0.001 C 
BRANCH   5   6
ATOM      6  C   UNL     1      38.976 -10.695  20.889  1.00  0.00     0.009 C 
BRANCH   6   7
ATOM      7  C   UNL     1      39.973 -11.871  21.053  1.00  0.00     0.032 C 
ATOM      8  C   UNL     1      39.223 -13.191  21.264  1.00  0.00     0.014 C 
BRANCH   7   9
ATOM      9  C   UNL     1      40.913 -11.650  22.207  1.00  0.00     0.044 C 
ATOM     10  O   UNL     1      41.465 -12.632  22.770  1.00  0.00    -0.550 OA
ATOM     11  O   UNL     1      41.144 -10.367  22.690  1.00  0.00    -0.550 OA
ENDBRANCH   7   9
ENDBRANCH   6   7
ENDBRANCH   5   6
ENDBRANCH   4   5
ENDBRANCH   3   4
ENDBRANCH   2   3
ENDBRANCH   1   2
BRANCH   1  12
ATOM     12  C   UNL     1      31.817  -8.978  21.052  1.00  0.00     0.000 C 
BRANCH  12  13
ATOM     13  C   UNL     1      30.585  -9.380  21.884  1.00  0.00    -0.000 C 
BRANCH  13  14
ATOM     14  C   UNL     1      29.285  -9.542  21.074  1.00  0.00    -0.000 C 
BRANCH  14  15
ATOM     15  C   UNL     1      28.366 -10.667  21.599  1.00  0.00    -0.000 C 
BRANCH  15  16
ATOM     16  C   UNL     1      28.060 -11.723  20.524  1.00  0.00    -0.000 C 
BRANCH  16  17
ATOM     17  C   UNL     1      26.700 -11.502  19.836  1.00  0.00    -0.000 C 
BRANCH  17  18
ATOM     18  C   UNL     1      26.423 -12.424  18.636  1.00  0.00    -0.003 C 
ATOM     19  C   UNL     1      27.369 -13.623  18.573  1.00  0.00     0.004 C 
ENDBRANCH  17  18
ENDBRANCH  16  17
ENDBRANCH  15  16
ENDBRANCH  14  15
ENDBRANCH  13  14
ENDBRANCH  12  13
ENDBRANCH   1  12
TORSDOF 14
ENDMDL
MODEL 3
REMARK VINA RESULT:    -6.708      3.561      4.441
REMARK INTER + INTRA:         -13.012
REMARK INTER:                 -11.642
REMARK INTRA:                  -1.371
REMARK UNBOUND:                -0.815
REMARK SMILES CCCCCCCCCCCCCC[C@H](C)C(=O)[O-]
REMARK SMILES IDX 9 1 10 2 11 3 12 4 13 5 14 6 15 7 16 8 17 9 18 10 19 11 8 12
REMARK SMILES IDX 7 13 6 14 5 15 4 16 3 17 2 18 1 19
REMARK H PARENT
REMARK Flexibility Score: inf
ROOT
ATOM      1  C   UNL     1      31.810  -9.106  21.745  1.00  0.00     0.000 C 
ENDROOT
BRANCH   1   2
ATOM      2  C   UNL     1      32.239  -9.232  20.271  1.00  0.00     0.000 C 
BRANCH   2   3
ATOM      3  C   UNL     1      33.762  -9.353  20.099  1.00  0.00     0.000 C 
BRANCH   3   4
ATOM      4  C   UNL     1      34.524  -9.284  21.436  1.00  0.00     0.000 C 
BRANCH   4   5
ATOM      5  C   UNL     1      35.242  -7.950  21.722  1.00  0.00     0.001 C 
BRANCH   5   6
ATOM      6  C   UNL     1      34.833  -7.236  23.027  1.00  0.00     0.009 C 
BRANCH   6   7
ATOM      7  C   UNL     1      33.824  -6.078  22.822  1.00  0.00     0.032 C 
ATOM      8  C   UNL     1      33.771  -5.660  21.348  1.00  0.00     0.014 C 
BRANCH   7   9
ATOM      9  C   UNL     1      34.173  -4.878  23.661  1.00  0.00     0.044 C 
ATOM     10  O   UNL     1      34.854  -3.939  23.170  1.00  0.00    -0.550 OA
ATOM     11  O   UNL     1      33.786  -4.816  24.995  1.00  0.00    -0.550 OA
ENDBRANCH   7   9
ENDBRANCH   6   7
ENDBRANCH   5   6
ENDBRANCH   4   5
ENDBRANCH   3   4
ENDBRANCH   2   3
ENDBRANCH   1   2
BRANCH   1  12
ATOM     12  C   UNL     1      30.346  -8.677  21.975  1.00  0.00     0.000 C 
BRANCH  12  13
ATOM     13  C   UNL     1      29.433  -8.773  20.739  1.00  0.00    -0.000 C 
BRANCH  13  14
ATOM     14  C   UNL     1      28.058  -9.416  21.002  1.00  0.00    -0.000 C 
BRANCH  14  15
ATOM     15  C   UNL     1      28.143 -10.879  21.489  1.00  0.00    -0.000 C 
BRANCH  15  16
ATOM     16  C   UNL     1      27.905 -11.890  20.355  1.00  0.00    -0.000 C 
BRANCH  16  17
ATOM     17  C   UNL     1      26.608 -11.616  19.571  1.00  0.00    -0.000 C 
BRANCH  17  18
ATOM     18  C   UNL     1      26.164 -12.754  18.634  1.00  0.00    -0.003 C 
ATOM     19  C   UNL     1      27.322 -13.644  18.185  1.00  0.00     0.004 C 
ENDBRANCH  17  18
ENDBRANCH  16  17
ENDBRANCH  15  16
ENDBRANCH  14  15
ENDBRANCH  13  14
ENDBRANCH  12  13
ENDBRANCH   1  12
TORSDOF 14
ENDMDL
MODEL 4
REMARK VINA RESULT:    -6.658      1.394      1.957
REMARK INTER + INTRA:         -12.922
REMARK INTER:                 -12.402
REMARK INTRA:                  -0.520
REMARK UNBOUND:                -0.815
REMARK SMILES CCCCCCCCCCCCCC[C@H](C)C(=O)[O-]
REMARK SMILES IDX 9 1 10 2 11 3 12 4 13 5 14 6 15 7 16 8 17 9 18 10 19 11 8 12
REMARK SMILES IDX 7 13 6 14 5 15 4 16 3 17 2 18 1 19
REMARK H PARENT
REMARK Flexibility Score: inf
ROOT
ATOM      1  C   UNL     1      32.320  -7.696  21.786  1.00  0.00     0.000 C 
ENDROOT
BRANCH   1   2
ATOM      2  C   UNL     1      33.704  -7.571  21.121  1.00  0.00     0.000 C 
BRANCH   2   3
ATOM      3  C   UNL     1      34.238  -8.913  20.594  1.00  0.00     0.000 C 
BRANCH   3   4
ATOM      4  C   UNL     1      35.328  -9.520  21.496  1.00  0.00     0.000 C 
BRANCH   4   5
ATOM      5  C   UNL     1      36.395 -10.364  20.769  1.00  0.00     0.001 C 
BRANCH   5   6
ATOM      6  C   UNL     1      37.304 -11.219  21.676  1.00  0.00     0.009 C 
BRANCH   6   7
ATOM      7  C   UNL     1      38.819 -11.005  21.430  1.00  0.00     0.032 C 
ATOM      8  C   UNL     1      39.531 -12.348  21.231  1.00  0.00     0.014 C 
BRANCH   7   9
ATOM      9  C   UNL     1      39.471 -10.268  22.569  1.00  0.00     0.044 C 
ATOM     10  O   UNL     1      40.071  -9.181  22.359  1.00  0.00    -0.550 OA
ATOM     11  O   UNL     1      39.458 -10.803  23.853  1.00  0.00    -0.550 OA
ENDBRANCH   7   9
ENDBRANCH   6   7
ENDBRANCH   5   6
ENDBRANCH   4   5
ENDBRANCH   3   4
ENDBRANCH   2   3
ENDBRANCH   1   2
BRANCH   1  12
ATOM     12  C   UNL     1      31.685  -9.101  21.737  1.00  0.00     0.000 C 
BRANCH  12  13
ATOM     13  C   UNL     1      30.205  -9.167  22.156  1.00  0.00    -0.000 C 
BRANCH  13  14
ATOM     14  C   UNL     1      29.246  -9.666  21.059  1.00  0.00    -0.000 C 
BRANCH  14  15
ATOM     15  C   UNL     1      28.087 -10.533  21.598  1.00  0.00    -0.000 C 
BRANCH  15  16
ATOM     16  C   UNL     1      27.366 -11.308  20.483  1.00  0.00    -0.000 C 
BRANCH  16  17
ATOM     17  C   UNL     1      28.069 -12.628  20.119  1.00  0.00    -0.000 C 
BRANCH  17  18
ATOM     18  C   UNL     1      27.405 -13.424  18.981  1.00  0.00    -0.003 C 
ATOM     19  C   UNL     1      26.318 -12.633  18.254  1.00  0.00     0.004 C 
ENDBRANCH  17  18
ENDBRANCH  16  17
ENDBRANCH  15  16
ENDBRANCH  14  15
ENDBRANCH  13  14
ENDBRANCH  12  13
ENDBRANCH   1  12
TORSDOF 14
ENDMDL
MODEL 5
REMARK VINA RESULT:    -6.553      1.568      1.963
REMARK INTER + INTRA:         -12.732
REMARK INTER:                 -11.830
REMARK INTRA:                  -0.901
REMARK UNBOUND:                -0.815
REMARK SMILES CCCCCCCCCCCCCC[C@H](C)C(=O)[O-]
REMARK SMILES IDX 9 1 10 2 11 3 12 4 13 5 14 6 15 7 16 8 17 9 18 10 19 11 8 12
REMARK SMILES IDX 7 13 6 14 5 15 4 16 3 17 2 18 1 19
REMARK H PARENT
REMARK Flexibility Score: inf
ROOT
ATOM      1  C   UNL     1      32.155  -9.251  20.337  1.00  0.00     0.000 C 
ENDROOT
BRANCH   1   2
ATOM      2  C   UNL     1      33.498  -8.813  20.950  1.00  0.00     0.000 C 
BRANCH   2   3
ATOM      3  C   UNL     1      33.515  -7.331  21.358  1.00  0.00     0.000 C 
BRANCH   3   4
ATOM      4  C   UNL     1      34.675  -6.984  22.311  1.00  0.00     0.000 C 
BRANCH   4   5
ATOM      5  C   UNL     1      35.393  -8.191  22.947  1.00  0.00     0.001 C 
BRANCH   5   6
ATOM      6  C   UNL     1      36.888  -7.988  23.268  1.00  0.00     0.009 C 
BRANCH   6   7
ATOM      7  C   UNL     1      37.839  -8.872  22.422  1.00  0.00     0.032 C 
ATOM      8  C   UNL     1      37.085 -10.069  21.833  1.00  0.00     0.014 C 
BRANCH   7   9
ATOM      9  C   UNL     1      39.003  -9.375  23.232  1.00  0.00     0.044 C 
ATOM     10  O   UNL     1      38.807 -10.139  24.214  1.00  0.00    -0.550 OA
ATOM     11  O   UNL     1      40.298  -8.966  22.934  1.00  0.00    -0.550 OA
ENDBRANCH   7   9
ENDBRANCH   6   7
ENDBRANCH   5   6
ENDBRANCH   4   5
ENDBRANCH   3   4
ENDBRANCH   2   3
ENDBRANCH   1   2
BRANCH   1  12
ATOM     12  C   UNL     1      30.953  -9.250  21.305  1.00  0.00     0.000 C 
BRANCH  12  13
ATOM     13  C   UNL     1      29.625  -8.758  20.699  1.00  0.00    -0.000 C 
BRANCH  13  14
ATOM     14  C   UNL     1      28.370  -9.130  21.512  1.00  0.00    -0.000 C 
BRANCH  14  15
ATOM     15  C   UNL     1      28.187 -10.651  21.706  1.00  0.00    -0.000 C 
BRANCH  15  16
ATOM     16  C   UNL     1      27.487 -11.316  20.510  1.00  0.00    -0.000 C 
BRANCH  16  17
ATOM     17  C   UNL     1      28.154 -12.636  20.083  1.00  0.00    -0.000 C 
BRANCH  17  18
ATOM     18  C   UNL     1      27.434 -13.390  18.950  1.00  0.00    -0.003 C 
ATOM     19  C   UNL     1      26.322 -12.568  18.298  1.00  0.00     0.004 C 
ENDBRANCH  17  18
ENDBRANCH  16  17
ENDBRANCH  15  16
ENDBRANCH  14  15
ENDBRANCH  13  14
ENDBRANCH  12  13
ENDBRANCH   1  12
TORSDOF 14
ENDMDL
MODEL 6
REMARK VINA RESULT:    -6.519      2.432      3.123
REMARK INTER + INTRA:         -12.669
REMARK INTER:                 -12.076
REMARK INTRA:                  -0.593
REMARK UNBOUND:                -0.815
REMARK SMILES CCCCCCCCCCCCCC[C@H](C)C(=O)[O-]
REMARK SMILES IDX 9 1 10 2 11 3 12 4 13 5 14 6 15 7 16 8 17 9 18 10 19 11 8 12
REMARK SMILES IDX 7 13 6 14 5 15 4 16 3 17 2 18 1 19
REMARK H PARENT
REMARK Flexibility Score: inf
ROOT
ATOM      1  C   UNL     1      32.301  -8.258  21.404  1.00  0.00     0.000 C 
ENDROOT
BRANCH   1   2
ATOM      2  C   UNL     1      33.575  -9.016  21.822  1.00  0.00     0.000 C 
BRANCH   2   3
ATOM      3  C   UNL     1      34.599  -9.141  20.682  1.00  0.00     0.000 C 
BRANCH   3   4
ATOM      4  C   UNL     1      35.834  -9.974  21.074  1.00  0.00     0.000 C 
BRANCH   4   5
ATOM      5  C   UNL     1      36.579  -9.501  22.338  1.00  0.00     0.001 C 
BRANCH   5   6
ATOM      6  C   UNL     1      36.586  -7.977  22.580  1.00  0.00     0.009 C 
BRANCH   6   7
ATOM      7  C   UNL     1      36.269  -7.570  24.041  1.00  0.00     0.032 C 
ATOM      8  C   UNL     1      35.846  -6.098  24.113  1.00  0.00     0.014 C 
BRANCH   7   9
ATOM      9  C   UNL     1      37.448  -7.788  24.950  1.00  0.00     0.044 C 
ATOM     10  O   UNL     1      38.477  -7.071  24.834  1.00  0.00    -0.550 OA
ATOM     11  O   UNL     1      37.430  -8.809  25.894  1.00  0.00    -0.550 OA
ENDBRANCH   7   9
ENDBRANCH   6   7
ENDBRANCH   5   6
ENDBRANCH   4   5
ENDBRANCH   3   4
ENDBRANCH   2   3
ENDBRANCH   1   2
BRANCH   1  12
ATOM     12  C   UNL     1      31.074  -9.142  21.099  1.00  0.00     0.000 C 
BRANCH  12  13
ATOM     13  C   UNL     1      30.082  -9.311  22.265  1.00  0.00    -0.000 C 
BRANCH  13  14
ATOM     14  C   UNL     1      28.600  -9.365  21.848  1.00  0.00    -0.000 C 
BRANCH  14  15
ATOM     15  C   UNL     1      28.003 -10.789  21.870  1.00  0.00    -0.000 C 
BRANCH  15  16
ATOM     16  C   UNL     1      27.588 -11.272  20.470  1.00  0.00    -0.000 C 
BRANCH  16  17
ATOM     17  C   UNL     1      27.939 -12.749  20.217  1.00  0.00    -0.000 C 
BRANCH  17  18
ATOM     18  C   UNL     1      27.463 -13.306  18.863  1.00  0.00    -0.003 C 
ATOM     19  C   UNL     1      26.023 -12.919  18.530  1.00  0.00     0.004 C 
ENDBRANCH  17  18
ENDBRANCH  16  17
ENDBRANCH  15  16
ENDBRANCH  14  15
ENDBRANCH  13  14
ENDBRANCH  12  13
ENDBRANCH   1  12
TORSDOF 14
ENDMDL
MODEL 7
REMARK VINA RESULT:    -6.500      1.812      2.521
REMARK INTER + INTRA:         -12.635
REMARK INTER:                 -11.790
REMARK INTRA:                  -0.845
REMARK UNBOUND:                -0.815
REMARK SMILES CCCCCCCCCCCCCC[C@H](C)C(=O)[O-]
REMARK SMILES IDX 9 1 10 2 11 3 12 4 13 5 14 6 15 7 16 8 17 9 18 10 19 11 8 12
REMARK SMILES IDX 7 13 6 14 5 15 4 16 3 17 2 18 1 19
REMARK H PARENT
REMARK Flexibility Score: inf
ROOT
ATOM      1  C   UNL     1      30.754  -7.859  22.087  1.00  0.00     0.000 C 
ENDROOT
BRANCH   1   2
ATOM      2  C   UNL     1      31.514  -9.161  21.771  1.00  0.00     0.000 C 
BRANCH   2   3
ATOM      3  C   UNL     1      31.978  -9.243  20.308  1.00  0.00     0.000 C 
BRANCH   3   4
ATOM      4  C   UNL     1      33.421  -8.744  20.107  1.00  0.00     0.000 C 
BRANCH   4   5
ATOM      5  C   UNL     1      34.491  -9.447  20.967  1.00  0.00     0.001 C 
BRANCH   5   6
ATOM      6  C   UNL     1      35.326  -8.527  21.881  1.00  0.00     0.009 C 
BRANCH   6   7
ATOM      7  C   UNL     1      36.812  -8.949  22.011  1.00  0.00     0.032 C 
ATOM      8  C   UNL     1      37.040 -10.329  21.382  1.00  0.00     0.014 C 
BRANCH   7   9
ATOM      9  C   UNL     1      37.259  -8.984  23.447  1.00  0.00     0.044 C 
ATOM     10  O   UNL     1      38.000  -9.917  23.857  1.00  0.00    -0.550 OA
ATOM     11  O   UNL     1      36.822  -8.016  24.344  1.00  0.00    -0.550 OA
ENDBRANCH   7   9
ENDBRANCH   6   7
ENDBRANCH   5   6
ENDBRANCH   4   5
ENDBRANCH   3   4
ENDBRANCH   2   3
ENDBRANCH   1   2
BRANCH   1  12
ATOM     12  C   UNL     1      29.220  -7.935  21.944  1.00  0.00     0.000 C 
BRANCH  12  13
ATOM     13  C   UNL     1      28.714  -8.565  20.634  1.00  0.00    -0.000 C 
BRANCH  13  14
ATOM     14  C   UNL     1      27.209  -8.895  20.616  1.00  0.00    -0.000 C 
BRANCH  14  15
ATOM     15  C   UNL     1      26.909 -10.409  20.567  1.00  0.00    -0.000 C 
BRANCH  15  16
ATOM     16  C   UNL     1      28.154 -11.264  20.854  1.00  0.00    -0.000 C 
BRANCH  16  17
ATOM     17  C   UNL     1      28.076 -12.667  20.227  1.00  0.00    -0.000 C 
BRANCH  17  18
ATOM     18  C   UNL     1      26.894 -12.883  19.264  1.00  0.00    -0.003 C 
ATOM     19  C   UNL     1      27.247 -13.774  18.074  1.00  0.00     0.004 C 
ENDBRANCH  17  18
ENDBRANCH  16  17
ENDBRANCH  15  16
ENDBRANCH  14  15
ENDBRANCH  13  14
ENDBRANCH  12  13
ENDBRANCH   1  12
TORSDOF 14
ENDMDL
MODEL 8
REMARK VINA RESULT:    -6.352      3.455      4.787
REMARK INTER + INTRA:         -12.365
REMARK INTER:                 -10.698
REMARK INTRA:                  -1.667
REMARK UNBOUND:                -0.815
REMARK SMILES CCCCCCCCCCCCCC[C@H](C)C(=O)[O-]
REMARK SMILES IDX 9 1 10 2 11 3 12 4 13 5 14 6 15 7 16 8 17 9 18 10 19 11 8 12
REMARK SMILES IDX 7 13 6 14 5 15 4 16 3 17 2 18 1 19
REMARK H PARENT
REMARK Flexibility Score: inf
ROOT
ATOM      1  C   UNL     1      28.635  -7.409  22.563  1.00  0.00     0.000 C 
ENDROOT
BRANCH   1   2
ATOM      2  C   UNL     1      28.685  -8.948  22.594  1.00  0.00     0.000 C 
BRANCH   2   3
ATOM      3  C   UNL     1      30.062  -9.510  22.206  1.00  0.00     0.000 C 
BRANCH   3   4
ATOM      4  C   UNL     1      30.424  -9.246  20.732  1.00  0.00     0.000 C 
BRANCH   4   5
ATOM      5  C   UNL     1      31.933  -9.219  20.416  1.00  0.00     0.001 C 
BRANCH   5   6
ATOM      6  C   UNL     1      32.854  -8.804  21.581  1.00  0.00     0.009 C 
BRANCH   6   7
ATOM      7  C   UNL     1      33.866  -7.688  21.217  1.00  0.00     0.032 C 
ATOM      8  C   UNL     1      35.185  -7.886  21.972  1.00  0.00     0.014 C 
BRANCH   7   9
ATOM      9  C   UNL     1      33.323  -6.319  21.528  1.00  0.00     0.044 C 
ATOM     10  O   UNL     1      34.005  -5.294  21.264  1.00  0.00    -0.550 OA
ATOM     11  O   UNL     1      32.087  -6.176  22.148  1.00  0.00    -0.550 OA
ENDBRANCH   7   9
ENDBRANCH   6   7
ENDBRANCH   5   6
ENDBRANCH   4   5
ENDBRANCH   3   4
ENDBRANCH   2   3
ENDBRANCH   1   2
BRANCH   1  12
ATOM     12  C   UNL     1      27.394  -6.800  21.878  1.00  0.00     0.000 C 
BRANCH  12  13
ATOM     13  C   UNL     1      27.178  -7.225  20.414  1.00  0.00    -0.000 C 
BRANCH  13  14
ATOM     14  C   UNL     1      26.109  -8.315  20.210  1.00  0.00    -0.000 C 
BRANCH  14  15
ATOM     15  C   UNL     1      26.642  -9.578  19.499  1.00  0.00    -0.000 C 
BRANCH  15  16
ATOM     16  C   UNL     1      26.305 -10.868  20.264  1.00  0.00    -0.000 C 
BRANCH  16  17
ATOM     17  C   UNL     1      27.533 -11.769  20.492  1.00  0.00    -0.000 C 
BRANCH  17  18
ATOM     18  C   UNL     1      27.666 -12.945  19.508  1.00  0.00    -0.003 C 
ATOM     19  C   UNL     1      26.433 -13.126  18.623  1.00  0.00     0.004 C 
ENDBRANCH  17  18
ENDBRANCH  16  17
ENDBRANCH  15  16
ENDBRANCH  14  15
ENDBRANCH  13  14
ENDBRANCH  12  13
ENDBRANCH   1  12
TORSDOF 14
ENDMDL
MODEL 9
REMARK VINA RESULT:    -6.335      4.556      9.261
REMARK INTER + INTRA:         -12.334
REMARK INTER:                 -10.927
REMARK INTRA:                  -1.407
REMARK UNBOUND:                -0.815
REMARK SMILES CCCCCCCCCCCCCC[C@H](C)C(=O)[O-]
REMARK SMILES IDX 9 1 10 2 11 3 12 4 13 5 14 6 15 7 16 8 17 9 18 10 19 11 8 12
REMARK SMILES IDX 7 13 6 14 5 15 4 16 3 17 2 18 1 19
REMARK H PARENT
REMARK Flexibility Score: inf
ROOT
ATOM      1  C   UNL     1      28.849  -9.388  22.133  1.00  0.00     0.000 C 
ENDROOT
BRANCH   1   2
ATOM      2  C   UNL     1      28.134 -10.751  22.100  1.00  0.00     0.000 C 
BRANCH   2   3
ATOM      3  C   UNL     1      27.802 -11.218  20.673  1.00  0.00     0.000 C 
BRANCH   3   4
ATOM      4  C   UNL     1      26.397 -10.788  20.213  1.00  0.00     0.000 C 
BRANCH   4   5
ATOM      5  C   UNL     1      26.343  -9.506  19.358  1.00  0.00     0.001 C 
BRANCH   5   6
ATOM      6  C   UNL     1      25.725  -8.270  20.045  1.00  0.00     0.009 C 
BRANCH   6   7
ATOM      7  C   UNL     1      26.487  -6.950  19.767  1.00  0.00     0.032 C 
ATOM      8  C   UNL     1      27.586  -7.168  18.721  1.00  0.00     0.014 C 
BRANCH   7   9
ATOM      9  C   UNL     1      27.106  -6.388  21.019  1.00  0.00     0.044 C 
ATOM     10  O   UNL     1      28.277  -5.925  20.993  1.00  0.00    -0.550 OA
ATOM     11  O   UNL     1      26.410  -6.416  22.222  1.00  0.00    -0.550 OA
ENDBRANCH   7   9
ENDBRANCH   6   7
ENDBRANCH   5   6
ENDBRANCH   4   5
ENDBRANCH   3   4
ENDBRANCH   2   3
ENDBRANCH   1   2
BRANCH   1  12
ATOM     12  C   UNL     1      29.865  -9.144  20.998  1.00  0.00     0.000 C 
BRANCH  12  13
ATOM     13  C   UNL     1      31.079  -8.276  21.379  1.00  0.00    -0.000 C 
BRANCH  13  14
ATOM     14  C   UNL     1      32.420  -9.032  21.434  1.00  0.00    -0.000 C 
BRANCH  14  15
ATOM     15  C   UNL     1      33.628  -8.180  20.990  1.00  0.00    -0.000 C 
BRANCH  15  16
ATOM     16  C   UNL     1      34.972  -8.840  21.341  1.00  0.00    -0.000 C 
BRANCH  16  17
ATOM     17  C   UNL     1      35.225 -10.141  20.558  1.00  0.00    -0.000 C 
BRANCH  17  18
ATOM     18  C   UNL     1      36.651 -10.706  20.682  1.00  0.00    -0.003 C 
ATOM     19  C   UNL     1      37.154 -10.747  22.125  1.00  0.00     0.004 C 
ENDBRANCH  17  18
ENDBRANCH  16  17
ENDBRANCH  15  16
ENDBRANCH  14  15
ENDBRANCH  13  14
ENDBRANCH  12  13
ENDBRANCH   1  12
TORSDOF 14
ENDMDL
