MODEL 1
REMARK VINA RESULT:    -3.890      0.000      0.000
REMARK INTER + INTRA:          -4.134
REMARK INTER:                  -4.118
REMARK INTRA:                  -0.016
REMARK UNBOUND:                -0.016
REMARK SMILES O=C([O-])c1cccnc1
REMARK SMILES IDX 4 1 5 2 9 3 6 4 8 5 7 6 2 7 1 8 3 9
REMARK H PARENT
REMARK Flexibility Score: inf
ROOT
ATOM      1  C   UNL     1      13.484  -4.500  -2.186  1.00  0.00     0.016 A 
ATOM      2  C   UNL     1      14.643  -5.293  -2.225  1.00  0.00     0.013 A 
ATOM      3  C   UNL     1      13.025  -4.049  -0.937  1.00  0.00     0.120 A 
ATOM      4  C   UNL     1      15.311  -5.616  -1.043  1.00  0.00     0.021 A 
ATOM      5  N   UNL     1      13.695  -4.379   0.201  1.00  0.00    -0.264 NA
ATOM      6  C   UNL     1      14.816  -5.144   0.174  1.00  0.00     0.111 A 
ENDROOT
BRANCH   1   7
ATOM      7  C   UNL     1      12.768  -4.152  -3.432  1.00  0.00     0.073 C 
ATOM      8  O   UNL     1      12.968  -3.044  -3.996  1.00  0.00    -0.545 OA
ATOM      9  O   UNL     1      11.864  -5.044  -3.997  1.00  0.00    -0.545 OA
ENDBRANCH   1   7
TORSDOF 1
ENDMDL
MODEL 2
REMARK VINA RESULT:    -3.588      2.910      3.827
REMARK INTER + INTRA:          -3.813
REMARK INTER:                  -3.790
REMARK INTRA:                  -0.023
REMARK UNBOUND:                -0.016
REMARK SMILES O=C([O-])c1cccnc1
REMARK SMILES IDX 4 1 5 2 9 3 6 4 8 5 7 6 2 7 1 8 3 9
REMARK H PARENT
REMARK Flexibility Score: inf
ROOT
ATOM      1  C   UNL     1      11.477  -4.285  -2.579  1.00  0.00     0.016 A 
ATOM      2  C   UNL     1      11.328  -4.933  -1.342  1.00  0.00     0.013 A 
ATOM      3  C   UNL     1      10.319  -3.958  -3.305  1.00  0.00     0.120 A 
ATOM      4  C   UNL     1      10.055  -5.239  -0.859  1.00  0.00     0.021 A 
ATOM      5  N   UNL     1       9.089  -4.267  -2.812  1.00  0.00    -0.264 NA
ATOM      6  C   UNL     1       8.934  -4.893  -1.617  1.00  0.00     0.111 A 
ENDROOT
BRANCH   1   7
ATOM      7  C   UNL     1      12.821  -3.956  -3.101  1.00  0.00     0.073 C 
ATOM      8  O   UNL     1      12.959  -3.121  -4.033  1.00  0.00    -0.545 OA
ATOM      9  O   UNL     1      13.951  -4.566  -2.568  1.00  0.00    -0.545 OA
ENDBRANCH   1   7
TORSDOF 1
ENDMDL
MODEL 3
REMARK VINA RESULT:    -3.477      2.490      3.274
REMARK INTER + INTRA:          -3.697
REMARK INTER:                  -3.679
REMARK INTRA:                  -0.018
REMARK UNBOUND:                -0.016
REMARK SMILES O=C([O-])c1cccnc1
REMARK SMILES IDX 4 1 5 2 9 3 6 4 8 5 7 6 2 7 1 8 3 9
REMARK H PARENT
REMARK Flexibility Score: inf
ROOT
ATOM      1  C   UNL     1      10.830  -4.037  -3.004  1.00  0.00     0.016 A 
ATOM      2  C   UNL     1      10.862  -4.354  -1.636  1.00  0.00     0.013 A 
ATOM      3  C   UNL     1      12.031  -3.663  -3.631  1.00  0.00     0.120 A 
ATOM      4  C   UNL     1      12.064  -4.294  -0.930  1.00  0.00     0.021 A 
ATOM      5  N   UNL     1      13.190  -3.612  -2.919  1.00  0.00    -0.264 NA
ATOM      6  C   UNL     1      13.231  -3.917  -1.597  1.00  0.00     0.111 A 
ENDROOT
BRANCH   1   7
ATOM      7  C   UNL     1       9.562  -4.096  -3.762  1.00  0.00     0.073 C 
ATOM      8  O   UNL     1       9.152  -3.092  -4.402  1.00  0.00    -0.545 OA
ATOM      9  O   UNL     1       8.806  -5.263  -3.779  1.00  0.00    -0.545 OA
ENDBRANCH   1   7
TORSDOF 1
ENDMDL
MODEL 4
REMARK VINA RESULT:    -3.442      2.660      3.818
REMARK INTER + INTRA:          -3.660
REMARK INTER:                  -3.636
REMARK INTRA:                  -0.024
REMARK UNBOUND:                -0.016
REMARK SMILES O=C([O-])c1cccnc1
REMARK SMILES IDX 4 1 5 2 9 3 6 4 8 5 7 6 2 7 1 8 3 9
REMARK H PARENT
REMARK Flexibility Score: inf
ROOT
ATOM      1  C   UNL     1      11.506  -4.273  -2.516  1.00  0.00     0.016 A 
ATOM      2  C   UNL     1      10.356  -3.963  -3.260  1.00  0.00     0.013 A 
ATOM      3  C   UNL     1      11.345  -4.894  -1.265  1.00  0.00     0.120 A 
ATOM      4  C   UNL     1       9.091  -4.270  -2.757  1.00  0.00     0.021 A 
ATOM      5  N   UNL     1      10.100  -5.183  -0.797  1.00  0.00    -0.264 NA
ATOM      6  C   UNL     1       8.982  -4.888  -1.510  1.00  0.00     0.111 A 
ENDROOT
BRANCH   1   7
ATOM      7  C   UNL     1      12.851  -3.952  -3.039  1.00  0.00     0.073 C 
ATOM      8  O   UNL     1      12.989  -3.150  -4.000  1.00  0.00    -0.545 OA
ATOM      9  O   UNL     1      13.982  -4.530  -2.475  1.00  0.00    -0.545 OA
ENDBRANCH   1   7
TORSDOF 1
ENDMDL
MODEL 5
REMARK VINA RESULT:    -3.349      2.920      3.978
REMARK INTER + INTRA:          -3.561
REMARK INTER:                  -3.539
REMARK INTRA:                  -0.021
REMARK UNBOUND:                -0.016
REMARK SMILES O=C([O-])c1cccnc1
REMARK SMILES IDX 4 1 5 2 9 3 6 4 8 5 7 6 2 7 1 8 3 9
REMARK H PARENT
REMARK Flexibility Score: inf
ROOT
ATOM      1  C   UNL     1      12.978  -4.418  -1.469  1.00  0.00     0.016 A 
ATOM      2  C   UNL     1      11.626  -4.540  -1.106  1.00  0.00     0.013 A 
ATOM      3  C   UNL     1      13.283  -3.960  -2.762  1.00  0.00     0.120 A 
ATOM      4  C   UNL     1      10.623  -4.210  -2.018  1.00  0.00     0.021 A 
ATOM      5  N   UNL     1      12.286  -3.644  -3.633  1.00  0.00    -0.264 NA
ATOM      6  C   UNL     1      10.977  -3.758  -3.291  1.00  0.00     0.111 A 
ENDROOT
BRANCH   1   7
ATOM      7  C   UNL     1      14.049  -4.766  -0.511  1.00  0.00     0.073 C 
ATOM      8  O   UNL     1      13.908  -4.534   0.719  1.00  0.00    -0.545 OA
ATOM      9  O   UNL     1      15.228  -5.353  -0.956  1.00  0.00    -0.545 OA
ENDBRANCH   1   7
TORSDOF 1
ENDMDL
MODEL 6
REMARK VINA RESULT:    -3.082     16.152     16.766
REMARK INTER + INTRA:          -3.278
REMARK INTER:                  -3.262
REMARK INTRA:                  -0.016
REMARK UNBOUND:                -0.016
REMARK SMILES O=C([O-])c1cccnc1
REMARK SMILES IDX 4 1 5 2 9 3 6 4 8 5 7 6 2 7 1 8 3 9
REMARK H PARENT
REMARK Flexibility Score: inf
ROOT
ATOM      1  C   UNL     1      18.551  11.021  -1.230  1.00  0.00     0.016 A 
ATOM      2  C   UNL     1      19.458  11.784  -1.985  1.00  0.00     0.013 A 
ATOM      3  C   UNL     1      17.629  10.211  -1.915  1.00  0.00     0.120 A 
ATOM      4  C   UNL     1      19.433  11.726  -3.379  1.00  0.00     0.021 A 
ATOM      5  N   UNL     1      17.625  10.173  -3.275  1.00  0.00    -0.264 NA
ATOM      6  C   UNL     1      18.498  10.906  -4.013  1.00  0.00     0.111 A 
ENDROOT
BRANCH   1   7
ATOM      7  C   UNL     1      18.569  11.074   0.247  1.00  0.00     0.073 C 
ATOM      8  O   UNL     1      19.250  10.247   0.909  1.00  0.00    -0.545 OA
ATOM      9  O   UNL     1      17.833  12.039   0.926  1.00  0.00    -0.545 OA
ENDBRANCH   1   7
TORSDOF 1
ENDMDL
MODEL 7
REMARK VINA RESULT:    -3.032     16.060     16.558
REMARK INTER + INTRA:          -3.225
REMARK INTER:                  -3.202
REMARK INTRA:                  -0.023
REMARK UNBOUND:                -0.016
REMARK SMILES O=C([O-])c1cccnc1
REMARK SMILES IDX 4 1 5 2 9 3 6 4 8 5 7 6 2 7 1 8 3 9
REMARK H PARENT
REMARK Flexibility Score: inf
ROOT
ATOM      1  C   UNL     1      18.551  10.965  -1.689  1.00  0.00     0.016 A 
ATOM      2  C   UNL     1      19.519  11.980  -1.775  1.00  0.00     0.013 A 
ATOM      3  C   UNL     1      18.172  10.511  -0.415  1.00  0.00     0.120 A 
ATOM      4  C   UNL     1      20.081  12.514  -0.615  1.00  0.00     0.021 A 
ATOM      5  N   UNL     1      18.735  11.048   0.702  1.00  0.00    -0.264 NA
ATOM      6  C   UNL     1      19.671  12.029   0.629  1.00  0.00     0.111 A 
ENDROOT
BRANCH   1   7
ATOM      7  C   UNL     1      17.950  10.392  -2.912  1.00  0.00     0.073 C 
ATOM      8  O   UNL     1      16.876   9.736  -2.850  1.00  0.00    -0.545 OA
ATOM      9  O   UNL     1      18.561  10.571  -4.148  1.00  0.00    -0.545 OA
ENDBRANCH   1   7
TORSDOF 1
ENDMDL
MODEL 8
REMARK VINA RESULT:    -3.031     16.346     16.985
REMARK INTER + INTRA:          -3.224
REMARK INTER:                  -3.208
REMARK INTRA:                  -0.016
REMARK UNBOUND:                -0.016
REMARK SMILES O=C([O-])c1cccnc1
REMARK SMILES IDX 4 1 5 2 9 3 6 4 8 5 7 6 2 7 1 8 3 9
REMARK H PARENT
REMARK Flexibility Score: inf
ROOT
ATOM      1  C   UNL     1      18.663  11.236  -0.743  1.00  0.00     0.016 A 
ATOM      2  C   UNL     1      17.709  10.296  -1.168  1.00  0.00     0.013 A 
ATOM      3  C   UNL     1      19.381  11.946  -1.720  1.00  0.00     0.120 A 
ATOM      4  C   UNL     1      17.492  10.083  -2.530  1.00  0.00     0.021 A 
ATOM      5  N   UNL     1      19.151  11.720  -3.042  1.00  0.00    -0.264 NA
ATOM      6  C   UNL     1      18.231  10.814  -3.463  1.00  0.00     0.111 A 
ENDROOT
BRANCH   1   7
ATOM      7  C   UNL     1      18.901  11.469   0.697  1.00  0.00     0.073 C 
ATOM      8  O   UNL     1      19.913  10.980   1.265  1.00  0.00    -0.545 OA
ATOM      9  O   UNL     1      18.011  12.233   1.444  1.00  0.00    -0.545 OA
ENDBRANCH   1   7
TORSDOF 1
ENDMDL
MODEL 9
REMARK VINA RESULT:    -3.006      2.262      2.901
REMARK INTER + INTRA:          -3.198
REMARK INTER:                  -3.178
REMARK INTRA:                  -0.019
REMARK UNBOUND:                -0.016
REMARK SMILES O=C([O-])c1cccnc1
REMARK SMILES IDX 4 1 5 2 9 3 6 4 8 5 7 6 2 7 1 8 3 9
REMARK H PARENT
REMARK Flexibility Score: inf
ROOT
ATOM      1  C   UNL     1      10.864  -4.090  -2.751  1.00  0.00     0.016 A 
ATOM      2  C   UNL     1      12.049  -4.060  -3.506  1.00  0.00     0.013 A 
ATOM      3  C   UNL     1      10.964  -4.227  -1.356  1.00  0.00     0.120 A 
ATOM      4  C   UNL     1      13.287  -4.164  -2.871  1.00  0.00     0.021 A 
ATOM      5  N   UNL     1      12.184  -4.327  -0.762  1.00  0.00    -0.264 NA
ATOM      6  C   UNL     1      13.335  -4.298  -1.482  1.00  0.00     0.111 A 
ENDROOT
BRANCH   1   7
ATOM      7  C   UNL     1       9.547  -3.981  -3.413  1.00  0.00     0.073 C 
ATOM      8  O   UNL     1       9.327  -3.070  -4.255  1.00  0.00    -0.545 OA
ATOM      9  O   UNL     1       8.532  -4.882  -3.115  1.00  0.00    -0.545 OA
ENDBRANCH   1   7
TORSDOF 1
ENDMDL
