MODEL 1
REMARK VINA RESULT:    -4.169      0.000      0.000
REMARK INTER + INTRA:          -4.169
REMARK INTER:                  -4.169
REMARK INTRA:                   0.000
REMARK UNBOUND:                 0.000
REMARK SMILES O=C1CCCCC1
REMARK SMILES IDX 5 1 4 2 3 3 2 4 1 5 7 6 6 7
REMARK H PARENT
REMARK Flexibility Score: inf
ROOT
ATOM      1  C   UNL     1      16.526  36.543  11.985  1.00  0.00     0.001 C 
ATOM      2  C   UNL     1      16.212  36.522  10.482  1.00  0.00     0.008 C 
ATOM      3  C   UNL     1      17.465  36.207   9.652  1.00  0.00     0.075 C 
ATOM      4  C   UNL     1      18.147  34.977  10.183  1.00  0.00     0.132 C 
ATOM      5  O   UNL     1      18.571  34.127   9.414  1.00  0.00    -0.300 OA
ATOM      6  C   UNL     1      18.386  34.849  11.662  1.00  0.00     0.075 C 
ATOM      7  C   UNL     1      17.113  35.198  12.441  1.00  0.00     0.008 C 
ENDROOT
TORSDOF 0
ENDMDL
MODEL 2
REMARK VINA RESULT:    -4.134      1.609      2.657
REMARK INTER + INTRA:          -4.134
REMARK INTER:                  -4.134
REMARK INTRA:                   0.000
REMARK UNBOUND:                 0.000
REMARK SMILES O=C1CCCCC1
REMARK SMILES IDX 5 1 4 2 3 3 2 4 1 5 7 6 6 7
REMARK H PARENT
REMARK Flexibility Score: inf
ROOT
ATOM      1  C   UNL     1      17.154  36.624  10.041  1.00  0.00     0.001 C 
ATOM      2  C   UNL     1      17.972  35.324  10.053  1.00  0.00     0.008 C 
ATOM      3  C   UNL     1      18.380  34.932  11.480  1.00  0.00     0.075 C 
ATOM      4  C   UNL     1      17.181  34.944  12.388  1.00  0.00     0.132 C 
ATOM      5  O   UNL     1      17.010  34.044  13.195  1.00  0.00    -0.300 OA
ATOM      6  C   UNL     1      16.248  36.123  12.356  1.00  0.00     0.075 C 
ATOM      7  C   UNL     1      15.894  36.486  10.909  1.00  0.00     0.008 C 
ENDROOT
TORSDOF 0
ENDMDL
MODEL 3
REMARK VINA RESULT:    -4.133      1.008      2.210
REMARK INTER + INTRA:          -4.133
REMARK INTER:                  -4.133
REMARK INTRA:                   0.000
REMARK UNBOUND:                 0.000
REMARK SMILES O=C1CCCCC1
REMARK SMILES IDX 5 1 4 2 3 3 2 4 1 5 7 6 6 7
REMARK H PARENT
REMARK Flexibility Score: inf
ROOT
ATOM      1  C   UNL     1      17.248  35.074  12.419  1.00  0.00     0.001 C 
ATOM      2  C   UNL     1      18.551  34.759  11.669  1.00  0.00     0.008 C 
ATOM      3  C   UNL     1      18.329  34.728  10.151  1.00  0.00     0.075 C 
ATOM      4  C   UNL     1      17.613  35.971   9.701  1.00  0.00     0.132 C 
ATOM      5  O   UNL     1      17.972  36.557   8.691  1.00  0.00    -0.300 OA
ATOM      6  C   UNL     1      16.395  36.431  10.453  1.00  0.00     0.075 C 
ATOM      7  C   UNL     1      16.664  36.420  11.963  1.00  0.00     0.008 C 
ENDROOT
TORSDOF 0
ENDMDL
MODEL 4
REMARK VINA RESULT:    -3.959      0.932      2.126
REMARK INTER + INTRA:          -3.959
REMARK INTER:                  -3.959
REMARK INTRA:                   0.000
REMARK UNBOUND:                 0.000
REMARK SMILES O=C1CCCCC1
REMARK SMILES IDX 5 1 4 2 3 3 2 4 1 5 7 6 6 7
REMARK H PARENT
REMARK Flexibility Score: inf
ROOT
ATOM      1  C   UNL     1      15.982  36.600  10.935  1.00  0.00     0.001 C 
ATOM      2  C   UNL     1      16.566  36.231  12.307  1.00  0.00     0.008 C 
ATOM      3  C   UNL     1      17.321  34.896  12.253  1.00  0.00     0.075 C 
ATOM      4  C   UNL     1      18.304  34.896  11.116  1.00  0.00     0.132 C 
ATOM      5  O   UNL     1      19.431  34.451  11.275  1.00  0.00    -0.300 OA
ATOM      6  C   UNL     1      17.858  35.362   9.758  1.00  0.00     0.075 C 
ATOM      7  C   UNL     1      17.090  36.684   9.873  1.00  0.00     0.008 C 
ENDROOT
TORSDOF 0
ENDMDL
MODEL 5
REMARK VINA RESULT:    -3.949      1.834      3.148
REMARK INTER + INTRA:          -3.949
REMARK INTER:                  -3.949
REMARK INTRA:                   0.000
REMARK UNBOUND:                 0.000
REMARK SMILES O=C1CCCCC1
REMARK SMILES IDX 5 1 4 2 3 3 2 4 1 5 7 6 6 7
REMARK H PARENT
REMARK Flexibility Score: inf
ROOT
ATOM      1  C   UNL     1      18.827  34.707  10.811  1.00  0.00     0.001 C 
ATOM      2  C   UNL     1      17.906  34.508  12.024  1.00  0.00     0.008 C 
ATOM      3  C   UNL     1      17.148  35.797  12.368  1.00  0.00     0.075 C 
ATOM      4  C   UNL     1      16.482  36.355  11.141  1.00  0.00     0.132 C 
ATOM      5  O   UNL     1      15.338  36.780  11.200  1.00  0.00    -0.300 OA
ATOM      6  C   UNL     1      17.270  36.471   9.866  1.00  0.00     0.075 C 
ATOM      7  C   UNL     1      18.025  35.167   9.584  1.00  0.00     0.008 C 
ENDROOT
TORSDOF 0
ENDMDL
MODEL 6
REMARK VINA RESULT:    -3.893      1.858      2.667
REMARK INTER + INTRA:          -3.893
REMARK INTER:                  -3.893
REMARK INTRA:                   0.000
REMARK UNBOUND:                 0.000
REMARK SMILES O=C1CCCCC1
REMARK SMILES IDX 5 1 4 2 3 3 2 4 1 5 7 6 6 7
REMARK H PARENT
REMARK Flexibility Score: inf
ROOT
ATOM      1  C   UNL     1      18.542  34.469  10.078  1.00  0.00     0.001 C 
ATOM      2  C   UNL     1      18.096  35.731   9.326  1.00  0.00     0.008 C 
ATOM      3  C   UNL     1      16.754  36.254   9.857  1.00  0.00     0.075 C 
ATOM      4  C   UNL     1      16.797  36.380  11.354  1.00  0.00     0.132 C 
ATOM      5  O   UNL     1      16.328  37.366  11.903  1.00  0.00    -0.300 OA
ATOM      6  C   UNL     1      17.337  35.241  12.172  1.00  0.00     0.075 C 
ATOM      7  C   UNL     1      18.663  34.743  11.585  1.00  0.00     0.008 C 
ENDROOT
TORSDOF 0
ENDMDL
MODEL 7
REMARK VINA RESULT:    -3.819      2.338      3.067
REMARK INTER + INTRA:          -3.819
REMARK INTER:                  -3.819
REMARK INTRA:                   0.000
REMARK UNBOUND:                 0.000
REMARK SMILES O=C1CCCCC1
REMARK SMILES IDX 5 1 4 2 3 3 2 4 1 5 7 6 6 7
REMARK H PARENT
REMARK Flexibility Score: inf
ROOT
ATOM      1  C   UNL     1      17.681  35.596  10.837  1.00  0.00     0.001 C 
ATOM      2  C   UNL     1      16.684  36.545  11.519  1.00  0.00     0.008 C 
ATOM      3  C   UNL     1      15.672  35.773  12.376  1.00  0.00     0.075 C 
ATOM      4  C   UNL     1      16.385  34.822  13.297  1.00  0.00     0.132 C 
ATOM      5  O   UNL     1      16.037  34.714  14.462  1.00  0.00    -0.300 OA
ATOM      6  C   UNL     1      17.468  33.937  12.744  1.00  0.00     0.075 C 
ATOM      7  C   UNL     1      18.435  34.753  11.877  1.00  0.00     0.008 C 
ENDROOT
TORSDOF 0
ENDMDL
MODEL 8
REMARK VINA RESULT:    -3.678     14.310     15.557
REMARK INTER + INTRA:          -3.678
REMARK INTER:                  -3.678
REMARK INTRA:                   0.000
REMARK UNBOUND:                 0.000
REMARK SMILES O=C1CCCCC1
REMARK SMILES IDX 5 1 4 2 3 3 2 4 1 5 7 6 6 7
REMARK H PARENT
REMARK Flexibility Score: inf
ROOT
ATOM      1  C   UNL     1      15.316  34.063  27.796  1.00  0.00     0.001 C 
ATOM      2  C   UNL     1      16.796  34.176  27.400  1.00  0.00     0.008 C 
ATOM      3  C   UNL     1      16.990  33.957  25.893  1.00  0.00     0.075 C 
ATOM      4  C   UNL     1      16.048  34.832  25.112  1.00  0.00     0.132 C 
ATOM      5  O   UNL     1      16.441  35.431  24.123  1.00  0.00    -0.300 OA
ATOM      6  C   UNL     1      14.598  34.885  25.506  1.00  0.00     0.075 C 
ATOM      7  C   UNL     1      14.463  35.079  27.021  1.00  0.00     0.008 C 
ENDROOT
TORSDOF 0
ENDMDL
MODEL 9
REMARK VINA RESULT:    -3.675      0.986      1.530
REMARK INTER + INTRA:          -3.675
REMARK INTER:                  -3.675
REMARK INTRA:                   0.000
REMARK UNBOUND:                 0.000
REMARK SMILES O=C1CCCCC1
REMARK SMILES IDX 5 1 4 2 3 3 2 4 1 5 7 6 6 7
REMARK H PARENT
REMARK Flexibility Score: inf
ROOT
ATOM      1  C   UNL     1      17.413  35.522  12.429  1.00  0.00     0.001 C 
ATOM      2  C   UNL     1      16.251  36.209  11.697  1.00  0.00     0.008 C 
ATOM      3  C   UNL     1      16.715  36.838  10.376  1.00  0.00     0.075 C 
ATOM      4  C   UNL     1      17.484  35.836   9.561  1.00  0.00     0.132 C 
ATOM      5  O   UNL     1      17.289  35.739   8.359  1.00  0.00    -0.300 OA
ATOM      6  C   UNL     1      18.561  35.022  10.223  1.00  0.00     0.075 C 
ATOM      7  C   UNL     1      18.053  34.438  11.547  1.00  0.00     0.008 C 
ENDROOT
TORSDOF 0
ENDMDL
