MODEL 1
REMARK VINA RESULT:     0.726      0.000      0.000
REMARK INTER + INTRA:           0.726
REMARK INTER:                   0.726
REMARK INTRA:                   0.000
REMARK UNBOUND:                 0.000
REMARK SMILES C=C1CCCC(C)(C)[C@@]12CC=C(C)CC2
REMARK SMILES IDX 13 1 12 2 11 3 10 4 9 5 15 6 14 7 2 8 1 9 3 10 4 11 5 12
REMARK SMILES IDX 6 13 7 14 8 15
REMARK H PARENT
REMARK Flexibility Score: inf
ROOT
ATOM      1  C   UNL     1      10.623   8.252  13.819  1.00  0.00     0.039 C 
ATOM      2  C   UNL     1       9.143   8.278  13.555  1.00  0.00    -0.077 C 
ATOM      3  C   UNL     1       8.273   8.230  14.574  1.00  0.00    -0.027 C 
ATOM      4  C   UNL     1       6.793   8.254  14.291  1.00  0.00     0.039 C 
ATOM      5  C   UNL     1       6.360   7.295  13.106  1.00  0.00    -0.000 C 
ATOM      6  C   UNL     1       7.533   7.159  12.049  1.00  0.00     0.017 C 
ATOM      7  C   UNL     1       8.596   8.262  12.152  1.00  0.00     0.031 C 
ATOM      8  C   UNL     1       6.077   5.860  13.630  1.00  0.00    -0.070 C 
ATOM      9  C   UNL     1       6.624   5.365  14.761  1.00  0.00     0.008 C 
ATOM     10  C   UNL     1       5.397   4.875  12.700  1.00  0.00     0.031 C 
ATOM     11  C   UNL     1       4.119   5.459  12.116  1.00  0.00     0.005 C 
ATOM     12  C   UNL     1       4.387   6.811  11.455  1.00  0.00     0.008 C 
ATOM     13  C   UNL     1       5.014   7.857  12.432  1.00  0.00    -0.026 C 
ATOM     14  C   UNL     1       5.253   9.150  11.601  1.00  0.00     0.012 C 
ATOM     15  C   UNL     1       3.952   8.202  13.517  1.00  0.00     0.012 C 
ENDROOT
TORSDOF 0
ENDMDL
