MODEL 1
REMARK VINA RESULT:    -6.111      0.000      0.000
REMARK INTER + INTRA:          -7.501
REMARK INTER:                  -7.183
REMARK INTRA:                  -0.319
REMARK UNBOUND:                -0.319
REMARK SMILES O=c1cc(-c2ccc(O)c(O)c2)oc2cc(O)cc(O)c12
REMARK SMILES IDX 4 1 3 2 2 3 1 4 21 5 19 6 18 7 16 8 15 9 14 10 13 11 5 12
REMARK SMILES IDX 6 13 7 14 8 15 12 16 10 17 9 18 11 20 20 22 17 24
REMARK H PARENT 9 19 11 21 20 23 17 25
REMARK Flexibility Score: inf
ROOT
ATOM      1  C   UNL     1       0.020 -18.238  -7.585  1.00  0.00     0.138 A 
ATOM      2  C   UNL     1      -1.074 -17.900  -8.399  1.00  0.00     0.100 A 
ATOM      3  C   UNL     1      -1.666 -16.643  -8.267  1.00  0.00     0.197 A 
ATOM      4  O   UNL     1      -2.648 -16.349  -9.001  1.00  0.00    -0.289 OA
ATOM      5  C   UNL     1      -1.162 -15.733  -7.315  1.00  0.00     0.107 A 
ATOM      6  C   UNL     1      -1.702 -14.440  -7.117  1.00  0.00     0.134 A 
ATOM      7  C   UNL     1      -1.145 -13.596  -6.145  1.00  0.00     0.093 A 
ATOM      8  C   UNL     1      -0.062 -14.018  -5.370  1.00  0.00     0.123 A 
ATOM      9  C   UNL     1       0.476 -15.295  -5.561  1.00  0.00     0.094 A 
ATOM     10  C   UNL     1      -0.064 -16.151  -6.526  1.00  0.00     0.146 A 
ATOM     11  O   UNL     1       0.466 -17.359  -6.690  1.00  0.00    -0.456 OA
ENDROOT
BRANCH   1  12
ATOM     12  C   UNL     1       0.689 -19.560  -7.682  1.00  0.00     0.021 A 
ATOM     13  C   UNL     1       0.343 -20.493  -8.676  1.00  0.00     0.016 A 
ATOM     14  C   UNL     1       0.996 -21.724  -8.748  1.00  0.00     0.051 A 
ATOM     15  C   UNL     1       2.011 -22.051  -7.842  1.00  0.00     0.157 A 
ATOM     16  C   UNL     1       1.718 -19.883  -6.780  1.00  0.00     0.062 A 
ATOM     17  C   UNL     1       2.377 -21.117  -6.846  1.00  0.00     0.158 A 
BRANCH  15  18
ATOM     18  O   UNL     1       2.621 -23.300  -7.969  1.00  0.00    -0.504 OA
ATOM     19  H   UNL     1       2.145 -24.178  -7.824  1.00  0.00     0.293 HD
ENDBRANCH  15  18
BRANCH  17  20
ATOM     20  O   UNL     1       3.382 -21.368  -5.910  1.00  0.00    -0.504 OA
ATOM     21  H   UNL     1       3.840 -20.650  -5.366  1.00  0.00     0.293 HD
ENDBRANCH  17  20
ENDBRANCH   1  12
BRANCH   6  22
ATOM     22  O   UNL     1      -2.784 -13.991  -7.875  1.00  0.00    -0.507 OA
ATOM     23  H   UNL     1      -3.121 -14.507  -8.681  1.00  0.00     0.293 HD
ENDBRANCH   6  22
BRANCH   8  24
ATOM     24  O   UNL     1       0.471 -13.160  -4.411  1.00  0.00    -0.508 OA
ATOM     25  H   UNL     1       1.081 -13.500  -3.678  1.00  0.00     0.293 HD
ENDBRANCH   8  24
TORSDOF 5
ENDMDL
MODEL 2
REMARK VINA RESULT:    -6.060      1.829      7.371
REMARK INTER + INTRA:          -7.441
REMARK INTER:                  -7.125
REMARK INTRA:                  -0.317
REMARK UNBOUND:                -0.319
REMARK SMILES O=c1cc(-c2ccc(O)c(O)c2)oc2cc(O)cc(O)c12
REMARK SMILES IDX 4 1 3 2 2 3 1 4 21 5 19 6 18 7 16 8 15 9 14 10 13 11 5 12
REMARK SMILES IDX 6 13 7 14 8 15 12 16 10 17 9 18 11 20 20 22 17 24
REMARK H PARENT 9 19 11 21 20 23 17 25
REMARK Flexibility Score: inf
ROOT
ATOM      1  C   UNL     1       0.141 -18.143  -7.643  1.00  0.00     0.138 A 
ATOM      2  C   UNL     1       1.358 -18.754  -7.300  1.00  0.00     0.100 A 
ATOM      3  C   UNL     1       1.629 -20.045  -7.755  1.00  0.00     0.197 A 
ATOM      4  O   UNL     1       2.724 -20.586  -7.441  1.00  0.00    -0.289 OA
ATOM      5  C   UNL     1       0.677 -20.719  -8.546  1.00  0.00     0.107 A 
ATOM      6  C   UNL     1       0.873 -22.028  -9.047  1.00  0.00     0.134 A 
ATOM      7  C   UNL     1      -0.127 -22.631  -9.824  1.00  0.00     0.093 A 
ATOM      8  C   UNL     1      -1.315 -21.953 -10.108  1.00  0.00     0.123 A 
ATOM      9  C   UNL     1      -1.515 -20.659  -9.615  1.00  0.00     0.094 A 
ATOM     10  C   UNL     1      -0.529 -20.040  -8.840  1.00  0.00     0.146 A 
ATOM     11  O   UNL     1      -0.741 -18.810  -8.384  1.00  0.00    -0.456 OA
ENDROOT
BRANCH   1  12
ATOM     12  C   UNL     1      -0.202 -16.771  -7.188  1.00  0.00     0.021 A 
ATOM     13  C   UNL     1       0.559 -16.104  -6.211  1.00  0.00     0.016 A 
ATOM     14  C   UNL     1       0.218 -14.811  -5.811  1.00  0.00     0.051 A 
ATOM     15  C   UNL     1      -0.878 -14.152  -6.377  1.00  0.00     0.157 A 
ATOM     16  C   UNL     1      -1.295 -16.102  -7.766  1.00  0.00     0.062 A 
ATOM     17  C   UNL     1      -1.644 -14.806  -7.369  1.00  0.00     0.158 A 
BRANCH  15  18
ATOM     18  O   UNL     1      -1.165 -12.861  -5.929  1.00  0.00    -0.504 OA
ATOM     19  H   UNL     1      -1.385 -12.632  -4.971  1.00  0.00     0.293 HD
ENDBRANCH  15  18
BRANCH  17  20
ATOM     20  O   UNL     1      -2.748 -14.211  -7.983  1.00  0.00    -0.504 OA
ATOM     21  H   UNL     1      -2.979 -13.231  -7.903  1.00  0.00     0.293 HD
ENDBRANCH  17  20
ENDBRANCH   1  12
BRANCH   6  22
ATOM     22  O   UNL     1       2.048 -22.730  -8.779  1.00  0.00    -0.507 OA
ATOM     23  H   UNL     1       2.359 -23.494  -9.369  1.00  0.00     0.293 HD
ENDBRANCH   6  22
BRANCH   8  24
ATOM     24  O   UNL     1      -2.293 -22.576 -10.881  1.00  0.00    -0.508 OA
ATOM     25  H   UNL     1      -2.920 -22.042 -11.471  1.00  0.00     0.293 HD
ENDBRANCH   8  24
TORSDOF 5
ENDMDL
MODEL 3
REMARK VINA RESULT:    -5.886      1.827      3.419
REMARK INTER + INTRA:          -7.236
REMARK INTER:                  -6.919
REMARK INTRA:                  -0.318
REMARK UNBOUND:                -0.319
REMARK SMILES O=c1cc(-c2ccc(O)c(O)c2)oc2cc(O)cc(O)c12
REMARK SMILES IDX 4 1 3 2 2 3 1 4 21 5 19 6 18 7 16 8 15 9 14 10 13 11 5 12
REMARK SMILES IDX 6 13 7 14 8 15 12 16 10 17 9 18 11 20 20 22 17 24
REMARK H PARENT 9 19 11 21 20 23 17 25
REMARK Flexibility Score: inf
ROOT
ATOM      1  C   UNL     1       0.419 -18.998  -7.822  1.00  0.00     0.138 A 
ATOM      2  C   UNL     1       1.384 -18.639  -6.865  1.00  0.00     0.100 A 
ATOM      3  C   UNL     1       1.330 -17.375  -6.278  1.00  0.00     0.197 A 
ATOM      4  O   UNL     1       2.200 -17.061  -5.421  1.00  0.00    -0.289 OA
ATOM      5  C   UNL     1       0.313 -16.474  -6.655  1.00  0.00     0.107 A 
ATOM      6  C   UNL     1       0.185 -15.175  -6.108  1.00  0.00     0.134 A 
ATOM      7  C   UNL     1      -0.853 -14.338  -6.541  1.00  0.00     0.093 A 
ATOM      8  C   UNL     1      -1.764 -14.773  -7.507  1.00  0.00     0.123 A 
ATOM      9  C   UNL     1      -1.643 -16.056  -8.052  1.00  0.00     0.094 A 
ATOM     10  C   UNL     1      -0.616 -16.906  -7.632  1.00  0.00     0.146 A 
ATOM     11  O   UNL     1      -0.522 -18.122  -8.162  1.00  0.00    -0.456 OA
ENDROOT
BRANCH   1  12
ATOM     12  C   UNL     1       0.427 -20.330  -8.480  1.00  0.00     0.021 A 
ATOM     13  C   UNL     1       1.486 -21.238  -8.298  1.00  0.00     0.016 A 
ATOM     14  C   UNL     1       1.460 -22.486  -8.922  1.00  0.00     0.051 A 
ATOM     15  C   UNL     1       0.383 -22.861  -9.731  1.00  0.00     0.157 A 
ATOM     16  C   UNL     1      -0.662 -20.712  -9.283  1.00  0.00     0.062 A 
ATOM     17  C   UNL     1      -0.693 -21.962  -9.913  1.00  0.00     0.158 A 
BRANCH  15  18
ATOM     18  O   UNL     1       0.423 -24.123 -10.328  1.00  0.00    -0.504 OA
ATOM     19  H   UNL     1       1.054 -24.859 -10.049  1.00  0.00     0.293 HD
ENDBRANCH  15  18
BRANCH  17  20
ATOM     20  O   UNL     1      -1.805 -22.265 -10.701  1.00  0.00    -0.504 OA
ATOM     21  H   UNL     1      -2.247 -23.173 -10.727  1.00  0.00     0.293 HD
ENDBRANCH  17  20
ENDBRANCH   1  12
BRANCH   6  22
ATOM     22  O   UNL     1       1.081 -14.713  -5.143  1.00  0.00    -0.507 OA
ATOM     23  H   UNL     1       0.865 -13.916  -4.555  1.00  0.00     0.293 HD
ENDBRANCH   6  22
BRANCH   8  24
ATOM     24  O   UNL     1      -2.785 -13.921  -7.920  1.00  0.00    -0.508 OA
ATOM     25  H   UNL     1      -3.725 -14.262  -8.085  1.00  0.00     0.293 HD
ENDBRANCH   8  24
TORSDOF 5
ENDMDL
MODEL 4
REMARK VINA RESULT:    -5.806      1.783      2.557
REMARK INTER + INTRA:          -7.143
REMARK INTER:                  -6.850
REMARK INTRA:                  -0.293
REMARK UNBOUND:                -0.319
REMARK SMILES O=c1cc(-c2ccc(O)c(O)c2)oc2cc(O)cc(O)c12
REMARK SMILES IDX 4 1 3 2 2 3 1 4 21 5 19 6 18 7 16 8 15 9 14 10 13 11 5 12
REMARK SMILES IDX 6 13 7 14 8 15 12 16 10 17 9 18 11 20 20 22 17 24
REMARK H PARENT 9 19 11 21 20 23 17 25
REMARK Flexibility Score: inf
ROOT
ATOM      1  C   UNL     1      -0.986 -18.827  -8.567  1.00  0.00     0.138 A 
ATOM      2  C   UNL     1      -2.105 -18.193  -9.131  1.00  0.00     0.100 A 
ATOM      3  C   UNL     1      -2.437 -16.899  -8.727  1.00  0.00     0.197 A 
ATOM      4  O   UNL     1      -3.444 -16.338  -9.237  1.00  0.00    -0.289 OA
ATOM      5  C   UNL     1      -1.647 -16.249  -7.757  1.00  0.00     0.107 A 
ATOM      6  C   UNL     1      -1.913 -14.938  -7.292  1.00  0.00     0.134 A 
ATOM      7  C   UNL     1      -1.081 -14.364  -6.320  1.00  0.00     0.093 A 
ATOM      8  C   UNL     1       0.007 -15.072  -5.804  1.00  0.00     0.123 A 
ATOM      9  C   UNL     1       0.274 -16.368  -6.259  1.00  0.00     0.094 A 
ATOM     10  C   UNL     1      -0.542 -16.957  -7.229  1.00  0.00     0.146 A 
ATOM     11  O   UNL     1      -0.267 -18.189  -7.646  1.00  0.00    -0.456 OA
ENDROOT
BRANCH   1  12
ATOM     12  C   UNL     1      -0.586 -20.203  -8.958  1.00  0.00     0.021 A 
ATOM     13  C   UNL     1       0.672 -20.732  -8.617  1.00  0.00     0.016 A 
ATOM     14  C   UNL     1       1.015 -22.033  -8.991  1.00  0.00     0.051 A 
ATOM     15  C   UNL     1       0.117 -22.835  -9.702  1.00  0.00     0.157 A 
ATOM     16  C   UNL     1      -1.494 -21.014  -9.661  1.00  0.00     0.062 A 
ATOM     17  C   UNL     1      -1.155 -22.319 -10.040  1.00  0.00     0.158 A 
BRANCH  15  18
ATOM     18  O   UNL     1       0.526 -24.125 -10.046  1.00  0.00    -0.504 OA
ATOM     19  H   UNL     1       0.068 -24.966  -9.726  1.00  0.00     0.293 HD
ENDBRANCH  15  18
BRANCH  17  20
ATOM     20  O   UNL     1      -2.107 -23.060 -10.743  1.00  0.00    -0.504 OA
ATOM     21  H   UNL     1      -1.928 -23.515 -11.627  1.00  0.00     0.293 HD
ENDBRANCH  17  20
ENDBRANCH   1  12
BRANCH   6  22
ATOM     22  O   UNL     1      -2.993 -14.207  -7.788  1.00  0.00    -0.507 OA
ATOM     23  H   UNL     1      -3.810 -14.662  -8.179  1.00  0.00     0.293 HD
ENDBRANCH   6  22
BRANCH   8  24
ATOM     24  O   UNL     1       0.817 -14.478  -4.838  1.00  0.00    -0.508 OA
ATOM     25  H   UNL     1       1.232 -13.566  -4.985  1.00  0.00     0.293 HD
ENDBRANCH   8  24
TORSDOF 5
ENDMDL
MODEL 5
REMARK VINA RESULT:    -5.769      2.297      7.651
REMARK INTER + INTRA:          -7.099
REMARK INTER:                  -6.790
REMARK INTRA:                  -0.310
REMARK UNBOUND:                -0.319
REMARK SMILES O=c1cc(-c2ccc(O)c(O)c2)oc2cc(O)cc(O)c12
REMARK SMILES IDX 4 1 3 2 2 3 1 4 21 5 19 6 18 7 16 8 15 9 14 10 13 11 5 12
REMARK SMILES IDX 6 13 7 14 8 15 12 16 10 17 9 18 11 20 20 22 17 24
REMARK H PARENT 9 19 11 21 20 23 17 25
REMARK Flexibility Score: inf
ROOT
ATOM      1  C   UNL     1      -0.425 -15.153  -5.668  1.00  0.00     0.138 A 
ATOM      2  C   UNL     1       0.918 -15.510  -5.460  1.00  0.00     0.100 A 
ATOM      3  C   UNL     1       1.438 -16.632  -6.105  1.00  0.00     0.197 A 
ATOM      4  O   UNL     1       2.644 -16.946  -5.911  1.00  0.00    -0.289 OA
ATOM      5  C   UNL     1       0.609 -17.394  -6.953  1.00  0.00     0.107 A 
ATOM      6  C   UNL     1       1.056 -18.544  -7.646  1.00  0.00     0.134 A 
ATOM      7  C   UNL     1       0.166 -19.251  -8.467  1.00  0.00     0.093 A 
ATOM      8  C   UNL     1      -1.159 -18.831  -8.610  1.00  0.00     0.123 A 
ATOM      9  C   UNL     1      -1.607 -17.695  -7.927  1.00  0.00     0.094 A 
ATOM     10  C   UNL     1      -0.735 -16.976  -7.105  1.00  0.00     0.146 A 
ATOM     11  O   UNL     1      -1.183 -15.899  -6.468  1.00  0.00    -0.456 OA
ENDROOT
BRANCH   1  12
ATOM     12  C   UNL     1      -1.032 -13.970  -5.008  1.00  0.00     0.021 A 
ATOM     13  C   UNL     1      -0.256 -12.867  -4.607  1.00  0.00     0.016 A 
ATOM     14  C   UNL     1      -0.857 -11.765  -3.997  1.00  0.00     0.051 A 
ATOM     15  C   UNL     1      -2.238 -11.731  -3.780  1.00  0.00     0.157 A 
ATOM     16  C   UNL     1      -2.422 -13.929  -4.801  1.00  0.00     0.062 A 
ATOM     17  C   UNL     1      -3.032 -12.827  -4.189  1.00  0.00     0.158 A 
BRANCH  15  18
ATOM     18  O   UNL     1      -2.774 -10.599  -3.162  1.00  0.00    -0.504 OA
ATOM     19  H   UNL     1      -2.314 -10.088  -2.423  1.00  0.00     0.293 HD
ENDBRANCH  15  18
BRANCH  17  20
ATOM     20  O   UNL     1      -4.416 -12.864  -4.011  1.00  0.00    -0.504 OA
ATOM     21  H   UNL     1      -4.996 -12.042  -3.921  1.00  0.00     0.293 HD
ENDBRANCH  17  20
ENDBRANCH   1  12
BRANCH   6  22
ATOM     22  O   UNL     1       2.373 -18.988  -7.523  1.00  0.00    -0.507 OA
ATOM     23  H   UNL     1       2.678 -19.538  -6.727  1.00  0.00     0.293 HD
ENDBRANCH   6  22
BRANCH   8  24
ATOM     24  O   UNL     1      -2.023 -19.552  -9.431  1.00  0.00    -0.508 OA
ATOM     25  H   UNL     1      -2.573 -20.323  -9.073  1.00  0.00     0.293 HD
ENDBRANCH   8  24
TORSDOF 5
ENDMDL
MODEL 6
REMARK VINA RESULT:    -5.635      1.573      7.446
REMARK INTER + INTRA:          -6.942
REMARK INTER:                  -6.648
REMARK INTRA:                  -0.294
REMARK UNBOUND:                -0.319
REMARK SMILES O=c1cc(-c2ccc(O)c(O)c2)oc2cc(O)cc(O)c12
REMARK SMILES IDX 4 1 3 2 2 3 1 4 21 5 19 6 18 7 16 8 15 9 14 10 13 11 5 12
REMARK SMILES IDX 6 13 7 14 8 15 12 16 10 17 9 18 11 20 20 22 17 24
REMARK H PARENT 9 19 11 21 20 23 17 25
REMARK Flexibility Score: inf
ROOT
ATOM      1  C   UNL     1       0.740 -18.925  -7.657  1.00  0.00     0.138 A 
ATOM      2  C   UNL     1       1.790 -19.421  -6.867  1.00  0.00     0.100 A 
ATOM      3  C   UNL     1       2.212 -20.740  -7.037  1.00  0.00     0.197 A 
ATOM      4  O   UNL     1       3.154 -21.178  -6.322  1.00  0.00    -0.289 OA
ATOM      5  C   UNL     1       1.576 -21.557  -7.993  1.00  0.00     0.107 A 
ATOM      6  C   UNL     1       1.941 -22.904  -8.229  1.00  0.00     0.134 A 
ATOM      7  C   UNL     1       1.254 -23.651  -9.197  1.00  0.00     0.093 A 
ATOM      8  C   UNL     1       0.212 -23.080  -9.931  1.00  0.00     0.123 A 
ATOM      9  C   UNL     1      -0.155 -21.749  -9.702  1.00  0.00     0.094 A 
ATOM     10  C   UNL     1       0.519 -20.987  -8.743  1.00  0.00     0.146 A 
ATOM     11  O   UNL     1       0.154 -19.724  -8.545  1.00  0.00    -0.456 OA
ENDROOT
BRANCH   1  12
ATOM     12  C   UNL     1       0.249 -17.529  -7.520  1.00  0.00     0.021 A 
ATOM     13  C   UNL     1      -0.686 -16.983  -8.417  1.00  0.00     0.016 A 
ATOM     14  C   UNL     1      -1.136 -15.671  -8.257  1.00  0.00     0.051 A 
ATOM     15  C   UNL     1      -0.673 -14.879  -7.202  1.00  0.00     0.157 A 
ATOM     16  C   UNL     1       0.704 -16.737  -6.451  1.00  0.00     0.062 A 
ATOM     17  C   UNL     1       0.259 -15.420  -6.285  1.00  0.00     0.158 A 
BRANCH  15  18
ATOM     18  O   UNL     1      -1.161 -13.575  -7.101  1.00  0.00    -0.504 OA
ATOM     19  H   UNL     1      -1.779 -13.150  -7.778  1.00  0.00     0.293 HD
ENDBRANCH  15  18
BRANCH  17  20
ATOM     20  O   UNL     1       0.762 -14.694  -5.205  1.00  0.00    -0.504 OA
ATOM     21  H   UNL     1       0.821 -13.686  -5.180  1.00  0.00     0.293 HD
ENDBRANCH  17  20
ENDBRANCH   1  12
BRANCH   6  22
ATOM     22  O   UNL     1       2.977 -23.502  -7.511  1.00  0.00    -0.507 OA
ATOM     23  H   UNL     1       3.951 -23.332  -7.738  1.00  0.00     0.293 HD
ENDBRANCH   6  22
BRANCH   8  24
ATOM     24  O   UNL     1      -0.455 -23.845 -10.885  1.00  0.00    -0.508 OA
ATOM     25  H   UNL     1      -1.462 -23.950 -10.869  1.00  0.00     0.293 HD
ENDBRANCH   8  24
TORSDOF 5
ENDMDL
MODEL 7
REMARK VINA RESULT:    -5.597      1.951      7.107
REMARK INTER + INTRA:          -6.898
REMARK INTER:                  -6.612
REMARK INTRA:                  -0.286
REMARK UNBOUND:                -0.319
REMARK SMILES O=c1cc(-c2ccc(O)c(O)c2)oc2cc(O)cc(O)c12
REMARK SMILES IDX 4 1 3 2 2 3 1 4 21 5 19 6 18 7 16 8 15 9 14 10 13 11 5 12
REMARK SMILES IDX 6 13 7 14 8 15 12 16 10 17 9 18 11 20 20 22 17 24
REMARK H PARENT 9 19 11 21 20 23 17 25
REMARK Flexibility Score: inf
ROOT
ATOM      1  C   UNL     1      -1.032 -15.713  -6.273  1.00  0.00     0.138 A 
ATOM      2  C   UNL     1      -2.019 -16.170  -7.162  1.00  0.00     0.100 A 
ATOM      3  C   UNL     1      -1.815 -17.360  -7.861  1.00  0.00     0.197 A 
ATOM      4  O   UNL     1      -2.706 -17.762  -8.658  1.00  0.00    -0.289 OA
ATOM      5  C   UNL     1      -0.621 -18.084  -7.670  1.00  0.00     0.107 A 
ATOM      6  C   UNL     1      -0.335 -19.298  -8.338  1.00  0.00     0.134 A 
ATOM      7  C   UNL     1       0.880 -19.955  -8.095  1.00  0.00     0.093 A 
ATOM      8  C   UNL     1       1.812 -19.423  -7.201  1.00  0.00     0.123 A 
ATOM      9  C   UNL     1       1.536 -18.222  -6.539  1.00  0.00     0.094 A 
ATOM     10  C   UNL     1       0.329 -17.554  -6.765  1.00  0.00     0.146 A 
ATOM     11  O   UNL     1       0.088 -16.415  -6.122  1.00  0.00    -0.456 OA
ENDROOT
BRANCH   1  12
ATOM     12  C   UNL     1      -1.195 -14.454  -5.502  1.00  0.00     0.021 A 
ATOM     13  C   UNL     1      -0.093 -13.650  -5.157  1.00  0.00     0.016 A 
ATOM     14  C   UNL     1      -0.278 -12.467  -4.440  1.00  0.00     0.051 A 
ATOM     15  C   UNL     1      -1.559 -12.054  -4.059  1.00  0.00     0.157 A 
ATOM     16  C   UNL     1      -2.483 -14.031  -5.130  1.00  0.00     0.062 A 
ATOM     17  C   UNL     1      -2.676 -12.846  -4.410  1.00  0.00     0.158 A 
BRANCH  15  18
ATOM     18  O   UNL     1      -1.673 -10.861  -3.341  1.00  0.00    -0.504 OA
ATOM     19  H   UNL     1      -2.538 -10.520  -2.948  1.00  0.00     0.293 HD
ENDBRANCH  15  18
BRANCH  17  20
ATOM     20  O   UNL     1      -3.985 -12.497  -4.070  1.00  0.00    -0.504 OA
ATOM     21  H   UNL     1      -4.360 -12.560  -3.134  1.00  0.00     0.293 HD
ENDBRANCH  17  20
ENDBRANCH   1  12
BRANCH   6  22
ATOM     22  O   UNL     1      -1.246 -19.854  -9.237  1.00  0.00    -0.507 OA
ATOM     23  H   UNL     1      -2.036 -20.406  -8.923  1.00  0.00     0.293 HD
ENDBRANCH   6  22
BRANCH   8  24
ATOM     24  O   UNL     1       3.012 -20.095  -6.980  1.00  0.00    -0.508 OA
ATOM     25  H   UNL     1       3.612 -19.863  -6.197  1.00  0.00     0.293 HD
ENDBRANCH   8  24
TORSDOF 5
ENDMDL
MODEL 8
REMARK VINA RESULT:    -5.572      2.318      3.313
REMARK INTER + INTRA:          -6.868
REMARK INTER:                  -6.580
REMARK INTRA:                  -0.288
REMARK UNBOUND:                -0.319
REMARK SMILES O=c1cc(-c2ccc(O)c(O)c2)oc2cc(O)cc(O)c12
REMARK SMILES IDX 4 1 3 2 2 3 1 4 21 5 19 6 18 7 16 8 15 9 14 10 13 11 5 12
REMARK SMILES IDX 6 13 7 14 8 15 12 16 10 17 9 18 11 20 20 22 17 24
REMARK H PARENT 9 19 11 21 20 23 17 25
REMARK Flexibility Score: inf
ROOT
ATOM      1  C   UNL     1       1.855 -17.442  -5.966  1.00  0.00     0.138 A 
ATOM      2  C   UNL     1       1.221 -17.942  -7.116  1.00  0.00     0.100 A 
ATOM      3  C   UNL     1       0.188 -17.210  -7.702  1.00  0.00     0.197 A 
ATOM      4  O   UNL     1      -0.377 -17.667  -8.733  1.00  0.00    -0.289 OA
ATOM      5  C   UNL     1      -0.209 -15.984  -7.130  1.00  0.00     0.107 A 
ATOM      6  C   UNL     1      -1.246 -15.181  -7.661  1.00  0.00     0.134 A 
ATOM      7  C   UNL     1      -1.583 -13.975  -7.029  1.00  0.00     0.093 A 
ATOM      8  C   UNL     1      -0.906 -13.559  -5.880  1.00  0.00     0.123 A 
ATOM      9  C   UNL     1       0.119 -14.349  -5.350  1.00  0.00     0.094 A 
ATOM     10  C   UNL     1       0.472 -15.553  -5.967  1.00  0.00     0.146 A 
ATOM     11  O   UNL     1       1.451 -16.286  -5.446  1.00  0.00    -0.456 OA
ENDROOT
BRANCH   1  12
ATOM     12  C   UNL     1       2.961 -18.177  -5.300  1.00  0.00     0.021 A 
ATOM     13  C   UNL     1       3.934 -17.512  -4.533  1.00  0.00     0.016 A 
ATOM     14  C   UNL     1       4.956 -18.231  -3.911  1.00  0.00     0.051 A 
ATOM     15  C   UNL     1       5.028 -19.623  -4.030  1.00  0.00     0.157 A 
ATOM     16  C   UNL     1       3.025 -19.577  -5.408  1.00  0.00     0.062 A 
ATOM     17  C   UNL     1       4.048 -20.305  -4.788  1.00  0.00     0.158 A 
BRANCH  15  18
ATOM     18  O   UNL     1       6.077 -20.280  -3.384  1.00  0.00    -0.504 OA
ATOM     19  H   UNL     1       6.614 -21.029  -3.798  1.00  0.00     0.293 HD
ENDBRANCH  15  18
BRANCH  17  20
ATOM     20  O   UNL     1       4.050 -21.692  -4.949  1.00  0.00    -0.504 OA
ATOM     21  H   UNL     1       4.648 -22.320  -4.431  1.00  0.00     0.293 HD
ENDBRANCH  17  20
ENDBRANCH   1  12
BRANCH   6  22
ATOM     22  O   UNL     1      -1.941 -15.571  -8.807  1.00  0.00    -0.507 OA
ATOM     23  H   UNL     1      -2.904 -15.882  -8.765  1.00  0.00     0.293 HD
ENDBRANCH   6  22
BRANCH   8  24
ATOM     24  O   UNL     1      -1.262 -12.357  -5.272  1.00  0.00    -0.508 OA
ATOM     25  H   UNL     1      -2.059 -11.818  -5.590  1.00  0.00     0.293 HD
ENDBRANCH   8  24
TORSDOF 5
ENDMDL
MODEL 9
REMARK VINA RESULT:    -5.430      2.300      7.232
REMARK INTER + INTRA:          -6.701
REMARK INTER:                  -6.405
REMARK INTRA:                  -0.296
REMARK UNBOUND:                -0.319
REMARK SMILES O=c1cc(-c2ccc(O)c(O)c2)oc2cc(O)cc(O)c12
REMARK SMILES IDX 4 1 3 2 2 3 1 4 21 5 19 6 18 7 16 8 15 9 14 10 13 11 5 12
REMARK SMILES IDX 6 13 7 14 8 15 12 16 10 17 9 18 11 20 20 22 17 24
REMARK H PARENT 9 19 11 21 20 23 17 25
REMARK Flexibility Score: inf
ROOT
ATOM      1  C   UNL     1      -0.942 -19.325  -8.856  1.00  0.00     0.138 A 
ATOM      2  C   UNL     1      -1.856 -20.025  -9.661  1.00  0.00     0.100 A 
ATOM      3  C   UNL     1      -1.602 -21.358  -9.987  1.00  0.00     0.197 A 
ATOM      4  O   UNL     1      -2.427 -21.978 -10.712  1.00  0.00    -0.289 OA
ATOM      5  C   UNL     1      -0.432 -21.982  -9.507  1.00  0.00     0.107 A 
ATOM      6  C   UNL     1      -0.100 -23.328  -9.789  1.00  0.00     0.134 A 
ATOM      7  C   UNL     1       1.087 -23.873  -9.278  1.00  0.00     0.093 A 
ATOM      8  C   UNL     1       1.945 -23.100  -8.492  1.00  0.00     0.123 A 
ATOM      9  C   UNL     1       1.622 -21.768  -8.211  1.00  0.00     0.094 A 
ATOM     10  C   UNL     1       0.443 -21.207  -8.709  1.00  0.00     0.146 A 
ATOM     11  O   UNL     1       0.157 -19.940  -8.427  1.00  0.00    -0.456 OA
ENDROOT
BRANCH   1  12
ATOM     12  C   UNL     1      -1.160 -17.905  -8.478  1.00  0.00     0.021 A 
ATOM     13  C   UNL     1      -2.421 -17.434  -8.070  1.00  0.00     0.016 A 
ATOM     14  C   UNL     1      -2.592 -16.096  -7.711  1.00  0.00     0.051 A 
ATOM     15  C   UNL     1      -1.517 -15.202  -7.742  1.00  0.00     0.157 A 
ATOM     16  C   UNL     1      -0.076 -17.010  -8.496  1.00  0.00     0.062 A 
ATOM     17  C   UNL     1      -0.241 -15.666  -8.138  1.00  0.00     0.158 A 
BRANCH  15  18
ATOM     18  O   UNL     1      -1.758 -13.877  -7.374  1.00  0.00    -0.504 OA
ATOM     19  H   UNL     1      -1.532 -13.081  -7.951  1.00  0.00     0.293 HD
ENDBRANCH  15  18
BRANCH  17  20
ATOM     20  O   UNL     1       0.881 -14.837  -8.189  1.00  0.00    -0.504 OA
ATOM     21  H   UNL     1       1.225 -14.404  -9.035  1.00  0.00     0.293 HD
ENDBRANCH  17  20
ENDBRANCH   1  12
BRANCH   6  22
ATOM     22  O   UNL     1      -0.937 -24.124 -10.572  1.00  0.00    -0.507 OA
ATOM     23  H   UNL     1      -1.667 -23.723 -11.150  1.00  0.00     0.293 HD
ENDBRANCH   6  22
BRANCH   8  24
ATOM     24  O   UNL     1       3.118 -23.665  -7.997  1.00  0.00    -0.508 OA
ATOM     25  H   UNL     1       3.166 -24.051  -7.062  1.00  0.00     0.293 HD
ENDBRANCH   8  24
TORSDOF 5
ENDMDL
