MODEL 1
REMARK VINA RESULT:    -5.940      0.000      0.000
REMARK INTER + INTRA:         -18.918
REMARK INTER:                 -14.968
REMARK INTRA:                  -3.950
REMARK UNBOUND:                -3.950
REMARK SMILES CCCCCCCCCCCCCCCCCCCCCCCCCCCC(=O)[O-]
REMARK SMILES IDX 15 1 16 2 17 3 18 4 19 5 20 6 21 7 22 8 23 9 24 10 25 11
REMARK SMILES IDX 26 12 27 13 28 14 29 15 30 16 14 17 13 18 12 19 11 20 10 21
REMARK SMILES IDX 9 22 8 23 7 24 6 25 5 26 4 27 3 28 2 29 1 30
REMARK H PARENT
REMARK Flexibility Score: inf
ROOT
ATOM      1  C   UNL     1      55.517  37.101  41.141  1.00  0.00     0.000 C 
ENDROOT
BRANCH   1   2
ATOM      2  C   UNL     1      56.482  36.957  42.329  1.00  0.00     0.000 C 
BRANCH   2   3
ATOM      3  C   UNL     1      56.166  35.730  43.198  1.00  0.00     0.000 C 
BRANCH   3   4
ATOM      4  C   UNL     1      55.441  34.622  42.413  1.00  0.00     0.000 C 
BRANCH   4   5
ATOM      5  C   UNL     1      54.643  33.677  43.326  1.00  0.00     0.000 C 
BRANCH   5   6
ATOM      6  C   UNL     1      53.135  33.704  43.021  1.00  0.00     0.000 C 
BRANCH   6   7
ATOM      7  C   UNL     1      52.600  35.132  42.812  1.00  0.00     0.000 C 
BRANCH   7   8
ATOM      8  C   UNL     1      51.868  35.709  44.042  1.00  0.00     0.000 C 
BRANCH   8   9
ATOM      9  C   UNL     1      52.629  35.534  45.372  1.00  0.00     0.000 C 
BRANCH   9  10
ATOM     10  C   UNL     1      53.664  36.641  45.654  1.00  0.00     0.000 C 
BRANCH  10  11
ATOM     11  C   UNL     1      53.093  38.049  45.424  1.00  0.00     0.000 C 
BRANCH  11  12
ATOM     12  C   UNL     1      53.890  38.794  44.348  1.00  0.00     0.006 C 
BRANCH  12  13
ATOM     13  C   UNL     1      53.069  38.953  43.065  1.00  0.00     0.053 C 
BRANCH  13  14
ATOM     14  C   UNL     1      53.070  40.379  42.617  1.00  0.00     0.041 C 
ATOM     15  O   UNL     1      53.856  40.759  41.709  1.00  0.00    -0.550 OA
ATOM     16  O   UNL     1      52.239  41.304  43.237  1.00  0.00    -0.550 OA
ENDBRANCH  13  14
ENDBRANCH  12  13
ENDBRANCH  11  12
ENDBRANCH  10  11
ENDBRANCH   9  10
ENDBRANCH   8   9
ENDBRANCH   7   8
ENDBRANCH   6   7
ENDBRANCH   5   6
ENDBRANCH   4   5
ENDBRANCH   3   4
ENDBRANCH   2   3
ENDBRANCH   1   2
BRANCH   1  17
ATOM     17  C   UNL     1      55.972  38.171  40.136  1.00  0.00     0.000 C 
BRANCH  17  18
ATOM     18  C   UNL     1      57.471  38.071  39.805  1.00  0.00     0.000 C 
BRANCH  18  19
ATOM     19  C   UNL     1      57.815  38.700  38.440  1.00  0.00     0.000 C 
BRANCH  19  20
ATOM     20  C   UNL     1      59.317  38.659  38.089  1.00  0.00     0.000 C 
BRANCH  20  21
ATOM     21  C   UNL     1      59.719  37.495  37.158  1.00  0.00     0.000 C 
BRANCH  21  22
ATOM     22  C   UNL     1      58.578  37.010  36.239  1.00  0.00    -0.000 C 
BRANCH  22  23
ATOM     23  C   UNL     1      58.643  37.568  34.804  1.00  0.00    -0.000 C 
BRANCH  23  24
ATOM     24  C   UNL     1      57.524  38.577  34.467  1.00  0.00    -0.000 C 
BRANCH  24  25
ATOM     25  C   UNL     1      57.835  40.011  34.933  1.00  0.00    -0.000 C 
BRANCH  25  26
ATOM     26  C   UNL     1      59.046  40.637  34.203  1.00  0.00    -0.000 C 
BRANCH  26  27
ATOM     27  C   UNL     1      60.322  40.699  35.065  1.00  0.00    -0.000 C 
BRANCH  27  28
ATOM     28  C   UNL     1      61.560  40.050  34.423  1.00  0.00    -0.000 C 
BRANCH  28  29
ATOM     29  C   UNL     1      62.379  39.219  35.423  1.00  0.00    -0.003 C 
ATOM     30  C   UNL     1      62.507  39.942  36.761  1.00  0.00     0.004 C 
ENDBRANCH  28  29
ENDBRANCH  27  28
ENDBRANCH  26  27
ENDBRANCH  25  26
ENDBRANCH  24  25
ENDBRANCH  23  24
ENDBRANCH  22  23
ENDBRANCH  21  22
ENDBRANCH  20  21
ENDBRANCH  19  20
ENDBRANCH  18  19
ENDBRANCH  17  18
ENDBRANCH   1  17
TORSDOF 26
ENDMDL
MODEL 2
REMARK VINA RESULT:    -5.836      1.585      2.697
REMARK INTER + INTRA:         -18.656
REMARK INTER:                 -14.838
REMARK INTRA:                  -3.818
REMARK UNBOUND:                -3.950
REMARK SMILES CCCCCCCCCCCCCCCCCCCCCCCCCCCC(=O)[O-]
REMARK SMILES IDX 15 1 16 2 17 3 18 4 19 5 20 6 21 7 22 8 23 9 24 10 25 11
REMARK SMILES IDX 26 12 27 13 28 14 29 15 30 16 14 17 13 18 12 19 11 20 10 21
REMARK SMILES IDX 9 22 8 23 7 24 6 25 5 26 4 27 3 28 2 29 1 30
REMARK H PARENT
REMARK Flexibility Score: inf
ROOT
ATOM      1  C   UNL     1      55.397  37.114  40.710  1.00  0.00     0.000 C 
ENDROOT
BRANCH   1   2
ATOM      2  C   UNL     1      56.348  37.068  41.917  1.00  0.00     0.000 C 
BRANCH   2   3
ATOM      3  C   UNL     1      56.111  35.838  42.806  1.00  0.00     0.000 C 
BRANCH   3   4
ATOM      4  C   UNL     1      55.505  34.656  42.028  1.00  0.00     0.000 C 
BRANCH   4   5
ATOM      5  C   UNL     1      55.488  33.355  42.848  1.00  0.00     0.000 C 
BRANCH   5   6
ATOM      6  C   UNL     1      54.089  33.027  43.397  1.00  0.00     0.000 C 
BRANCH   6   7
ATOM      7  C   UNL     1      52.987  33.892  42.759  1.00  0.00     0.000 C 
BRANCH   7   8
ATOM      8  C   UNL     1      51.708  34.005  43.617  1.00  0.00     0.000 C 
BRANCH   8   9
ATOM      9  C   UNL     1      51.528  35.374  44.305  1.00  0.00     0.000 C 
BRANCH   9  10
ATOM     10  C   UNL     1      52.720  36.332  44.118  1.00  0.00     0.000 C 
BRANCH  10  11
ATOM     11  C   UNL     1      52.287  37.711  43.592  1.00  0.00     0.000 C 
BRANCH  11  12
ATOM     12  C   UNL     1      53.356  38.769  43.887  1.00  0.00     0.006 C 
BRANCH  12  13
ATOM     13  C   UNL     1      54.266  38.327  45.037  1.00  0.00     0.053 C 
BRANCH  13  14
ATOM     14  C   UNL     1      53.814  38.938  46.325  1.00  0.00     0.041 C 
ATOM     15  O   UNL     1      54.446  39.907  46.823  1.00  0.00    -0.550 OA
ATOM     16  O   UNL     1      52.726  38.405  47.003  1.00  0.00    -0.550 OA
ENDBRANCH  13  14
ENDBRANCH  12  13
ENDBRANCH  11  12
ENDBRANCH  10  11
ENDBRANCH   9  10
ENDBRANCH   8   9
ENDBRANCH   7   8
ENDBRANCH   6   7
ENDBRANCH   5   6
ENDBRANCH   4   5
ENDBRANCH   3   4
ENDBRANCH   2   3
ENDBRANCH   1   2
BRANCH   1  17
ATOM     17  C   UNL     1      56.127  37.431  39.395  1.00  0.00     0.000 C 
BRANCH  17  18
ATOM     18  C   UNL     1      57.369  38.314  39.606  1.00  0.00     0.000 C 
BRANCH  18  19
ATOM     19  C   UNL     1      58.000  38.769  38.275  1.00  0.00     0.000 C 
BRANCH  19  20
ATOM     20  C   UNL     1      59.387  38.154  37.994  1.00  0.00     0.000 C 
BRANCH  20  21
ATOM     21  C   UNL     1      59.387  37.068  36.898  1.00  0.00     0.000 C 
BRANCH  21  22
ATOM     22  C   UNL     1      60.730  36.942  36.146  1.00  0.00    -0.000 C 
BRANCH  22  23
ATOM     23  C   UNL     1      60.623  37.155  34.624  1.00  0.00    -0.000 C 
BRANCH  23  24
ATOM     24  C   UNL     1      61.290  38.453  34.120  1.00  0.00    -0.000 C 
BRANCH  24  25
ATOM     25  C   UNL     1      61.574  39.469  35.243  1.00  0.00    -0.000 C 
BRANCH  25  26
ATOM     26  C   UNL     1      60.416  40.469  35.463  1.00  0.00    -0.000 C 
BRANCH  26  27
ATOM     27  C   UNL     1      59.377  40.472  34.324  1.00  0.00    -0.000 C 
BRANCH  27  28
ATOM     28  C   UNL     1      57.955  40.072  34.754  1.00  0.00    -0.000 C 
BRANCH  28  29
ATOM     29  C   UNL     1      57.472  38.780  34.077  1.00  0.00    -0.003 C 
ATOM     30  C   UNL     1      56.400  38.090  34.917  1.00  0.00     0.004 C 
ENDBRANCH  28  29
ENDBRANCH  27  28
ENDBRANCH  26  27
ENDBRANCH  25  26
ENDBRANCH  24  25
ENDBRANCH  23  24
ENDBRANCH  22  23
ENDBRANCH  21  22
ENDBRANCH  20  21
ENDBRANCH  19  20
ENDBRANCH  18  19
ENDBRANCH  17  18
ENDBRANCH   1  17
TORSDOF 26
ENDMDL
MODEL 3
REMARK VINA RESULT:    -5.777      2.753     10.195
REMARK INTER + INTRA:         -18.509
REMARK INTER:                 -14.545
REMARK INTRA:                  -3.963
REMARK UNBOUND:                -3.950
REMARK SMILES CCCCCCCCCCCCCCCCCCCCCCCCCCCC(=O)[O-]
REMARK SMILES IDX 15 1 16 2 17 3 18 4 19 5 20 6 21 7 22 8 23 9 24 10 25 11
REMARK SMILES IDX 26 12 27 13 28 14 29 15 30 16 14 17 13 18 12 19 11 20 10 21
REMARK SMILES IDX 9 22 8 23 7 24 6 25 5 26 4 27 3 28 2 29 1 30
REMARK H PARENT
REMARK Flexibility Score: inf
ROOT
ATOM      1  C   UNL     1      55.720  36.813  40.914  1.00  0.00     0.000 C 
ENDROOT
BRANCH   1   2
ATOM      2  C   UNL     1      55.936  38.011  39.975  1.00  0.00     0.000 C 
BRANCH   2   3
ATOM      3  C   UNL     1      57.416  38.408  39.859  1.00  0.00     0.000 C 
BRANCH   3   4
ATOM      4  C   UNL     1      57.870  38.571  38.397  1.00  0.00     0.000 C 
BRANCH   4   5
ATOM      5  C   UNL     1      57.439  37.392  37.509  1.00  0.00     0.000 C 
BRANCH   5   6
ATOM      6  C   UNL     1      56.935  37.851  36.130  1.00  0.00     0.000 C 
BRANCH   6   7
ATOM      7  C   UNL     1      57.969  37.611  35.014  1.00  0.00     0.000 C 
BRANCH   7   8
ATOM      8  C   UNL     1      58.072  38.772  34.001  1.00  0.00     0.000 C 
BRANCH   8   9
ATOM      9  C   UNL     1      58.047  40.175  34.641  1.00  0.00     0.000 C 
BRANCH   9  10
ATOM     10  C   UNL     1      59.255  40.470  35.553  1.00  0.00     0.000 C 
BRANCH  10  11
ATOM     11  C   UNL     1      60.584  40.479  34.781  1.00  0.00     0.000 C 
BRANCH  11  12
ATOM     12  C   UNL     1      61.673  39.730  35.557  1.00  0.00     0.006 C 
BRANCH  12  13
ATOM     13  C   UNL     1      61.103  39.095  36.829  1.00  0.00     0.053 C 
BRANCH  13  14
ATOM     14  C   UNL     1      61.704  39.729  38.043  1.00  0.00     0.041 C 
ATOM     15  O   UNL     1      61.982  39.029  39.053  1.00  0.00    -0.550 OA
ATOM     16  O   UNL     1      61.910  41.102  38.082  1.00  0.00    -0.550 OA
ENDBRANCH  13  14
ENDBRANCH  12  13
ENDBRANCH  11  12
ENDBRANCH  10  11
ENDBRANCH   9  10
ENDBRANCH   8   9
ENDBRANCH   7   8
ENDBRANCH   6   7
ENDBRANCH   5   6
ENDBRANCH   4   5
ENDBRANCH   3   4
ENDBRANCH   2   3
ENDBRANCH   1   2
BRANCH   1  17
ATOM     17  C   UNL     1      56.483  36.956  42.240  1.00  0.00     0.000 C 
BRANCH  17  18
ATOM     18  C   UNL     1      56.194  35.803  43.216  1.00  0.00     0.000 C 
BRANCH  18  19
ATOM     19  C   UNL     1      55.785  34.506  42.491  1.00  0.00     0.000 C 
BRANCH  19  20
ATOM     20  C   UNL     1      54.665  33.715  43.197  1.00  0.00     0.000 C 
BRANCH  20  21
ATOM     21  C   UNL     1      53.727  34.581  44.063  1.00  0.00     0.000 C 
BRANCH  21  22
ATOM     22  C   UNL     1      52.458  35.056  43.324  1.00  0.00    -0.000 C 
BRANCH  22  23
ATOM     23  C   UNL     1      52.621  36.402  42.592  1.00  0.00    -0.000 C 
BRANCH  23  24
ATOM     24  C   UNL     1      52.293  37.636  43.459  1.00  0.00    -0.000 C 
BRANCH  24  25
ATOM     25  C   UNL     1      53.493  38.582  43.653  1.00  0.00    -0.000 C 
BRANCH  25  26
ATOM     26  C   UNL     1      54.162  38.435  45.039  1.00  0.00    -0.000 C 
BRANCH  26  27
ATOM     27  C   UNL     1      53.242  38.820  46.214  1.00  0.00    -0.000 C 
BRANCH  27  28
ATOM     28  C   UNL     1      53.440  37.978  47.485  1.00  0.00    -0.000 C 
BRANCH  28  29
ATOM     29  C   UNL     1      53.185  36.481  47.251  1.00  0.00    -0.003 C 
ATOM     30  C   UNL     1      51.734  36.229  46.850  1.00  0.00     0.004 C 
ENDBRANCH  28  29
ENDBRANCH  27  28
ENDBRANCH  26  27
ENDBRANCH  25  26
ENDBRANCH  24  25
ENDBRANCH  23  24
ENDBRANCH  22  23
ENDBRANCH  21  22
ENDBRANCH  20  21
ENDBRANCH  19  20
ENDBRANCH  18  19
ENDBRANCH  17  18
ENDBRANCH   1  17
TORSDOF 26
ENDMDL
MODEL 4
REMARK VINA RESULT:    -5.771      2.200      4.412
REMARK INTER + INTRA:         -18.494
REMARK INTER:                 -15.741
REMARK INTRA:                  -2.753
REMARK UNBOUND:                -3.950
REMARK SMILES CCCCCCCCCCCCCCCCCCCCCCCCCCCC(=O)[O-]
REMARK SMILES IDX 15 1 16 2 17 3 18 4 19 5 20 6 21 7 22 8 23 9 24 10 25 11
REMARK SMILES IDX 26 12 27 13 28 14 29 15 30 16 14 17 13 18 12 19 11 20 10 21
REMARK SMILES IDX 9 22 8 23 7 24 6 25 5 26 4 27 3 28 2 29 1 30
REMARK H PARENT
REMARK Flexibility Score: inf
ROOT
ATOM      1  C   UNL     1      55.479  31.129  42.882  1.00  0.00     0.000 C 
ENDROOT
BRANCH   1   2
ATOM      2  C   UNL     1      54.397  30.137  43.338  1.00  0.00     0.000 C 
BRANCH   2   3
ATOM      3  C   UNL     1      53.259  29.996  42.316  1.00  0.00     0.000 C 
BRANCH   3   4
ATOM      4  C   UNL     1      52.092  29.143  42.845  1.00  0.00     0.000 C 
BRANCH   4   5
ATOM      5  C   UNL     1      50.774  29.930  42.924  1.00  0.00     0.000 C 
BRANCH   5   6
ATOM      6  C   UNL     1      50.805  31.212  42.074  1.00  0.00     0.000 C 
BRANCH   6   7
ATOM      7  C   UNL     1      50.597  32.484  42.915  1.00  0.00     0.000 C 
BRANCH   7   8
ATOM      8  C   UNL     1      51.725  33.527  42.758  1.00  0.00     0.000 C 
BRANCH   8   9
ATOM      9  C   UNL     1      51.966  34.392  44.011  1.00  0.00     0.000 C 
BRANCH   9  10
ATOM     10  C   UNL     1      52.059  35.903  43.722  1.00  0.00     0.000 C 
BRANCH  10  11
ATOM     11  C   UNL     1      52.285  36.732  44.997  1.00  0.00     0.000 C 
BRANCH  11  12
ATOM     12  C   UNL     1      53.775  36.803  45.347  1.00  0.00     0.006 C 
BRANCH  12  13
ATOM     13  C   UNL     1      54.422  38.055  44.749  1.00  0.00     0.053 C 
BRANCH  13  14
ATOM     14  C   UNL     1      53.724  39.286  45.235  1.00  0.00     0.041 C 
ATOM     15  O   UNL     1      53.084  40.012  44.428  1.00  0.00    -0.550 OA
ATOM     16  O   UNL     1      53.822  39.661  46.568  1.00  0.00    -0.550 OA
ENDBRANCH  13  14
ENDBRANCH  12  13
ENDBRANCH  11  12
ENDBRANCH  10  11
ENDBRANCH   9  10
ENDBRANCH   8   9
ENDBRANCH   7   8
ENDBRANCH   6   7
ENDBRANCH   5   6
ENDBRANCH   4   5
ENDBRANCH   3   4
ENDBRANCH   2   3
ENDBRANCH   1   2
BRANCH   1  17
ATOM     17  C   UNL     1      55.179  32.572  43.316  1.00  0.00     0.000 C 
BRANCH  17  18
ATOM     18  C   UNL     1      55.776  33.615  42.356  1.00  0.00     0.000 C 
BRANCH  18  19
ATOM     19  C   UNL     1      55.572  35.060  42.854  1.00  0.00     0.000 C 
BRANCH  19  20
ATOM     20  C   UNL     1      55.232  36.069  41.738  1.00  0.00     0.000 C 
BRANCH  20  21
ATOM     21  C   UNL     1      56.365  37.066  41.419  1.00  0.00     0.000 C 
BRANCH  21  22
ATOM     22  C   UNL     1      56.050  38.009  40.238  1.00  0.00    -0.000 C 
BRANCH  22  23
ATOM     23  C   UNL     1      55.959  37.301  38.873  1.00  0.00    -0.000 C 
BRANCH  23  24
ATOM     24  C   UNL     1      57.037  37.743  37.859  1.00  0.00    -0.000 C 
BRANCH  24  25
ATOM     25  C   UNL     1      58.199  38.520  38.505  1.00  0.00    -0.000 C 
BRANCH  25  26
ATOM     26  C   UNL     1      59.117  39.209  37.468  1.00  0.00    -0.000 C 
BRANCH  26  27
ATOM     27  C   UNL     1      60.611  38.882  37.653  1.00  0.00    -0.000 C 
BRANCH  27  28
ATOM     28  C   UNL     1      61.477  39.119  36.403  1.00  0.00    -0.000 C 
BRANCH  28  29
ATOM     29  C   UNL     1      61.225  38.078  35.301  1.00  0.00    -0.003 C 
ATOM     30  C   UNL     1      60.994  36.693  35.898  1.00  0.00     0.004 C 
ENDBRANCH  28  29
ENDBRANCH  27  28
ENDBRANCH  26  27
ENDBRANCH  25  26
ENDBRANCH  24  25
ENDBRANCH  23  24
ENDBRANCH  22  23
ENDBRANCH  21  22
ENDBRANCH  20  21
ENDBRANCH  19  20
ENDBRANCH  18  19
ENDBRANCH  17  18
ENDBRANCH   1  17
TORSDOF 26
ENDMDL
MODEL 5
REMARK VINA RESULT:    -5.731      2.262      4.137
REMARK INTER + INTRA:         -18.392
REMARK INTER:                 -14.516
REMARK INTRA:                  -3.877
REMARK UNBOUND:                -3.950
REMARK SMILES CCCCCCCCCCCCCCCCCCCCCCCCCCCC(=O)[O-]
REMARK SMILES IDX 15 1 16 2 17 3 18 4 19 5 20 6 21 7 22 8 23 9 24 10 25 11
REMARK SMILES IDX 26 12 27 13 28 14 29 15 30 16 14 17 13 18 12 19 11 20 10 21
REMARK SMILES IDX 9 22 8 23 7 24 6 25 5 26 4 27 3 28 2 29 1 30
REMARK H PARENT
REMARK Flexibility Score: inf
ROOT
ATOM      1  C   UNL     1      56.276  37.384  39.754  1.00  0.00     0.000 C 
ENDROOT
BRANCH   1   2
ATOM      2  C   UNL     1      56.185  37.025  41.247  1.00  0.00     0.000 C 
BRANCH   2   3
ATOM      3  C   UNL     1      54.746  37.091  41.781  1.00  0.00     0.000 C 
BRANCH   3   4
ATOM      4  C   UNL     1      53.769  37.721  40.771  1.00  0.00     0.000 C 
BRANCH   4   5
ATOM      5  C   UNL     1      52.875  38.797  41.407  1.00  0.00     0.000 C 
BRANCH   5   6
ATOM      6  C   UNL     1      53.624  40.122  41.634  1.00  0.00     0.000 C 
BRANCH   6   7
ATOM      7  C   UNL     1      53.208  40.818  42.943  1.00  0.00     0.000 C 
BRANCH   7   8
ATOM      8  C   UNL     1      52.439  39.902  43.919  1.00  0.00     0.000 C 
BRANCH   8   9
ATOM      9  C   UNL     1      53.296  39.346  45.075  1.00  0.00     0.000 C 
BRANCH   9  10
ATOM     10  C   UNL     1      53.455  37.813  45.058  1.00  0.00     0.000 C 
BRANCH  10  11
ATOM     11  C   UNL     1      52.102  37.083  45.086  1.00  0.00     0.000 C 
BRANCH  11  12
ATOM     12  C   UNL     1      51.962  36.143  43.884  1.00  0.00     0.006 C 
BRANCH  12  13
ATOM     13  C   UNL     1      52.251  34.693  44.283  1.00  0.00     0.053 C 
BRANCH  13  14
ATOM     14  C   UNL     1      52.550  33.868  43.073  1.00  0.00     0.041 C 
ATOM     15  O   UNL     1      51.644  33.173  42.539  1.00  0.00    -0.550 OA
ATOM     16  O   UNL     1      53.841  33.822  42.563  1.00  0.00    -0.550 OA
ENDBRANCH  13  14
ENDBRANCH  12  13
ENDBRANCH  11  12
ENDBRANCH  10  11
ENDBRANCH   9  10
ENDBRANCH   8   9
ENDBRANCH   7   8
ENDBRANCH   6   7
ENDBRANCH   5   6
ENDBRANCH   4   5
ENDBRANCH   3   4
ENDBRANCH   2   3
ENDBRANCH   1   2
BRANCH   1  17
ATOM     17  C   UNL     1      57.092  38.661  39.502  1.00  0.00     0.000 C 
BRANCH  17  18
ATOM     18  C   UNL     1      58.060  38.520  38.315  1.00  0.00     0.000 C 
BRANCH  18  19
ATOM     19  C   UNL     1      59.525  38.358  38.766  1.00  0.00     0.000 C 
BRANCH  19  20
ATOM     20  C   UNL     1      60.503  38.026  37.621  1.00  0.00     0.000 C 
BRANCH  20  21
ATOM     21  C   UNL     1      59.934  37.062  36.559  1.00  0.00     0.000 C 
BRANCH  21  22
ATOM     22  C   UNL     1      60.953  36.661  35.471  1.00  0.00    -0.000 C 
BRANCH  22  23
ATOM     23  C   UNL     1      61.038  37.649  34.292  1.00  0.00    -0.000 C 
BRANCH  23  24
ATOM     24  C   UNL     1      62.054  38.793  34.499  1.00  0.00    -0.000 C 
BRANCH  24  25
ATOM     25  C   UNL     1      61.391  40.170  34.693  1.00  0.00    -0.000 C 
BRANCH  25  26
ATOM     26  C   UNL     1      59.964  40.245  34.100  1.00  0.00    -0.000 C 
BRANCH  26  27
ATOM     27  C   UNL     1      58.872  40.513  35.153  1.00  0.00    -0.000 C 
BRANCH  27  28
ATOM     28  C   UNL     1      57.458  40.077  34.733  1.00  0.00    -0.000 C 
BRANCH  28  29
ATOM     29  C   UNL     1      57.415  38.635  34.204  1.00  0.00    -0.003 C 
ATOM     30  C   UNL     1      56.489  37.767  35.054  1.00  0.00     0.004 C 
ENDBRANCH  28  29
ENDBRANCH  27  28
ENDBRANCH  26  27
ENDBRANCH  25  26
ENDBRANCH  24  25
ENDBRANCH  23  24
ENDBRANCH  22  23
ENDBRANCH  21  22
ENDBRANCH  20  21
ENDBRANCH  19  20
ENDBRANCH  18  19
ENDBRANCH  17  18
ENDBRANCH   1  17
TORSDOF 26
ENDMDL
MODEL 6
REMARK VINA RESULT:    -5.711      2.748     10.110
REMARK INTER + INTRA:         -18.342
REMARK INTER:                 -14.888
REMARK INTRA:                  -3.453
REMARK UNBOUND:                -3.950
REMARK SMILES CCCCCCCCCCCCCCCCCCCCCCCCCCCC(=O)[O-]
REMARK SMILES IDX 15 1 16 2 17 3 18 4 19 5 20 6 21 7 22 8 23 9 24 10 25 11
REMARK SMILES IDX 26 12 27 13 28 14 29 15 30 16 14 17 13 18 12 19 11 20 10 21
REMARK SMILES IDX 9 22 8 23 7 24 6 25 5 26 4 27 3 28 2 29 1 30
REMARK H PARENT
REMARK Flexibility Score: inf
ROOT
ATOM      1  C   UNL     1      56.318  36.972  42.288  1.00  0.00     0.000 C 
ENDROOT
BRANCH   1   2
ATOM      2  C   UNL     1      55.218  37.120  41.224  1.00  0.00     0.000 C 
BRANCH   2   3
ATOM      3  C   UNL     1      55.789  37.340  39.814  1.00  0.00     0.000 C 
BRANCH   3   4
ATOM      4  C   UNL     1      56.772  38.524  39.754  1.00  0.00     0.000 C 
BRANCH   4   5
ATOM      5  C   UNL     1      58.132  38.132  39.155  1.00  0.00     0.000 C 
BRANCH   5   6
ATOM      6  C   UNL     1      58.378  38.784  37.783  1.00  0.00     0.000 C 
BRANCH   6   7
ATOM      7  C   UNL     1      57.686  38.025  36.636  1.00  0.00     0.000 C 
BRANCH   7   8
ATOM      8  C   UNL     1      58.668  37.349  35.655  1.00  0.00     0.000 C 
BRANCH   8   9
ATOM      9  C   UNL     1      59.847  36.625  36.337  1.00  0.00     0.000 C 
BRANCH   9  10
ATOM     10  C   UNL     1      61.202  36.832  35.633  1.00  0.00     0.000 C 
BRANCH  10  11
ATOM     11  C   UNL     1      61.075  37.676  34.354  1.00  0.00     0.000 C 
BRANCH  11  12
ATOM     12  C   UNL     1      62.014  38.886  34.402  1.00  0.00     0.006 C 
BRANCH  12  13
ATOM     13  C   UNL     1      62.299  39.305  35.847  1.00  0.00     0.053 C 
BRANCH  13  14
ATOM     14  C   UNL     1      61.292  40.309  36.308  1.00  0.00     0.041 C 
ATOM     15  O   UNL     1      60.408  40.731  35.515  1.00  0.00    -0.550 OA
ATOM     16  O   UNL     1      61.359  40.821  37.597  1.00  0.00    -0.550 OA
ENDBRANCH  13  14
ENDBRANCH  12  13
ENDBRANCH  11  12
ENDBRANCH  10  11
ENDBRANCH   9  10
ENDBRANCH   8   9
ENDBRANCH   7   8
ENDBRANCH   6   7
ENDBRANCH   5   6
ENDBRANCH   4   5
ENDBRANCH   3   4
ENDBRANCH   2   3
ENDBRANCH   1   2
BRANCH   1  17
ATOM     17  C   UNL     1      56.323  35.583  42.944  1.00  0.00     0.000 C 
BRANCH  17  18
ATOM     18  C   UNL     1      55.591  34.527  42.097  1.00  0.00     0.000 C 
BRANCH  18  19
ATOM     19  C   UNL     1      55.155  33.305  42.929  1.00  0.00     0.000 C 
BRANCH  19  20
ATOM     20  C   UNL     1      53.654  33.287  43.283  1.00  0.00     0.000 C 
BRANCH  20  21
ATOM     21  C   UNL     1      52.820  34.370  42.567  1.00  0.00     0.000 C 
BRANCH  21  22
ATOM     22  C   UNL     1      52.307  35.483  43.505  1.00  0.00    -0.000 C 
BRANCH  22  23
ATOM     23  C   UNL     1      52.658  35.268  44.990  1.00  0.00    -0.000 C 
BRANCH  23  24
ATOM     24  C   UNL     1      53.836  36.130  45.491  1.00  0.00    -0.000 C 
BRANCH  24  25
ATOM     25  C   UNL     1      53.539  36.859  46.815  1.00  0.00    -0.000 C 
BRANCH  25  26
ATOM     26  C   UNL     1      52.869  38.237  46.611  1.00  0.00    -0.000 C 
BRANCH  26  27
ATOM     27  C   UNL     1      53.351  38.979  45.350  1.00  0.00    -0.000 C 
BRANCH  27  28
ATOM     28  C   UNL     1      52.271  39.183  44.275  1.00  0.00    -0.000 C 
BRANCH  28  29
ATOM     29  C   UNL     1      52.818  39.030  42.847  1.00  0.00    -0.003 C 
ATOM     30  C   UNL     1      53.417  40.342  42.346  1.00  0.00     0.004 C 
ENDBRANCH  28  29
ENDBRANCH  27  28
ENDBRANCH  26  27
ENDBRANCH  25  26
ENDBRANCH  24  25
ENDBRANCH  23  24
ENDBRANCH  22  23
ENDBRANCH  21  22
ENDBRANCH  20  21
ENDBRANCH  19  20
ENDBRANCH  18  19
ENDBRANCH  17  18
ENDBRANCH   1  17
TORSDOF 26
ENDMDL
MODEL 7
REMARK VINA RESULT:    -5.708      2.857     10.414
REMARK INTER + INTRA:         -18.334
REMARK INTER:                 -15.002
REMARK INTRA:                  -3.333
REMARK UNBOUND:                -3.950
REMARK SMILES CCCCCCCCCCCCCCCCCCCCCCCCCCCC(=O)[O-]
REMARK SMILES IDX 15 1 16 2 17 3 18 4 19 5 20 6 21 7 22 8 23 9 24 10 25 11
REMARK SMILES IDX 26 12 27 13 28 14 29 15 30 16 14 17 13 18 12 19 11 20 10 21
REMARK SMILES IDX 9 22 8 23 7 24 6 25 5 26 4 27 3 28 2 29 1 30
REMARK H PARENT
REMARK Flexibility Score: inf
ROOT
ATOM      1  C   UNL     1      56.186  36.024  42.763  1.00  0.00     0.000 C 
ENDROOT
BRANCH   1   2
ATOM      2  C   UNL     1      56.582  37.144  41.786  1.00  0.00     0.000 C 
BRANCH   2   3
ATOM      3  C   UNL     1      55.526  37.372  40.693  1.00  0.00     0.000 C 
BRANCH   3   4
ATOM      4  C   UNL     1      56.154  37.654  39.316  1.00  0.00     0.000 C 
BRANCH   4   5
ATOM      5  C   UNL     1      57.509  38.374  39.421  1.00  0.00     0.000 C 
BRANCH   5   6
ATOM      6  C   UNL     1      58.117  38.679  38.041  1.00  0.00     0.000 C 
BRANCH   6   7
ATOM      7  C   UNL     1      57.614  37.720  36.948  1.00  0.00     0.000 C 
BRANCH   7   8
ATOM      8  C   UNL     1      58.679  37.370  35.887  1.00  0.00     0.000 C 
BRANCH   8   9
ATOM      9  C   UNL     1      59.875  36.564  36.433  1.00  0.00     0.000 C 
BRANCH   9  10
ATOM     10  C   UNL     1      61.195  36.808  35.675  1.00  0.00     0.000 C 
BRANCH  10  11
ATOM     11  C   UNL     1      61.165  38.104  34.849  1.00  0.00     0.000 C 
BRANCH  11  12
ATOM     12  C   UNL     1      62.048  39.182  35.490  1.00  0.00     0.006 C 
BRANCH  12  13
ATOM     13  C   UNL     1      61.253  40.015  36.499  1.00  0.00     0.053 C 
BRANCH  13  14
ATOM     14  C   UNL     1      61.865  39.910  37.860  1.00  0.00     0.041 C 
ATOM     15  O   UNL     1      61.566  38.949  38.618  1.00  0.00    -0.550 OA
ATOM     16  O   UNL     1      62.725  40.901  38.314  1.00  0.00    -0.550 OA
ENDBRANCH  13  14
ENDBRANCH  12  13
ENDBRANCH  11  12
ENDBRANCH  10  11
ENDBRANCH   9  10
ENDBRANCH   8   9
ENDBRANCH   7   8
ENDBRANCH   6   7
ENDBRANCH   5   6
ENDBRANCH   4   5
ENDBRANCH   3   4
ENDBRANCH   2   3
ENDBRANCH   1   2
BRANCH   1  17
ATOM     17  C   UNL     1      55.698  34.757  42.044  1.00  0.00     0.000 C 
BRANCH  17  18
ATOM     18  C   UNL     1      55.456  33.585  43.010  1.00  0.00     0.000 C 
BRANCH  18  19
ATOM     19  C   UNL     1      53.957  33.271  43.190  1.00  0.00     0.000 C 
BRANCH  19  20
ATOM     20  C   UNL     1      53.150  34.408  43.849  1.00  0.00     0.000 C 
BRANCH  20  21
ATOM     21  C   UNL     1      52.136  35.093  42.909  1.00  0.00     0.000 C 
BRANCH  21  22
ATOM     22  C   UNL     1      52.513  36.542  42.535  1.00  0.00    -0.000 C 
BRANCH  22  23
ATOM     23  C   UNL     1      52.303  37.562  43.671  1.00  0.00    -0.000 C 
BRANCH  23  24
ATOM     24  C   UNL     1      53.575  38.349  44.056  1.00  0.00    -0.000 C 
BRANCH  24  25
ATOM     25  C   UNL     1      53.312  39.472  45.076  1.00  0.00    -0.000 C 
BRANCH  25  26
ATOM     26  C   UNL     1      53.995  39.223  46.441  1.00  0.00    -0.000 C 
BRANCH  26  27
ATOM     27  C   UNL     1      53.126  38.421  47.429  1.00  0.00    -0.000 C 
BRANCH  27  28
ATOM     28  C   UNL     1      53.266  36.894  47.311  1.00  0.00    -0.000 C 
BRANCH  28  29
ATOM     29  C   UNL     1      51.939  36.200  46.967  1.00  0.00    -0.003 C 
ATOM     30  C   UNL     1      50.959  36.284  48.135  1.00  0.00     0.004 C 
ENDBRANCH  28  29
ENDBRANCH  27  28
ENDBRANCH  26  27
ENDBRANCH  25  26
ENDBRANCH  24  25
ENDBRANCH  23  24
ENDBRANCH  22  23
ENDBRANCH  21  22
ENDBRANCH  20  21
ENDBRANCH  19  20
ENDBRANCH  18  19
ENDBRANCH  17  18
ENDBRANCH   1  17
TORSDOF 26
ENDMDL
MODEL 8
REMARK VINA RESULT:    -5.656      3.221     10.459
REMARK INTER + INTRA:         -18.202
REMARK INTER:                 -15.043
REMARK INTRA:                  -3.159
REMARK UNBOUND:                -3.950
REMARK SMILES CCCCCCCCCCCCCCCCCCCCCCCCCCCC(=O)[O-]
REMARK SMILES IDX 15 1 16 2 17 3 18 4 19 5 20 6 21 7 22 8 23 9 24 10 25 11
REMARK SMILES IDX 26 12 27 13 28 14 29 15 30 16 14 17 13 18 12 19 11 20 10 21
REMARK SMILES IDX 9 22 8 23 7 24 6 25 5 26 4 27 3 28 2 29 1 30
REMARK H PARENT
REMARK Flexibility Score: inf
ROOT
ATOM      1  C   UNL     1      57.125  38.135  39.065  1.00  0.00     0.000 C 
ENDROOT
BRANCH   1   2
ATOM      2  C   UNL     1      56.530  37.458  37.819  1.00  0.00     0.000 C 
BRANCH   2   3
ATOM      3  C   UNL     1      57.307  37.796  36.538  1.00  0.00     0.000 C 
BRANCH   3   4
ATOM      4  C   UNL     1      56.400  37.849  35.294  1.00  0.00     0.000 C 
BRANCH   4   5
ATOM      5  C   UNL     1      56.895  38.858  34.245  1.00  0.00     0.000 C 
BRANCH   5   6
ATOM      6  C   UNL     1      57.679  40.022  34.876  1.00  0.00     0.000 C 
BRANCH   6   7
ATOM      7  C   UNL     1      58.996  40.318  34.135  1.00  0.00     0.000 C 
BRANCH   7   8
ATOM      8  C   UNL     1      60.172  40.668  35.072  1.00  0.00     0.000 C 
BRANCH   8   9
ATOM      9  C   UNL     1      59.983  40.197  36.529  1.00  0.00     0.000 C 
BRANCH   9  10
ATOM     10  C   UNL     1      61.302  39.900  37.268  1.00  0.00     0.000 C 
BRANCH  10  11
ATOM     11  C   UNL     1      61.322  38.495  37.891  1.00  0.00     0.000 C 
BRANCH  11  12
ATOM     12  C   UNL     1      60.295  37.581  37.214  1.00  0.00     0.006 C 
BRANCH  12  13
ATOM     13  C   UNL     1      60.977  36.607  36.250  1.00  0.00     0.053 C 
BRANCH  13  14
ATOM     14  C   UNL     1      60.780  37.048  34.835  1.00  0.00     0.041 C 
ATOM     15  O   UNL     1      59.738  36.720  34.207  1.00  0.00    -0.550 OA
ATOM     16  O   UNL     1      61.770  37.778  34.189  1.00  0.00    -0.550 OA
ENDBRANCH  13  14
ENDBRANCH  12  13
ENDBRANCH  11  12
ENDBRANCH  10  11
ENDBRANCH   9  10
ENDBRANCH   8   9
ENDBRANCH   7   8
ENDBRANCH   6   7
ENDBRANCH   5   6
ENDBRANCH   4   5
ENDBRANCH   3   4
ENDBRANCH   2   3
ENDBRANCH   1   2
BRANCH   1  17
ATOM     17  C   UNL     1      56.085  38.350  40.175  1.00  0.00     0.000 C 
BRANCH  17  18
ATOM     18  C   UNL     1      56.194  37.304  41.298  1.00  0.00     0.000 C 
BRANCH  18  19
ATOM     19  C   UNL     1      54.817  36.901  41.863  1.00  0.00     0.000 C 
BRANCH  19  20
ATOM     20  C   UNL     1      53.720  37.967  41.669  1.00  0.00     0.000 C 
BRANCH  20  21
ATOM     21  C   UNL     1      52.941  38.316  42.954  1.00  0.00     0.000 C 
BRANCH  21  22
ATOM     22  C   UNL     1      53.668  37.909  44.253  1.00  0.00    -0.000 C 
BRANCH  22  23
ATOM     23  C   UNL     1      52.890  36.900  45.121  1.00  0.00    -0.000 C 
BRANCH  23  24
ATOM     24  C   UNL     1      51.626  36.328  44.444  1.00  0.00    -0.000 C 
BRANCH  24  25
ATOM     25  C   UNL     1      51.403  34.832  44.731  1.00  0.00    -0.000 C 
BRANCH  25  26
ATOM     26  C   UNL     1      51.613  33.938  43.487  1.00  0.00    -0.000 C 
BRANCH  26  27
ATOM     27  C   UNL     1      53.013  34.072  42.859  1.00  0.00    -0.000 C 
BRANCH  27  28
ATOM     28  C   UNL     1      54.174  33.695  43.796  1.00  0.00    -0.000 C 
BRANCH  28  29
ATOM     29  C   UNL     1      55.270  32.885  43.087  1.00  0.00    -0.003 C 
ATOM     30  C   UNL     1      55.263  31.431  43.553  1.00  0.00     0.004 C 
ENDBRANCH  28  29
ENDBRANCH  27  28
ENDBRANCH  26  27
ENDBRANCH  25  26
ENDBRANCH  24  25
ENDBRANCH  23  24
ENDBRANCH  22  23
ENDBRANCH  21  22
ENDBRANCH  20  21
ENDBRANCH  19  20
ENDBRANCH  18  19
ENDBRANCH  17  18
ENDBRANCH   1  17
TORSDOF 26
ENDMDL
MODEL 9
REMARK VINA RESULT:    -5.607      1.107      2.692
REMARK INTER + INTRA:         -18.080
REMARK INTER:                 -14.376
REMARK INTRA:                  -3.704
REMARK UNBOUND:                -3.950
REMARK SMILES CCCCCCCCCCCCCCCCCCCCCCCCCCCC(=O)[O-]
REMARK SMILES IDX 15 1 16 2 17 3 18 4 19 5 20 6 21 7 22 8 23 9 24 10 25 11
REMARK SMILES IDX 26 12 27 13 28 14 29 15 30 16 14 17 13 18 12 19 11 20 10 21
REMARK SMILES IDX 9 22 8 23 7 24 6 25 5 26 4 27 3 28 2 29 1 30
REMARK H PARENT
REMARK Flexibility Score: inf
ROOT
ATOM      1  C   UNL     1      55.881  36.986  41.141  1.00  0.00     0.000 C 
ENDROOT
BRANCH   1   2
ATOM      2  C   UNL     1      56.323  37.008  42.614  1.00  0.00     0.000 C 
BRANCH   2   3
ATOM      3  C   UNL     1      56.106  35.657  43.313  1.00  0.00     0.000 C 
BRANCH   3   4
ATOM      4  C   UNL     1      55.452  34.613  42.390  1.00  0.00     0.000 C 
BRANCH   4   5
ATOM      5  C   UNL     1      54.678  33.537  43.169  1.00  0.00     0.000 C 
BRANCH   5   6
ATOM      6  C   UNL     1      53.163  33.603  42.912  1.00  0.00     0.000 C 
BRANCH   6   7
ATOM      7  C   UNL     1      52.630  35.047  42.891  1.00  0.00     0.000 C 
BRANCH   7   8
ATOM      8  C   UNL     1      51.850  35.442  44.164  1.00  0.00     0.000 C 
BRANCH   8   9
ATOM      9  C   UNL     1      52.716  35.526  45.437  1.00  0.00     0.000 C 
BRANCH   9  10
ATOM     10  C   UNL     1      53.514  36.839  45.568  1.00  0.00     0.000 C 
BRANCH  10  11
ATOM     11  C   UNL     1      52.755  38.045  44.993  1.00  0.00     0.000 C 
BRANCH  11  12
ATOM     12  C   UNL     1      53.718  39.026  44.315  1.00  0.00     0.006 C 
BRANCH  12  13
ATOM     13  C   UNL     1      52.952  40.096  43.532  1.00  0.00     0.053 C 
BRANCH  13  14
ATOM     14  C   UNL     1      53.379  40.099  42.098  1.00  0.00     0.041 C 
ATOM     15  O   UNL     1      53.977  41.099  41.617  1.00  0.00    -0.550 OA
ATOM     16  O   UNL     1      53.073  39.021  41.278  1.00  0.00    -0.550 OA
ENDBRANCH  13  14
ENDBRANCH  12  13
ENDBRANCH  11  12
ENDBRANCH  10  11
ENDBRANCH   9  10
ENDBRANCH   8   9
ENDBRANCH   7   8
ENDBRANCH   6   7
ENDBRANCH   5   6
ENDBRANCH   4   5
ENDBRANCH   3   4
ENDBRANCH   2   3
ENDBRANCH   1   2
BRANCH   1  17
ATOM     17  C   UNL     1      56.826  37.784  40.229  1.00  0.00     0.000 C 
BRANCH  17  18
ATOM     18  C   UNL     1      56.402  37.735  38.751  1.00  0.00     0.000 C 
BRANCH  18  19
ATOM     19  C   UNL     1      57.582  37.423  37.810  1.00  0.00     0.000 C 
BRANCH  19  20
ATOM     20  C   UNL     1      58.900  38.124  38.198  1.00  0.00     0.000 C 
BRANCH  20  21
ATOM     21  C   UNL     1      59.005  39.587  37.718  1.00  0.00     0.000 C 
BRANCH  21  22
ATOM     22  C   UNL     1      60.260  39.874  36.866  1.00  0.00    -0.000 C 
BRANCH  22  23
ATOM     23  C   UNL     1      61.090  38.621  36.525  1.00  0.00    -0.000 C 
BRANCH  23  24
ATOM     24  C   UNL     1      61.571  38.562  35.059  1.00  0.00    -0.000 C 
BRANCH  24  25
ATOM     25  C   UNL     1      60.955  37.399  34.261  1.00  0.00    -0.000 C 
BRANCH  25  26
ATOM     26  C   UNL     1      59.566  36.969  34.789  1.00  0.00    -0.000 C 
BRANCH  26  27
ATOM     27  C   UNL     1      58.398  37.418  33.891  1.00  0.00    -0.000 C 
BRANCH  27  28
ATOM     28  C   UNL     1      57.958  38.878  34.093  1.00  0.00    -0.000 C 
BRANCH  28  29
ATOM     29  C   UNL     1      56.472  39.004  34.462  1.00  0.00    -0.003 C 
ATOM     30  C   UNL     1      55.708  37.732  34.103  1.00  0.00     0.004 C 
ENDBRANCH  28  29
ENDBRANCH  27  28
ENDBRANCH  26  27
ENDBRANCH  25  26
ENDBRANCH  24  25
ENDBRANCH  23  24
ENDBRANCH  22  23
ENDBRANCH  21  22
ENDBRANCH  20  21
ENDBRANCH  19  20
ENDBRANCH  18  19
ENDBRANCH  17  18
ENDBRANCH   1  17
TORSDOF 26
ENDMDL
