MODEL 1
REMARK VINA RESULT:    -3.266      0.000      0.000
REMARK INTER + INTRA:          -4.278
REMARK INTER:                  -4.125
REMARK INTRA:                  -0.154
REMARK UNBOUND:                -0.154
REMARK SMILES CCCCC[C@H](C)O
REMARK SMILES IDX 4 1 3 2 2 3 1 4 5 5 6 6 7 7 8 8
REMARK H PARENT 8 9
REMARK Flexibility Score: inf
ROOT
ATOM      1  C   UNL     1     165.307 164.778 166.752  1.00  0.00     0.003 C 
ENDROOT
BRANCH   1   2
ATOM      2  C   UNL     1     165.652 166.145 167.370  1.00  0.00    -0.000 C 
BRANCH   2   3
ATOM      3  C   UNL     1     166.463 167.034 166.415  1.00  0.00    -0.003 C 
ATOM      4  C   UNL     1     166.292 166.641 164.947  1.00  0.00     0.004 C 
ENDBRANCH   2   3
ENDBRANCH   1   2
BRANCH   1   5
ATOM      5  C   UNL     1     163.797 164.487 166.761  1.00  0.00     0.031 C 
BRANCH   5   6
ATOM      6  C   UNL     1     163.212 164.211 165.358  1.00  0.00     0.111 C 
ATOM      7  C   UNL     1     161.695 164.430 165.344  1.00  0.00     0.038 C 
BRANCH   6   8
ATOM      8  O   UNL     1     163.517 162.907 164.926  1.00  0.00    -0.393 OA
ATOM      9  H   UNL     1     164.055 162.984 164.095  1.00  0.00     0.210 HD
ENDBRANCH   6   8
ENDBRANCH   5   6
ENDBRANCH   1   5
TORSDOF 5
ENDMDL
MODEL 2
REMARK VINA RESULT:    -3.262      2.777      4.748
REMARK INTER + INTRA:          -4.274
REMARK INTER:                  -4.100
REMARK INTRA:                  -0.174
REMARK UNBOUND:                -0.154
REMARK SMILES CCCCC[C@H](C)O
REMARK SMILES IDX 4 1 3 2 2 3 1 4 5 5 6 6 7 7 8 8
REMARK H PARENT 8 9
REMARK Flexibility Score: inf
ROOT
ATOM      1  C   UNL     1     166.279 166.171 166.727  1.00  0.00     0.003 C 
ENDROOT
BRANCH   1   2
ATOM      2  C   UNL     1     165.119 165.200 167.011  1.00  0.00    -0.000 C 
BRANCH   2   3
ATOM      3  C   UNL     1     164.536 164.590 165.726  1.00  0.00    -0.003 C 
ATOM      4  C   UNL     1     163.045 164.271 165.844  1.00  0.00     0.004 C 
ENDBRANCH   2   3
ENDBRANCH   1   2
BRANCH   1   5
ATOM      5  C   UNL     1     166.174 166.834 165.343  1.00  0.00     0.031 C 
BRANCH   5   6
ATOM      6  C   UNL     1     167.486 167.501 164.875  1.00  0.00     0.111 C 
ATOM      7  C   UNL     1     168.675 167.018 165.712  1.00  0.00     0.038 C 
BRANCH   6   8
ATOM      8  O   UNL     1     167.392 168.903 164.930  1.00  0.00    -0.393 OA
ATOM      9  H   UNL     1     167.665 169.258 164.044  1.00  0.00     0.210 HD
ENDBRANCH   6   8
ENDBRANCH   5   6
ENDBRANCH   1   5
TORSDOF 5
ENDMDL
MODEL 3
REMARK VINA RESULT:    -3.004      1.962      3.144
REMARK INTER + INTRA:          -3.948
REMARK INTER:                  -3.767
REMARK INTRA:                  -0.182
REMARK UNBOUND:                -0.154
REMARK SMILES CCCCC[C@H](C)O
REMARK SMILES IDX 4 1 3 2 2 3 1 4 5 5 6 6 7 7 8 8
REMARK H PARENT 8 9
REMARK Flexibility Score: inf
ROOT
ATOM      1  C   UNL     1     166.354 167.075 165.425  1.00  0.00     0.003 C 
ENDROOT
BRANCH   1   2
ATOM      2  C   UNL     1     167.850 167.121 165.070  1.00  0.00    -0.000 C 
BRANCH   2   3
ATOM      3  C   UNL     1     168.752 166.831 166.280  1.00  0.00    -0.003 C 
ATOM      4  C   UNL     1     170.240 166.831 165.926  1.00  0.00     0.004 C 
ENDBRANCH   2   3
ENDBRANCH   1   2
BRANCH   1   5
ATOM      5  C   UNL     1     166.073 166.275 166.709  1.00  0.00     0.031 C 
BRANCH   5   6
ATOM      6  C   UNL     1     165.105 165.089 166.500  1.00  0.00     0.111 C 
ATOM      7  C   UNL     1     165.296 164.028 167.589  1.00  0.00     0.038 C 
BRANCH   6   8
ATOM      8  O   UNL     1     165.272 164.514 165.228  1.00  0.00    -0.393 OA
ATOM      9  H   UNL     1     166.012 163.855 165.291  1.00  0.00     0.210 HD
ENDBRANCH   6   8
ENDBRANCH   5   6
ENDBRANCH   1   5
TORSDOF 5
ENDMDL
MODEL 4
REMARK VINA RESULT:    -2.985      1.499      2.001
REMARK INTER + INTRA:          -3.924
REMARK INTER:                  -3.800
REMARK INTRA:                  -0.124
REMARK UNBOUND:                -0.154
REMARK SMILES CCCCC[C@H](C)O
REMARK SMILES IDX 4 1 3 2 2 3 1 4 5 5 6 6 7 7 8 8
REMARK H PARENT 8 9
REMARK Flexibility Score: inf
ROOT
ATOM      1  C   UNL     1     165.698 165.718 166.683  1.00  0.00     0.003 C 
ENDROOT
BRANCH   1   2
ATOM      2  C   UNL     1     166.392 167.081 166.516  1.00  0.00    -0.000 C 
BRANCH   2   3
ATOM      3  C   UNL     1     167.103 167.217 165.161  1.00  0.00    -0.003 C 
ATOM      4  C   UNL     1     168.603 166.932 165.247  1.00  0.00     0.004 C 
ENDBRANCH   2   3
ENDBRANCH   1   2
BRANCH   1   5
ATOM      5  C   UNL     1     165.262 165.105 165.341  1.00  0.00     0.031 C 
BRANCH   5   6
ATOM      6  C   UNL     1     164.288 163.916 165.491  1.00  0.00     0.111 C 
ATOM      7  C   UNL     1     164.891 162.636 164.901  1.00  0.00     0.038 C 
BRANCH   6   8
ATOM      8  O   UNL     1     163.049 164.192 164.885  1.00  0.00    -0.393 OA
ATOM      9  H   UNL     1     163.230 164.498 163.958  1.00  0.00     0.210 HD
ENDBRANCH   6   8
ENDBRANCH   5   6
ENDBRANCH   1   5
TORSDOF 5
ENDMDL
MODEL 5
REMARK VINA RESULT:    -2.981      2.194      4.446
REMARK INTER + INTRA:          -3.919
REMARK INTER:                  -3.775
REMARK INTRA:                  -0.144
REMARK UNBOUND:                -0.154
REMARK SMILES CCCCC[C@H](C)O
REMARK SMILES IDX 4 1 3 2 2 3 1 4 5 5 6 6 7 7 8 8
REMARK H PARENT 8 9
REMARK Flexibility Score: inf
ROOT
ATOM      1  C   UNL     1     163.684 164.471 166.450  1.00  0.00     0.003 C 
ENDROOT
BRANCH   1   2
ATOM      2  C   UNL     1     162.883 164.180 165.169  1.00  0.00    -0.000 C 
BRANCH   2   3
ATOM      3  C   UNL     1     161.391 164.515 165.320  1.00  0.00    -0.003 C 
ATOM      4  C   UNL     1     160.846 164.186 166.710  1.00  0.00     0.004 C 
ENDBRANCH   2   3
ENDBRANCH   1   2
BRANCH   1   5
ATOM      5  C   UNL     1     165.068 165.078 166.161  1.00  0.00     0.031 C 
BRANCH   5   6
ATOM      6  C   UNL     1     165.779 165.624 167.419  1.00  0.00     0.111 C 
ATOM      7  C   UNL     1     165.085 165.138 168.695  1.00  0.00     0.038 C 
BRANCH   6   8
ATOM      8  O   UNL     1     165.835 167.030 167.403  1.00  0.00    -0.393 OA
ATOM      9  H   UNL     1     165.243 167.346 166.672  1.00  0.00     0.210 HD
ENDBRANCH   6   8
ENDBRANCH   5   6
ENDBRANCH   1   5
TORSDOF 5
ENDMDL
MODEL 6
REMARK VINA RESULT:    -2.927      2.141      4.514
REMARK INTER + INTRA:          -3.851
REMARK INTER:                  -3.779
REMARK INTRA:                  -0.073
REMARK UNBOUND:                -0.154
REMARK SMILES CCCCC[C@H](C)O
REMARK SMILES IDX 4 1 3 2 2 3 1 4 5 5 6 6 7 7 8 8
REMARK H PARENT 8 9
REMARK Flexibility Score: inf
ROOT
ATOM      1  C   UNL     1     164.807 164.799 166.251  1.00  0.00     0.003 C 
ENDROOT
BRANCH   1   2
ATOM      2  C   UNL     1     163.904 163.818 165.484  1.00  0.00    -0.000 C 
BRANCH   2   3
ATOM      3  C   UNL     1     162.585 164.463 165.032  1.00  0.00    -0.003 C 
ATOM      4  C   UNL     1     161.448 164.255 166.033  1.00  0.00     0.004 C 
ENDBRANCH   2   3
ENDBRANCH   1   2
BRANCH   1   5
ATOM      5  C   UNL     1     165.725 165.612 165.321  1.00  0.00     0.031 C 
BRANCH   5   6
ATOM      6  C   UNL     1     166.307 166.881 165.980  1.00  0.00     0.111 C 
ATOM      7  C   UNL     1     167.570 167.349 165.248  1.00  0.00     0.038 C 
BRANCH   6   8
ATOM      8  O   UNL     1     166.588 166.665 167.341  1.00  0.00    -0.393 OA
ATOM      9  H   UNL     1     165.731 166.458 167.796  1.00  0.00     0.210 HD
ENDBRANCH   6   8
ENDBRANCH   5   6
ENDBRANCH   1   5
TORSDOF 5
ENDMDL
MODEL 7
REMARK VINA RESULT:    -2.906      1.690      2.033
REMARK INTER + INTRA:          -3.825
REMARK INTER:                  -3.725
REMARK INTRA:                  -0.099
REMARK UNBOUND:                -0.154
REMARK SMILES CCCCC[C@H](C)O
REMARK SMILES IDX 4 1 3 2 2 3 1 4 5 5 6 6 7 7 8 8
REMARK H PARENT 8 9
REMARK Flexibility Score: inf
ROOT
ATOM      1  C   UNL     1     163.975 164.441 166.384  1.00  0.00     0.003 C 
ENDROOT
BRANCH   1   2
ATOM      2  C   UNL     1     165.165 164.601 167.345  1.00  0.00    -0.000 C 
BRANCH   2   3
ATOM      3  C   UNL     1     165.601 166.066 167.504  1.00  0.00    -0.003 C 
ATOM      4  C   UNL     1     166.760 166.444 166.582  1.00  0.00     0.004 C 
ENDBRANCH   2   3
ENDBRANCH   1   2
BRANCH   1   5
ATOM      5  C   UNL     1     162.617 164.491 167.105  1.00  0.00     0.031 C 
BRANCH   5   6
ATOM      6  C   UNL     1     161.426 164.084 166.211  1.00  0.00     0.111 C 
ATOM      7  C   UNL     1     161.462 164.834 164.875  1.00  0.00     0.038 C 
BRANCH   6   8
ATOM      8  O   UNL     1     160.199 164.312 166.861  1.00  0.00    -0.393 OA
ATOM      9  H   UNL     1     160.369 164.288 167.839  1.00  0.00     0.210 HD
ENDBRANCH   6   8
ENDBRANCH   5   6
ENDBRANCH   1   5
TORSDOF 5
ENDMDL
MODEL 8
REMARK VINA RESULT:    -2.851      3.300      4.842
REMARK INTER + INTRA:          -3.755
REMARK INTER:                  -3.607
REMARK INTRA:                  -0.148
REMARK UNBOUND:                -0.154
REMARK SMILES CCCCC[C@H](C)O
REMARK SMILES IDX 4 1 3 2 2 3 1 4 5 5 6 6 7 7 8 8
REMARK H PARENT 8 9
REMARK Flexibility Score: inf
ROOT
ATOM      1  C   UNL     1     166.598 166.182 167.001  1.00  0.00     0.003 C 
ENDROOT
BRANCH   1   2
ATOM      2  C   UNL     1     165.353 165.491 167.583  1.00  0.00    -0.000 C 
BRANCH   2   3
ATOM      3  C   UNL     1     165.281 165.601 169.114  1.00  0.00    -0.003 C 
ATOM      4  C   UNL     1     165.986 166.846 169.654  1.00  0.00     0.004 C 
ENDBRANCH   2   3
ENDBRANCH   1   2
BRANCH   1   5
ATOM      5  C   UNL     1     166.406 166.617 165.538  1.00  0.00     0.031 C 
BRANCH   5   6
ATOM      6  C   UNL     1     167.640 167.324 164.936  1.00  0.00     0.111 C 
ATOM      7  C   UNL     1     168.904 166.996 165.737  1.00  0.00     0.038 C 
BRANCH   6   8
ATOM      8  O   UNL     1     167.451 168.717 164.876  1.00  0.00    -0.393 OA
ATOM      9  H   UNL     1     167.048 169.002 165.737  1.00  0.00     0.210 HD
ENDBRANCH   6   8
ENDBRANCH   5   6
ENDBRANCH   1   5
TORSDOF 5
ENDMDL
MODEL 9
REMARK VINA RESULT:    -2.850      2.007      3.171
REMARK INTER + INTRA:          -3.754
REMARK INTER:                  -3.495
REMARK INTRA:                  -0.259
REMARK UNBOUND:                -0.154
REMARK SMILES CCCCC[C@H](C)O
REMARK SMILES IDX 4 1 3 2 2 3 1 4 5 5 6 6 7 7 8 8
REMARK H PARENT 8 9
REMARK Flexibility Score: inf
ROOT
ATOM      1  C   UNL     1     165.248 165.310 167.052  1.00  0.00     0.003 C 
ENDROOT
BRANCH   1   2
ATOM      2  C   UNL     1     164.475 164.521 168.123  1.00  0.00    -0.000 C 
BRANCH   2   3
ATOM      3  C   UNL     1     165.359 164.133 169.319  1.00  0.00    -0.003 C 
ATOM      4  C   UNL     1     165.585 162.625 169.426  1.00  0.00     0.004 C 
ENDBRANCH   2   3
ENDBRANCH   1   2
BRANCH   1   5
ATOM      5  C   UNL     1     164.983 164.793 165.627  1.00  0.00     0.031 C 
BRANCH   5   6
ATOM      6  C   UNL     1     164.199 163.463 165.587  1.00  0.00     0.111 C 
ATOM      7  C   UNL     1     165.024 162.360 164.918  1.00  0.00     0.038 C 
BRANCH   6   8
ATOM      8  O   UNL     1     162.968 163.618 164.924  1.00  0.00    -0.393 OA
ATOM      9  H   UNL     1     162.995 163.058 164.105  1.00  0.00     0.210 HD
ENDBRANCH   6   8
ENDBRANCH   5   6
ENDBRANCH   1   5
TORSDOF 5
ENDMDL
