MODEL 1
REMARK VINA RESULT:    -5.656      0.000      0.000
REMARK INTER + INTRA:          -6.958
REMARK INTER:                  -6.648
REMARK INTRA:                  -0.310
REMARK UNBOUND:                -0.310
REMARK SMILES O=c1c(O)c(-c2ccc(O)c(O)c2)oc2cc(O)ccc12
REMARK SMILES IDX 5 1 3 2 2 3 1 4 21 5 15 6 14 7 16 8 17 9 19 10 20 11 6 12
REMARK SMILES IDX 7 13 8 14 9 15 13 16 11 17 10 18 12 20 4 22 18 24
REMARK H PARENT 10 19 12 21 4 23 18 25
REMARK Flexibility Score: inf
ROOT
ATOM      1  C   UNL     1      23.846   0.001  20.052  1.00  0.00     0.180 A 
ATOM      2  C   UNL     1      23.950   0.598  21.326  1.00  0.00     0.208 A 
ATOM      3  C   UNL     1      22.866   1.341  21.816  1.00  0.00     0.235 A 
ATOM      4  O   UNL     1      22.939   1.894  22.947  1.00  0.00    -0.285 OA
ATOM      5  C   UNL     1      21.702   1.457  21.039  1.00  0.00     0.069 A 
ATOM      6  C   UNL     1      21.668   0.811  19.785  1.00  0.00     0.142 A 
ATOM      7  O   UNL     1      22.719   0.123  19.354  1.00  0.00    -0.452 OA
ATOM      8  C   UNL     1      20.522   0.894  18.985  1.00  0.00     0.094 A 
ATOM      9  C   UNL     1      19.409   1.618  19.422  1.00  0.00     0.119 A 
ATOM     10  C   UNL     1      19.439   2.263  20.667  1.00  0.00     0.047 A 
ATOM     11  C   UNL     1      20.578   2.184  21.473  1.00  0.00     0.020 A 
ENDROOT
BRANCH   1  12
ATOM     12  C   UNL     1      24.954  -0.782  19.459  1.00  0.00     0.025 A 
ATOM     13  C   UNL     1      25.982  -0.114  18.775  1.00  0.00     0.016 A 
ATOM     14  C   UNL     1      27.048  -0.830  18.225  1.00  0.00     0.051 A 
ATOM     15  C   UNL     1      27.112  -2.219  18.362  1.00  0.00     0.157 A 
ATOM     16  C   UNL     1      25.030  -2.178  19.613  1.00  0.00     0.062 A 
ATOM     17  C   UNL     1      26.101  -2.898  19.062  1.00  0.00     0.158 A 
BRANCH  15  18
ATOM     18  O   UNL     1      28.187  -2.908  17.800  1.00  0.00    -0.504 OA
ATOM     19  H   UNL     1      28.627  -2.608  16.939  1.00  0.00     0.293 HD
ENDBRANCH  15  18
BRANCH  17  20
ATOM     20  O   UNL     1      26.165  -4.283  19.214  1.00  0.00    -0.504 OA
ATOM     21  H   UNL     1      27.010  -4.801  19.002  1.00  0.00     0.293 HD
ENDBRANCH  17  20
ENDBRANCH   1  12
BRANCH   2  22
ATOM     22  O   UNL     1      25.103   0.424  22.097  1.00  0.00    -0.502 OA
ATOM     23  H   UNL     1      25.160  -0.265  22.837  1.00  0.00     0.293 HD
ENDBRANCH   2  22
BRANCH   9  24
ATOM     24  O   UNL     1      18.277   1.691  18.613  1.00  0.00    -0.508 OA
ATOM     25  H   UNL     1      17.409   2.093  18.951  1.00  0.00     0.293 HD
ENDBRANCH   9  24
TORSDOF 5
ENDMDL
MODEL 2
REMARK VINA RESULT:    -5.550      8.276      9.470
REMARK INTER + INTRA:          -6.833
REMARK INTER:                  -6.564
REMARK INTRA:                  -0.269
REMARK UNBOUND:                -0.310
REMARK SMILES O=c1c(O)c(-c2ccc(O)c(O)c2)oc2cc(O)ccc12
REMARK SMILES IDX 5 1 3 2 2 3 1 4 21 5 15 6 14 7 16 8 17 9 19 10 20 11 6 12
REMARK SMILES IDX 7 13 8 14 9 15 13 16 11 17 10 18 12 20 4 22 18 24
REMARK H PARENT 10 19 12 21 4 23 18 25
REMARK Flexibility Score: inf
ROOT
ATOM      1  C   UNL     1      17.186  -6.137  16.899  1.00  0.00     0.180 A 
ATOM      2  C   UNL     1      16.182  -6.828  17.609  1.00  0.00     0.208 A 
ATOM      3  C   UNL     1      14.954  -6.189  17.837  1.00  0.00     0.235 A 
ATOM      4  O   UNL     1      14.044  -6.782  18.479  1.00  0.00    -0.285 OA
ATOM      5  C   UNL     1      14.746  -4.892  17.340  1.00  0.00     0.069 A 
ATOM      6  C   UNL     1      15.793  -4.278  16.619  1.00  0.00     0.142 A 
ATOM      7  O   UNL     1      16.944  -4.913  16.431  1.00  0.00    -0.452 OA
ATOM      8  C   UNL     1      15.622  -2.990  16.098  1.00  0.00     0.094 A 
ATOM      9  C   UNL     1      14.418  -2.306  16.291  1.00  0.00     0.119 A 
ATOM     10  C   UNL     1      13.377  -2.912  17.008  1.00  0.00     0.047 A 
ATOM     11  C   UNL     1      13.537  -4.199  17.530  1.00  0.00     0.020 A 
ENDROOT
BRANCH   1  12
ATOM     12  C   UNL     1      18.515  -6.735  16.634  1.00  0.00     0.025 A 
ATOM     13  C   UNL     1      19.607  -6.371  17.438  1.00  0.00     0.016 A 
ATOM     14  C   UNL     1      20.865  -6.938  17.219  1.00  0.00     0.051 A 
ATOM     15  C   UNL     1      21.048  -7.886  16.209  1.00  0.00     0.157 A 
ATOM     16  C   UNL     1      18.696  -7.703  15.631  1.00  0.00     0.062 A 
ATOM     17  C   UNL     1      19.958  -8.275  15.413  1.00  0.00     0.158 A 
BRANCH  15  18
ATOM     18  O   UNL     1      22.316  -8.433  16.014  1.00  0.00    -0.504 OA
ATOM     19  H   UNL     1      23.120  -7.861  15.787  1.00  0.00     0.293 HD
ENDBRANCH  15  18
BRANCH  17  20
ATOM     20  O   UNL     1      20.131  -9.230  14.412  1.00  0.00    -0.504 OA
ATOM     21  H   UNL     1      19.707 -10.149  14.475  1.00  0.00     0.293 HD
ENDBRANCH  17  20
ENDBRANCH   1  12
BRANCH   2  22
ATOM     22  O   UNL     1      16.400  -8.136  18.048  1.00  0.00    -0.502 OA
ATOM     23  H   UNL     1      16.663  -8.349  19.003  1.00  0.00     0.293 HD
ENDBRANCH   2  22
BRANCH   9  24
ATOM     24  O   UNL     1      14.265  -1.024  15.767  1.00  0.00    -0.508 OA
ATOM     25  H   UNL     1      14.718  -0.221  16.189  1.00  0.00     0.293 HD
ENDBRANCH   9  24
TORSDOF 5
ENDMDL
MODEL 3
REMARK VINA RESULT:    -5.390      5.687      8.532
REMARK INTER + INTRA:          -6.645
REMARK INTER:                  -6.522
REMARK INTRA:                  -0.123
REMARK UNBOUND:                -0.310
REMARK SMILES O=c1c(O)c(-c2ccc(O)c(O)c2)oc2cc(O)ccc12
REMARK SMILES IDX 5 1 3 2 2 3 1 4 21 5 15 6 14 7 16 8 17 9 19 10 20 11 6 12
REMARK SMILES IDX 7 13 8 14 9 15 13 16 11 17 10 18 12 20 4 22 18 24
REMARK H PARENT 10 19 12 21 4 23 18 25
REMARK Flexibility Score: inf
ROOT
ATOM      1  C   UNL     1      24.033  -5.467  16.211  1.00  0.00     0.180 A 
ATOM      2  C   UNL     1      24.752  -5.731  15.027  1.00  0.00     0.208 A 
ATOM      3  C   UNL     1      24.253  -6.688  14.131  1.00  0.00     0.235 A 
ATOM      4  O   UNL     1      24.883  -6.950  13.071  1.00  0.00    -0.285 OA
ATOM      5  C   UNL     1      23.045  -7.343  14.423  1.00  0.00     0.069 A 
ATOM      6  C   UNL     1      22.373  -7.006  15.617  1.00  0.00     0.142 A 
ATOM      7  O   UNL     1      22.884  -6.099  16.443  1.00  0.00    -0.452 OA
ATOM      8  C   UNL     1      21.162  -7.628  15.939  1.00  0.00     0.094 A 
ATOM      9  C   UNL     1      20.614  -8.588  15.082  1.00  0.00     0.119 A 
ATOM     10  C   UNL     1      21.279  -8.927  13.896  1.00  0.00     0.047 A 
ATOM     11  C   UNL     1      22.488  -8.309  13.565  1.00  0.00     0.020 A 
ENDROOT
BRANCH   1  12
ATOM     12  C   UNL     1      24.504  -4.485  17.214  1.00  0.00     0.025 A 
ATOM     13  C   UNL     1      23.664  -3.424  17.588  1.00  0.00     0.016 A 
ATOM     14  C   UNL     1      24.080  -2.497  18.548  1.00  0.00     0.051 A 
ATOM     15  C   UNL     1      25.330  -2.624  19.158  1.00  0.00     0.157 A 
ATOM     16  C   UNL     1      25.754  -4.622  17.843  1.00  0.00     0.062 A 
ATOM     17  C   UNL     1      26.171  -3.694  18.808  1.00  0.00     0.158 A 
BRANCH  15  18
ATOM     18  O   UNL     1      25.719  -1.683  20.111  1.00  0.00    -0.504 OA
ATOM     19  H   UNL     1      25.093  -0.955  20.436  1.00  0.00     0.293 HD
ENDBRANCH  15  18
BRANCH  17  20
ATOM     20  O   UNL     1      27.415  -3.834  19.424  1.00  0.00    -0.504 OA
ATOM     21  H   UNL     1      28.250  -3.409  19.036  1.00  0.00     0.293 HD
ENDBRANCH  17  20
ENDBRANCH   1  12
BRANCH   2  22
ATOM     22  O   UNL     1      25.925  -5.028  14.740  1.00  0.00    -0.502 OA
ATOM     23  H   UNL     1      26.711  -5.457  14.266  1.00  0.00     0.293 HD
ENDBRANCH   2  22
BRANCH   9  24
ATOM     24  O   UNL     1      19.407  -9.198  15.419  1.00  0.00    -0.508 OA
ATOM     25  H   UNL     1      18.622  -8.661  15.770  1.00  0.00     0.293 HD
ENDBRANCH   9  24
TORSDOF 5
ENDMDL
MODEL 4
REMARK VINA RESULT:    -5.375      8.705      9.761
REMARK INTER + INTRA:          -6.627
REMARK INTER:                  -6.334
REMARK INTRA:                  -0.293
REMARK UNBOUND:                -0.310
REMARK SMILES O=c1c(O)c(-c2ccc(O)c(O)c2)oc2cc(O)ccc12
REMARK SMILES IDX 5 1 3 2 2 3 1 4 21 5 15 6 14 7 16 8 17 9 19 10 20 11 6 12
REMARK SMILES IDX 7 13 8 14 9 15 13 16 11 17 10 18 12 20 4 22 18 24
REMARK H PARENT 10 19 12 21 4 23 18 25
REMARK Flexibility Score: inf
ROOT
ATOM      1  C   UNL     1      18.047  -6.709  16.359  1.00  0.00     0.180 A 
ATOM      2  C   UNL     1      18.186  -5.334  16.641  1.00  0.00     0.208 A 
ATOM      3  C   UNL     1      17.229  -4.710  17.455  1.00  0.00     0.235 A 
ATOM      4  O   UNL     1      17.324  -3.479  17.712  1.00  0.00    -0.285 OA
ATOM      5  C   UNL     1      16.171  -5.469  17.983  1.00  0.00     0.069 A 
ATOM      6  C   UNL     1      16.117  -6.845  17.673  1.00  0.00     0.142 A 
ATOM      7  O   UNL     1      17.038  -7.396  16.892  1.00  0.00    -0.452 OA
ATOM      8  C   UNL     1      15.085  -7.638  18.189  1.00  0.00     0.094 A 
ATOM      9  C   UNL     1      14.104  -7.072  19.009  1.00  0.00     0.119 A 
ATOM     10  C   UNL     1      14.154  -5.705  19.317  1.00  0.00     0.047 A 
ATOM     11  C   UNL     1      15.182  -4.906  18.809  1.00  0.00     0.020 A 
ENDROOT
BRANCH   1  12
ATOM     12  C   UNL     1      19.006  -7.434  15.493  1.00  0.00     0.025 A 
ATOM     13  C   UNL     1      18.893  -7.326  14.098  1.00  0.00     0.016 A 
ATOM     14  C   UNL     1      19.798  -7.984  13.262  1.00  0.00     0.051 A 
ATOM     15  C   UNL     1      20.836  -8.747  13.804  1.00  0.00     0.157 A 
ATOM     16  C   UNL     1      20.062  -8.185  16.038  1.00  0.00     0.062 A 
ATOM     17  C   UNL     1      20.973  -8.845  15.199  1.00  0.00     0.158 A 
BRANCH  15  18
ATOM     18  O   UNL     1      21.723  -9.395  12.945  1.00  0.00    -0.504 OA
ATOM     19  H   UNL     1      22.705  -9.502  13.166  1.00  0.00     0.293 HD
ENDBRANCH  15  18
BRANCH  17  20
ATOM     20  O   UNL     1      22.015  -9.593  15.747  1.00  0.00    -0.504 OA
ATOM     21  H   UNL     1      22.526  -9.274  16.562  1.00  0.00     0.293 HD
ENDBRANCH  17  20
ENDBRANCH   1  12
BRANCH   2  22
ATOM     22  O   UNL     1      19.275  -4.616  16.141  1.00  0.00    -0.502 OA
ATOM     23  H   UNL     1      19.468  -3.661  16.419  1.00  0.00     0.293 HD
ENDBRANCH   2  22
BRANCH   9  24
ATOM     24  O   UNL     1      13.083  -7.875  19.513  1.00  0.00    -0.508 OA
ATOM     25  H   UNL     1      12.135  -7.813  19.158  1.00  0.00     0.293 HD
ENDBRANCH   9  24
TORSDOF 5
ENDMDL
MODEL 5
REMARK VINA RESULT:    -5.323      8.642     10.926
REMARK INTER + INTRA:          -6.567
REMARK INTER:                  -6.251
REMARK INTRA:                  -0.315
REMARK UNBOUND:                -0.310
REMARK SMILES O=c1c(O)c(-c2ccc(O)c(O)c2)oc2cc(O)ccc12
REMARK SMILES IDX 5 1 3 2 2 3 1 4 21 5 15 6 14 7 16 8 17 9 19 10 20 11 6 12
REMARK SMILES IDX 7 13 8 14 9 15 13 16 11 17 10 18 12 20 4 22 18 24
REMARK H PARENT 10 19 12 21 4 23 18 25
REMARK Flexibility Score: inf
ROOT
ATOM      1  C   UNL     1      16.604  -4.914  17.243  1.00  0.00     0.180 A 
ATOM      2  C   UNL     1      16.187  -3.914  16.339  1.00  0.00     0.208 A 
ATOM      3  C   UNL     1      16.596  -4.001  15.000  1.00  0.00     0.235 A 
ATOM      4  O   UNL     1      16.245  -3.114  14.174  1.00  0.00    -0.285 OA
ATOM      5  C   UNL     1      17.389  -5.085  14.589  1.00  0.00     0.069 A 
ATOM      6  C   UNL     1      17.744  -6.055  15.549  1.00  0.00     0.142 A 
ATOM      7  O   UNL     1      17.344  -5.932  16.810  1.00  0.00    -0.452 OA
ATOM      8  C   UNL     1      18.525  -7.156  15.177  1.00  0.00     0.094 A 
ATOM      9  C   UNL     1      18.959  -7.297  13.855  1.00  0.00     0.119 A 
ATOM     10  C   UNL     1      18.609  -6.334  12.899  1.00  0.00     0.047 A 
ATOM     11  C   UNL     1      17.828  -5.233  13.260  1.00  0.00     0.020 A 
ENDROOT
BRANCH   1  12
ATOM     12  C   UNL     1      16.231  -4.882  18.676  1.00  0.00     0.025 A 
ATOM     13  C   UNL     1      17.067  -4.223  19.592  1.00  0.00     0.016 A 
ATOM     14  C   UNL     1      16.724  -4.163  20.945  1.00  0.00     0.051 A 
ATOM     15  C   UNL     1      15.538  -4.744  21.401  1.00  0.00     0.157 A 
ATOM     16  C   UNL     1      15.028  -5.449  19.133  1.00  0.00     0.062 A 
ATOM     17  C   UNL     1      14.682  -5.386  20.491  1.00  0.00     0.158 A 
BRANCH  15  18
ATOM     18  O   UNL     1      15.224  -4.669  22.758  1.00  0.00    -0.504 OA
ATOM     19  H   UNL     1      14.283  -4.482  23.083  1.00  0.00     0.293 HD
ENDBRANCH  15  18
BRANCH  17  20
ATOM     20  O   UNL     1      13.490  -5.957  20.937  1.00  0.00    -0.504 OA
ATOM     21  H   UNL     1      13.460  -6.549  21.759  1.00  0.00     0.293 HD
ENDBRANCH  17  20
ENDBRANCH   1  12
BRANCH   2  22
ATOM     22  O   UNL     1      15.358  -2.875  16.767  1.00  0.00    -0.502 OA
ATOM     23  H   UNL     1      14.867  -2.903  17.653  1.00  0.00     0.293 HD
ENDBRANCH   2  22
BRANCH   9  24
ATOM     24  O   UNL     1      19.736  -8.398  13.502  1.00  0.00    -0.508 OA
ATOM     25  H   UNL     1      20.005  -8.570  12.539  1.00  0.00     0.293 HD
ENDBRANCH   9  24
TORSDOF 5
ENDMDL
MODEL 6
REMARK VINA RESULT:    -5.286      7.606     10.363
REMARK INTER + INTRA:          -6.523
REMARK INTER:                  -6.221
REMARK INTRA:                  -0.302
REMARK UNBOUND:                -0.310
REMARK SMILES O=c1c(O)c(-c2ccc(O)c(O)c2)oc2cc(O)ccc12
REMARK SMILES IDX 5 1 3 2 2 3 1 4 21 5 15 6 14 7 16 8 17 9 19 10 20 11 6 12
REMARK SMILES IDX 7 13 8 14 9 15 13 16 11 17 10 18 12 20 4 22 18 24
REMARK H PARENT 10 19 12 21 4 23 18 25
REMARK Flexibility Score: inf
ROOT
ATOM      1  C   UNL     1      17.145  -4.662  17.811  1.00  0.00     0.180 A 
ATOM      2  C   UNL     1      17.102  -3.557  16.935  1.00  0.00     0.208 A 
ATOM      3  C   UNL     1      18.115  -3.414  15.975  1.00  0.00     0.235 A 
ATOM      4  O   UNL     1      18.105  -2.429  15.188  1.00  0.00    -0.285 OA
ATOM      5  C   UNL     1      19.132  -4.380  15.896  1.00  0.00     0.069 A 
ATOM      6  C   UNL     1      19.091  -5.469  16.793  1.00  0.00     0.142 A 
ATOM      7  O   UNL     1      18.118  -5.563  17.693  1.00  0.00    -0.452 OA
ATOM      8  C   UNL     1      20.079  -6.458  16.739  1.00  0.00     0.094 A 
ATOM      9  C   UNL     1      21.113  -6.371  15.801  1.00  0.00     0.119 A 
ATOM     10  C   UNL     1      21.158  -5.291  14.910  1.00  0.00     0.047 A 
ATOM     11  C   UNL     1      20.173  -4.299  14.954  1.00  0.00     0.020 A 
ENDROOT
BRANCH   1  12
ATOM     12  C   UNL     1      16.123  -4.871  18.862  1.00  0.00     0.025 A 
ATOM     13  C   UNL     1      14.918  -5.513  18.534  1.00  0.00     0.016 A 
ATOM     14  C   UNL     1      13.948  -5.739  19.514  1.00  0.00     0.051 A 
ATOM     15  C   UNL     1      14.172  -5.344  20.836  1.00  0.00     0.157 A 
ATOM     16  C   UNL     1      16.356  -4.492  20.196  1.00  0.00     0.062 A 
ATOM     17  C   UNL     1      15.384  -4.721  21.181  1.00  0.00     0.158 A 
BRANCH  15  18
ATOM     18  O   UNL     1      13.185  -5.581  21.792  1.00  0.00    -0.504 OA
ATOM     19  H   UNL     1      12.964  -6.514  22.118  1.00  0.00     0.293 HD
ENDBRANCH  15  18
BRANCH  17  20
ATOM     20  O   UNL     1      15.619  -4.336  22.501  1.00  0.00    -0.504 OA
ATOM     21  H   UNL     1      15.814  -3.372  22.746  1.00  0.00     0.293 HD
ENDBRANCH  17  20
ENDBRANCH   1  12
BRANCH   2  22
ATOM     22  O   UNL     1      16.051  -2.639  17.005  1.00  0.00    -0.502 OA
ATOM     23  H   UNL     1      16.061  -1.765  16.494  1.00  0.00     0.293 HD
ENDBRANCH   2  22
BRANCH   9  24
ATOM     24  O   UNL     1      22.089  -7.365  15.762  1.00  0.00    -0.508 OA
ATOM     25  H   UNL     1      22.162  -8.064  16.492  1.00  0.00     0.293 HD
ENDBRANCH   9  24
TORSDOF 5
ENDMDL
MODEL 7
REMARK VINA RESULT:    -5.259      7.957      9.237
REMARK INTER + INTRA:          -6.491
REMARK INTER:                  -6.208
REMARK INTRA:                  -0.282
REMARK UNBOUND:                -0.310
REMARK SMILES O=c1c(O)c(-c2ccc(O)c(O)c2)oc2cc(O)ccc12
REMARK SMILES IDX 5 1 3 2 2 3 1 4 21 5 15 6 14 7 16 8 17 9 19 10 20 11 6 12
REMARK SMILES IDX 7 13 8 14 9 15 13 16 11 17 10 18 12 20 4 22 18 24
REMARK H PARENT 10 19 12 21 4 23 18 25
REMARK Flexibility Score: inf
ROOT
ATOM      1  C   UNL     1      17.730  -5.756  16.910  1.00  0.00     0.180 A 
ATOM      2  C   UNL     1      17.620  -4.411  16.501  1.00  0.00     0.208 A 
ATOM      3  C   UNL     1      16.443  -3.707  16.798  1.00  0.00     0.235 A 
ATOM      4  O   UNL     1      16.316  -2.507  16.433  1.00  0.00    -0.285 OA
ATOM      5  C   UNL     1      15.416  -4.349  17.509  1.00  0.00     0.069 A 
ATOM      6  C   UNL     1      15.613  -5.690  17.903  1.00  0.00     0.142 A 
ATOM      7  O   UNL     1      16.739  -6.323  17.595  1.00  0.00    -0.452 OA
ATOM      8  C   UNL     1      14.618  -6.362  18.623  1.00  0.00     0.094 A 
ATOM      9  C   UNL     1      13.424  -5.710  18.951  1.00  0.00     0.119 A 
ATOM     10  C   UNL     1      13.225  -4.379  18.559  1.00  0.00     0.047 A 
ATOM     11  C   UNL     1      14.214  -3.699  17.843  1.00  0.00     0.020 A 
ENDROOT
BRANCH   1  12
ATOM     12  C   UNL     1      18.932  -6.571  16.617  1.00  0.00     0.025 A 
ATOM     13  C   UNL     1      20.068  -6.440  17.432  1.00  0.00     0.016 A 
ATOM     14  C   UNL     1      21.206  -7.213  17.187  1.00  0.00     0.051 A 
ATOM     15  C   UNL     1      21.222  -8.136  16.138  1.00  0.00     0.157 A 
ATOM     16  C   UNL     1      18.942  -7.514  15.575  1.00  0.00     0.062 A 
ATOM     17  C   UNL     1      20.083  -8.292  15.330  1.00  0.00     0.158 A 
BRANCH  15  18
ATOM     18  O   UNL     1      22.373  -8.892  15.917  1.00  0.00    -0.504 OA
ATOM     19  H   UNL     1      22.412  -9.884  16.115  1.00  0.00     0.293 HD
ENDBRANCH  15  18
BRANCH  17  20
ATOM     20  O   UNL     1      20.087  -9.222  14.291  1.00  0.00    -0.504 OA
ATOM     21  H   UNL     1      20.407  -8.977  13.360  1.00  0.00     0.293 HD
ENDBRANCH  17  20
ENDBRANCH   1  12
BRANCH   2  22
ATOM     22  O   UNL     1      18.678  -3.784  15.838  1.00  0.00    -0.502 OA
ATOM     23  H   UNL     1      19.570  -4.241  15.689  1.00  0.00     0.293 HD
ENDBRANCH   2  22
BRANCH   9  24
ATOM     24  O   UNL     1      12.444  -6.394  19.667  1.00  0.00    -0.508 OA
ATOM     25  H   UNL     1      12.211  -6.140  20.621  1.00  0.00     0.293 HD
ENDBRANCH   9  24
TORSDOF 5
ENDMDL
MODEL 8
REMARK VINA RESULT:    -5.247      8.662     10.876
REMARK INTER + INTRA:          -6.477
REMARK INTER:                  -6.208
REMARK INTRA:                  -0.269
REMARK UNBOUND:                -0.310
REMARK SMILES O=c1c(O)c(-c2ccc(O)c(O)c2)oc2cc(O)ccc12
REMARK SMILES IDX 5 1 3 2 2 3 1 4 21 5 15 6 14 7 16 8 17 9 19 10 20 11 6 12
REMARK SMILES IDX 7 13 8 14 9 15 13 16 11 17 10 18 12 20 4 22 18 24
REMARK H PARENT 10 19 12 21 4 23 18 25
REMARK Flexibility Score: inf
ROOT
ATOM      1  C   UNL     1      16.004  -5.055  18.132  1.00  0.00     0.180 A 
ATOM      2  C   UNL     1      16.287  -6.225  17.396  1.00  0.00     0.208 A 
ATOM      3  C   UNL     1      16.848  -6.099  16.116  1.00  0.00     0.235 A 
ATOM      4  O   UNL     1      17.101  -7.129  15.434  1.00  0.00    -0.285 OA
ATOM      5  C   UNL     1      17.131  -4.820  15.609  1.00  0.00     0.069 A 
ATOM      6  C   UNL     1      16.839  -3.701  16.418  1.00  0.00     0.142 A 
ATOM      7  O   UNL     1      16.301  -3.862  17.621  1.00  0.00    -0.452 OA
ATOM      8  C   UNL     1      17.116  -2.410  15.953  1.00  0.00     0.094 A 
ATOM      9  C   UNL     1      17.679  -2.223  14.686  1.00  0.00     0.119 A 
ATOM     10  C   UNL     1      17.968  -3.332  13.880  1.00  0.00     0.047 A 
ATOM     11  C   UNL     1      17.698  -4.625  14.336  1.00  0.00     0.020 A 
ENDROOT
BRANCH   1  12
ATOM     12  C   UNL     1      15.394  -5.105  19.481  1.00  0.00     0.025 A 
ATOM     13  C   UNL     1      16.178  -4.792  20.604  1.00  0.00     0.016 A 
ATOM     14  C   UNL     1      15.619  -4.812  21.884  1.00  0.00     0.051 A 
ATOM     15  C   UNL     1      14.269  -5.129  22.062  1.00  0.00     0.157 A 
ATOM     16  C   UNL     1      14.032  -5.404  19.660  1.00  0.00     0.062 A 
ATOM     17  C   UNL     1      13.470  -5.423  20.945  1.00  0.00     0.158 A 
BRANCH  15  18
ATOM     18  O   UNL     1      13.740  -5.143  23.352  1.00  0.00    -0.504 OA
ATOM     19  H   UNL     1      12.828  -4.758  23.564  1.00  0.00     0.293 HD
ENDBRANCH  15  18
BRANCH  17  20
ATOM     20  O   UNL     1      12.119  -5.726  21.114  1.00  0.00    -0.504 OA
ATOM     21  H   UNL     1      11.813  -6.444  21.762  1.00  0.00     0.293 HD
ENDBRANCH  17  20
ENDBRANCH   1  12
BRANCH   2  22
ATOM     22  O   UNL     1      16.041  -7.485  17.947  1.00  0.00    -0.502 OA
ATOM     23  H   UNL     1      15.464  -7.612  18.769  1.00  0.00     0.293 HD
ENDBRANCH   2  22
BRANCH   9  24
ATOM     24  O   UNL     1      17.947  -0.931  14.239  1.00  0.00    -0.508 OA
ATOM     25  H   UNL     1      18.565  -0.311  14.751  1.00  0.00     0.293 HD
ENDBRANCH   9  24
TORSDOF 5
ENDMDL
MODEL 9
REMARK VINA RESULT:    -5.198      8.867     11.590
REMARK INTER + INTRA:          -6.420
REMARK INTER:                  -6.107
REMARK INTRA:                  -0.312
REMARK UNBOUND:                -0.310
REMARK SMILES O=c1c(O)c(-c2ccc(O)c(O)c2)oc2cc(O)ccc12
REMARK SMILES IDX 5 1 3 2 2 3 1 4 21 5 15 6 14 7 16 8 17 9 19 10 20 11 6 12
REMARK SMILES IDX 7 13 8 14 9 15 13 16 11 17 10 18 12 20 4 22 18 24
REMARK H PARENT 10 19 12 21 4 23 18 25
REMARK Flexibility Score: inf
ROOT
ATOM      1  C   UNL     1      16.740  -6.148  16.972  1.00  0.00     0.180 A 
ATOM      2  C   UNL     1      16.371  -5.491  15.779  1.00  0.00     0.208 A 
ATOM      3  C   UNL     1      17.085  -5.772  14.604  1.00  0.00     0.235 A 
ATOM      4  O   UNL     1      16.782  -5.190  13.527  1.00  0.00    -0.285 OA
ATOM      5  C   UNL     1      18.130  -6.710  14.639  1.00  0.00     0.069 A 
ATOM      6  C   UNL     1      18.422  -7.341  15.867  1.00  0.00     0.142 A 
ATOM      7  O   UNL     1      17.728  -7.041  16.959  1.00  0.00    -0.452 OA
ATOM      8  C   UNL     1      19.449  -8.288  15.941  1.00  0.00     0.094 A 
ATOM      9  C   UNL     1      20.192  -8.612  14.801  1.00  0.00     0.119 A 
ATOM     10  C   UNL     1      19.907  -7.986  13.580  1.00  0.00     0.047 A 
ATOM     11  C   UNL     1      18.881  -7.040  13.496  1.00  0.00     0.020 A 
ENDROOT
BRANCH   1  12
ATOM     12  C   UNL     1      16.048  -5.891  18.256  1.00  0.00     0.025 A 
ATOM     13  C   UNL     1      14.897  -6.628  18.579  1.00  0.00     0.016 A 
ATOM     14  C   UNL     1      14.240  -6.417  19.794  1.00  0.00     0.051 A 
ATOM     15  C   UNL     1      14.728  -5.481  20.709  1.00  0.00     0.157 A 
ATOM     16  C   UNL     1      16.549  -4.964  19.186  1.00  0.00     0.062 A 
ATOM     17  C   UNL     1      15.891  -4.753  20.407  1.00  0.00     0.158 A 
BRANCH  15  18
ATOM     18  O   UNL     1      14.049  -5.291  21.912  1.00  0.00    -0.504 OA
ATOM     19  H   UNL     1      13.039  -5.313  21.970  1.00  0.00     0.293 HD
ENDBRANCH  15  18
BRANCH  17  20
ATOM     20  O   UNL     1      16.392  -3.827  21.322  1.00  0.00    -0.504 OA
ATOM     21  H   UNL     1      17.337  -3.894  21.683  1.00  0.00     0.293 HD
ENDBRANCH  17  20
ENDBRANCH   1  12
BRANCH   2  22
ATOM     22  O   UNL     1      15.295  -4.601  15.765  1.00  0.00    -0.502 OA
ATOM     23  H   UNL     1      14.920  -4.192  16.613  1.00  0.00     0.293 HD
ENDBRANCH   2  22
BRANCH   9  24
ATOM     24  O   UNL     1      21.212  -9.557  14.892  1.00  0.00    -0.508 OA
ATOM     25  H   UNL     1      21.355 -10.102  15.735  1.00  0.00     0.293 HD
ENDBRANCH   9  24
TORSDOF 5
ENDMDL
