MODEL 1
REMARK VINA RESULT:    -5.710      0.000      0.000
REMARK INTER + INTRA:          -6.648
REMARK INTER:                  -6.544
REMARK INTRA:                  -0.104
REMARK UNBOUND:                -0.104
REMARK SMILES COc1cc(C(=O)[O-])ccc1O
REMARK SMILES IDX 5 1 9 2 4 3 10 4 3 5 11 6 6 7 7 8 8 9 2 10 1 11 12 12
REMARK H PARENT 12 13
REMARK Flexibility Score: inf
ROOT
ATOM      1  C   UNL     1     120.130 119.322 100.536  1.00  0.00     0.001 A 
ATOM      2  C   UNL     1     119.698 119.075 101.849  1.00  0.00     0.014 A 
ATOM      3  C   UNL     1     119.488 118.666  99.470  1.00  0.00     0.060 A 
ATOM      4  C   UNL     1     118.647 118.189 102.092  1.00  0.00     0.051 A 
ATOM      5  C   UNL     1     118.427 117.770  99.709  1.00  0.00     0.161 A 
ATOM      6  C   UNL     1     118.011 117.536 101.033  1.00  0.00     0.157 A 
ENDROOT
BRANCH   1   7
ATOM      7  C   UNL     1     121.244 120.262 100.274  1.00  0.00     0.072 C 
ATOM      8  O   UNL     1     121.739 120.364  99.121  1.00  0.00    -0.545 OA
ATOM      9  O   UNL     1     121.759 121.047 101.300  1.00  0.00    -0.545 OA
ENDBRANCH   1   7
BRANCH   5  10
ATOM     10  O   UNL     1     117.769 117.100  98.666  1.00  0.00    -0.493 OA
ATOM     11  C   UNL     1     116.739 117.667  97.863  1.00  0.00     0.278 C 
ENDBRANCH   5  10
BRANCH   6  12
ATOM     12  O   UNL     1     116.964 116.658 101.315  1.00  0.00    -0.504 OA
ATOM     13  H   UNL     1     116.297 116.834 102.056  1.00  0.00     0.293 HD
ENDBRANCH   6  12
TORSDOF 3
ENDMDL
MODEL 2
REMARK VINA RESULT:    -5.624      1.668      4.360
REMARK INTER + INTRA:          -6.549
REMARK INTER:                  -6.469
REMARK INTRA:                  -0.080
REMARK UNBOUND:                -0.104
REMARK SMILES COc1cc(C(=O)[O-])ccc1O
REMARK SMILES IDX 5 1 9 2 4 3 10 4 3 5 11 6 6 7 7 8 8 9 2 10 1 11 12 12
REMARK H PARENT 12 13
REMARK Flexibility Score: inf
ROOT
ATOM      1  C   UNL     1     117.437 117.267  99.259  1.00  0.00     0.001 A 
ATOM      2  C   UNL     1     116.843 116.822 100.451  1.00  0.00     0.014 A 
ATOM      3  C   UNL     1     118.584 118.078  99.327  1.00  0.00     0.060 A 
ATOM      4  C   UNL     1     117.386 117.182 101.687  1.00  0.00     0.051 A 
ATOM      5  C   UNL     1     119.136 118.444 100.571  1.00  0.00     0.161 A 
ATOM      6  C   UNL     1     118.525 117.988 101.754  1.00  0.00     0.157 A 
ENDROOT
BRANCH   1   7
ATOM      7  C   UNL     1     116.865 116.888  97.947  1.00  0.00     0.072 C 
ATOM      8  O   UNL     1     117.237 117.469  96.893  1.00  0.00    -0.545 OA
ATOM      9  O   UNL     1     115.908 115.882  97.859  1.00  0.00    -0.545 OA
ENDBRANCH   1   7
BRANCH   5  10
ATOM     10  O   UNL     1     120.279 119.252 100.669  1.00  0.00    -0.493 OA
ATOM     11  C   UNL     1     121.154 119.550  99.586  1.00  0.00     0.278 C 
ENDBRANCH   5  10
BRANCH   6  12
ATOM     12  O   UNL     1     119.038 118.326 103.006  1.00  0.00    -0.504 OA
ATOM     13  H   UNL     1     119.840 118.933 103.115  1.00  0.00     0.293 HD
ENDBRANCH   6  12
TORSDOF 3
ENDMDL
MODEL 3
REMARK VINA RESULT:    -5.150      1.208      2.777
REMARK INTER + INTRA:          -6.006
REMARK INTER:                  -5.922
REMARK INTRA:                  -0.084
REMARK UNBOUND:                -0.104
REMARK SMILES COc1cc(C(=O)[O-])ccc1O
REMARK SMILES IDX 5 1 9 2 4 3 10 4 3 5 11 6 6 7 7 8 8 9 2 10 1 11 12 12
REMARK H PARENT 12 13
REMARK Flexibility Score: inf
ROOT
ATOM      1  C   UNL     1     120.162 119.724 100.732  1.00  0.00     0.001 A 
ATOM      2  C   UNL     1     120.095 118.926  99.578  1.00  0.00     0.014 A 
ATOM      3  C   UNL     1     119.177 119.576 101.725  1.00  0.00     0.060 A 
ATOM      4  C   UNL     1     119.062 118.000  99.420  1.00  0.00     0.051 A 
ATOM      5  C   UNL     1     118.133 118.642 101.571  1.00  0.00     0.161 A 
ATOM      6  C   UNL     1     118.083 117.854 100.406  1.00  0.00     0.157 A 
ENDROOT
BRANCH   1   7
ATOM      7  C   UNL     1     121.256 120.708 100.904  1.00  0.00     0.072 C 
ATOM      8  O   UNL     1     121.589 121.102 102.053  1.00  0.00    -0.545 OA
ATOM      9  O   UNL     1     121.932 121.210  99.797  1.00  0.00    -0.545 OA
ENDBRANCH   1   7
BRANCH   5  10
ATOM     10  O   UNL     1     117.136 118.474 102.544  1.00  0.00    -0.493 OA
ATOM     11  C   UNL     1     117.364 118.505 103.949  1.00  0.00     0.278 C 
ENDBRANCH   5  10
BRANCH   6  12
ATOM     12  O   UNL     1     117.068 116.917 100.213  1.00  0.00    -0.504 OA
ATOM     13  H   UNL     1     116.123 117.188  99.970  1.00  0.00     0.293 HD
ENDBRANCH   6  12
TORSDOF 3
ENDMDL
MODEL 4
REMARK VINA RESULT:    -5.063      1.671      4.877
REMARK INTER + INTRA:          -5.907
REMARK INTER:                  -5.821
REMARK INTRA:                  -0.086
REMARK UNBOUND:                -0.104
REMARK SMILES COc1cc(C(=O)[O-])ccc1O
REMARK SMILES IDX 5 1 9 2 4 3 10 4 3 5 11 6 6 7 7 8 8 9 2 10 1 11 12 12
REMARK H PARENT 12 13
REMARK Flexibility Score: inf
ROOT
ATOM      1  C   UNL     1     117.472 117.358  99.525  1.00  0.00     0.001 A 
ATOM      2  C   UNL     1     118.412 118.122  98.814  1.00  0.00     0.014 A 
ATOM      3  C   UNL     1     117.455 117.429 100.929  1.00  0.00     0.060 A 
ATOM      4  C   UNL     1     119.316 118.941  99.494  1.00  0.00     0.051 A 
ATOM      5  C   UNL     1     118.365 118.253 101.621  1.00  0.00     0.161 A 
ATOM      6  C   UNL     1     119.299 119.010 100.889  1.00  0.00     0.157 A 
ENDROOT
BRANCH   1   7
ATOM      7  C   UNL     1     116.512 116.489  98.807  1.00  0.00     0.072 C 
ATOM      8  O   UNL     1     115.701 115.766  99.446  1.00  0.00    -0.545 OA
ATOM      9  O   UNL     1     116.491 116.459  97.417  1.00  0.00    -0.545 OA
ENDBRANCH   1   7
BRANCH   5  10
ATOM     10  O   UNL     1     118.371 118.343 103.022  1.00  0.00    -0.493 OA
ATOM     11  C   UNL     1     117.203 118.380 103.835  1.00  0.00     0.278 C 
ENDBRANCH   5  10
BRANCH   6  12
ATOM     12  O   UNL     1     120.217 119.839 101.533  1.00  0.00    -0.504 OA
ATOM     13  H   UNL     1     120.224 120.843 101.399  1.00  0.00     0.293 HD
ENDBRANCH   6  12
TORSDOF 3
ENDMDL
MODEL 5
REMARK VINA RESULT:    -4.880     12.969     15.168
REMARK INTER + INTRA:          -5.697
REMARK INTER:                  -5.620
REMARK INTRA:                  -0.077
REMARK UNBOUND:                -0.104
REMARK SMILES COc1cc(C(=O)[O-])ccc1O
REMARK SMILES IDX 5 1 9 2 4 3 10 4 3 5 11 6 6 7 7 8 8 9 2 10 1 11 12 12
REMARK H PARENT 12 13
REMARK Flexibility Score: inf
ROOT
ATOM      1  C   UNL     1     114.016 104.149 100.831  1.00  0.00     0.001 A 
ATOM      2  C   UNL     1     114.164 103.415  99.643  1.00  0.00     0.014 A 
ATOM      3  C   UNL     1     113.710 105.520 100.755  1.00  0.00     0.060 A 
ATOM      4  C   UNL     1     114.011 104.040  98.404  1.00  0.00     0.051 A 
ATOM      5  C   UNL     1     113.553 106.155  99.507  1.00  0.00     0.161 A 
ATOM      6  C   UNL     1     113.708 105.402  98.328  1.00  0.00     0.157 A 
ENDROOT
BRANCH   1   7
ATOM      7  C   UNL     1     114.178 103.490 102.147  1.00  0.00     0.072 C 
ATOM      8  O   UNL     1     113.630 102.380 102.379  1.00  0.00    -0.545 OA
ATOM      9  O   UNL     1     114.938 104.088 103.146  1.00  0.00    -0.545 OA
ENDBRANCH   1   7
BRANCH   5  10
ATOM     10  O   UNL     1     113.249 107.521  99.401  1.00  0.00    -0.493 OA
ATOM     11  C   UNL     1     112.810 108.338 100.481  1.00  0.00     0.278 C 
ENDBRANCH   5  10
BRANCH   6  12
ATOM     12  O   UNL     1     113.561 105.990  97.072  1.00  0.00    -0.504 OA
ATOM     13  H   UNL     1     112.884 105.658  96.397  1.00  0.00     0.293 HD
ENDBRANCH   6  12
TORSDOF 3
ENDMDL
MODEL 6
REMARK VINA RESULT:    -4.864      2.101      3.598
REMARK INTER + INTRA:          -5.679
REMARK INTER:                  -5.597
REMARK INTRA:                  -0.081
REMARK UNBOUND:                -0.104
REMARK SMILES COc1cc(C(=O)[O-])ccc1O
REMARK SMILES IDX 5 1 9 2 4 3 10 4 3 5 11 6 6 7 7 8 8 9 2 10 1 11 12 12
REMARK H PARENT 12 13
REMARK Flexibility Score: inf
ROOT
ATOM      1  C   UNL     1     118.115 117.824 100.662  1.00  0.00     0.001 A 
ATOM      2  C   UNL     1     118.232 118.082  99.286  1.00  0.00     0.014 A 
ATOM      3  C   UNL     1     117.161 116.892 101.104  1.00  0.00     0.060 A 
ATOM      4  C   UNL     1     117.410 117.420  98.371  1.00  0.00     0.051 A 
ATOM      5  C   UNL     1     116.328 116.221 100.186  1.00  0.00     0.161 A 
ATOM      6  C   UNL     1     116.461 116.495  98.812  1.00  0.00     0.157 A 
ENDROOT
BRANCH   1   7
ATOM      7  C   UNL     1     118.986 118.524 101.634  1.00  0.00     0.072 C 
ATOM      8  O   UNL     1     118.816 118.370 102.872  1.00  0.00    -0.545 OA
ATOM      9  O   UNL     1     120.005 119.361 101.193  1.00  0.00    -0.545 OA
ENDBRANCH   1   7
BRANCH   5  10
ATOM     10  O   UNL     1     115.366 115.286 100.599  1.00  0.00    -0.493 OA
ATOM     11  C   UNL     1     115.374 114.620 101.858  1.00  0.00     0.278 C 
ENDBRANCH   5  10
BRANCH   6  12
ATOM     12  O   UNL     1     115.657 115.853  97.869  1.00  0.00    -0.504 OA
ATOM     13  H   UNL     1     114.654 115.779  97.976  1.00  0.00     0.293 HD
ENDBRANCH   6  12
TORSDOF 3
ENDMDL
MODEL 7
REMARK VINA RESULT:    -4.814     12.619     15.433
REMARK INTER + INTRA:          -5.621
REMARK INTER:                  -5.541
REMARK INTRA:                  -0.079
REMARK UNBOUND:                -0.104
REMARK SMILES COc1cc(C(=O)[O-])ccc1O
REMARK SMILES IDX 5 1 9 2 4 3 10 4 3 5 11 6 6 7 7 8 8 9 2 10 1 11 12 12
REMARK H PARENT 12 13
REMARK Flexibility Score: inf
ROOT
ATOM      1  C   UNL     1     104.142 114.334 100.563  1.00  0.00     0.001 A 
ATOM      2  C   UNL     1     103.675 114.402  99.240  1.00  0.00     0.014 A 
ATOM      3  C   UNL     1     105.456 113.896 100.802  1.00  0.00     0.060 A 
ATOM      4  C   UNL     1     104.506 114.039  98.178  1.00  0.00     0.051 A 
ATOM      5  C   UNL     1     106.300 113.528  99.735  1.00  0.00     0.161 A 
ATOM      6  C   UNL     1     105.812 113.602  98.417  1.00  0.00     0.157 A 
ENDROOT
BRANCH   1   7
ATOM      7  C   UNL     1     103.264 114.719 101.691  1.00  0.00     0.072 C 
ATOM      8  O   UNL     1     102.384 115.609 101.543  1.00  0.00    -0.545 OA
ATOM      9  O   UNL     1     103.397 114.103 102.930  1.00  0.00    -0.545 OA
ENDBRANCH   1   7
BRANCH   5  10
ATOM     10  O   UNL     1     107.615 113.086  99.944  1.00  0.00    -0.493 OA
ATOM     11  C   UNL     1     108.369 113.323 101.129  1.00  0.00     0.278 C 
ENDBRANCH   5  10
BRANCH   6  12
ATOM     12  O   UNL     1     106.612 113.248  97.331  1.00  0.00    -0.504 OA
ATOM     13  H   UNL     1     107.615 113.387  97.332  1.00  0.00     0.293 HD
ENDBRANCH   6  12
TORSDOF 3
ENDMDL
MODEL 8
REMARK VINA RESULT:    -4.787      1.487      4.887
REMARK INTER + INTRA:          -5.590
REMARK INTER:                  -5.559
REMARK INTRA:                  -0.032
REMARK UNBOUND:                -0.104
REMARK SMILES COc1cc(C(=O)[O-])ccc1O
REMARK SMILES IDX 5 1 9 2 4 3 10 4 3 5 11 6 6 7 7 8 8 9 2 10 1 11 12 12
REMARK H PARENT 12 13
REMARK Flexibility Score: inf
ROOT
ATOM      1  C   UNL     1     118.148 118.007 101.290  1.00  0.00     0.001 A 
ATOM      2  C   UNL     1     117.929 118.128  99.907  1.00  0.00     0.014 A 
ATOM      3  C   UNL     1     119.334 118.522 101.841  1.00  0.00     0.060 A 
ATOM      4  C   UNL     1     118.878 118.750  99.094  1.00  0.00     0.051 A 
ATOM      5  C   UNL     1     120.295 119.151 101.025  1.00  0.00     0.161 A 
ATOM      6  C   UNL     1     120.057 119.260  99.642  1.00  0.00     0.157 A 
ENDROOT
BRANCH   1   7
ATOM      7  C   UNL     1     117.143 117.349 102.155  1.00  0.00     0.072 C 
ATOM      8  O   UNL     1     116.848 117.835 103.279  1.00  0.00    -0.545 OA
ATOM      9  O   UNL     1     116.511 116.182 101.739  1.00  0.00    -0.545 OA
ENDBRANCH   1   7
BRANCH   5  10
ATOM     10  O   UNL     1     121.489 119.673 101.548  1.00  0.00    -0.493 OA
ATOM     11  C   UNL     1     121.714 121.051 101.829  1.00  0.00     0.278 C 
ENDBRANCH   5  10
BRANCH   6  12
ATOM     12  O   UNL     1     120.981 119.876  98.798  1.00  0.00    -0.504 OA
ATOM     13  H   UNL     1     121.902 120.151  99.116  1.00  0.00     0.293 HD
ENDBRANCH   6  12
TORSDOF 3
ENDMDL
MODEL 9
REMARK VINA RESULT:    -4.780     13.599     15.674
REMARK INTER + INTRA:          -5.582
REMARK INTER:                  -5.484
REMARK INTRA:                  -0.098
REMARK UNBOUND:                -0.104
REMARK SMILES COc1cc(C(=O)[O-])ccc1O
REMARK SMILES IDX 5 1 9 2 4 3 10 4 3 5 11 6 6 7 7 8 8 9 2 10 1 11 12 12
REMARK H PARENT 12 13
REMARK Flexibility Score: inf
ROOT
ATOM      1  C   UNL     1     103.893 114.299 100.490  1.00  0.00     0.001 A 
ATOM      2  C   UNL     1     104.851 114.158 101.507  1.00  0.00     0.014 A 
ATOM      3  C   UNL     1     104.262 114.028  99.160  1.00  0.00     0.060 A 
ATOM      4  C   UNL     1     106.152 113.754 101.201  1.00  0.00     0.051 A 
ATOM      5  C   UNL     1     105.574 113.620  98.845  1.00  0.00     0.161 A 
ATOM      6  C   UNL     1     106.518 113.486  99.880  1.00  0.00     0.157 A 
ENDROOT
BRANCH   1   7
ATOM      7  C   UNL     1     102.512 114.727 100.811  1.00  0.00     0.072 C 
ATOM      8  O   UNL     1     101.875 114.183 101.751  1.00  0.00    -0.545 OA
ATOM      9  O   UNL     1     101.899 115.738 100.079  1.00  0.00    -0.545 OA
ENDBRANCH   1   7
BRANCH   5  10
ATOM     10  O   UNL     1     105.970 113.343  97.528  1.00  0.00    -0.493 OA
ATOM     11  C   UNL     1     105.790 112.090  96.875  1.00  0.00     0.278 C 
ENDBRANCH   5  10
BRANCH   6  12
ATOM     12  O   UNL     1     107.827 113.084  99.613  1.00  0.00    -0.504 OA
ATOM     13  H   UNL     1     108.546 113.739  99.331  1.00  0.00     0.293 HD
ENDBRANCH   6  12
TORSDOF 3
ENDMDL
