MODEL 1
REMARK VINA RESULT:    -5.579      0.000      0.000
REMARK INTER + INTRA:          -6.068
REMARK INTER:                  -6.068
REMARK INTRA:                   0.000
REMARK UNBOUND:                 0.000
REMARK SMILES Cc1cc(O)c2c(c1)C(=O)c1cc(O)cc(O)c1C2=O
REMARK SMILES IDX 1 1 2 2 8 3 7 4 6 5 4 6 3 7 19 8 20 9 18 10 11 11 9 12 10 13
REMARK SMILES IDX 12 14 13 15 15 16 16 17 5 18 17 20 14 22
REMARK H PARENT 5 19 17 21 14 23
REMARK Flexibility Score: inf
ROOT
ATOM      1  C   UNL     1     -51.382 -57.110 -16.622  1.00  0.00     0.044 C 
ATOM      2  C   UNL     1     -51.716 -55.649 -16.681  1.00  0.00    -0.047 A 
ATOM      3  C   UNL     1     -50.984 -54.728 -15.924  1.00  0.00     0.016 A 
ATOM      4  C   UNL     1     -51.304 -53.360 -15.952  1.00  0.00     0.038 A 
ATOM      5  C   UNL     1     -52.376 -52.904 -16.754  1.00  0.00     0.076 A 
ATOM      6  C   UNL     1     -53.175 -53.857 -17.442  1.00  0.00     0.127 A 
ATOM      7  C   UNL     1     -52.818 -55.209 -17.418  1.00  0.00     0.050 A 
ATOM      8  C   UNL     1     -52.586 -51.434 -16.886  1.00  0.00     0.201 C 
ATOM      9  O   UNL     1     -53.221 -50.971 -17.870  1.00  0.00    -0.288 OA
ATOM     10  C   UNL     1     -51.950 -50.499 -15.920  1.00  0.00     0.076 A 
ATOM     11  C   UNL     1     -50.927 -50.976 -15.074  1.00  0.00     0.041 A 
ATOM     12  C   UNL     1     -50.526 -52.400 -15.133  1.00  0.00     0.194 C 
ATOM     13  O   UNL     1     -49.529 -52.800 -14.470  1.00  0.00    -0.289 OA
ATOM     14  C   UNL     1     -50.291 -50.095 -14.182  1.00  0.00     0.059 A 
ATOM     15  C   UNL     1     -50.669 -48.751 -14.121  1.00  0.00     0.120 A 
ATOM     16  C   UNL     1     -51.687 -48.279 -14.949  1.00  0.00     0.093 A 
ATOM     17  C   UNL     1     -52.332 -49.139 -15.848  1.00  0.00     0.131 A 
ENDROOT
BRANCH   6  18
ATOM     18  O   UNL     1     -54.345 -53.517 -18.124  1.00  0.00    -0.507 OA
ATOM     19  H   UNL     1     -54.992 -54.195 -18.500  1.00  0.00     0.293 HD
ENDBRANCH   6  18
BRANCH  17  20
ATOM     20  O   UNL     1     -53.355 -48.642 -16.655  1.00  0.00    -0.507 OA
ATOM     21  H   UNL     1     -54.310 -48.574 -16.324  1.00  0.00     0.293 HD
ENDBRANCH  17  20
BRANCH  15  22
ATOM     22  O   UNL     1     -50.043 -47.876 -13.237  1.00  0.00    -0.508 OA
ATOM     23  H   UNL     1     -49.484 -48.214 -12.462  1.00  0.00     0.293 HD
ENDBRANCH  15  22
TORSDOF 3
ENDMDL
MODEL 2
REMARK VINA RESULT:    -5.506     18.148     19.564
REMARK INTER + INTRA:          -5.988
REMARK INTER:                  -5.988
REMARK INTRA:                   0.000
REMARK UNBOUND:                 0.000
REMARK SMILES Cc1cc(O)c2c(c1)C(=O)c1cc(O)cc(O)c1C2=O
REMARK SMILES IDX 1 1 2 2 8 3 7 4 6 5 4 6 3 7 19 8 20 9 18 10 11 11 9 12 10 13
REMARK SMILES IDX 12 14 13 15 15 16 16 17 5 18 17 20 14 22
REMARK H PARENT 5 19 17 21 14 23
REMARK Flexibility Score: inf
ROOT
ATOM      1  C   UNL     1     -37.875 -58.171  -2.376  1.00  0.00     0.044 C 
ATOM      2  C   UNL     1     -39.023 -57.612  -1.588  1.00  0.00    -0.047 A 
ATOM      3  C   UNL     1     -40.273 -58.239  -1.624  1.00  0.00     0.016 A 
ATOM      4  C   UNL     1     -41.362 -57.711  -0.910  1.00  0.00     0.038 A 
ATOM      5  C   UNL     1     -41.198 -56.533  -0.145  1.00  0.00     0.076 A 
ATOM      6  C   UNL     1     -39.953 -55.849  -0.194  1.00  0.00     0.127 A 
ATOM      7  C   UNL     1     -38.878 -56.411  -0.890  1.00  0.00     0.050 A 
ATOM      8  C   UNL     1     -42.324 -56.091   0.724  1.00  0.00     0.201 C 
ATOM      9  O   UNL     1     -42.107 -55.331   1.705  1.00  0.00    -0.288 OA
ATOM     10  C   UNL     1     -43.692 -56.634   0.509  1.00  0.00     0.076 A 
ATOM     11  C   UNL     1     -43.858 -57.771  -0.311  1.00  0.00     0.041 A 
ATOM     12  C   UNL     1     -42.682 -58.382  -0.971  1.00  0.00     0.194 C 
ATOM     13  O   UNL     1     -42.810 -59.469  -1.600  1.00  0.00    -0.289 OA
ATOM     14  C   UNL     1     -45.140 -58.318  -0.494  1.00  0.00     0.059 A 
ATOM     15  C   UNL     1     -46.253 -57.741   0.124  1.00  0.00     0.120 A 
ATOM     16  C   UNL     1     -46.093 -56.613   0.928  1.00  0.00     0.093 A 
ATOM     17  C   UNL     1     -44.824 -56.053   1.126  1.00  0.00     0.131 A 
ENDROOT
BRANCH   6  18
ATOM     18  O   UNL     1     -39.749 -54.600   0.396  1.00  0.00    -0.507 OA
ATOM     19  H   UNL     1     -39.044 -54.419   1.097  1.00  0.00     0.293 HD
ENDBRANCH   6  18
BRANCH  17  20
ATOM     20  O   UNL     1     -44.696 -54.916   1.924  1.00  0.00    -0.507 OA
ATOM     21  H   UNL     1     -44.388 -54.974   2.888  1.00  0.00     0.293 HD
ENDBRANCH  17  20
BRANCH  15  22
ATOM     22  O   UNL     1     -47.525 -58.280  -0.056  1.00  0.00    -0.508 OA
ATOM     23  H   UNL     1     -48.274 -57.742  -0.476  1.00  0.00     0.293 HD
ENDBRANCH  15  22
TORSDOF 3
ENDMDL
MODEL 3
REMARK VINA RESULT:    -5.457     18.882     20.603
REMARK INTER + INTRA:          -5.935
REMARK INTER:                  -5.935
REMARK INTRA:                   0.000
REMARK UNBOUND:                 0.000
REMARK SMILES Cc1cc(O)c2c(c1)C(=O)c1cc(O)cc(O)c1C2=O
REMARK SMILES IDX 1 1 2 2 8 3 7 4 6 5 4 6 3 7 19 8 20 9 18 10 11 11 9 12 10 13
REMARK SMILES IDX 12 14 13 15 15 16 16 17 5 18 17 20 14 22
REMARK H PARENT 5 19 17 21 14 23
REMARK Flexibility Score: inf
ROOT
ATOM      1  C   UNL     1     -56.558 -64.062  -0.650  1.00  0.00     0.044 C 
ATOM      2  C   UNL     1     -55.206 -64.712  -0.640  1.00  0.00    -0.047 A 
ATOM      3  C   UNL     1     -54.053 -63.940  -0.810  1.00  0.00     0.016 A 
ATOM      4  C   UNL     1     -52.782 -64.542  -0.828  1.00  0.00     0.038 A 
ATOM      5  C   UNL     1     -52.664 -65.942  -0.673  1.00  0.00     0.076 A 
ATOM      6  C   UNL     1     -53.846 -66.729  -0.601  1.00  0.00     0.127 A 
ATOM      7  C   UNL     1     -55.096 -66.102  -0.558  1.00  0.00     0.050 A 
ATOM      8  C   UNL     1     -51.301 -66.527  -0.536  1.00  0.00     0.201 C 
ATOM      9  O   UNL     1     -51.146 -67.655   0.004  1.00  0.00    -0.288 OA
ATOM     10  C   UNL     1     -50.106 -65.736  -0.931  1.00  0.00     0.076 A 
ATOM     11  C   UNL     1     -50.242 -64.348  -1.151  1.00  0.00     0.041 A 
ATOM     12  C   UNL     1     -51.571 -63.709  -1.021  1.00  0.00     0.194 C 
ATOM     13  O   UNL     1     -51.674 -62.453  -1.094  1.00  0.00    -0.289 OA
ATOM     14  C   UNL     1     -49.114 -63.580  -1.489  1.00  0.00     0.059 A 
ATOM     15  C   UNL     1     -47.859 -64.181  -1.616  1.00  0.00     0.120 A 
ATOM     16  C   UNL     1     -47.722 -65.553  -1.408  1.00  0.00     0.093 A 
ATOM     17  C   UNL     1     -48.833 -66.337  -1.068  1.00  0.00     0.131 A 
ENDROOT
BRANCH   6  18
ATOM     18  O   UNL     1     -53.832 -68.125  -0.608  1.00  0.00    -0.507 OA
ATOM     19  H   UNL     1     -53.273 -68.684   0.020  1.00  0.00     0.293 HD
ENDBRANCH   6  18
BRANCH  17  20
ATOM     20  O   UNL     1     -48.668 -67.709  -0.878  1.00  0.00    -0.507 OA
ATOM     21  H   UNL     1     -47.751 -68.136  -0.842  1.00  0.00     0.293 HD
ENDBRANCH  17  20
BRANCH  15  22
ATOM     22  O   UNL     1     -46.739 -63.424  -1.951  1.00  0.00    -0.508 OA
ATOM     23  H   UNL     1     -46.229 -62.893  -1.254  1.00  0.00     0.293 HD
ENDBRANCH  15  22
TORSDOF 3
ENDMDL
MODEL 4
REMARK VINA RESULT:    -5.260     16.053     18.244
REMARK INTER + INTRA:          -5.721
REMARK INTER:                  -5.721
REMARK INTRA:                   0.000
REMARK UNBOUND:                 0.000
REMARK SMILES Cc1cc(O)c2c(c1)C(=O)c1cc(O)cc(O)c1C2=O
REMARK SMILES IDX 1 1 2 2 8 3 7 4 6 5 4 6 3 7 19 8 20 9 18 10 11 11 9 12 10 13
REMARK SMILES IDX 12 14 13 15 15 16 16 17 5 18 17 20 14 22
REMARK H PARENT 5 19 17 21 14 23
REMARK Flexibility Score: inf
ROOT
ATOM      1  C   UNL     1     -42.481 -55.598   2.037  1.00  0.00     0.044 C 
ATOM      2  C   UNL     1     -43.619 -56.264   1.323  1.00  0.00    -0.047 A 
ATOM      3  C   UNL     1     -43.372 -57.296   0.412  1.00  0.00     0.016 A 
ATOM      4  C   UNL     1     -44.429 -57.911  -0.281  1.00  0.00     0.038 A 
ATOM      5  C   UNL     1     -45.758 -57.485  -0.059  1.00  0.00     0.076 A 
ATOM      6  C   UNL     1     -45.991 -56.371   0.792  1.00  0.00     0.127 A 
ATOM      7  C   UNL     1     -44.925 -55.796   1.490  1.00  0.00     0.050 A 
ATOM      8  C   UNL     1     -46.865 -58.261  -0.687  1.00  0.00     0.201 C 
ATOM      9  O   UNL     1     -48.030 -58.200  -0.212  1.00  0.00    -0.288 OA
ATOM     10  C   UNL     1     -46.578 -59.199  -1.805  1.00  0.00     0.076 A 
ATOM     11  C   UNL     1     -45.242 -59.569  -2.066  1.00  0.00     0.041 A 
ATOM     12  C   UNL     1     -44.146 -58.994  -1.253  1.00  0.00     0.194 C 
ATOM     13  O   UNL     1     -42.966 -59.417  -1.400  1.00  0.00    -0.289 OA
ATOM     14  C   UNL     1     -44.959 -60.484  -3.095  1.00  0.00     0.059 A 
ATOM     15  C   UNL     1     -45.990 -61.026  -3.867  1.00  0.00     0.120 A 
ATOM     16  C   UNL     1     -47.311 -60.656  -3.617  1.00  0.00     0.093 A 
ATOM     17  C   UNL     1     -47.616 -59.747  -2.594  1.00  0.00     0.131 A 
ENDROOT
BRANCH   6  18
ATOM     18  O   UNL     1     -47.247 -55.781   0.945  1.00  0.00    -0.507 OA
ATOM     19  H   UNL     1     -47.762 -55.352   0.190  1.00  0.00     0.293 HD
ENDBRANCH   6  18
BRANCH  17  20
ATOM     20  O   UNL     1     -48.945 -59.385  -2.375  1.00  0.00    -0.507 OA
ATOM     21  H   UNL     1     -49.196 -58.480  -1.997  1.00  0.00     0.293 HD
ENDBRANCH  17  20
BRANCH  15  22
ATOM     22  O   UNL     1     -45.713 -61.931  -4.888  1.00  0.00    -0.508 OA
ATOM     23  H   UNL     1     -44.839 -62.442  -4.921  1.00  0.00     0.293 HD
ENDBRANCH  15  22
TORSDOF 3
ENDMDL
MODEL 5
REMARK VINA RESULT:    -5.131      2.736      6.309
REMARK INTER + INTRA:          -5.581
REMARK INTER:                  -5.581
REMARK INTRA:                   0.000
REMARK UNBOUND:                 0.000
REMARK SMILES Cc1cc(O)c2c(c1)C(=O)c1cc(O)cc(O)c1C2=O
REMARK SMILES IDX 1 1 2 2 8 3 7 4 6 5 4 6 3 7 19 8 20 9 18 10 11 11 9 12 10 13
REMARK SMILES IDX 12 14 13 15 15 16 16 17 5 18 17 20 14 22
REMARK H PARENT 5 19 17 21 14 23
REMARK Flexibility Score: inf
ROOT
ATOM      1  C   UNL     1     -50.606 -49.646 -14.305  1.00  0.00     0.044 C 
ATOM      2  C   UNL     1     -51.125 -50.944 -14.848  1.00  0.00    -0.047 A 
ATOM      3  C   UNL     1     -52.483 -51.260 -14.740  1.00  0.00     0.016 A 
ATOM      4  C   UNL     1     -52.977 -52.484 -15.223  1.00  0.00     0.038 A 
ATOM      5  C   UNL     1     -52.095 -53.410 -15.826  1.00  0.00     0.076 A 
ATOM      6  C   UNL     1     -50.702 -53.124 -15.842  1.00  0.00     0.127 A 
ATOM      7  C   UNL     1     -50.242 -51.887 -15.380  1.00  0.00     0.050 A 
ATOM      8  C   UNL     1     -52.673 -54.623 -16.468  1.00  0.00     0.201 C 
ATOM      9  O   UNL     1     -52.022 -55.244 -17.351  1.00  0.00    -0.288 OA
ATOM     10  C   UNL     1     -54.065 -55.042 -16.157  1.00  0.00     0.076 A 
ATOM     11  C   UNL     1     -54.922 -54.138 -15.494  1.00  0.00     0.041 A 
ATOM     12  C   UNL     1     -54.417 -52.807 -15.087  1.00  0.00     0.194 C 
ATOM     13  O   UNL     1     -55.213 -51.952 -14.609  1.00  0.00    -0.289 OA
ATOM     14  C   UNL     1     -56.253 -54.505 -15.226  1.00  0.00     0.059 A 
ATOM     15  C   UNL     1     -56.732 -55.762 -15.605  1.00  0.00     0.120 A 
ATOM     16  C   UNL     1     -55.885 -56.661 -16.253  1.00  0.00     0.093 A 
ATOM     17  C   UNL     1     -54.556 -56.314 -16.532  1.00  0.00     0.131 A 
ENDROOT
BRANCH   6  18
ATOM     18  O   UNL     1     -49.742 -54.044 -16.269  1.00  0.00    -0.507 OA
ATOM     19  H   UNL     1     -49.105 -54.520 -15.647  1.00  0.00     0.293 HD
ENDBRANCH   6  18
BRANCH  17  20
ATOM     20  O   UNL     1     -53.728 -57.238 -17.169  1.00  0.00    -0.507 OA
ATOM     21  H   UNL     1     -53.063 -57.802 -16.654  1.00  0.00     0.293 HD
ENDBRANCH  17  20
BRANCH  15  22
ATOM     22  O   UNL     1     -58.049 -56.130 -15.340  1.00  0.00    -0.508 OA
ATOM     23  H   UNL     1     -58.471 -55.974 -14.431  1.00  0.00     0.293 HD
ENDBRANCH  15  22
TORSDOF 3
ENDMDL
MODEL 6
REMARK VINA RESULT:    -5.074     16.233     18.248
REMARK INTER + INTRA:          -5.519
REMARK INTER:                  -5.519
REMARK INTRA:                   0.000
REMARK UNBOUND:                 0.000
REMARK SMILES Cc1cc(O)c2c(c1)C(=O)c1cc(O)cc(O)c1C2=O
REMARK SMILES IDX 1 1 2 2 8 3 7 4 6 5 4 6 3 7 19 8 20 9 18 10 11 11 9 12 10 13
REMARK SMILES IDX 12 14 13 15 15 16 16 17 5 18 17 20 14 22
REMARK H PARENT 5 19 17 21 14 23
REMARK Flexibility Score: inf
ROOT
ATOM      1  C   UNL     1     -50.620 -67.355  -0.132  1.00  0.00     0.044 C 
ATOM      2  C   UNL     1     -50.368 -65.943  -0.571  1.00  0.00    -0.047 A 
ATOM      3  C   UNL     1     -49.183 -65.613  -1.237  1.00  0.00     0.016 A 
ATOM      4  C   UNL     1     -48.926 -64.289  -1.631  1.00  0.00     0.038 A 
ATOM      5  C   UNL     1     -49.872 -63.275  -1.353  1.00  0.00     0.076 A 
ATOM      6  C   UNL     1     -51.026 -63.601  -0.590  1.00  0.00     0.127 A 
ATOM      7  C   UNL     1     -51.271 -64.931  -0.234  1.00  0.00     0.050 A 
ATOM      8  C   UNL     1     -49.642 -61.918  -1.923  1.00  0.00     0.201 C 
ATOM      9  O   UNL     1     -50.607 -61.120  -2.067  1.00  0.00    -0.288 OA
ATOM     10  C   UNL     1     -48.298 -61.538  -2.431  1.00  0.00     0.076 A 
ATOM     11  C   UNL     1     -47.333 -62.547  -2.642  1.00  0.00     0.041 A 
ATOM     12  C   UNL     1     -47.658 -63.955  -2.324  1.00  0.00     0.194 C 
ATOM     13  O   UNL     1     -46.846 -64.872  -2.628  1.00  0.00    -0.289 OA
ATOM     14  C   UNL     1     -46.070 -62.208  -3.157  1.00  0.00     0.059 A 
ATOM     15  C   UNL     1     -45.758 -60.879  -3.455  1.00  0.00     0.120 A 
ATOM     16  C   UNL     1     -46.706 -59.879  -3.240  1.00  0.00     0.093 A 
ATOM     17  C   UNL     1     -47.972 -60.195  -2.730  1.00  0.00     0.131 A 
ENDROOT
BRANCH   6  18
ATOM     18  O   UNL     1     -51.930 -62.641  -0.132  1.00  0.00    -0.507 OA
ATOM     19  H   UNL     1     -51.658 -61.726   0.199  1.00  0.00     0.293 HD
ENDBRANCH   6  18
BRANCH  17  20
ATOM     20  O   UNL     1     -48.895 -59.172  -2.512  1.00  0.00    -0.507 OA
ATOM     21  H   UNL     1     -48.605 -58.212  -2.372  1.00  0.00     0.293 HD
ENDBRANCH  17  20
BRANCH  15  22
ATOM     22  O   UNL     1     -44.507 -60.539  -3.965  1.00  0.00    -0.508 OA
ATOM     23  H   UNL     1     -44.107 -61.026  -4.759  1.00  0.00     0.293 HD
ENDBRANCH  15  22
TORSDOF 3
ENDMDL
MODEL 7
REMARK VINA RESULT:    -5.039     19.151     20.175
REMARK INTER + INTRA:          -5.480
REMARK INTER:                  -5.480
REMARK INTRA:                   0.000
REMARK UNBOUND:                 0.000
REMARK SMILES Cc1cc(O)c2c(c1)C(=O)c1cc(O)cc(O)c1C2=O
REMARK SMILES IDX 1 1 2 2 8 3 7 4 6 5 4 6 3 7 19 8 20 9 18 10 11 11 9 12 10 13
REMARK SMILES IDX 12 14 13 15 15 16 16 17 5 18 17 20 14 22
REMARK H PARENT 5 19 17 21 14 23
REMARK Flexibility Score: inf
ROOT
ATOM      1  C   UNL     1     -57.744 -63.469   0.893  1.00  0.00     0.044 C 
ATOM      2  C   UNL     1     -56.376 -63.902   0.456  1.00  0.00    -0.047 A 
ATOM      3  C   UNL     1     -55.265 -63.094   0.717  1.00  0.00     0.016 A 
ATOM      4  C   UNL     1     -53.982 -63.477   0.290  1.00  0.00     0.038 A 
ATOM      5  C   UNL     1     -53.807 -64.693  -0.410  1.00  0.00     0.076 A 
ATOM      6  C   UNL     1     -54.953 -65.459  -0.757  1.00  0.00     0.127 A 
ATOM      7  C   UNL     1     -56.215 -65.068  -0.297  1.00  0.00     0.050 A 
ATOM      8  C   UNL     1     -52.419 -65.146  -0.707  1.00  0.00     0.201 C 
ATOM      9  O   UNL     1     -52.185 -66.362  -0.937  1.00  0.00    -0.288 OA
ATOM     10  C   UNL     1     -51.286 -64.187  -0.619  1.00  0.00     0.076 A 
ATOM     11  C   UNL     1     -51.484 -62.946   0.022  1.00  0.00     0.041 A 
ATOM     12  C   UNL     1     -52.818 -62.602   0.564  1.00  0.00     0.194 C 
ATOM     13  O   UNL     1     -52.966 -61.550   1.246  1.00  0.00    -0.289 OA
ATOM     14  C   UNL     1     -50.412 -62.045   0.145  1.00  0.00     0.059 A 
ATOM     15  C   UNL     1     -49.152 -62.365  -0.368  1.00  0.00     0.120 A 
ATOM     16  C   UNL     1     -48.955 -63.587  -1.010  1.00  0.00     0.093 A 
ATOM     17  C   UNL     1     -50.009 -64.502  -1.142  1.00  0.00     0.131 A 
ENDROOT
BRANCH   6  18
ATOM     18  O   UNL     1     -54.895 -66.584  -1.582  1.00  0.00    -0.507 OA
ATOM     19  H   UNL     1     -54.486 -66.583  -2.505  1.00  0.00     0.293 HD
ENDBRANCH   6  18
BRANCH  17  20
ATOM     20  O   UNL     1     -49.786 -65.711  -1.800  1.00  0.00    -0.507 OA
ATOM     21  H   UNL     1     -48.852 -66.034  -2.021  1.00  0.00     0.293 HD
ENDBRANCH  17  20
BRANCH  15  22
ATOM     22  O   UNL     1     -48.088 -61.474  -0.249  1.00  0.00    -0.508 OA
ATOM     23  H   UNL     1     -48.104 -60.566  -0.698  1.00  0.00     0.293 HD
ENDBRANCH  15  22
TORSDOF 3
ENDMDL
MODEL 8
REMARK VINA RESULT:    -5.021      3.327      5.318
REMARK INTER + INTRA:          -5.461
REMARK INTER:                  -5.461
REMARK INTRA:                   0.000
REMARK UNBOUND:                 0.000
REMARK SMILES Cc1cc(O)c2c(c1)C(=O)c1cc(O)cc(O)c1C2=O
REMARK SMILES IDX 1 1 2 2 8 3 7 4 6 5 4 6 3 7 19 8 20 9 18 10 11 11 9 12 10 13
REMARK SMILES IDX 12 14 13 15 15 16 16 17 5 18 17 20 14 22
REMARK H PARENT 5 19 17 21 14 23
REMARK Flexibility Score: inf
ROOT
ATOM      1  C   UNL     1     -48.897 -53.638 -16.893  1.00  0.00     0.044 C 
ATOM      2  C   UNL     1     -50.314 -54.105 -16.732  1.00  0.00    -0.047 A 
ATOM      3  C   UNL     1     -51.288 -53.237 -16.227  1.00  0.00     0.016 A 
ATOM      4  C   UNL     1     -52.613 -53.671 -16.049  1.00  0.00     0.038 A 
ATOM      5  C   UNL     1     -52.970 -54.998 -16.382  1.00  0.00     0.076 A 
ATOM      6  C   UNL     1     -51.954 -55.900 -16.799  1.00  0.00     0.127 A 
ATOM      7  C   UNL     1     -50.649 -55.435 -16.994  1.00  0.00     0.050 A 
ATOM      8  C   UNL     1     -54.410 -55.378 -16.332  1.00  0.00     0.201 C 
ATOM      9  O   UNL     1     -54.827 -56.367 -16.991  1.00  0.00    -0.288 OA
ATOM     10  C   UNL     1     -55.382 -54.525 -15.598  1.00  0.00     0.076 A 
ATOM     11  C   UNL     1     -54.997 -53.225 -15.207  1.00  0.00     0.041 A 
ATOM     12  C   UNL     1     -53.629 -52.742 -15.500  1.00  0.00     0.194 C 
ATOM     13  O   UNL     1     -53.323 -51.540 -15.266  1.00  0.00    -0.289 OA
ATOM     14  C   UNL     1     -55.918 -52.393 -14.545  1.00  0.00     0.059 A 
ATOM     15  C   UNL     1     -57.210 -52.847 -14.264  1.00  0.00     0.120 A 
ATOM     16  C   UNL     1     -57.589 -54.135 -14.641  1.00  0.00     0.093 A 
ATOM     17  C   UNL     1     -56.689 -54.979 -15.304  1.00  0.00     0.131 A 
ENDROOT
BRANCH   6  18
ATOM     18  O   UNL     1     -52.181 -57.264 -16.994  1.00  0.00    -0.507 OA
ATOM     19  H   UNL     1     -52.448 -57.900 -16.256  1.00  0.00     0.293 HD
ENDBRANCH   6  18
BRANCH  17  20
ATOM     20  O   UNL     1     -57.092 -56.267 -15.657  1.00  0.00    -0.507 OA
ATOM     21  H   UNL     1     -56.456 -56.925 -16.089  1.00  0.00     0.293 HD
ENDBRANCH  17  20
BRANCH  15  22
ATOM     22  O   UNL     1     -58.124 -52.027 -13.608  1.00  0.00    -0.508 OA
ATOM     23  H   UNL     1     -57.972 -51.029 -13.519  1.00  0.00     0.293 HD
ENDBRANCH  15  22
TORSDOF 3
ENDMDL
MODEL 9
REMARK VINA RESULT:    -4.085     18.929     20.935
REMARK INTER + INTRA:          -4.444
REMARK INTER:                  -4.444
REMARK INTRA:                   0.000
REMARK UNBOUND:                 0.000
REMARK SMILES Cc1cc(O)c2c(c1)C(=O)c1cc(O)cc(O)c1C2=O
REMARK SMILES IDX 1 1 2 2 8 3 7 4 6 5 4 6 3 7 19 8 20 9 18 10 11 11 9 12 10 13
REMARK SMILES IDX 12 14 13 15 15 16 16 17 5 18 17 20 14 22
REMARK H PARENT 5 19 17 21 14 23
REMARK Flexibility Score: inf
ROOT
ATOM      1  C   UNL     1     -47.640 -65.144  -2.058  1.00  0.00     0.044 C 
ATOM      2  C   UNL     1     -48.997 -65.496  -1.524  1.00  0.00    -0.047 A 
ATOM      3  C   UNL     1     -50.067 -64.609  -1.681  1.00  0.00     0.016 A 
ATOM      4  C   UNL     1     -51.337 -64.918  -1.163  1.00  0.00     0.038 A 
ATOM      5  C   UNL     1     -51.540 -66.137  -0.476  1.00  0.00     0.076 A 
ATOM      6  C   UNL     1     -50.425 -66.985  -0.235  1.00  0.00     0.127 A 
ATOM      7  C   UNL     1     -49.179 -66.668  -0.785  1.00  0.00     0.050 A 
ATOM      8  C   UNL     1     -52.929 -66.504  -0.081  1.00  0.00     0.201 C 
ATOM      9  O   UNL     1     -53.227 -67.707   0.142  1.00  0.00    -0.288 OA
ATOM     10  C   UNL     1     -53.997 -65.470  -0.060  1.00  0.00     0.076 A 
ATOM     11  C   UNL     1     -53.764 -64.228  -0.689  1.00  0.00     0.041 A 
ATOM     12  C   UNL     1     -52.456 -63.960  -1.327  1.00  0.00     0.194 C 
ATOM     13  O   UNL     1     -52.289 -62.903  -1.997  1.00  0.00    -0.289 OA
ATOM     14  C   UNL     1     -54.779 -63.255  -0.710  1.00  0.00     0.059 A 
ATOM     15  C   UNL     1     -56.014 -63.504  -0.106  1.00  0.00     0.120 A 
ATOM     16  C   UNL     1     -56.244 -64.727   0.524  1.00  0.00     0.093 A 
ATOM     17  C   UNL     1     -55.248 -65.712   0.554  1.00  0.00     0.131 A 
ENDROOT
BRANCH   6  18
ATOM     18  O   UNL     1     -50.497 -68.125   0.568  1.00  0.00    -0.507 OA
ATOM     19  H   UNL     1     -51.133 -68.224   1.346  1.00  0.00     0.293 HD
ENDBRANCH   6  18
BRANCH  17  20
ATOM     20  O   UNL     1     -55.502 -66.920   1.203  1.00  0.00    -0.507 OA
ATOM     21  H   UNL     1     -54.829 -67.338   1.835  1.00  0.00     0.293 HD
ENDBRANCH  17  20
BRANCH  15  22
ATOM     22  O   UNL     1     -57.021 -62.542  -0.124  1.00  0.00    -0.508 OA
ATOM     23  H   UNL     1     -57.630 -62.396   0.674  1.00  0.00     0.293 HD
ENDBRANCH  15  22
TORSDOF 3
ENDMDL
