MODEL 1
REMARK VINA RESULT:    -6.425      0.000      0.000
REMARK INTER + INTRA:          -7.094
REMARK INTER:                  -6.988
REMARK INTRA:                  -0.106
REMARK UNBOUND:                -0.106
REMARK SMILES C[C@H]1[C@H]2C3=CC[C@@H]4[C@@]5(C)CC[C@H](O)C(C)(C)[C@@H]5CC[C@]4(C)[C@@]3(C)CC[C@@]2(C(=O)[O-])CC[C@@H]1C
REMARK SMILES IDX 26 1 30 2 25 3 3 4 31 5 24 6 4 7 2 8 32 9 22 10 5 11 1 12
REMARK SMILES IDX 33 13 23 14 20 15 6 16 7 17 19 18 21 19 8 20 18 21 17 22
REMARK SMILES IDX 10 23 9 24 14 25 11 26 12 27 15 28 16 29 27 30 28 31 29 32
REMARK SMILES IDX 13 33
REMARK H PARENT 13 34
REMARK Flexibility Score: inf
ROOT
ATOM      1  C   UNL     1      -5.116  93.256 -17.651  1.00  0.00     0.017 C 
ATOM      2  C   UNL     1      -4.330  93.868 -18.848  1.00  0.00     0.014 C 
ATOM      3  C   UNL     1      -4.840  94.086 -16.376  1.00  0.00     0.014 C 
ATOM      4  C   UNL     1      -4.760  91.743 -17.377  1.00  0.00     0.030 C 
ATOM      5  C   UNL     1      -2.860  93.460 -18.934  1.00  0.00     0.004 C 
ATOM      6  C   UNL     1      -5.681  93.650 -15.164  1.00  0.00     0.013 C 
ATOM      7  C   UNL     1      -5.277  91.218 -16.020  1.00  0.00    -0.063 C 
ATOM      8  C   UNL     1      -3.254  91.336 -17.625  1.00  0.00    -0.003 C 
ATOM      9  C   UNL     1      -2.694  91.940 -18.935  1.00  0.00    -0.011 C 
ATOM     10  C   UNL     1      -5.972  92.102 -14.964  1.00  0.00    -0.006 C 
ATOM     11  C   UNL     1      -5.257  89.879 -15.820  1.00  0.00    -0.027 C 
ATOM     12  C   UNL     1      -2.306  91.610 -16.429  1.00  0.00     0.008 C 
ATOM     13  C   UNL     1      -3.300  91.273 -20.186  1.00  0.00     0.008 C 
ATOM     14  C   UNL     1      -7.506  91.928 -15.218  1.00  0.00     0.017 C 
ATOM     15  C   UNL     1      -5.550  91.594 -13.485  1.00  0.00    -0.020 C 
ATOM     16  C   UNL     1      -5.876  89.209 -14.623  1.00  0.00     0.032 C 
ATOM     17  C   UNL     1      -5.708  90.012 -13.299  1.00  0.00     0.006 C 
ATOM     18  C   UNL     1      -6.365  92.357 -12.387  1.00  0.00     0.008 C 
ATOM     19  C   UNL     1      -4.034  91.911 -13.231  1.00  0.00     0.012 C 
ATOM     20  C   UNL     1      -6.628  89.515 -12.095  1.00  0.00    -0.025 C 
ATOM     21  C   UNL     1      -6.192  91.837 -10.951  1.00  0.00     0.005 C 
ATOM     22  C   UNL     1      -6.170  90.284 -10.801  1.00  0.00     0.003 C 
ATOM     23  C   UNL     1      -6.340  87.997 -11.858  1.00  0.00     0.010 C 
ATOM     24  C   UNL     1      -8.156  89.709 -12.383  1.00  0.00     0.012 C 
ATOM     25  C   UNL     1      -6.755  89.751  -9.424  1.00  0.00    -0.006 C 
ATOM     26  C   UNL     1      -6.946  87.428 -10.572  1.00  0.00     0.033 C 
ATOM     27  C   UNL     1      -6.511  88.199  -9.315  1.00  0.00     0.120 C 
ATOM     28  C   UNL     1      -5.983  90.458  -8.266  1.00  0.00     0.014 C 
ATOM     29  C   UNL     1      -8.268  90.056  -9.225  1.00  0.00     0.014 C 
ENDROOT
BRANCH   1  30
ATOM     30  C   UNL     1      -6.584  93.405 -18.057  1.00  0.00     0.048 C 
ATOM     31  O   UNL     1      -7.205  92.452 -18.600  1.00  0.00    -0.550 OA
ATOM     32  O   UNL     1      -7.304  94.540 -17.703  1.00  0.00    -0.550 OA
ENDBRANCH   1  30
BRANCH  27  33
ATOM     33  O   UNL     1      -7.219  87.646  -8.242  1.00  0.00    -0.393 OA
ATOM     34  H   UNL     1      -8.046  87.213  -8.598  1.00  0.00     0.210 HD
ENDBRANCH  27  33
TORSDOF 2
ENDMDL
MODEL 2
REMARK VINA RESULT:    -6.378      1.808      8.147
REMARK INTER + INTRA:          -7.043
REMARK INTER:                  -6.899
REMARK INTRA:                  -0.145
REMARK UNBOUND:                -0.106
REMARK SMILES C[C@H]1[C@H]2C3=CC[C@@H]4[C@@]5(C)CC[C@H](O)C(C)(C)[C@@H]5CC[C@]4(C)[C@@]3(C)CC[C@@]2(C(=O)[O-])CC[C@@H]1C
REMARK SMILES IDX 26 1 30 2 25 3 3 4 31 5 24 6 4 7 2 8 32 9 22 10 5 11 1 12
REMARK SMILES IDX 33 13 23 14 20 15 6 16 7 17 19 18 21 19 8 20 18 21 17 22
REMARK SMILES IDX 10 23 9 24 14 25 11 26 12 27 15 28 16 29 27 30 28 31 29 32
REMARK SMILES IDX 13 33
REMARK H PARENT 13 34
REMARK Flexibility Score: inf
ROOT
ATOM      1  C   UNL     1      -6.639  90.507  -9.327  1.00  0.00     0.017 C 
ATOM      2  C   UNL     1      -7.133  89.849  -8.005  1.00  0.00     0.014 C 
ATOM      3  C   UNL     1      -7.670  91.561  -9.794  1.00  0.00     0.014 C 
ATOM      4  C   UNL     1      -6.391  89.469 -10.488  1.00  0.00     0.030 C 
ATOM      5  C   UNL     1      -8.157  88.727  -8.183  1.00  0.00     0.004 C 
ATOM      6  C   UNL     1      -7.209  92.372 -11.016  1.00  0.00     0.013 C 
ATOM      7  C   UNL     1      -6.214  90.119 -11.877  1.00  0.00    -0.063 C 
ATOM      8  C   UNL     1      -7.388  88.243 -10.540  1.00  0.00    -0.003 C 
ATOM      9  C   UNL     1      -7.651  87.645  -9.137  1.00  0.00    -0.011 C 
ATOM     10  C   UNL     1      -6.381  91.627 -12.148  1.00  0.00    -0.006 C 
ATOM     11  C   UNL     1      -5.733  89.340 -12.875  1.00  0.00    -0.027 C 
ATOM     12  C   UNL     1      -8.716  88.524 -11.289  1.00  0.00     0.008 C 
ATOM     13  C   UNL     1      -6.422  86.893  -8.589  1.00  0.00     0.008 C 
ATOM     14  C   UNL     1      -4.938  92.227 -12.072  1.00  0.00     0.017 C 
ATOM     15  C   UNL     1      -7.038  91.836 -13.614  1.00  0.00    -0.020 C 
ATOM     16  C   UNL     1      -5.353  89.869 -14.232  1.00  0.00     0.032 C 
ATOM     17  C   UNL     1      -6.300  90.989 -14.755  1.00  0.00     0.006 C 
ATOM     18  C   UNL     1      -7.067  93.354 -13.994  1.00  0.00     0.008 C 
ATOM     19  C   UNL     1      -8.527  91.340 -13.600  1.00  0.00     0.012 C 
ATOM     20  C   UNL     1      -5.745  91.800 -16.011  1.00  0.00    -0.025 C 
ATOM     21  C   UNL     1      -7.497  93.669 -15.436  1.00  0.00     0.005 C 
ATOM     22  C   UNL     1      -6.909  92.724 -16.529  1.00  0.00     0.003 C 
ATOM     23  C   UNL     1      -5.425  90.776 -17.147  1.00  0.00     0.010 C 
ATOM     24  C   UNL     1      -4.451  92.618 -15.677  1.00  0.00     0.012 C 
ATOM     25  C   UNL     1      -6.679  93.417 -17.939  1.00  0.00    -0.006 C 
ATOM     26  C   UNL     1      -5.130  91.410 -18.510  1.00  0.00     0.033 C 
ATOM     27  C   UNL     1      -6.262  92.328 -18.998  1.00  0.00     0.120 C 
ATOM     28  C   UNL     1      -8.030  94.056 -18.389  1.00  0.00     0.014 C 
ATOM     29  C   UNL     1      -5.616  94.553 -17.915  1.00  0.00     0.014 C 
ENDROOT
BRANCH   1  30
ATOM     30  C   UNL     1      -5.335  91.202  -8.929  1.00  0.00     0.048 C 
ATOM     31  O   UNL     1      -5.342  92.375  -8.469  1.00  0.00    -0.550 OA
ATOM     32  O   UNL     1      -4.133  90.504  -8.927  1.00  0.00    -0.550 OA
ENDBRANCH   1  30
BRANCH  27  33
ATOM     33  O   UNL     1      -5.815  92.918 -20.187  1.00  0.00    -0.393 OA
ATOM     34  H   UNL     1      -5.329  92.226 -20.720  1.00  0.00     0.210 HD
ENDBRANCH  27  33
TORSDOF 2
ENDMDL
MODEL 3
REMARK VINA RESULT:    -6.231      5.145      9.472
REMARK INTER + INTRA:          -6.883
REMARK INTER:                  -6.672
REMARK INTRA:                  -0.211
REMARK UNBOUND:                -0.106
REMARK SMILES C[C@H]1[C@H]2C3=CC[C@@H]4[C@@]5(C)CC[C@H](O)C(C)(C)[C@@H]5CC[C@]4(C)[C@@]3(C)CC[C@@]2(C(=O)[O-])CC[C@@H]1C
REMARK SMILES IDX 26 1 30 2 25 3 3 4 31 5 24 6 4 7 2 8 32 9 22 10 5 11 1 12
REMARK SMILES IDX 33 13 23 14 20 15 6 16 7 17 19 18 21 19 8 20 18 21 17 22
REMARK SMILES IDX 10 23 9 24 14 25 11 26 12 27 15 28 16 29 27 30 28 31 29 32
REMARK SMILES IDX 13 33
REMARK H PARENT 13 34
REMARK Flexibility Score: inf
ROOT
ATOM      1  C   UNL     1      -4.416  85.086  -7.323  1.00  0.00     0.017 C 
ATOM      2  C   UNL     1      -3.817  83.766  -6.754  1.00  0.00     0.014 C 
ATOM      3  C   UNL     1      -5.712  85.436  -6.555  1.00  0.00     0.014 C 
ATOM      4  C   UNL     1      -4.728  85.017  -8.869  1.00  0.00     0.030 C 
ATOM      5  C   UNL     1      -4.449  82.482  -7.292  1.00  0.00     0.004 C 
ATOM      6  C   UNL     1      -6.308  86.799  -6.944  1.00  0.00     0.013 C 
ATOM      7  C   UNL     1      -5.605  86.180  -9.380  1.00  0.00    -0.063 C 
ATOM      8  C   UNL     1      -5.239  83.621  -9.405  1.00  0.00    -0.003 C 
ATOM      9  C   UNL     1      -4.429  82.439  -8.821  1.00  0.00    -0.011 C 
ATOM     10  C   UNL     1      -6.230  87.252  -8.464  1.00  0.00    -0.006 C 
ATOM     11  C   UNL     1      -5.696  86.351 -10.720  1.00  0.00    -0.027 C 
ATOM     12  C   UNL     1      -6.764  83.389  -9.249  1.00  0.00     0.008 C 
ATOM     13  C   UNL     1      -3.000  82.375  -9.397  1.00  0.00     0.008 C 
ATOM     14  C   UNL     1      -5.232  88.457  -8.491  1.00  0.00     0.017 C 
ATOM     15  C   UNL     1      -7.683  87.667  -9.046  1.00  0.00    -0.020 C 
ATOM     16  C   UNL     1      -6.375  87.531 -11.361  1.00  0.00     0.032 C 
ATOM     17  C   UNL     1      -7.657  88.000 -10.612  1.00  0.00     0.006 C 
ATOM     18  C   UNL     1      -8.276  88.872  -8.241  1.00  0.00     0.008 C 
ATOM     19  C   UNL     1      -8.682  86.468  -8.875  1.00  0.00     0.012 C 
ATOM     20  C   UNL     1      -8.203  89.432 -11.054  1.00  0.00    -0.025 C 
ATOM     21  C   UNL     1      -9.567  89.480  -8.812  1.00  0.00     0.005 C 
ATOM     22  C   UNL     1      -9.602  89.639 -10.364  1.00  0.00     0.003 C 
ATOM     23  C   UNL     1      -8.449  89.403 -12.597  1.00  0.00     0.010 C 
ATOM     24  C   UNL     1      -7.204  90.591 -10.715  1.00  0.00     0.012 C 
ATOM     25  C   UNL     1     -10.462  90.871 -10.877  1.00  0.00    -0.006 C 
ATOM     26  C   UNL     1      -9.217  90.610 -13.143  1.00  0.00     0.033 C 
ATOM     27  C   UNL     1     -10.572  90.818 -12.447  1.00  0.00     0.120 C 
ATOM     28  C   UNL     1     -11.896  90.743 -10.273  1.00  0.00     0.014 C 
ATOM     29  C   UNL     1      -9.899  92.255 -10.441  1.00  0.00     0.014 C 
ENDROOT
BRANCH   1  30
ATOM     30  C   UNL     1      -3.343  86.136  -7.030  1.00  0.00     0.048 C 
ATOM     31  O   UNL     1      -3.213  86.623  -5.875  1.00  0.00    -0.550 OA
ATOM     32  O   UNL     1      -2.395  86.467  -7.991  1.00  0.00    -0.550 OA
ENDBRANCH   1  30
BRANCH  27  33
ATOM     33  O   UNL     1     -11.108  92.005 -12.961  1.00  0.00    -0.393 OA
ATOM     34  H   UNL     1     -11.657  92.439 -12.248  1.00  0.00     0.210 HD
ENDBRANCH  27  33
TORSDOF 2
ENDMDL
MODEL 4
REMARK VINA RESULT:    -6.078      2.847      4.627
REMARK INTER + INTRA:          -6.718
REMARK INTER:                  -6.507
REMARK INTRA:                  -0.210
REMARK UNBOUND:                -0.106
REMARK SMILES C[C@H]1[C@H]2C3=CC[C@@H]4[C@@]5(C)CC[C@H](O)C(C)(C)[C@@H]5CC[C@]4(C)[C@@]3(C)CC[C@@]2(C(=O)[O-])CC[C@@H]1C
REMARK SMILES IDX 26 1 30 2 25 3 3 4 31 5 24 6 4 7 2 8 32 9 22 10 5 11 1 12
REMARK SMILES IDX 33 13 23 14 20 15 6 16 7 17 19 18 21 19 8 20 18 21 17 22
REMARK SMILES IDX 10 23 9 24 14 25 11 26 12 27 15 28 16 29 27 30 28 31 29 32
REMARK SMILES IDX 13 33
REMARK H PARENT 13 34
REMARK Flexibility Score: inf
ROOT
ATOM      1  C   UNL     1      -5.001  91.943 -13.618  1.00  0.00     0.017 C 
ATOM      2  C   UNL     1      -3.800  92.167 -14.584  1.00  0.00     0.014 C 
ATOM      3  C   UNL     1      -4.542  91.081 -12.419  1.00  0.00     0.014 C 
ATOM      4  C   UNL     1      -6.242  91.257 -14.310  1.00  0.00     0.030 C 
ATOM      5  C   UNL     1      -3.525  91.017 -15.553  1.00  0.00     0.004 C 
ATOM      6  C   UNL     1      -5.617  90.919 -11.331  1.00  0.00     0.013 C 
ATOM      7  C   UNL     1      -7.303  90.741 -13.315  1.00  0.00    -0.063 C 
ATOM      8  C   UNL     1      -5.904  90.179 -15.415  1.00  0.00    -0.003 C 
ATOM      9  C   UNL     1      -4.770  90.645 -16.358  1.00  0.00    -0.011 C 
ATOM     10  C   UNL     1      -7.133  90.773 -11.783  1.00  0.00    -0.006 C 
ATOM     11  C   UNL     1      -8.510  90.389 -13.817  1.00  0.00    -0.027 C 
ATOM     12  C   UNL     1      -5.627  88.757 -14.863  1.00  0.00     0.008 C 
ATOM     13  C   UNL     1      -5.230  91.775 -17.302  1.00  0.00     0.008 C 
ATOM     14  C   UNL     1      -7.837  92.088 -11.311  1.00  0.00     0.017 C 
ATOM     15  C   UNL     1      -7.830  89.458 -11.143  1.00  0.00    -0.020 C 
ATOM     16  C   UNL     1      -9.692  90.026 -12.958  1.00  0.00     0.032 C 
ATOM     17  C   UNL     1      -9.316  89.213 -11.685  1.00  0.00     0.006 C 
ATOM     18  C   UNL     1      -7.825  89.538  -9.579  1.00  0.00     0.008 C 
ATOM     19  C   UNL     1      -7.008  88.180 -11.537  1.00  0.00     0.012 C 
ATOM     20  C   UNL     1     -10.474  89.107 -10.593  1.00  0.00    -0.025 C 
ATOM     21  C   UNL     1      -8.622  88.440  -8.856  1.00  0.00     0.005 C 
ATOM     22  C   UNL     1      -9.999  88.082  -9.498  1.00  0.00     0.003 C 
ATOM     23  C   UNL     1     -11.736  88.496 -11.282  1.00  0.00     0.010 C 
ATOM     24  C   UNL     1     -10.849  90.496  -9.974  1.00  0.00     0.012 C 
ATOM     25  C   UNL     1     -11.101  87.606  -8.459  1.00  0.00    -0.006 C 
ATOM     26  C   UNL     1     -12.852  88.085 -10.317  1.00  0.00     0.033 C 
ATOM     27  C   UNL     1     -12.374  87.101  -9.237  1.00  0.00     0.120 C 
ATOM     28  C   UNL     1     -10.511  86.412  -7.644  1.00  0.00     0.014 C 
ATOM     29  C   UNL     1     -11.516  88.703  -7.436  1.00  0.00     0.014 C 
ENDROOT
BRANCH   1  30
ATOM     30  C   UNL     1      -5.355  93.351 -13.135  1.00  0.00     0.048 C 
ATOM     31  O   UNL     1      -4.672  93.919 -12.241  1.00  0.00    -0.550 OA
ATOM     32  O   UNL     1      -6.344  94.090 -13.773  1.00  0.00    -0.550 OA
ENDBRANCH   1  30
BRANCH  27  33
ATOM     33  O   UNL     1     -13.455  86.902  -8.370  1.00  0.00    -0.393 OA
ATOM     34  H   UNL     1     -14.280  87.258  -8.807  1.00  0.00     0.210 HD
ENDBRANCH  27  33
TORSDOF 2
ENDMDL
MODEL 5
REMARK VINA RESULT:    -5.978      2.670      8.475
REMARK INTER + INTRA:          -6.608
REMARK INTER:                  -6.397
REMARK INTRA:                  -0.211
REMARK UNBOUND:                -0.106
REMARK SMILES C[C@H]1[C@H]2C3=CC[C@@H]4[C@@]5(C)CC[C@H](O)C(C)(C)[C@@H]5CC[C@]4(C)[C@@]3(C)CC[C@@]2(C(=O)[O-])CC[C@@H]1C
REMARK SMILES IDX 26 1 30 2 25 3 3 4 31 5 24 6 4 7 2 8 32 9 22 10 5 11 1 12
REMARK SMILES IDX 33 13 23 14 20 15 6 16 7 17 19 18 21 19 8 20 18 21 17 22
REMARK SMILES IDX 10 23 9 24 14 25 11 26 12 27 15 28 16 29 27 30 28 31 29 32
REMARK SMILES IDX 13 33
REMARK H PARENT 13 34
REMARK Flexibility Score: inf
ROOT
ATOM      1  C   UNL     1      -6.376  92.848  -7.689  1.00  0.00     0.017 C 
ATOM      2  C   UNL     1      -6.337  93.442  -6.250  1.00  0.00     0.014 C 
ATOM      3  C   UNL     1      -4.937  92.517  -8.148  1.00  0.00     0.014 C 
ATOM      4  C   UNL     1      -7.052  93.807  -8.744  1.00  0.00     0.030 C 
ATOM      5  C   UNL     1      -6.000  94.931  -6.172  1.00  0.00     0.004 C 
ATOM      6  C   UNL     1      -4.875  91.792  -9.503  1.00  0.00     0.013 C 
ATOM      7  C   UNL     1      -6.817  93.385 -10.210  1.00  0.00    -0.063 C 
ATOM      8  C   UNL     1      -6.796  95.352  -8.533  1.00  0.00    -0.003 C 
ATOM      9  C   UNL     1      -6.931  95.769  -7.049  1.00  0.00    -0.011 C 
ATOM     10  C   UNL     1      -5.910  92.212 -10.632  1.00  0.00    -0.006 C 
ATOM     11  C   UNL     1      -7.574  93.982 -11.161  1.00  0.00    -0.027 C 
ATOM     12  C   UNL     1      -5.470  95.875  -9.144  1.00  0.00     0.008 C 
ATOM     13  C   UNL     1      -8.396  95.732  -6.568  1.00  0.00     0.008 C 
ATOM     14  C   UNL     1      -6.865  90.985 -10.800  1.00  0.00     0.017 C 
ATOM     15  C   UNL     1      -5.168  92.586 -12.022  1.00  0.00    -0.020 C 
ATOM     16  C   UNL     1      -7.576  93.560 -12.606  1.00  0.00     0.032 C 
ATOM     17  C   UNL     1      -6.174  93.140 -13.137  1.00  0.00     0.006 C 
ATOM     18  C   UNL     1      -4.369  91.356 -12.570  1.00  0.00     0.008 C 
ATOM     19  C   UNL     1      -4.125  93.732 -11.772  1.00  0.00     0.012 C 
ATOM     20  C   UNL     1      -6.192  92.375 -14.537  1.00  0.00    -0.025 C 
ATOM     21  C   UNL     1      -3.773  91.524 -13.976  1.00  0.00     0.005 C 
ATOM     22  C   UNL     1      -4.700  92.228 -15.015  1.00  0.00     0.003 C 
ATOM     23  C   UNL     1      -6.925  93.282 -15.577  1.00  0.00     0.010 C 
ATOM     24  C   UNL     1      -6.922  90.990 -14.459  1.00  0.00     0.012 C 
ATOM     25  C   UNL     1      -4.488  91.747 -16.513  1.00  0.00    -0.006 C 
ATOM     26  C   UNL     1      -6.801  92.813 -17.030  1.00  0.00     0.033 C 
ATOM     27  C   UNL     1      -5.341  92.651 -17.481  1.00  0.00     0.120 C 
ATOM     28  C   UNL     1      -2.979  91.924 -16.868  1.00  0.00     0.014 C 
ATOM     29  C   UNL     1      -4.846  90.250 -16.749  1.00  0.00     0.014 C 
ENDROOT
BRANCH   1  30
ATOM     30  C   UNL     1      -7.179  91.555  -7.534  1.00  0.00     0.048 C 
ATOM     31  O   UNL     1      -6.652  90.522  -7.041  1.00  0.00    -0.550 OA
ATOM     32  O   UNL     1      -8.544  91.533  -7.797  1.00  0.00    -0.550 OA
ENDBRANCH   1  30
BRANCH  27  33
ATOM     33  O   UNL     1      -5.379  92.117 -18.775  1.00  0.00    -0.393 OA
ATOM     34  H   UNL     1      -5.757  92.808 -19.391  1.00  0.00     0.210 HD
ENDBRANCH  27  33
TORSDOF 2
ENDMDL
MODEL 6
REMARK VINA RESULT:    -5.958      1.839      8.125
REMARK INTER + INTRA:          -6.587
REMARK INTER:                  -6.374
REMARK INTRA:                  -0.213
REMARK UNBOUND:                -0.106
REMARK SMILES C[C@H]1[C@H]2C3=CC[C@@H]4[C@@]5(C)CC[C@H](O)C(C)(C)[C@@H]5CC[C@]4(C)[C@@]3(C)CC[C@@]2(C(=O)[O-])CC[C@@H]1C
REMARK SMILES IDX 26 1 30 2 25 3 3 4 31 5 24 6 4 7 2 8 32 9 22 10 5 11 1 12
REMARK SMILES IDX 33 13 23 14 20 15 6 16 7 17 19 18 21 19 8 20 18 21 17 22
REMARK SMILES IDX 10 23 9 24 14 25 11 26 12 27 15 28 16 29 27 30 28 31 29 32
REMARK SMILES IDX 13 33
REMARK H PARENT 13 34
REMARK Flexibility Score: inf
ROOT
ATOM      1  C   UNL     1      -7.723  90.306 -10.530  1.00  0.00     0.017 C 
ATOM      2  C   UNL     1      -7.857  89.990  -9.011  1.00  0.00     0.014 C 
ATOM      3  C   UNL     1      -6.665  89.371 -11.160  1.00  0.00     0.014 C 
ATOM      4  C   UNL     1      -7.336  91.807 -10.825  1.00  0.00     0.030 C 
ATOM      5  C   UNL     1      -6.797  90.636  -8.119  1.00  0.00     0.004 C 
ATOM      6  C   UNL     1      -6.557  89.505 -12.688  1.00  0.00     0.013 C 
ATOM      7  C   UNL     1      -6.890  92.061 -12.281  1.00  0.00    -0.063 C 
ATOM      8  C   UNL     1      -6.351  92.479  -9.788  1.00  0.00    -0.003 C 
ATOM      9  C   UNL     1      -6.730  92.149  -8.324  1.00  0.00    -0.011 C 
ATOM     10  C   UNL     1      -6.716  90.947 -13.333  1.00  0.00    -0.006 C 
ATOM     11  C   UNL     1      -6.801  93.347 -12.692  1.00  0.00    -0.027 C 
ATOM     12  C   UNL     1      -4.849  92.205 -10.054  1.00  0.00     0.008 C 
ATOM     13  C   UNL     1      -8.021  92.868  -7.884  1.00  0.00     0.008 C 
ATOM     14  C   UNL     1      -8.065  90.904 -14.124  1.00  0.00     0.017 C 
ATOM     15  C   UNL     1      -5.469  91.317 -14.298  1.00  0.00    -0.020 C 
ATOM     16  C   UNL     1      -6.542  93.747 -14.120  1.00  0.00     0.032 C 
ATOM     17  C   UNL     1      -5.536  92.815 -14.858  1.00  0.00     0.006 C 
ATOM     18  C   UNL     1      -5.366  90.296 -15.482  1.00  0.00     0.008 C 
ATOM     19  C   UNL     1      -4.127  91.216 -13.490  1.00  0.00     0.012 C 
ATOM     20  C   UNL     1      -5.496  92.997 -16.442  1.00  0.00    -0.025 C 
ATOM     21  C   UNL     1      -4.338  90.644 -16.570  1.00  0.00     0.005 C 
ATOM     22  C   UNL     1      -4.288  92.148 -16.986  1.00  0.00     0.003 C 
ATOM     23  C   UNL     1      -5.185  94.496 -16.752  1.00  0.00     0.010 C 
ATOM     24  C   UNL     1      -6.848  92.600 -17.129  1.00  0.00     0.012 C 
ATOM     25  C   UNL     1      -3.882  92.395 -18.500  1.00  0.00    -0.006 C 
ATOM     26  C   UNL     1      -4.855  94.788 -18.219  1.00  0.00     0.033 C 
ATOM     27  C   UNL     1      -3.688  93.939 -18.747  1.00  0.00     0.120 C 
ATOM     28  C   UNL     1      -2.522  91.675 -18.759  1.00  0.00     0.014 C 
ATOM     29  C   UNL     1      -4.908  91.829 -19.526  1.00  0.00     0.014 C 
ENDROOT
BRANCH   1  30
ATOM     30  C   UNL     1      -9.105  89.978 -11.099  1.00  0.00     0.048 C 
ATOM     31  O   UNL     1      -9.463  88.783 -11.281  1.00  0.00    -0.550 OA
ATOM     32  O   UNL     1     -10.049  90.981 -11.289  1.00  0.00    -0.550 OA
ENDBRANCH   1  30
BRANCH  27  33
ATOM     33  O   UNL     1      -3.571  94.226 -20.113  1.00  0.00    -0.393 OA
ATOM     34  H   UNL     1      -4.084  93.539 -20.626  1.00  0.00     0.210 HD
ENDBRANCH  27  33
TORSDOF 2
ENDMDL
MODEL 7
REMARK VINA RESULT:    -5.937      1.807      3.530
REMARK INTER + INTRA:          -6.564
REMARK INTER:                  -6.355
REMARK INTRA:                  -0.209
REMARK UNBOUND:                -0.106
REMARK SMILES C[C@H]1[C@H]2C3=CC[C@@H]4[C@@]5(C)CC[C@H](O)C(C)(C)[C@@H]5CC[C@]4(C)[C@@]3(C)CC[C@@]2(C(=O)[O-])CC[C@@H]1C
REMARK SMILES IDX 26 1 30 2 25 3 3 4 31 5 24 6 4 7 2 8 32 9 22 10 5 11 1 12
REMARK SMILES IDX 33 13 23 14 20 15 6 16 7 17 19 18 21 19 8 20 18 21 17 22
REMARK SMILES IDX 10 23 9 24 14 25 11 26 12 27 15 28 16 29 27 30 28 31 29 32
REMARK SMILES IDX 13 33
REMARK H PARENT 13 34
REMARK Flexibility Score: inf
ROOT
ATOM      1  C   UNL     1      -4.597  92.268 -17.837  1.00  0.00     0.017 C 
ATOM      2  C   UNL     1      -4.629  92.718 -19.328  1.00  0.00     0.014 C 
ATOM      3  C   UNL     1      -5.521  91.043 -17.650  1.00  0.00     0.014 C 
ATOM      4  C   UNL     1      -5.027  93.405 -16.831  1.00  0.00     0.030 C 
ATOM      5  C   UNL     1      -5.821  93.593 -19.715  1.00  0.00     0.004 C 
ATOM      6  C   UNL     1      -5.453  90.431 -16.241  1.00  0.00     0.013 C 
ATOM      7  C   UNL     1      -5.308  92.897 -15.401  1.00  0.00    -0.063 C 
ATOM      8  C   UNL     1      -6.162  94.380 -17.339  1.00  0.00    -0.003 C 
ATOM      9  C   UNL     1      -5.943  94.817 -18.807  1.00  0.00    -0.011 C 
ATOM     10  C   UNL     1      -5.296  91.408 -14.999  1.00  0.00    -0.006 C 
ATOM     11  C   UNL     1      -5.416  93.823 -14.419  1.00  0.00    -0.027 C 
ATOM     12  C   UNL     1      -7.605  93.858 -17.117  1.00  0.00     0.008 C 
ATOM     13  C   UNL     1      -4.754  95.788 -18.951  1.00  0.00     0.008 C 
ATOM     14  C   UNL     1      -3.862  91.140 -14.435  1.00  0.00     0.017 C 
ATOM     15  C   UNL     1      -6.437  91.150 -13.879  1.00  0.00    -0.020 C 
ATOM     16  C   UNL     1      -5.525  93.476 -12.959  1.00  0.00     0.032 C 
ATOM     17  C   UNL     1      -6.384  92.208 -12.679  1.00  0.00     0.006 C 
ATOM     18  C   UNL     1      -6.343  89.689 -13.324  1.00  0.00     0.008 C 
ATOM     19  C   UNL     1      -7.858  91.302 -14.528  1.00  0.00     0.012 C 
ATOM     20  C   UNL     1      -6.244  91.619 -11.203  1.00  0.00    -0.025 C 
ATOM     21  C   UNL     1      -7.251  89.376 -12.123  1.00  0.00     0.005 C 
ATOM     22  C   UNL     1      -7.332  90.494 -11.038  1.00  0.00     0.003 C 
ATOM     23  C   UNL     1      -6.596  92.756 -10.190  1.00  0.00     0.010 C 
ATOM     24  C   UNL     1      -4.801  91.089 -10.899  1.00  0.00     0.012 C 
ATOM     25  C   UNL     1      -7.567  89.957  -9.562  1.00  0.00    -0.006 C 
ATOM     26  C   UNL     1      -6.764  92.288  -8.741  1.00  0.00     0.033 C 
ATOM     27  C   UNL     1      -7.812  91.174  -8.593  1.00  0.00     0.120 C 
ATOM     28  C   UNL     1      -8.846  89.063  -9.572  1.00  0.00     0.014 C 
ATOM     29  C   UNL     1      -6.398  89.085  -9.017  1.00  0.00     0.014 C 
ENDROOT
BRANCH   1  30
ATOM     30  C   UNL     1      -3.141  91.857 -17.606  1.00  0.00     0.048 C 
ATOM     31  O   UNL     1      -2.712  90.743 -18.011  1.00  0.00    -0.550 OA
ATOM     32  O   UNL     1      -2.227  92.759 -17.077  1.00  0.00    -0.550 OA
ENDBRANCH   1  30
BRANCH  27  33
ATOM     33  O   UNL     1      -7.781  90.772  -7.252  1.00  0.00    -0.393 OA
ATOM     34  H   UNL     1      -8.711  90.811  -6.888  1.00  0.00     0.210 HD
ENDBRANCH  27  33
TORSDOF 2
ENDMDL
MODEL 8
REMARK VINA RESULT:    -5.927      1.549      2.143
REMARK INTER + INTRA:          -6.553
REMARK INTER:                  -6.449
REMARK INTRA:                  -0.104
REMARK UNBOUND:                -0.106
REMARK SMILES C[C@H]1[C@H]2C3=CC[C@@H]4[C@@]5(C)CC[C@H](O)C(C)(C)[C@@H]5CC[C@]4(C)[C@@]3(C)CC[C@@]2(C(=O)[O-])CC[C@@H]1C
REMARK SMILES IDX 26 1 30 2 25 3 3 4 31 5 24 6 4 7 2 8 32 9 22 10 5 11 1 12
REMARK SMILES IDX 33 13 23 14 20 15 6 16 7 17 19 18 21 19 8 20 18 21 17 22
REMARK SMILES IDX 10 23 9 24 14 25 11 26 12 27 15 28 16 29 27 30 28 31 29 32
REMARK SMILES IDX 13 33
REMARK H PARENT 13 34
REMARK Flexibility Score: inf
ROOT
ATOM      1  C   UNL     1      -6.222  93.393 -15.813  1.00  0.00     0.017 C 
ATOM      2  C   UNL     1      -5.789  94.042 -17.161  1.00  0.00     0.014 C 
ATOM      3  C   UNL     1      -5.221  93.795 -14.705  1.00  0.00     0.014 C 
ATOM      4  C   UNL     1      -6.324  91.820 -15.881  1.00  0.00     0.030 C 
ATOM      5  C   UNL     1      -4.693  93.293 -17.919  1.00  0.00     0.004 C 
ATOM      6  C   UNL     1      -5.635  93.321 -13.302  1.00  0.00     0.013 C 
ATOM      7  C   UNL     1      -6.434  91.144 -14.497  1.00  0.00    -0.063 C 
ATOM      8  C   UNL     1      -5.257  91.101 -16.799  1.00  0.00    -0.003 C 
ATOM      9  C   UNL     1      -5.065  91.829 -18.151  1.00  0.00    -0.011 C 
ATOM     10  C   UNL     1      -6.334  91.903 -13.159  1.00  0.00    -0.006 C 
ATOM     11  C   UNL     1      -6.795  89.839 -14.468  1.00  0.00    -0.027 C 
ATOM     12  C   UNL     1      -3.896  90.824 -16.111  1.00  0.00     0.008 C 
ATOM     13  C   UNL     1      -6.286  91.662 -19.077  1.00  0.00     0.008 C 
ATOM     14  C   UNL     1      -7.811  92.205 -12.739  1.00  0.00     0.017 C 
ATOM     15  C   UNL     1      -5.584  90.966 -12.071  1.00  0.00    -0.020 C 
ATOM     16  C   UNL     1      -7.103  89.092 -13.198  1.00  0.00     0.032 C 
ATOM     17  C   UNL     1      -6.186  89.484 -12.002  1.00  0.00     0.006 C 
ATOM     18  C   UNL     1      -5.613  91.634 -10.655  1.00  0.00     0.008 C 
ATOM     19  C   UNL     1      -4.074  90.803 -12.468  1.00  0.00     0.012 C 
ATOM     20  C   UNL     1      -6.692  88.977 -10.577  1.00  0.00    -0.025 C 
ATOM     21  C   UNL     1      -5.097  90.762  -9.499  1.00  0.00     0.005 C 
ATOM     22  C   UNL     1      -5.547  89.268  -9.537  1.00  0.00     0.003 C 
ATOM     23  C   UNL     1      -6.868  87.425 -10.649  1.00  0.00     0.010 C 
ATOM     24  C   UNL     1      -8.052  89.629 -10.152  1.00  0.00     0.012 C 
ATOM     25  C   UNL     1      -5.712  88.598  -8.107  1.00  0.00    -0.006 C 
ATOM     26  C   UNL     1      -7.098  86.748  -9.294  1.00  0.00     0.033 C 
ATOM     27  C   UNL     1      -5.987  87.056  -8.278  1.00  0.00     0.120 C 
ATOM     28  C   UNL     1      -4.370  88.781  -7.332  1.00  0.00     0.014 C 
ATOM     29  C   UNL     1      -6.838  89.234  -7.240  1.00  0.00     0.014 C 
ENDROOT
BRANCH   1  30
ATOM     30  C   UNL     1      -7.589  94.016 -15.524  1.00  0.00     0.048 C 
ATOM     31  O   UNL     1      -8.651  93.376 -15.749  1.00  0.00    -0.550 OA
ATOM     32  O   UNL     1      -7.686  95.240 -14.873  1.00  0.00    -0.550 OA
ENDBRANCH   1  30
BRANCH  27  33
ATOM     33  O   UNL     1      -6.378  86.471  -7.068  1.00  0.00    -0.393 OA
ATOM     34  H   UNL     1      -5.800  85.674  -6.900  1.00  0.00     0.210 HD
ENDBRANCH  27  33
TORSDOF 2
ENDMDL
MODEL 9
REMARK VINA RESULT:    -5.820      3.959      6.543
REMARK INTER + INTRA:          -6.436
REMARK INTER:                  -6.225
REMARK INTRA:                  -0.211
REMARK UNBOUND:                -0.106
REMARK SMILES C[C@H]1[C@H]2C3=CC[C@@H]4[C@@]5(C)CC[C@H](O)C(C)(C)[C@@H]5CC[C@]4(C)[C@@]3(C)CC[C@@]2(C(=O)[O-])CC[C@@H]1C
REMARK SMILES IDX 26 1 30 2 25 3 3 4 31 5 24 6 4 7 2 8 32 9 22 10 5 11 1 12
REMARK SMILES IDX 33 13 23 14 20 15 6 16 7 17 19 18 21 19 8 20 18 21 17 22
REMARK SMILES IDX 10 23 9 24 14 25 11 26 12 27 15 28 16 29 27 30 28 31 29 32
REMARK SMILES IDX 13 33
REMARK H PARENT 13 34
REMARK Flexibility Score: inf
ROOT
ATOM      1  C   UNL     1      -5.852  92.957 -11.251  1.00  0.00     0.017 C 
ATOM      2  C   UNL     1      -5.621  94.492 -11.367  1.00  0.00     0.014 C 
ATOM      3  C   UNL     1      -7.360  92.677 -11.058  1.00  0.00     0.014 C 
ATOM      4  C   UNL     1      -5.041  92.289 -10.074  1.00  0.00     0.030 C 
ATOM      5  C   UNL     1      -5.559  95.241 -10.036  1.00  0.00     0.004 C 
ATOM      6  C   UNL     1      -7.715  91.180 -11.074  1.00  0.00     0.013 C 
ATOM      7  C   UNL     1      -5.495  90.851  -9.743  1.00  0.00    -0.063 C 
ATOM      8  C   UNL     1      -4.877  93.165  -8.769  1.00  0.00    -0.003 C 
ATOM      9  C   UNL     1      -4.520  94.635  -9.093  1.00  0.00    -0.011 C 
ATOM     10  C   UNL     1      -6.702  90.157 -10.404  1.00  0.00    -0.006 C 
ATOM     11  C   UNL     1      -4.690  90.111  -8.944  1.00  0.00    -0.027 C 
ATOM     12  C   UNL     1      -6.070  93.081  -7.782  1.00  0.00     0.008 C 
ATOM     13  C   UNL     1      -3.079  94.777  -9.623  1.00  0.00     0.008 C 
ATOM     14  C   UNL     1      -6.109  89.322 -11.587  1.00  0.00     0.017 C 
ATOM     15  C   UNL     1      -7.435  89.210  -9.313  1.00  0.00    -0.020 C 
ATOM     16  C   UNL     1      -4.914  88.648  -8.668  1.00  0.00     0.032 C 
ATOM     17  C   UNL     1      -6.415  88.259  -8.526  1.00  0.00     0.006 C 
ATOM     18  C   UNL     1      -8.563  88.360  -9.989  1.00  0.00     0.008 C 
ATOM     19  C   UNL     1      -8.127  90.100  -8.221  1.00  0.00     0.012 C 
ATOM     20  C   UNL     1      -6.706  86.692  -8.574  1.00  0.00    -0.025 C 
ATOM     21  C   UNL     1      -9.209  87.286  -9.099  1.00  0.00     0.005 C 
ATOM     22  C   UNL     1      -8.220  86.480  -8.200  1.00  0.00     0.003 C 
ATOM     23  C   UNL     1      -5.853  86.005  -7.459  1.00  0.00     0.010 C 
ATOM     24  C   UNL     1      -6.350  86.053  -9.960  1.00  0.00     0.012 C 
ATOM     25  C   UNL     1      -8.668  84.985  -7.911  1.00  0.00    -0.006 C 
ATOM     26  C   UNL     1      -6.210  84.539  -7.197  1.00  0.00     0.033 C 
ATOM     27  C   UNL     1      -7.695  84.339  -6.855  1.00  0.00     0.120 C 
ATOM     28  C   UNL     1     -10.106  85.021  -7.305  1.00  0.00     0.014 C 
ATOM     29  C   UNL     1      -8.725  84.089  -9.183  1.00  0.00     0.014 C 
ENDROOT
BRANCH   1  30
ATOM     30  C   UNL     1      -5.395  92.411 -12.606  1.00  0.00     0.048 C 
ATOM     31  O   UNL     1      -6.119  92.536 -13.631  1.00  0.00    -0.550 OA
ATOM     32  O   UNL     1      -4.114  91.898 -12.767  1.00  0.00    -0.550 OA
ENDBRANCH   1  30
BRANCH  27  33
ATOM     33  O   UNL     1      -7.899  82.958  -6.751  1.00  0.00    -0.393 OA
ATOM     34  H   UNL     1      -7.750  82.548  -7.650  1.00  0.00     0.210 HD
ENDBRANCH  27  33
TORSDOF 2
ENDMDL
