MODEL 1
REMARK VINA RESULT:    -3.409      0.000      0.000
REMARK INTER + INTRA:          -4.297
REMARK INTER:                  -4.107
REMARK INTRA:                  -0.191
REMARK UNBOUND:                -0.191
REMARK SMILES OCC(O)CO
REMARK SMILES IDX 3 1 5 2 6 3 2 5 1 6 4 8
REMARK H PARENT 6 4 1 7 4 9
REMARK Flexibility Score: inf
ROOT
ATOM      1  C   UNL     1       7.340   7.003  14.434  1.00  0.00     0.165 C 
ENDROOT
BRANCH   1   2
ATOM      2  C   UNL     1       6.382   5.873  14.019  1.00  0.00     0.190 C 
BRANCH   2   3
ATOM      3  O   UNL     1       6.896   4.628  14.409  1.00  0.00    -0.394 OA
ATOM      4  H   UNL     1       6.473   4.402  15.278  1.00  0.00     0.210 HD
ENDBRANCH   2   3
ENDBRANCH   1   2
BRANCH   1   5
ATOM      5  C   UNL     1       7.841   6.805  15.872  1.00  0.00     0.190 C 
BRANCH   5   6
ATOM      6  O   UNL     1       9.132   6.255  15.889  1.00  0.00    -0.394 OA
ATOM      7  H   UNL     1       9.558   6.550  16.736  1.00  0.00     0.210 HD
ENDBRANCH   5   6
ENDBRANCH   1   5
BRANCH   1   8
ATOM      8  O   UNL     1       6.694   8.246  14.335  1.00  0.00    -0.388 OA
ATOM      9  H   UNL     1       7.299   8.847  13.826  1.00  0.00     0.211 HD
ENDBRANCH   1   8
TORSDOF 5
ENDMDL
MODEL 2
REMARK VINA RESULT:    -3.339      1.309      2.803
REMARK INTER + INTRA:          -4.213
REMARK INTER:                  -4.014
REMARK INTRA:                  -0.198
REMARK UNBOUND:                -0.191
REMARK SMILES OCC(O)CO
REMARK SMILES IDX 3 1 5 2 6 3 2 5 1 6 4 8
REMARK H PARENT 6 4 1 7 4 9
REMARK Flexibility Score: inf
ROOT
ATOM      1  C   UNL     1       7.619   6.411  15.291  1.00  0.00     0.165 C 
ENDROOT
BRANCH   1   2
ATOM      2  C   UNL     1       7.847   7.342  14.088  1.00  0.00     0.190 C 
BRANCH   2   3
ATOM      3  O   UNL     1       7.145   8.543  14.258  1.00  0.00    -0.394 OA
ATOM      4  H   UNL     1       6.184   8.306  14.337  1.00  0.00     0.210 HD
ENDBRANCH   2   3
ENDBRANCH   1   2
BRANCH   1   5
ATOM      5  C   UNL     1       6.521   5.379  14.995  1.00  0.00     0.190 C 
BRANCH   5   6
ATOM      6  O   UNL     1       5.668   5.824  13.974  1.00  0.00    -0.394 OA
ATOM      7  H   UNL     1       6.149   6.546  13.492  1.00  0.00     0.210 HD
ENDBRANCH   5   6
ENDBRANCH   1   5
BRANCH   1   8
ATOM      8  O   UNL     1       7.258   7.160  16.423  1.00  0.00    -0.388 OA
ATOM      9  H   UNL     1       6.266   7.176  16.456  1.00  0.00     0.211 HD
ENDBRANCH   1   8
TORSDOF 5
ENDMDL
MODEL 3
REMARK VINA RESULT:    -3.297      1.558      2.972
REMARK INTER + INTRA:          -4.162
REMARK INTER:                  -4.159
REMARK INTRA:                  -0.003
REMARK UNBOUND:                -0.191
REMARK SMILES OCC(O)CO
REMARK SMILES IDX 3 1 5 2 6 3 2 5 1 6 4 8
REMARK H PARENT 6 4 1 7 4 9
REMARK Flexibility Score: inf
ROOT
ATOM      1  C   UNL     1       6.543   6.211  13.908  1.00  0.00     0.165 C 
ENDROOT
BRANCH   1   2
ATOM      2  C   UNL     1       7.516   7.151  14.640  1.00  0.00     0.190 C 
BRANCH   2   3
ATOM      3  O   UNL     1       7.190   8.490  14.383  1.00  0.00    -0.394 OA
ATOM      4  H   UNL     1       7.307   8.632  13.407  1.00  0.00     0.210 HD
ENDBRANCH   2   3
ENDBRANCH   1   2
BRANCH   1   5
ATOM      5  C   UNL     1       6.363   4.893  14.676  1.00  0.00     0.190 C 
BRANCH   5   6
ATOM      6  O   UNL     1       6.468   3.787  13.819  1.00  0.00    -0.394 OA
ATOM      7  H   UNL     1       5.578   3.667  13.395  1.00  0.00     0.210 HD
ENDBRANCH   5   6
ENDBRANCH   1   5
BRANCH   1   8
ATOM      8  O   UNL     1       7.017   5.934  12.616  1.00  0.00    -0.388 OA
ATOM      9  H   UNL     1       6.594   5.083  12.328  1.00  0.00     0.211 HD
ENDBRANCH   1   8
TORSDOF 5
ENDMDL
MODEL 4
REMARK VINA RESULT:    -3.296      2.680      3.919
REMARK INTER + INTRA:          -4.161
REMARK INTER:                  -3.938
REMARK INTRA:                  -0.223
REMARK UNBOUND:                -0.191
REMARK SMILES OCC(O)CO
REMARK SMILES IDX 3 1 5 2 6 3 2 5 1 6 4 8
REMARK H PARENT 6 4 1 7 4 9
REMARK Flexibility Score: inf
ROOT
ATOM      1  C   UNL     1       5.671   4.587  12.511  1.00  0.00     0.165 C 
ENDROOT
BRANCH   1   2
ATOM      2  C   UNL     1       5.753   4.732  14.040  1.00  0.00     0.190 C 
BRANCH   2   3
ATOM      3  O   UNL     1       7.088   4.686  14.465  1.00  0.00    -0.394 OA
ATOM      4  H   UNL     1       7.509   3.912  14.007  1.00  0.00     0.210 HD
ENDBRANCH   2   3
ENDBRANCH   1   2
BRANCH   1   5
ATOM      5  C   UNL     1       5.703   3.111  12.090  1.00  0.00     0.190 C 
BRANCH   5   6
ATOM      6  O   UNL     1       6.913   2.503  12.457  1.00  0.00    -0.394 OA
ATOM      7  H   UNL     1       7.558   3.236  12.640  1.00  0.00     0.210 HD
ENDBRANCH   5   6
ENDBRANCH   1   5
BRANCH   1   8
ATOM      8  O   UNL     1       6.739   5.266  11.901  1.00  0.00    -0.388 OA
ATOM      9  H   UNL     1       7.021   4.721  11.120  1.00  0.00     0.211 HD
ENDBRANCH   1   8
TORSDOF 5
ENDMDL
MODEL 5
REMARK VINA RESULT:    -3.258      3.029      4.019
REMARK INTER + INTRA:          -4.116
REMARK INTER:                  -3.905
REMARK INTRA:                  -0.210
REMARK UNBOUND:                -0.191
REMARK SMILES OCC(O)CO
REMARK SMILES IDX 3 1 5 2 6 3 2 5 1 6 4 8
REMARK H PARENT 6 4 1 7 4 9
REMARK Flexibility Score: inf
ROOT
ATOM      1  C   UNL     1       5.739   4.202  11.925  1.00  0.00     0.165 C 
ENDROOT
BRANCH   1   2
ATOM      2  C   UNL     1       5.746   2.664  11.924  1.00  0.00     0.190 C 
BRANCH   2   3
ATOM      3  O   UNL     1       6.951   2.179  12.450  1.00  0.00    -0.394 OA
ATOM      4  H   UNL     1       7.670   2.457  11.825  1.00  0.00     0.210 HD
ENDBRANCH   2   3
ENDBRANCH   1   2
BRANCH   1   5
ATOM      5  C   UNL     1       5.585   4.755  13.349  1.00  0.00     0.190 C 
BRANCH   5   6
ATOM      6  O   UNL     1       6.665   4.378  14.161  1.00  0.00    -0.394 OA
ATOM      7  H   UNL     1       6.283   4.091  15.031  1.00  0.00     0.210 HD
ENDBRANCH   5   6
ENDBRANCH   1   5
BRANCH   1   8
ATOM      8  O   UNL     1       4.691   4.683  11.124  1.00  0.00    -0.388 OA
ATOM      9  H   UNL     1       3.956   4.949  11.737  1.00  0.00     0.211 HD
ENDBRANCH   1   8
TORSDOF 5
ENDMDL
MODEL 6
REMARK VINA RESULT:    -3.246      0.936      2.375
REMARK INTER + INTRA:          -4.101
REMARK INTER:                  -3.882
REMARK INTRA:                  -0.219
REMARK UNBOUND:                -0.191
REMARK SMILES OCC(O)CO
REMARK SMILES IDX 3 1 5 2 6 3 2 5 1 6 4 8
REMARK H PARENT 6 4 1 7 4 9
REMARK Flexibility Score: inf
ROOT
ATOM      1  C   UNL     1       7.540   6.644  15.335  1.00  0.00     0.165 C 
ENDROOT
BRANCH   1   2
ATOM      2  C   UNL     1       6.772   5.399  14.860  1.00  0.00     0.190 C 
BRANCH   2   3
ATOM      3  O   UNL     1       5.680   5.770  14.064  1.00  0.00    -0.394 OA
ATOM      4  H   UNL     1       4.864   5.636  14.614  1.00  0.00     0.210 HD
ENDBRANCH   2   3
ENDBRANCH   1   2
BRANCH   1   5
ATOM      5  C   UNL     1       7.688   7.670  14.201  1.00  0.00     0.190 C 
BRANCH   5   6
ATOM      6  O   UNL     1       6.555   8.491  14.106  1.00  0.00    -0.394 OA
ATOM      7  H   UNL     1       5.798   7.905  13.843  1.00  0.00     0.210 HD
ENDBRANCH   5   6
ENDBRANCH   1   5
BRANCH   1   8
ATOM      8  O   UNL     1       8.813   6.281  15.801  1.00  0.00    -0.388 OA
ATOM      9  H   UNL     1       9.383   6.131  15.002  1.00  0.00     0.211 HD
ENDBRANCH   1   8
TORSDOF 5
ENDMDL
MODEL 7
REMARK VINA RESULT:    -3.231      3.642      4.867
REMARK INTER + INTRA:          -4.083
REMARK INTER:                  -3.861
REMARK INTRA:                  -0.222
REMARK UNBOUND:                -0.191
REMARK SMILES OCC(O)CO
REMARK SMILES IDX 3 1 5 2 6 3 2 5 1 6 4 8
REMARK H PARENT 6 4 1 7 4 9
REMARK Flexibility Score: inf
ROOT
ATOM      1  C   UNL     1       5.861   3.263  11.668  1.00  0.00     0.165 C 
ENDROOT
BRANCH   1   2
ATOM      2  C   UNL     1       6.399   3.347  10.230  1.00  0.00     0.190 C 
BRANCH   2   3
ATOM      3  O   UNL     1       7.779   3.597  10.236  1.00  0.00    -0.394 OA
ATOM      4  H   UNL     1       8.183   2.960  10.883  1.00  0.00     0.210 HD
ENDBRANCH   2   3
ENDBRANCH   1   2
BRANCH   1   5
ATOM      5  C   UNL     1       5.594   4.662  12.243  1.00  0.00     0.190 C 
BRANCH   5   6
ATOM      6  O   UNL     1       6.741   5.467  12.176  1.00  0.00    -0.394 OA
ATOM      7  H   UNL     1       7.497   4.918  12.514  1.00  0.00     0.210 HD
ENDBRANCH   5   6
ENDBRANCH   1   5
BRANCH   1   8
ATOM      8  O   UNL     1       6.780   2.592  12.491  1.00  0.00    -0.388 OA
ATOM      9  H   UNL     1       6.848   1.661  12.151  1.00  0.00     0.211 HD
ENDBRANCH   1   8
TORSDOF 5
ENDMDL
MODEL 8
REMARK VINA RESULT:    -3.227      9.084      9.484
REMARK INTER + INTRA:          -4.078
REMARK INTER:                  -4.048
REMARK INTRA:                  -0.030
REMARK UNBOUND:                -0.191
REMARK SMILES OCC(O)CO
REMARK SMILES IDX 3 1 5 2 6 3 2 5 1 6 4 8
REMARK H PARENT 6 4 1 7 4 9
REMARK Flexibility Score: inf
ROOT
ATOM      1  C   UNL     1       1.036   0.918  11.159  1.00  0.00     0.165 C 
ENDROOT
BRANCH   1   2
ATOM      2  C   UNL     1       2.092   0.260  12.064  1.00  0.00     0.190 C 
BRANCH   2   3
ATOM      3  O   UNL     1       1.625  -0.972  12.545  1.00  0.00    -0.394 OA
ATOM      4  H   UNL     1       0.789  -0.786  13.047  1.00  0.00     0.210 HD
ENDBRANCH   2   3
ENDBRANCH   1   2
BRANCH   1   5
ATOM      5  C   UNL     1       0.517   2.226  11.773  1.00  0.00     0.190 C 
BRANCH   5   6
ATOM      6  O   UNL     1      -0.468   1.978  12.741  1.00  0.00    -0.394 OA
ATOM      7  H   UNL     1      -1.330   2.289  12.359  1.00  0.00     0.210 HD
ENDBRANCH   5   6
ENDBRANCH   1   5
BRANCH   1   8
ATOM      8  O   UNL     1      -0.042   0.042  10.955  1.00  0.00    -0.388 OA
ATOM      9  H   UNL     1      -0.817   0.596  10.675  1.00  0.00     0.211 HD
ENDBRANCH   1   8
TORSDOF 5
ENDMDL
MODEL 9
REMARK VINA RESULT:    -3.145      4.460      5.043
REMARK INTER + INTRA:          -3.979
REMARK INTER:                  -3.756
REMARK INTRA:                  -0.223
REMARK UNBOUND:                -0.191
REMARK SMILES OCC(O)CO
REMARK SMILES IDX 3 1 5 2 6 3 2 5 1 6 4 8
REMARK H PARENT 6 4 1 7 4 9
REMARK Flexibility Score: inf
ROOT
ATOM      1  C   UNL     1       5.789   3.931  11.154  1.00  0.00     0.165 C 
ENDROOT
BRANCH   1   2
ATOM      2  C   UNL     1       5.683   2.719  12.094  1.00  0.00     0.190 C 
BRANCH   2   3
ATOM      3  O   UNL     1       6.956   2.319  12.524  1.00  0.00    -0.394 OA
ATOM      4  H   UNL     1       7.534   2.288  11.718  1.00  0.00     0.210 HD
ENDBRANCH   2   3
ENDBRANCH   1   2
BRANCH   1   5
ATOM      5  C   UNL     1       6.562   3.575   9.875  1.00  0.00     0.190 C 
BRANCH   5   6
ATOM      6  O   UNL     1       7.947   3.660  10.078  1.00  0.00    -0.394 OA
ATOM      7  H   UNL     1       8.376   3.514   9.194  1.00  0.00     0.210 HD
ENDBRANCH   5   6
ENDBRANCH   1   5
BRANCH   1   8
ATOM      8  O   UNL     1       6.435   4.995  11.804  1.00  0.00    -0.388 OA
ATOM      9  H   UNL     1       7.408   4.795  11.792  1.00  0.00     0.211 HD
ENDBRANCH   1   8
TORSDOF 5
ENDMDL
