MODEL 1
REMARK VINA RESULT:    -4.698      0.000      0.000
REMARK INTER + INTRA:          -9.359
REMARK INTER:                  -7.993
REMARK INTRA:                  -1.366
REMARK UNBOUND:                -1.366
REMARK SMILES CCCCCCCCCCCCCC(=O)[O-]
REMARK SMILES IDX 8 1 9 2 10 3 11 4 12 5 13 6 14 7 15 8 16 9 7 10 6 11 5 12
REMARK SMILES IDX 4 13 3 14 2 15 1 16
REMARK H PARENT
REMARK Flexibility Score: inf
ROOT
ATOM      1  C   UNL     1      41.608  18.017   9.433  1.00  0.00     0.000 C 
ENDROOT
BRANCH   1   2
ATOM      2  C   UNL     1      41.935  19.180   8.485  1.00  0.00     0.000 C 
BRANCH   2   3
ATOM      3  C   UNL     1      41.277  20.481   8.969  1.00  0.00     0.000 C 
BRANCH   3   4
ATOM      4  C   UNL     1      42.294  21.490   9.527  1.00  0.00     0.000 C 
BRANCH   4   5
ATOM      5  C   UNL     1      42.974  20.993  10.815  1.00  0.00     0.006 C 
BRANCH   5   6
ATOM      6  C   UNL     1      42.800  21.979  11.978  1.00  0.00     0.053 C 
BRANCH   6   7
ATOM      7  C   UNL     1      42.964  21.307  13.307  1.00  0.00     0.041 C 
ATOM      8  O   UNL     1      44.113  21.108  13.780  1.00  0.00    -0.550 OA
ATOM      9  O   UNL     1      41.845  20.875  14.009  1.00  0.00    -0.550 OA
ENDBRANCH   6   7
ENDBRANCH   5   6
ENDBRANCH   4   5
ENDBRANCH   3   4
ENDBRANCH   2   3
ENDBRANCH   1   2
BRANCH   1  10
ATOM     10  C   UNL     1      40.487  18.354  10.431  1.00  0.00     0.000 C 
BRANCH  10  11
ATOM     11  C   UNL     1      40.874  18.210  11.917  1.00  0.00    -0.000 C 
BRANCH  11  12
ATOM     12  C   UNL     1      41.943  17.138  12.212  1.00  0.00    -0.000 C 
BRANCH  12  13
ATOM     13  C   UNL     1      43.301  17.687  12.693  1.00  0.00    -0.000 C 
BRANCH  13  14
ATOM     14  C   UNL     1      44.524  16.852  12.278  1.00  0.00    -0.000 C 
BRANCH  14  15
ATOM     15  C   UNL     1      44.201  15.359  12.124  1.00  0.00    -0.003 C 
ATOM     16  C   UNL     1      45.461  14.508  12.255  1.00  0.00     0.004 C 
ENDBRANCH  14  15
ENDBRANCH  13  14
ENDBRANCH  12  13
ENDBRANCH  11  12
ENDBRANCH  10  11
ENDBRANCH   1  10
TORSDOF 12
ENDMDL
MODEL 2
REMARK VINA RESULT:    -4.613      1.560      2.623
REMARK INTER + INTRA:          -9.214
REMARK INTER:                  -7.595
REMARK INTRA:                  -1.619
REMARK UNBOUND:                -1.366
REMARK SMILES CCCCCCCCCCCCCC(=O)[O-]
REMARK SMILES IDX 8 1 9 2 10 3 11 4 12 5 13 6 14 7 15 8 16 9 7 10 6 11 5 12
REMARK SMILES IDX 4 13 3 14 2 15 1 16
REMARK H PARENT
REMARK Flexibility Score: inf
ROOT
ATOM      1  C   UNL     1      41.660  20.712   8.390  1.00  0.00     0.000 C 
ENDROOT
BRANCH   1   2
ATOM      2  C   UNL     1      42.899  21.379   9.006  1.00  0.00     0.000 C 
BRANCH   2   3
ATOM      3  C   UNL     1      42.531  22.721   9.657  1.00  0.00     0.000 C 
BRANCH   3   4
ATOM      4  C   UNL     1      42.963  22.805  11.130  1.00  0.00     0.000 C 
BRANCH   4   5
ATOM      5  C   UNL     1      43.038  21.423  11.804  1.00  0.00     0.006 C 
BRANCH   5   6
ATOM      6  C   UNL     1      43.379  21.527  13.298  1.00  0.00     0.053 C 
BRANCH   6   7
ATOM      7  C   UNL     1      42.151  21.468  14.154  1.00  0.00     0.041 C 
ATOM      8  O   UNL     1      41.870  22.422  14.926  1.00  0.00    -0.550 OA
ATOM      9  O   UNL     1      41.334  20.345  14.120  1.00  0.00    -0.550 OA
ENDBRANCH   6   7
ENDBRANCH   5   6
ENDBRANCH   4   5
ENDBRANCH   3   4
ENDBRANCH   2   3
ENDBRANCH   1   2
BRANCH   1  10
ATOM     10  C   UNL     1      40.350  21.126   9.083  1.00  0.00     0.000 C 
BRANCH  10  11
ATOM     11  C   UNL     1      39.899  20.197  10.228  1.00  0.00    -0.000 C 
BRANCH  11  12
ATOM     12  C   UNL     1      40.382  18.737  10.113  1.00  0.00    -0.000 C 
BRANCH  12  13
ATOM     13  C   UNL     1      40.186  17.883  11.382  1.00  0.00    -0.000 C 
BRANCH  13  14
ATOM     14  C   UNL     1      41.486  17.435  12.072  1.00  0.00    -0.000 C 
BRANCH  14  15
ATOM     15  C   UNL     1      42.744  17.992  11.390  1.00  0.00    -0.003 C 
ATOM     16  C   UNL     1      43.976  17.803  12.271  1.00  0.00     0.004 C 
ENDBRANCH  14  15
ENDBRANCH  13  14
ENDBRANCH  12  13
ENDBRANCH  11  12
ENDBRANCH  10  11
ENDBRANCH   1  10
TORSDOF 12
ENDMDL
MODEL 3
REMARK VINA RESULT:    -4.591      2.337      3.887
REMARK INTER + INTRA:          -9.177
REMARK INTER:                  -7.560
REMARK INTRA:                  -1.617
REMARK UNBOUND:                -1.366
REMARK SMILES CCCCCCCCCCCCCC(=O)[O-]
REMARK SMILES IDX 8 1 9 2 10 3 11 4 12 5 13 6 14 7 15 8 16 9 7 10 6 11 5 12
REMARK SMILES IDX 4 13 3 14 2 15 1 16
REMARK H PARENT
REMARK Flexibility Score: inf
ROOT
ATOM      1  C   UNL     1      40.813  20.258   8.353  1.00  0.00     0.000 C 
ENDROOT
BRANCH   1   2
ATOM      2  C   UNL     1      41.096  21.591   9.061  1.00  0.00     0.000 C 
BRANCH   2   3
ATOM      3  C   UNL     1      42.544  22.043   8.819  1.00  0.00     0.000 C 
BRANCH   3   4
ATOM      4  C   UNL     1      43.203  22.625  10.080  1.00  0.00     0.000 C 
BRANCH   4   5
ATOM      5  C   UNL     1      42.343  22.429  11.342  1.00  0.00     0.006 C 
BRANCH   5   6
ATOM      6  C   UNL     1      43.146  21.820  12.499  1.00  0.00     0.053 C 
BRANCH   6   7
ATOM      7  C   UNL     1      42.405  21.909  13.798  1.00  0.00     0.041 C 
ATOM      8  O   UNL     1      41.822  20.896  14.267  1.00  0.00    -0.550 OA
ATOM      9  O   UNL     1      42.333  23.119  14.476  1.00  0.00    -0.550 OA
ENDBRANCH   6   7
ENDBRANCH   5   6
ENDBRANCH   4   5
ENDBRANCH   3   4
ENDBRANCH   2   3
ENDBRANCH   1   2
BRANCH   1  10
ATOM     10  C   UNL     1      41.923  19.216   8.572  1.00  0.00     0.000 C 
BRANCH  10  11
ATOM     11  C   UNL     1      41.611  18.149   9.641  1.00  0.00    -0.000 C 
BRANCH  11  12
ATOM     12  C   UNL     1      41.675  18.647  11.099  1.00  0.00    -0.000 C 
BRANCH  12  13
ATOM     13  C   UNL     1      40.307  18.840  11.782  1.00  0.00    -0.000 C 
BRANCH  13  14
ATOM     14  C   UNL     1      39.125  18.153  11.077  1.00  0.00    -0.000 C 
BRANCH  14  15
ATOM     15  C   UNL     1      37.899  19.067  10.942  1.00  0.00    -0.003 C 
ATOM     16  C   UNL     1      36.748  18.575  11.815  1.00  0.00     0.004 C 
ENDBRANCH  14  15
ENDBRANCH  13  14
ENDBRANCH  12  13
ENDBRANCH  11  12
ENDBRANCH  10  11
ENDBRANCH   1  10
TORSDOF 12
ENDMDL
MODEL 4
REMARK VINA RESULT:    -4.577      2.685      5.421
REMARK INTER + INTRA:          -9.154
REMARK INTER:                  -7.468
REMARK INTRA:                  -1.686
REMARK UNBOUND:                -1.366
REMARK SMILES CCCCCCCCCCCCCC(=O)[O-]
REMARK SMILES IDX 8 1 9 2 10 3 11 4 12 5 13 6 14 7 15 8 16 9 7 10 6 11 5 12
REMARK SMILES IDX 4 13 3 14 2 15 1 16
REMARK H PARENT
REMARK Flexibility Score: inf
ROOT
ATOM      1  C   UNL     1      44.267  19.276  12.245  1.00  0.00     0.000 C 
ENDROOT
BRANCH   1   2
ATOM      2  C   UNL     1      44.022  17.846  12.747  1.00  0.00     0.000 C 
BRANCH   2   3
ATOM      3  C   UNL     1      42.991  17.125  11.865  1.00  0.00     0.000 C 
BRANCH   3   4
ATOM      4  C   UNL     1      41.542  17.404  12.296  1.00  0.00     0.000 C 
BRANCH   4   5
ATOM      5  C   UNL     1      40.739  18.157  11.220  1.00  0.00     0.006 C 
BRANCH   5   6
ATOM      6  C   UNL     1      39.612  19.005  11.828  1.00  0.00     0.053 C 
BRANCH   6   7
ATOM      7  C   UNL     1      38.291  18.722  11.180  1.00  0.00     0.041 C 
ATOM      8  O   UNL     1      37.254  18.597  11.883  1.00  0.00    -0.550 OA
ATOM      9  O   UNL     1      38.212  18.568   9.802  1.00  0.00    -0.550 OA
ENDBRANCH   6   7
ENDBRANCH   5   6
ENDBRANCH   4   5
ENDBRANCH   3   4
ENDBRANCH   2   3
ENDBRANCH   1   2
BRANCH   1  10
ATOM     10  C   UNL     1      43.506  20.336  13.061  1.00  0.00     0.000 C 
BRANCH  10  11
ATOM     11  C   UNL     1      42.794  21.415  12.220  1.00  0.00    -0.000 C 
BRANCH  11  12
ATOM     12  C   UNL     1      42.784  21.158  10.699  1.00  0.00    -0.000 C 
BRANCH  12  13
ATOM     13  C   UNL     1      41.671  21.887   9.921  1.00  0.00    -0.000 C 
BRANCH  13  14
ATOM     14  C   UNL     1      40.920  21.021   8.895  1.00  0.00    -0.000 C 
BRANCH  14  15
ATOM     15  C   UNL     1      41.851  20.406   7.840  1.00  0.00    -0.003 C 
ATOM     16  C   UNL     1      41.833  18.881   7.913  1.00  0.00     0.004 C 
ENDBRANCH  14  15
ENDBRANCH  13  14
ENDBRANCH  12  13
ENDBRANCH  11  12
ENDBRANCH  10  11
ENDBRANCH   1  10
TORSDOF 12
ENDMDL
MODEL 5
REMARK VINA RESULT:    -4.569      2.237      3.765
REMARK INTER + INTRA:          -9.140
REMARK INTER:                  -7.625
REMARK INTRA:                  -1.515
REMARK UNBOUND:                -1.366
REMARK SMILES CCCCCCCCCCCCCC(=O)[O-]
REMARK SMILES IDX 8 1 9 2 10 3 11 4 12 5 13 6 14 7 15 8 16 9 7 10 6 11 5 12
REMARK SMILES IDX 4 13 3 14 2 15 1 16
REMARK H PARENT
REMARK Flexibility Score: inf
ROOT
ATOM      1  C   UNL     1      43.190  21.766  10.418  1.00  0.00     0.000 C 
ENDROOT
BRANCH   1   2
ATOM      2  C   UNL     1      42.315  22.475   9.374  1.00  0.00     0.000 C 
BRANCH   2   3
ATOM      3  C   UNL     1      41.235  21.527   8.830  1.00  0.00     0.000 C 
BRANCH   3   4
ATOM      4  C   UNL     1      41.650  20.048   8.907  1.00  0.00     0.000 C 
BRANCH   4   5
ATOM      5  C   UNL     1      40.480  19.125   9.289  1.00  0.00     0.006 C 
BRANCH   5   6
ATOM      6  C   UNL     1      39.553  19.767  10.331  1.00  0.00     0.053 C 
BRANCH   6   7
ATOM      7  C   UNL     1      38.678  18.751  10.999  1.00  0.00     0.041 C 
ATOM      8  O   UNL     1      37.452  18.985  11.171  1.00  0.00    -0.550 OA
ATOM      9  O   UNL     1      39.222  17.558  11.457  1.00  0.00    -0.550 OA
ENDBRANCH   6   7
ENDBRANCH   5   6
ENDBRANCH   4   5
ENDBRANCH   3   4
ENDBRANCH   2   3
ENDBRANCH   1   2
BRANCH   1  10
ATOM     10  C   UNL     1      42.789  22.103  11.865  1.00  0.00     0.000 C 
BRANCH  10  11
ATOM     11  C   UNL     1      43.137  21.019  12.905  1.00  0.00    -0.000 C 
BRANCH  11  12
ATOM     12  C   UNL     1      43.437  19.624  12.319  1.00  0.00    -0.000 C 
BRANCH  12  13
ATOM     13  C   UNL     1      42.318  18.581  12.513  1.00  0.00    -0.000 C 
BRANCH  13  14
ATOM     14  C   UNL     1      42.753  17.118  12.320  1.00  0.00    -0.000 C 
BRANCH  14  15
ATOM     15  C   UNL     1      44.275  16.934  12.394  1.00  0.00    -0.003 C 
ATOM     16  C   UNL     1      44.666  15.481  12.142  1.00  0.00     0.004 C 
ENDBRANCH  14  15
ENDBRANCH  13  14
ENDBRANCH  12  13
ENDBRANCH  11  12
ENDBRANCH  10  11
ENDBRANCH   1  10
TORSDOF 12
ENDMDL
MODEL 6
REMARK VINA RESULT:    -4.566      3.109      4.210
REMARK INTER + INTRA:          -9.134
REMARK INTER:                  -7.389
REMARK INTRA:                  -1.746
REMARK UNBOUND:                -1.366
REMARK SMILES CCCCCCCCCCCCCC(=O)[O-]
REMARK SMILES IDX 8 1 9 2 10 3 11 4 12 5 13 6 14 7 15 8 16 9 7 10 6 11 5 12
REMARK SMILES IDX 4 13 3 14 2 15 1 16
REMARK H PARENT
REMARK Flexibility Score: inf
ROOT
ATOM      1  C   UNL     1      39.555  19.279  10.203  1.00  0.00     0.000 C 
ENDROOT
BRANCH   1   2
ATOM      2  C   UNL     1      40.628  19.919   9.312  1.00  0.00     0.000 C 
BRANCH   2   3
ATOM      3  C   UNL     1      40.524  21.452   9.344  1.00  0.00     0.000 C 
BRANCH   3   4
ATOM      4  C   UNL     1      41.785  22.121   9.912  1.00  0.00     0.000 C 
BRANCH   4   5
ATOM      5  C   UNL     1      43.082  21.537   9.325  1.00  0.00     0.006 C 
BRANCH   5   6
ATOM      6  C   UNL     1      43.476  22.216   8.005  1.00  0.00     0.053 C 
BRANCH   6   7
ATOM      7  C   UNL     1      43.803  21.214   6.940  1.00  0.00     0.041 C 
ATOM      8  O   UNL     1      42.934  20.388   6.558  1.00  0.00    -0.550 OA
ATOM      9  O   UNL     1      45.079  21.176   6.392  1.00  0.00    -0.550 OA
ENDBRANCH   6   7
ENDBRANCH   5   6
ENDBRANCH   4   5
ENDBRANCH   3   4
ENDBRANCH   2   3
ENDBRANCH   1   2
BRANCH   1  10
ATOM     10  C   UNL     1      40.149  18.426  11.337  1.00  0.00     0.000 C 
BRANCH  10  11
ATOM     11  C   UNL     1      41.565  17.879  11.067  1.00  0.00    -0.000 C 
BRANCH  11  12
ATOM     12  C   UNL     1      42.250  17.213  12.277  1.00  0.00    -0.000 C 
BRANCH  12  13
ATOM     13  C   UNL     1      43.424  18.008  12.881  1.00  0.00    -0.000 C 
BRANCH  13  14
ATOM     14  C   UNL     1      43.749  19.331  12.167  1.00  0.00    -0.000 C 
BRANCH  14  15
ATOM     15  C   UNL     1      43.595  20.555  13.082  1.00  0.00    -0.003 C 
ATOM     16  C   UNL     1      42.141  20.748  13.502  1.00  0.00     0.004 C 
ENDBRANCH  14  15
ENDBRANCH  13  14
ENDBRANCH  12  13
ENDBRANCH  11  12
ENDBRANCH  10  11
ENDBRANCH   1  10
TORSDOF 12
ENDMDL
MODEL 7
REMARK VINA RESULT:    -4.555      3.174      5.045
REMARK INTER + INTRA:          -9.116
REMARK INTER:                  -7.445
REMARK INTRA:                  -1.671
REMARK UNBOUND:                -1.366
REMARK SMILES CCCCCCCCCCCCCC(=O)[O-]
REMARK SMILES IDX 8 1 9 2 10 3 11 4 12 5 13 6 14 7 15 8 16 9 7 10 6 11 5 12
REMARK SMILES IDX 4 13 3 14 2 15 1 16
REMARK H PARENT
REMARK Flexibility Score: inf
ROOT
ATOM      1  C   UNL     1      43.492  20.650  13.222  1.00  0.00     0.000 C 
ENDROOT
BRANCH   1   2
ATOM      2  C   UNL     1      42.741  21.687  12.375  1.00  0.00     0.000 C 
BRANCH   2   3
ATOM      3  C   UNL     1      43.069  21.517  10.883  1.00  0.00     0.000 C 
BRANCH   3   4
ATOM      4  C   UNL     1      41.994  22.120   9.966  1.00  0.00     0.000 C 
BRANCH   4   5
ATOM      5  C   UNL     1      42.038  21.540   8.541  1.00  0.00     0.006 C 
BRANCH   5   6
ATOM      6  C   UNL     1      43.439  21.633   7.922  1.00  0.00     0.053 C 
BRANCH   6   7
ATOM      7  C   UNL     1      43.528  20.882   6.629  1.00  0.00     0.041 C 
ATOM      8  O   UNL     1      44.274  21.298   5.704  1.00  0.00    -0.550 OA
ATOM      9  O   UNL     1      42.762  19.738   6.436  1.00  0.00    -0.550 OA
ENDBRANCH   6   7
ENDBRANCH   5   6
ENDBRANCH   4   5
ENDBRANCH   3   4
ENDBRANCH   2   3
ENDBRANCH   1   2
BRANCH   1  10
ATOM     10  C   UNL     1      43.817  19.363  12.445  1.00  0.00     0.000 C 
BRANCH  10  11
ATOM     11  C   UNL     1      43.134  18.089  12.983  1.00  0.00    -0.000 C 
BRANCH  11  12
ATOM     12  C   UNL     1      42.091  17.459  12.037  1.00  0.00    -0.000 C 
BRANCH  12  13
ATOM     13  C   UNL     1      42.092  18.017  10.600  1.00  0.00    -0.000 C 
BRANCH  13  14
ATOM     14  C   UNL     1      40.736  18.553  10.110  1.00  0.00    -0.000 C 
BRANCH  14  15
ATOM     15  C   UNL     1      39.839  19.042  11.256  1.00  0.00    -0.003 C 
ATOM     16  C   UNL     1      38.415  19.294  10.769  1.00  0.00     0.004 C 
ENDBRANCH  14  15
ENDBRANCH  13  14
ENDBRANCH  12  13
ENDBRANCH  11  12
ENDBRANCH  10  11
ENDBRANCH   1  10
TORSDOF 12
ENDMDL
MODEL 8
REMARK VINA RESULT:    -4.533      2.793      4.919
REMARK INTER + INTRA:          -9.079
REMARK INTER:                  -7.650
REMARK INTRA:                  -1.429
REMARK UNBOUND:                -1.366
REMARK SMILES CCCCCCCCCCCCCC(=O)[O-]
REMARK SMILES IDX 8 1 9 2 10 3 11 4 12 5 13 6 14 7 15 8 16 9 7 10 6 11 5 12
REMARK SMILES IDX 4 13 3 14 2 15 1 16
REMARK H PARENT
REMARK Flexibility Score: inf
ROOT
ATOM      1  C   UNL     1      43.819  20.546  13.353  1.00  0.00     0.000 C 
ENDROOT
BRANCH   1   2
ATOM      2  C   UNL     1      42.882  21.673  12.896  1.00  0.00     0.000 C 
BRANCH   2   3
ATOM      3  C   UNL     1      42.408  21.439  11.454  1.00  0.00     0.000 C 
BRANCH   3   4
ATOM      4  C   UNL     1      42.918  22.512  10.479  1.00  0.00     0.000 C 
BRANCH   4   5
ATOM      5  C   UNL     1      43.107  21.972   9.050  1.00  0.00     0.006 C 
BRANCH   5   6
ATOM      6  C   UNL     1      41.888  21.172   8.568  1.00  0.00     0.053 C 
BRANCH   6   7
ATOM      7  C   UNL     1      42.272  20.114   7.580  1.00  0.00     0.041 C 
ATOM      8  O   UNL     1      41.903  18.923   7.751  1.00  0.00    -0.550 OA
ATOM      9  O   UNL     1      43.063  20.440   6.485  1.00  0.00    -0.550 OA
ENDBRANCH   6   7
ENDBRANCH   5   6
ENDBRANCH   4   5
ENDBRANCH   3   4
ENDBRANCH   2   3
ENDBRANCH   1   2
BRANCH   1  10
ATOM     10  C   UNL     1      43.860  19.364  12.369  1.00  0.00     0.000 C 
BRANCH  10  11
ATOM     11  C   UNL     1      43.522  17.992  12.986  1.00  0.00    -0.000 C 
BRANCH  11  12
ATOM     12  C   UNL     1      42.522  17.141  12.179  1.00  0.00    -0.000 C 
BRANCH  12  13
ATOM     13  C   UNL     1      41.676  17.925  11.156  1.00  0.00    -0.000 C 
BRANCH  13  14
ATOM     14  C   UNL     1      40.302  18.390  11.668  1.00  0.00    -0.000 C 
BRANCH  14  15
ATOM     15  C   UNL     1      39.461  19.074  10.581  1.00  0.00    -0.003 C 
ATOM     16  C   UNL     1      37.973  19.008  10.914  1.00  0.00     0.004 C 
ENDBRANCH  14  15
ENDBRANCH  13  14
ENDBRANCH  12  13
ENDBRANCH  11  12
ENDBRANCH  10  11
ENDBRANCH   1  10
TORSDOF 12
ENDMDL
MODEL 9
REMARK VINA RESULT:    -4.514      2.188      5.068
REMARK INTER + INTRA:          -9.047
REMARK INTER:                  -7.381
REMARK INTRA:                  -1.666
REMARK UNBOUND:                -1.366
REMARK SMILES CCCCCCCCCCCCCC(=O)[O-]
REMARK SMILES IDX 8 1 9 2 10 3 11 4 12 5 13 6 14 7 15 8 16 9 7 10 6 11 5 12
REMARK SMILES IDX 4 13 3 14 2 15 1 16
REMARK H PARENT
REMARK Flexibility Score: inf
ROOT
ATOM      1  C   UNL     1      43.123  23.123  10.806  1.00  0.00     0.000 C 
ENDROOT
BRANCH   1   2
ATOM      2  C   UNL     1      42.853  23.056  12.316  1.00  0.00     0.000 C 
BRANCH   2   3
ATOM      3  C   UNL     1      43.239  21.680  12.881  1.00  0.00     0.000 C 
BRANCH   3   4
ATOM      4  C   UNL     1      42.047  20.940  13.510  1.00  0.00     0.000 C 
BRANCH   4   5
ATOM      5  C   UNL     1      42.084  19.425  13.243  1.00  0.00     0.006 C 
BRANCH   5   6
ATOM      6  C   UNL     1      43.435  18.971  12.673  1.00  0.00     0.053 C 
BRANCH   6   7
ATOM      7  C   UNL     1      43.460  17.497  12.406  1.00  0.00     0.041 C 
ATOM      8  O   UNL     1      42.392  16.831  12.427  1.00  0.00    -0.550 OA
ATOM      9  O   UNL     1      44.667  16.855  12.163  1.00  0.00    -0.550 OA
ENDBRANCH   6   7
ENDBRANCH   5   6
ENDBRANCH   4   5
ENDBRANCH   3   4
ENDBRANCH   2   3
ENDBRANCH   1   2
BRANCH   1  10
ATOM     10  C   UNL     1      43.023  21.751  10.118  1.00  0.00     0.000 C 
BRANCH  10  11
ATOM     11  C   UNL     1      42.314  21.761   8.748  1.00  0.00    -0.000 C 
BRANCH  11  12
ATOM     12  C   UNL     1      40.871  21.216   8.756  1.00  0.00    -0.000 C 
BRANCH  12  13
ATOM     13  C   UNL     1      40.471  20.450  10.033  1.00  0.00    -0.000 C 
BRANCH  13  14
ATOM     14  C   UNL     1      40.478  18.918   9.902  1.00  0.00    -0.000 C 
BRANCH  14  15
ATOM     15  C   UNL     1      39.507  18.232  10.873  1.00  0.00    -0.003 C 
ATOM     16  C   UNL     1      38.191  19.000  10.968  1.00  0.00     0.004 C 
ENDBRANCH  14  15
ENDBRANCH  13  14
ENDBRANCH  12  13
ENDBRANCH  11  12
ENDBRANCH  10  11
ENDBRANCH   1  10
TORSDOF 12
ENDMDL
