MODEL 1
REMARK VINA RESULT:    -4.073      0.000      0.000
REMARK INTER + INTRA:         -13.731
REMARK INTER:                 -10.741
REMARK INTRA:                  -2.990
REMARK UNBOUND:                -2.990
REMARK SMILES CCCCCCCCCCCCCCCCCCCCCCCCCCCCCC(=O)[O-]
REMARK SMILES IDX 16 1 17 2 18 3 19 4 20 5 21 6 22 7 23 8 24 9 25 10 26 11
REMARK SMILES IDX 27 12 28 13 29 14 30 15 31 16 32 17 15 18 14 19 13 20 12 21
REMARK SMILES IDX 11 22 10 23 9 24 8 25 7 26 6 27 5 28 4 29 3 30 2 31 1 32
REMARK H PARENT
REMARK Flexibility Score: inf
ROOT
ATOM      1  C   UNL     1     -11.600 -13.000  -1.762  1.00  0.00     0.000 C 
ENDROOT
BRANCH   1   2
ATOM      2  C   UNL     1     -12.069 -12.882  -0.296  1.00  0.00     0.000 C 
BRANCH   2   3
ATOM      3  C   UNL     1     -13.129 -11.790  -0.070  1.00  0.00     0.000 C 
BRANCH   3   4
ATOM      4  C   UNL     1     -13.767 -11.857   1.327  1.00  0.00     0.000 C 
BRANCH   4   5
ATOM      5  C   UNL     1     -12.923 -12.666   2.330  1.00  0.00     0.000 C 
BRANCH   5   6
ATOM      6  C   UNL     1     -13.091 -12.243   3.802  1.00  0.00     0.000 C 
BRANCH   6   7
ATOM      7  C   UNL     1     -11.911 -11.405   4.323  1.00  0.00     0.000 C 
BRANCH   7   8
ATOM      8  C   UNL     1     -12.335  -9.987   4.738  1.00  0.00     0.000 C 
BRANCH   8   9
ATOM      9  C   UNL     1     -13.765  -9.639   4.288  1.00  0.00     0.000 C 
BRANCH   9  10
ATOM     10  C   UNL     1     -14.747  -9.516   5.468  1.00  0.00     0.000 C 
BRANCH  10  11
ATOM     11  C   UNL     1     -14.245 -10.115   6.799  1.00  0.00     0.000 C 
BRANCH  11  12
ATOM     12  C   UNL     1     -14.046  -9.102   7.941  1.00  0.00     0.000 C 
BRANCH  12  13
ATOM     13  C   UNL     1     -12.565  -8.791   8.213  1.00  0.00     0.006 C 
BRANCH  13  14
ATOM     14  C   UNL     1     -11.689 -10.051   8.160  1.00  0.00     0.053 C 
BRANCH  14  15
ATOM     15  C   UNL     1     -11.342 -10.547   9.531  1.00  0.00     0.041 C 
ATOM     16  O   UNL     1     -11.893 -10.044  10.546  1.00  0.00    -0.550 OA
ATOM     17  O   UNL     1     -10.386 -11.542   9.691  1.00  0.00    -0.550 OA
ENDBRANCH  14  15
ENDBRANCH  13  14
ENDBRANCH  12  13
ENDBRANCH  11  12
ENDBRANCH  10  11
ENDBRANCH   9  10
ENDBRANCH   8   9
ENDBRANCH   7   8
ENDBRANCH   6   7
ENDBRANCH   5   6
ENDBRANCH   4   5
ENDBRANCH   3   4
ENDBRANCH   2   3
ENDBRANCH   1   2
BRANCH   1  18
ATOM     18  C   UNL     1     -10.253 -13.729  -1.888  1.00  0.00     0.000 C 
BRANCH  18  19
ATOM     19  C   UNL     1      -9.191 -12.818  -2.524  1.00  0.00     0.000 C 
BRANCH  19  20
ATOM     20  C   UNL     1      -8.105 -13.604  -3.276  1.00  0.00     0.000 C 
BRANCH  20  21
ATOM     21  C   UNL     1      -6.839 -12.773  -3.533  1.00  0.00     0.000 C 
BRANCH  21  22
ATOM     22  C   UNL     1      -5.746 -13.624  -4.197  1.00  0.00     0.000 C 
BRANCH  22  23
ATOM     23  C   UNL     1      -5.209 -13.004  -5.499  1.00  0.00     0.000 C 
BRANCH  23  24
ATOM     24  C   UNL     1      -6.062 -11.858  -6.073  1.00  0.00    -0.000 C 
BRANCH  24  25
ATOM     25  C   UNL     1      -6.850 -12.267  -7.326  1.00  0.00    -0.000 C 
BRANCH  25  26
ATOM     26  C   UNL     1      -7.621 -13.570  -7.084  1.00  0.00    -0.000 C 
BRANCH  26  27
ATOM     27  C   UNL     1      -9.075 -13.449  -7.558  1.00  0.00    -0.000 C 
BRANCH  27  28
ATOM     28  C   UNL     1      -9.988 -12.985  -6.416  1.00  0.00    -0.000 C 
BRANCH  28  29
ATOM     29  C   UNL     1     -11.447 -13.438  -6.593  1.00  0.00    -0.000 C 
BRANCH  29  30
ATOM     30  C   UNL     1     -12.084 -13.993  -5.302  1.00  0.00    -0.000 C 
BRANCH  30  31
ATOM     31  C   UNL     1     -13.401 -13.284  -4.952  1.00  0.00    -0.003 C 
ATOM     32  C   UNL     1     -13.203 -11.775  -4.842  1.00  0.00     0.004 C 
ENDBRANCH  30  31
ENDBRANCH  29  30
ENDBRANCH  28  29
ENDBRANCH  27  28
ENDBRANCH  26  27
ENDBRANCH  25  26
ENDBRANCH  24  25
ENDBRANCH  23  24
ENDBRANCH  22  23
ENDBRANCH  21  22
ENDBRANCH  20  21
ENDBRANCH  19  20
ENDBRANCH  18  19
ENDBRANCH   1  18
TORSDOF 28
ENDMDL
MODEL 2
REMARK VINA RESULT:    -4.046      1.331      2.707
REMARK INTER + INTRA:         -13.658
REMARK INTER:                 -10.704
REMARK INTRA:                  -2.955
REMARK UNBOUND:                -2.990
REMARK SMILES CCCCCCCCCCCCCCCCCCCCCCCCCCCCCC(=O)[O-]
REMARK SMILES IDX 16 1 17 2 18 3 19 4 20 5 21 6 22 7 23 8 24 9 25 10 26 11
REMARK SMILES IDX 27 12 28 13 29 14 30 15 31 16 32 17 15 18 14 19 13 20 12 21
REMARK SMILES IDX 11 22 10 23 9 24 8 25 7 26 6 27 5 28 4 29 3 30 2 31 1 32
REMARK H PARENT
REMARK Flexibility Score: inf
ROOT
ATOM      1  C   UNL     1      -8.767 -12.627  -2.357  1.00  0.00     0.000 C 
ENDROOT
BRANCH   1   2
ATOM      2  C   UNL     1      -9.929 -13.460  -1.776  1.00  0.00     0.000 C 
BRANCH   2   3
ATOM      3  C   UNL     1     -11.155 -13.546  -2.701  1.00  0.00     0.000 C 
BRANCH   3   4
ATOM      4  C   UNL     1     -12.474 -13.233  -1.976  1.00  0.00     0.000 C 
BRANCH   4   5
ATOM      5  C   UNL     1     -12.326 -13.225  -0.443  1.00  0.00     0.000 C 
BRANCH   5   6
ATOM      6  C   UNL     1     -12.643 -11.876   0.229  1.00  0.00     0.000 C 
BRANCH   6   7
ATOM      7  C   UNL     1     -13.899 -11.929   1.115  1.00  0.00     0.000 C 
BRANCH   7   8
ATOM      8  C   UNL     1     -13.574 -11.751   2.608  1.00  0.00     0.000 C 
BRANCH   8   9
ATOM      9  C   UNL     1     -14.512 -10.750   3.305  1.00  0.00     0.000 C 
BRANCH   9  10
ATOM     10  C   UNL     1     -13.808  -9.948   4.414  1.00  0.00     0.000 C 
BRANCH  10  11
ATOM     11  C   UNL     1     -12.266  -9.996   4.376  1.00  0.00     0.000 C 
BRANCH  11  12
ATOM     12  C   UNL     1     -11.598 -10.643   5.603  1.00  0.00     0.000 C 
BRANCH  12  13
ATOM     13  C   UNL     1     -12.333 -10.331   6.917  1.00  0.00     0.006 C 
BRANCH  13  14
ATOM     14  C   UNL     1     -11.920  -8.973   7.503  1.00  0.00     0.053 C 
BRANCH  14  15
ATOM     15  C   UNL     1     -12.893  -8.493   8.537  1.00  0.00     0.041 C 
ATOM     16  O   UNL     1     -12.874  -7.293   8.918  1.00  0.00    -0.550 OA
ATOM     17  O   UNL     1     -13.801  -9.379   9.105  1.00  0.00    -0.550 OA
ENDBRANCH  14  15
ENDBRANCH  13  14
ENDBRANCH  12  13
ENDBRANCH  11  12
ENDBRANCH  10  11
ENDBRANCH   9  10
ENDBRANCH   8   9
ENDBRANCH   7   8
ENDBRANCH   6   7
ENDBRANCH   5   6
ENDBRANCH   4   5
ENDBRANCH   3   4
ENDBRANCH   2   3
ENDBRANCH   1   2
BRANCH   1  18
ATOM     18  C   UNL     1      -8.005 -13.377  -3.461  1.00  0.00     0.000 C 
BRANCH  18  19
ATOM     19  C   UNL     1      -6.663 -12.693  -3.766  1.00  0.00     0.000 C 
BRANCH  19  20
ATOM     20  C   UNL     1      -5.590 -13.678  -4.256  1.00  0.00     0.000 C 
BRANCH  20  21
ATOM     21  C   UNL     1      -5.045 -13.322  -5.648  1.00  0.00     0.000 C 
BRANCH  21  22
ATOM     22  C   UNL     1      -5.753 -12.083  -6.217  1.00  0.00     0.000 C 
BRANCH  22  23
ATOM     23  C   UNL     1      -6.603 -12.395  -7.461  1.00  0.00     0.000 C 
BRANCH  23  24
ATOM     24  C   UNL     1      -7.085 -13.853  -7.570  1.00  0.00    -0.000 C 
BRANCH  24  25
ATOM     25  C   UNL     1      -8.528 -14.046  -7.086  1.00  0.00    -0.000 C 
BRANCH  25  26
ATOM     26  C   UNL     1      -9.233 -12.694  -6.919  1.00  0.00    -0.000 C 
BRANCH  26  27
ATOM     27  C   UNL     1     -10.269 -12.469  -8.028  1.00  0.00    -0.000 C 
BRANCH  27  28
ATOM     28  C   UNL     1     -11.522 -11.777  -7.476  1.00  0.00    -0.000 C 
BRANCH  28  29
ATOM     29  C   UNL     1     -11.816 -12.147  -6.013  1.00  0.00    -0.000 C 
BRANCH  29  30
ATOM     30  C   UNL     1     -12.999 -13.125  -5.848  1.00  0.00    -0.000 C 
BRANCH  30  31
ATOM     31  C   UNL     1     -14.344 -12.395  -5.726  1.00  0.00    -0.003 C 
ATOM     32  C   UNL     1     -14.349 -11.439  -4.538  1.00  0.00     0.004 C 
ENDBRANCH  30  31
ENDBRANCH  29  30
ENDBRANCH  28  29
ENDBRANCH  27  28
ENDBRANCH  26  27
ENDBRANCH  25  26
ENDBRANCH  24  25
ENDBRANCH  23  24
ENDBRANCH  22  23
ENDBRANCH  21  22
ENDBRANCH  20  21
ENDBRANCH  19  20
ENDBRANCH  18  19
ENDBRANCH   1  18
TORSDOF 28
ENDMDL
MODEL 3
REMARK VINA RESULT:    -3.942      1.104      2.611
REMARK INTER + INTRA:         -13.385
REMARK INTER:                 -10.555
REMARK INTRA:                  -2.831
REMARK UNBOUND:                -2.990
REMARK SMILES CCCCCCCCCCCCCCCCCCCCCCCCCCCCCC(=O)[O-]
REMARK SMILES IDX 16 1 17 2 18 3 19 4 20 5 21 6 22 7 23 8 24 9 25 10 26 11
REMARK SMILES IDX 27 12 28 13 29 14 30 15 31 16 32 17 15 18 14 19 13 20 12 21
REMARK SMILES IDX 11 22 10 23 9 24 8 25 7 26 6 27 5 28 4 29 3 30 2 31 1 32
REMARK H PARENT
REMARK Flexibility Score: inf
ROOT
ATOM      1  C   UNL     1      -9.531 -12.850  -2.782  1.00  0.00     0.000 C 
ENDROOT
BRANCH   1   2
ATOM      2  C   UNL     1     -10.217 -13.749  -1.732  1.00  0.00     0.000 C 
BRANCH   2   3
ATOM      3  C   UNL     1     -11.735 -13.530  -1.623  1.00  0.00     0.000 C 
BRANCH   3   4
ATOM      4  C   UNL     1     -12.204 -13.299  -0.178  1.00  0.00     0.000 C 
BRANCH   4   5
ATOM      5  C   UNL     1     -12.898 -11.938   0.015  1.00  0.00     0.000 C 
BRANCH   5   6
ATOM      6  C   UNL     1     -13.260 -11.598   1.473  1.00  0.00     0.000 C 
BRANCH   6   7
ATOM      7  C   UNL     1     -13.149 -12.810   2.415  1.00  0.00     0.000 C 
BRANCH   7   8
ATOM      8  C   UNL     1     -13.444 -12.444   3.880  1.00  0.00     0.000 C 
BRANCH   8   9
ATOM      9  C   UNL     1     -12.279 -12.787   4.824  1.00  0.00     0.000 C 
BRANCH   9  10
ATOM     10  C   UNL     1     -11.280 -11.625   4.982  1.00  0.00     0.000 C 
BRANCH  10  11
ATOM     11  C   UNL     1     -11.888 -10.216   4.823  1.00  0.00     0.000 C 
BRANCH  11  12
ATOM     12  C   UNL     1     -12.666  -9.696   6.046  1.00  0.00     0.000 C 
BRANCH  12  13
ATOM     13  C   UNL     1     -11.834  -9.718   7.339  1.00  0.00     0.006 C 
BRANCH  13  14
ATOM     14  C   UNL     1     -12.508 -10.539   8.447  1.00  0.00     0.053 C 
BRANCH  14  15
ATOM     15  C   UNL     1     -11.510 -11.317   9.251  1.00  0.00     0.041 C 
ATOM     16  O   UNL     1     -11.802 -12.459   9.693  1.00  0.00    -0.550 OA
ATOM     17  O   UNL     1     -10.268 -10.766   9.540  1.00  0.00    -0.550 OA
ENDBRANCH  14  15
ENDBRANCH  13  14
ENDBRANCH  12  13
ENDBRANCH  11  12
ENDBRANCH  10  11
ENDBRANCH   9  10
ENDBRANCH   8   9
ENDBRANCH   7   8
ENDBRANCH   6   7
ENDBRANCH   5   6
ENDBRANCH   4   5
ENDBRANCH   3   4
ENDBRANCH   2   3
ENDBRANCH   1   2
BRANCH   1  18
ATOM     18  C   UNL     1      -8.327 -13.538  -3.446  1.00  0.00     0.000 C 
BRANCH  18  19
ATOM     19  C   UNL     1      -7.067 -12.665  -3.341  1.00  0.00     0.000 C 
BRANCH  19  20
ATOM     20  C   UNL     1      -6.007 -13.020  -4.396  1.00  0.00     0.000 C 
BRANCH  20  21
ATOM     21  C   UNL     1      -5.781 -11.894  -5.417  1.00  0.00     0.000 C 
BRANCH  21  22
ATOM     22  C   UNL     1      -6.015 -12.394  -6.850  1.00  0.00     0.000 C 
BRANCH  22  23
ATOM     23  C   UNL     1      -7.287 -13.249  -6.990  1.00  0.00     0.000 C 
BRANCH  23  24
ATOM     24  C   UNL     1      -8.526 -12.491  -7.502  1.00  0.00    -0.000 C 
BRANCH  24  25
ATOM     25  C   UNL     1      -9.582 -13.417  -8.121  1.00  0.00    -0.000 C 
BRANCH  25  26
ATOM     26  C   UNL     1     -10.990 -13.035  -7.648  1.00  0.00    -0.000 C 
BRANCH  26  27
ATOM     27  C   UNL     1     -11.007 -12.744  -6.143  1.00  0.00    -0.000 C 
BRANCH  27  28
ATOM     28  C   UNL     1     -12.269 -11.963  -5.749  1.00  0.00    -0.000 C 
BRANCH  28  29
ATOM     29  C   UNL     1     -13.413 -12.873  -5.272  1.00  0.00    -0.000 C 
BRANCH  29  30
ATOM     30  C   UNL     1     -14.657 -12.100  -4.787  1.00  0.00    -0.000 C 
BRANCH  30  31
ATOM     31  C   UNL     1     -14.603 -11.797  -3.282  1.00  0.00    -0.003 C 
ATOM     32  C   UNL     1     -14.178 -10.355  -3.024  1.00  0.00     0.004 C 
ENDBRANCH  30  31
ENDBRANCH  29  30
ENDBRANCH  28  29
ENDBRANCH  27  28
ENDBRANCH  26  27
ENDBRANCH  25  26
ENDBRANCH  24  25
ENDBRANCH  23  24
ENDBRANCH  22  23
ENDBRANCH  21  22
ENDBRANCH  20  21
ENDBRANCH  19  20
ENDBRANCH  18  19
ENDBRANCH   1  18
TORSDOF 28
ENDMDL
MODEL 4
REMARK VINA RESULT:    -3.790      4.777     12.652
REMARK INTER + INTRA:         -12.983
REMARK INTER:                 -10.245
REMARK INTRA:                  -2.739
REMARK UNBOUND:                -2.990
REMARK SMILES CCCCCCCCCCCCCCCCCCCCCCCCCCCCCC(=O)[O-]
REMARK SMILES IDX 16 1 17 2 18 3 19 4 20 5 21 6 22 7 23 8 24 9 25 10 26 11
REMARK SMILES IDX 27 12 28 13 29 14 30 15 31 16 32 17 15 18 14 19 13 20 12 21
REMARK SMILES IDX 11 22 10 23 9 24 8 25 7 26 6 27 5 28 4 29 3 30 2 31 1 32
REMARK H PARENT
REMARK Flexibility Score: inf
ROOT
ATOM      1  C   UNL     1      -9.411 -12.957  -2.146  1.00  0.00     0.000 C 
ENDROOT
BRANCH   1   2
ATOM      2  C   UNL     1      -8.310 -13.451  -3.108  1.00  0.00     0.000 C 
BRANCH   2   3
ATOM      3  C   UNL     1      -7.180 -12.433  -3.335  1.00  0.00     0.000 C 
BRANCH   3   4
ATOM      4  C   UNL     1      -6.104 -12.942  -4.307  1.00  0.00     0.000 C 
BRANCH   4   5
ATOM      5  C   UNL     1      -5.724 -11.901  -5.377  1.00  0.00     0.000 C 
BRANCH   5   6
ATOM      6  C   UNL     1      -5.706 -12.437  -6.821  1.00  0.00     0.000 C 
BRANCH   6   7
ATOM      7  C   UNL     1      -7.075 -12.331  -7.516  1.00  0.00     0.000 C 
BRANCH   7   8
ATOM      8  C   UNL     1      -7.545 -13.675  -8.096  1.00  0.00     0.000 C 
BRANCH   8   9
ATOM      9  C   UNL     1      -8.984 -14.029  -7.682  1.00  0.00     0.000 C 
BRANCH   9  10
ATOM     10  C   UNL     1      -9.353 -13.484  -6.290  1.00  0.00     0.000 C 
BRANCH  10  11
ATOM     11  C   UNL     1     -10.841 -13.631  -5.905  1.00  0.00     0.000 C 
BRANCH  11  12
ATOM     12  C   UNL     1     -11.593 -12.307  -5.677  1.00  0.00     0.000 C 
BRANCH  12  13
ATOM     13  C   UNL     1     -12.668 -12.039  -6.743  1.00  0.00     0.006 C 
BRANCH  13  14
ATOM     14  C   UNL     1     -12.083 -12.013  -8.162  1.00  0.00     0.053 C 
BRANCH  14  15
ATOM     15  C   UNL     1     -11.298 -10.761  -8.418  1.00  0.00     0.041 C 
ATOM     16  O   UNL     1     -10.054 -10.820  -8.606  1.00  0.00    -0.550 OA
ATOM     17  O   UNL     1     -11.935  -9.527  -8.417  1.00  0.00    -0.550 OA
ENDBRANCH  14  15
ENDBRANCH  13  14
ENDBRANCH  12  13
ENDBRANCH  11  12
ENDBRANCH  10  11
ENDBRANCH   9  10
ENDBRANCH   8   9
ENDBRANCH   7   8
ENDBRANCH   6   7
ENDBRANCH   5   6
ENDBRANCH   4   5
ENDBRANCH   3   4
ENDBRANCH   2   3
ENDBRANCH   1   2
BRANCH   1  18
ATOM     18  C   UNL     1     -10.402 -14.070  -1.769  1.00  0.00     0.000 C 
BRANCH  18  19
ATOM     19  C   UNL     1     -11.483 -13.544  -0.811  1.00  0.00     0.000 C 
BRANCH  19  20
ATOM     20  C   UNL     1     -12.436 -12.542  -1.481  1.00  0.00     0.000 C 
BRANCH  20  21
ATOM     21  C   UNL     1     -13.317 -11.791  -0.471  1.00  0.00     0.000 C 
BRANCH  21  22
ATOM     22  C   UNL     1     -12.943 -12.163   0.971  1.00  0.00     0.000 C 
BRANCH  22  23
ATOM     23  C   UNL     1     -13.683 -11.318   2.023  1.00  0.00     0.000 C 
BRANCH  23  24
ATOM     24  C   UNL     1     -13.523 -11.803   3.475  1.00  0.00    -0.000 C 
BRANCH  24  25
ATOM     25  C   UNL     1     -12.062 -11.813   3.947  1.00  0.00    -0.000 C 
BRANCH  25  26
ATOM     26  C   UNL     1     -11.751 -10.569   4.788  1.00  0.00    -0.000 C 
BRANCH  26  27
ATOM     27  C   UNL     1     -13.033  -9.802   5.137  1.00  0.00    -0.000 C 
BRANCH  27  28
ATOM     28  C   UNL     1     -13.109  -9.519   6.644  1.00  0.00    -0.000 C 
BRANCH  28  29
ATOM     29  C   UNL     1     -11.801  -9.847   7.383  1.00  0.00    -0.000 C 
BRANCH  29  30
ATOM     30  C   UNL     1     -11.978 -10.026   8.905  1.00  0.00    -0.000 C 
BRANCH  30  31
ATOM     31  C   UNL     1     -11.333 -11.322   9.417  1.00  0.00    -0.003 C 
ATOM     32  C   UNL     1     -12.186 -11.970  10.504  1.00  0.00     0.004 C 
ENDBRANCH  30  31
ENDBRANCH  29  30
ENDBRANCH  28  29
ENDBRANCH  27  28
ENDBRANCH  26  27
ENDBRANCH  25  26
ENDBRANCH  24  25
ENDBRANCH  23  24
ENDBRANCH  22  23
ENDBRANCH  21  22
ENDBRANCH  20  21
ENDBRANCH  19  20
ENDBRANCH  18  19
ENDBRANCH   1  18
TORSDOF 28
ENDMDL
MODEL 5
REMARK VINA RESULT:    -3.760      1.398      2.280
REMARK INTER + INTRA:         -12.905
REMARK INTER:                 -10.352
REMARK INTRA:                  -2.553
REMARK UNBOUND:                -2.990
REMARK SMILES CCCCCCCCCCCCCCCCCCCCCCCCCCCCCC(=O)[O-]
REMARK SMILES IDX 16 1 17 2 18 3 19 4 20 5 21 6 22 7 23 8 24 9 25 10 26 11
REMARK SMILES IDX 27 12 28 13 29 14 30 15 31 16 32 17 15 18 14 19 13 20 12 21
REMARK SMILES IDX 11 22 10 23 9 24 8 25 7 26 6 27 5 28 4 29 3 30 2 31 1 32
REMARK H PARENT
REMARK Flexibility Score: inf
ROOT
ATOM      1  C   UNL     1     -11.828 -12.939  -0.857  1.00  0.00     0.000 C 
ENDROOT
BRANCH   1   2
ATOM      2  C   UNL     1     -12.899 -12.251  -1.731  1.00  0.00     0.000 C 
BRANCH   2   3
ATOM      3  C   UNL     1     -14.311 -12.283  -1.122  1.00  0.00     0.000 C 
BRANCH   3   4
ATOM      4  C   UNL     1     -14.546 -13.505  -0.221  1.00  0.00     0.000 C 
BRANCH   4   5
ATOM      5  C   UNL     1     -14.992 -13.122   1.203  1.00  0.00     0.000 C 
BRANCH   5   6
ATOM      6  C   UNL     1     -13.843 -12.940   2.212  1.00  0.00     0.000 C 
BRANCH   6   7
ATOM      7  C   UNL     1     -13.480 -11.463   2.448  1.00  0.00     0.000 C 
BRANCH   7   8
ATOM      8  C   UNL     1     -14.341 -10.815   3.546  1.00  0.00     0.000 C 
BRANCH   8   9
ATOM      9  C   UNL     1     -13.599  -9.700   4.301  1.00  0.00     0.000 C 
BRANCH   9  10
ATOM     10  C   UNL     1     -12.098  -9.998   4.476  1.00  0.00     0.000 C 
BRANCH  10  11
ATOM     11  C   UNL     1     -11.695 -10.526   5.869  1.00  0.00     0.000 C 
BRANCH  11  12
ATOM     12  C   UNL     1     -12.733 -10.297   6.983  1.00  0.00     0.000 C 
BRANCH  12  13
ATOM     13  C   UNL     1     -12.205  -9.402   8.117  1.00  0.00     0.006 C 
BRANCH  13  14
ATOM     14  C   UNL     1     -12.125 -10.150   9.456  1.00  0.00     0.053 C 
BRANCH  14  15
ATOM     15  C   UNL     1     -10.940 -11.066   9.512  1.00  0.00     0.041 C 
ATOM     16  O   UNL     1      -9.866 -10.682  10.046  1.00  0.00    -0.550 OA
ATOM     17  O   UNL     1     -11.012 -12.333   8.946  1.00  0.00    -0.550 OA
ENDBRANCH  14  15
ENDBRANCH  13  14
ENDBRANCH  12  13
ENDBRANCH  11  12
ENDBRANCH  10  11
ENDBRANCH   9  10
ENDBRANCH   8   9
ENDBRANCH   7   8
ENDBRANCH   6   7
ENDBRANCH   5   6
ENDBRANCH   4   5
ENDBRANCH   3   4
ENDBRANCH   2   3
ENDBRANCH   1   2
BRANCH   1  18
ATOM     18  C   UNL     1     -10.620 -13.415  -1.679  1.00  0.00     0.000 C 
BRANCH  18  19
ATOM     19  C   UNL     1     -10.961 -13.476  -3.177  1.00  0.00     0.000 C 
BRANCH  19  20
ATOM     20  C   UNL     1      -9.727 -13.716  -4.060  1.00  0.00     0.000 C 
BRANCH  20  21
ATOM     21  C   UNL     1      -8.405 -13.480  -3.313  1.00  0.00     0.000 C 
BRANCH  21  22
ATOM     22  C   UNL     1      -7.200 -13.727  -4.233  1.00  0.00     0.000 C 
BRANCH  22  23
ATOM     23  C   UNL     1      -6.145 -12.609  -4.155  1.00  0.00     0.000 C 
BRANCH  23  24
ATOM     24  C   UNL     1      -5.725 -12.016  -5.512  1.00  0.00    -0.000 C 
BRANCH  24  25
ATOM     25  C   UNL     1      -4.799 -12.944  -6.311  1.00  0.00    -0.000 C 
BRANCH  25  26
ATOM     26  C   UNL     1      -5.103 -12.858  -7.812  1.00  0.00    -0.000 C 
BRANCH  26  27
ATOM     27  C   UNL     1      -6.500 -13.406  -8.127  1.00  0.00    -0.000 C 
BRANCH  27  28
ATOM     28  C   UNL     1      -7.323 -12.386  -8.926  1.00  0.00    -0.000 C 
BRANCH  28  29
ATOM     29  C   UNL     1      -8.436 -11.729  -8.092  1.00  0.00    -0.000 C 
BRANCH  29  30
ATOM     30  C   UNL     1      -9.838 -12.318  -8.358  1.00  0.00    -0.000 C 
BRANCH  30  31
ATOM     31  C   UNL     1     -10.778 -12.146  -7.156  1.00  0.00    -0.003 C 
ATOM     32  C   UNL     1     -11.867 -13.215  -7.149  1.00  0.00     0.004 C 
ENDBRANCH  30  31
ENDBRANCH  29  30
ENDBRANCH  28  29
ENDBRANCH  27  28
ENDBRANCH  26  27
ENDBRANCH  25  26
ENDBRANCH  24  25
ENDBRANCH  23  24
ENDBRANCH  22  23
ENDBRANCH  21  22
ENDBRANCH  20  21
ENDBRANCH  19  20
ENDBRANCH  18  19
ENDBRANCH   1  18
TORSDOF 28
ENDMDL
MODEL 6
REMARK VINA RESULT:    -3.745      1.866      5.956
REMARK INTER + INTRA:         -12.865
REMARK INTER:                 -10.507
REMARK INTRA:                  -2.358
REMARK UNBOUND:                -2.990
REMARK SMILES CCCCCCCCCCCCCCCCCCCCCCCCCCCCCC(=O)[O-]
REMARK SMILES IDX 16 1 17 2 18 3 19 4 20 5 21 6 22 7 23 8 24 9 25 10 26 11
REMARK SMILES IDX 27 12 28 13 29 14 30 15 31 16 32 17 15 18 14 19 13 20 12 21
REMARK SMILES IDX 11 22 10 23 9 24 8 25 7 26 6 27 5 28 4 29 3 30 2 31 1 32
REMARK H PARENT
REMARK Flexibility Score: inf
ROOT
ATOM      1  C   UNL     1     -12.656 -11.276   3.514  1.00  0.00     0.000 C 
ENDROOT
BRANCH   1   2
ATOM      2  C   UNL     1     -12.530 -10.001   4.374  1.00  0.00     0.000 C 
BRANCH   2   3
ATOM      3  C   UNL     1     -13.805  -9.653   5.160  1.00  0.00     0.000 C 
BRANCH   3   4
ATOM      4  C   UNL     1     -13.581  -9.621   6.679  1.00  0.00     0.000 C 
BRANCH   4   5
ATOM      5  C   UNL     1     -14.814  -9.119   7.455  1.00  0.00     0.000 C 
BRANCH   5   6
ATOM      6  C   UNL     1     -14.530  -7.977   8.450  1.00  0.00     0.000 C 
BRANCH   6   7
ATOM      7  C   UNL     1     -13.053  -7.906   8.874  1.00  0.00     0.000 C 
BRANCH   7   8
ATOM      8  C   UNL     1     -12.856  -8.205  10.370  1.00  0.00     0.000 C 
BRANCH   8   9
ATOM      9  C   UNL     1     -12.541  -9.686  10.642  1.00  0.00     0.000 C 
BRANCH   9  10
ATOM     10  C   UNL     1     -11.530 -10.273   9.639  1.00  0.00     0.000 C 
BRANCH  10  11
ATOM     11  C   UNL     1     -10.443 -11.175  10.260  1.00  0.00     0.000 C 
BRANCH  11  12
ATOM     12  C   UNL     1     -10.832 -12.656  10.422  1.00  0.00     0.000 C 
BRANCH  12  13
ATOM     13  C   UNL     1     -11.887 -13.112   9.401  1.00  0.00     0.006 C 
BRANCH  13  14
ATOM     14  C   UNL     1     -11.250 -13.748   8.156  1.00  0.00     0.053 C 
BRANCH  14  15
ATOM     15  C   UNL     1     -11.700 -13.074   6.895  1.00  0.00     0.041 C 
ATOM     16  O   UNL     1     -10.870 -12.458   6.175  1.00  0.00    -0.550 OA
ATOM     17  O   UNL     1     -13.040 -13.100   6.531  1.00  0.00    -0.550 OA
ENDBRANCH  14  15
ENDBRANCH  13  14
ENDBRANCH  12  13
ENDBRANCH  11  12
ENDBRANCH  10  11
ENDBRANCH   9  10
ENDBRANCH   8   9
ENDBRANCH   7   8
ENDBRANCH   6   7
ENDBRANCH   5   6
ENDBRANCH   4   5
ENDBRANCH   3   4
ENDBRANCH   2   3
ENDBRANCH   1   2
BRANCH   1  18
ATOM     18  C   UNL     1     -14.120 -11.662   3.250  1.00  0.00     0.000 C 
BRANCH  18  19
ATOM     19  C   UNL     1     -14.373 -11.873   1.749  1.00  0.00     0.000 C 
BRANCH  19  20
ATOM     20  C   UNL     1     -13.110 -11.670   0.898  1.00  0.00     0.000 C 
BRANCH  20  21
ATOM     21  C   UNL     1     -13.374 -11.829  -0.607  1.00  0.00     0.000 C 
BRANCH  21  22
ATOM     22  C   UNL     1     -12.589 -13.018  -1.182  1.00  0.00     0.000 C 
BRANCH  22  23
ATOM     23  C   UNL     1     -12.321 -12.888  -2.692  1.00  0.00     0.000 C 
BRANCH  23  24
ATOM     24  C   UNL     1     -10.903 -13.291  -3.137  1.00  0.00    -0.000 C 
BRANCH  24  25
ATOM     25  C   UNL     1      -9.888 -13.282  -1.985  1.00  0.00    -0.000 C 
BRANCH  25  26
ATOM     26  C   UNL     1      -8.597 -12.565  -2.401  1.00  0.00    -0.000 C 
BRANCH  26  27
ATOM     27  C   UNL     1      -7.908 -13.295  -3.560  1.00  0.00    -0.000 C 
BRANCH  27  28
ATOM     28  C   UNL     1      -6.516 -12.706  -3.830  1.00  0.00    -0.000 C 
BRANCH  28  29
ATOM     29  C   UNL     1      -5.877 -13.247  -5.120  1.00  0.00    -0.000 C 
BRANCH  29  30
ATOM     30  C   UNL     1      -5.530 -12.147  -6.145  1.00  0.00    -0.000 C 
BRANCH  30  31
ATOM     31  C   UNL     1      -5.701 -12.628  -7.594  1.00  0.00    -0.003 C 
ATOM     32  C   UNL     1      -7.097 -12.310  -8.120  1.00  0.00     0.004 C 
ENDBRANCH  30  31
ENDBRANCH  29  30
ENDBRANCH  28  29
ENDBRANCH  27  28
ENDBRANCH  26  27
ENDBRANCH  25  26
ENDBRANCH  24  25
ENDBRANCH  23  24
ENDBRANCH  22  23
ENDBRANCH  21  22
ENDBRANCH  20  21
ENDBRANCH  19  20
ENDBRANCH  18  19
ENDBRANCH   1  18
TORSDOF 28
ENDMDL
MODEL 7
REMARK VINA RESULT:    -3.708      3.664     12.259
REMARK INTER + INTRA:         -12.768
REMARK INTER:                 -10.469
REMARK INTRA:                  -2.299
REMARK UNBOUND:                -2.990
REMARK SMILES CCCCCCCCCCCCCCCCCCCCCCCCCCCCCC(=O)[O-]
REMARK SMILES IDX 16 1 17 2 18 3 19 4 20 5 21 6 22 7 23 8 24 9 25 10 26 11
REMARK SMILES IDX 27 12 28 13 29 14 30 15 31 16 32 17 15 18 14 19 13 20 12 21
REMARK SMILES IDX 11 22 10 23 9 24 8 25 7 26 6 27 5 28 4 29 3 30 2 31 1 32
REMARK H PARENT
REMARK Flexibility Score: inf
ROOT
ATOM      1  C   UNL     1      -9.805 -12.995  -2.047  1.00  0.00     0.000 C 
ENDROOT
BRANCH   1   2
ATOM      2  C   UNL     1      -8.760 -13.377  -3.117  1.00  0.00     0.000 C 
BRANCH   2   3
ATOM      3  C   UNL     1      -7.524 -12.462  -3.133  1.00  0.00     0.000 C 
BRANCH   3   4
ATOM      4  C   UNL     1      -6.347 -13.062  -3.918  1.00  0.00     0.000 C 
BRANCH   4   5
ATOM      5  C   UNL     1      -5.867 -12.152  -5.063  1.00  0.00     0.000 C 
BRANCH   5   6
ATOM      6  C   UNL     1      -5.063 -12.869  -6.165  1.00  0.00     0.000 C 
BRANCH   6   7
ATOM      7  C   UNL     1      -5.757 -12.827  -7.537  1.00  0.00     0.000 C 
BRANCH   7   8
ATOM      8  C   UNL     1      -7.082 -13.608  -7.549  1.00  0.00     0.000 C 
BRANCH   8   9
ATOM      9  C   UNL     1      -8.308 -12.696  -7.723  1.00  0.00     0.000 C 
BRANCH   9  10
ATOM     10  C   UNL     1      -9.533 -13.445  -8.281  1.00  0.00     0.000 C 
BRANCH  10  11
ATOM     11  C   UNL     1     -10.751 -13.499  -7.335  1.00  0.00     0.000 C 
BRANCH  11  12
ATOM     12  C   UNL     1     -10.983 -12.233  -6.491  1.00  0.00     0.000 C 
BRANCH  12  13
ATOM     13  C   UNL     1     -11.792 -12.508  -5.212  1.00  0.00     0.006 C 
BRANCH  13  14
ATOM     14  C   UNL     1     -13.247 -12.032  -5.333  1.00  0.00     0.053 C 
BRANCH  14  15
ATOM     15  C   UNL     1     -13.895 -11.871  -3.991  1.00  0.00     0.041 C 
ATOM     16  O   UNL     1     -14.313 -12.880  -3.364  1.00  0.00    -0.550 OA
ATOM     17  O   UNL     1     -14.067 -10.604  -3.448  1.00  0.00    -0.550 OA
ENDBRANCH  14  15
ENDBRANCH  13  14
ENDBRANCH  12  13
ENDBRANCH  11  12
ENDBRANCH  10  11
ENDBRANCH   9  10
ENDBRANCH   8   9
ENDBRANCH   7   8
ENDBRANCH   6   7
ENDBRANCH   5   6
ENDBRANCH   4   5
ENDBRANCH   3   4
ENDBRANCH   2   3
ENDBRANCH   1   2
BRANCH   1  18
ATOM     18  C   UNL     1     -10.880 -14.077  -1.865  1.00  0.00     0.000 C 
BRANCH  18  19
ATOM     19  C   UNL     1     -11.797 -13.750  -0.676  1.00  0.00     0.000 C 
BRANCH  19  20
ATOM     20  C   UNL     1     -12.130 -12.253  -0.575  1.00  0.00     0.000 C 
BRANCH  20  21
ATOM     21  C   UNL     1     -13.597 -11.993  -0.201  1.00  0.00     0.000 C 
BRANCH  21  22
ATOM     22  C   UNL     1     -13.947 -12.646   1.145  1.00  0.00     0.000 C 
BRANCH  22  23
ATOM     23  C   UNL     1     -14.068 -11.630   2.294  1.00  0.00     0.000 C 
BRANCH  23  24
ATOM     24  C   UNL     1     -12.791 -11.444   3.133  1.00  0.00    -0.000 C 
BRANCH  24  25
ATOM     25  C   UNL     1     -12.836 -10.194   4.023  1.00  0.00    -0.000 C 
BRANCH  25  26
ATOM     26  C   UNL     1     -11.533 -10.043   4.818  1.00  0.00    -0.000 C 
BRANCH  26  27
ATOM     27  C   UNL     1     -11.769 -10.264   6.317  1.00  0.00    -0.000 C 
BRANCH  27  28
ATOM     28  C   UNL     1     -13.044  -9.547   6.783  1.00  0.00    -0.000 C 
BRANCH  28  29
ATOM     29  C   UNL     1     -13.182  -9.504   8.314  1.00  0.00    -0.000 C 
BRANCH  29  30
ATOM     30  C   UNL     1     -14.136  -8.401   8.818  1.00  0.00    -0.000 C 
BRANCH  30  31
ATOM     31  C   UNL     1     -13.379  -7.175   9.348  1.00  0.00    -0.003 C 
ATOM     32  C   UNL     1     -12.848  -7.420  10.757  1.00  0.00     0.004 C 
ENDBRANCH  30  31
ENDBRANCH  29  30
ENDBRANCH  28  29
ENDBRANCH  27  28
ENDBRANCH  26  27
ENDBRANCH  25  26
ENDBRANCH  24  25
ENDBRANCH  23  24
ENDBRANCH  22  23
ENDBRANCH  21  22
ENDBRANCH  20  21
ENDBRANCH  19  20
ENDBRANCH  18  19
ENDBRANCH   1  18
TORSDOF 28
ENDMDL
MODEL 8
REMARK VINA RESULT:    -3.574      3.453     11.333
REMARK INTER + INTRA:         -12.414
REMARK INTER:                  -9.449
REMARK INTRA:                  -2.965
REMARK UNBOUND:                -2.990
REMARK SMILES CCCCCCCCCCCCCCCCCCCCCCCCCCCCCC(=O)[O-]
REMARK SMILES IDX 16 1 17 2 18 3 19 4 20 5 21 6 22 7 23 8 24 9 25 10 26 11
REMARK SMILES IDX 27 12 28 13 29 14 30 15 31 16 32 17 15 18 14 19 13 20 12 21
REMARK SMILES IDX 11 22 10 23 9 24 8 25 7 26 6 27 5 28 4 29 3 30 2 31 1 32
REMARK H PARENT
REMARK Flexibility Score: inf
ROOT
ATOM      1  C   UNL     1      -7.530 -14.054  -3.898  1.00  0.00     0.000 C 
ENDROOT
BRANCH   1   2
ATOM      2  C   UNL     1      -6.666 -12.775  -3.910  1.00  0.00     0.000 C 
BRANCH   2   3
ATOM      3  C   UNL     1      -5.563 -12.781  -4.981  1.00  0.00     0.000 C 
BRANCH   3   4
ATOM      4  C   UNL     1      -5.901 -11.895  -6.191  1.00  0.00     0.000 C 
BRANCH   4   5
ATOM      5  C   UNL     1      -6.456 -12.697  -7.383  1.00  0.00     0.000 C 
BRANCH   5   6
ATOM      6  C   UNL     1      -7.402 -11.908  -8.308  1.00  0.00     0.000 C 
BRANCH   6   7
ATOM      7  C   UNL     1      -8.876 -11.997  -7.875  1.00  0.00     0.000 C 
BRANCH   7   8
ATOM      8  C   UNL     1      -9.299 -13.433  -7.524  1.00  0.00     0.000 C 
BRANCH   8   9
ATOM      9  C   UNL     1     -10.788 -13.538  -7.150  1.00  0.00     0.000 C 
BRANCH   9  10
ATOM     10  C   UNL     1     -11.588 -12.279  -7.532  1.00  0.00     0.000 C 
BRANCH  10  11
ATOM     11  C   UNL     1     -12.883 -12.057  -6.722  1.00  0.00     0.000 C 
BRANCH  11  12
ATOM     12  C   UNL     1     -13.456 -13.315  -6.044  1.00  0.00     0.000 C 
BRANCH  12  13
ATOM     13  C   UNL     1     -14.651 -13.007  -5.126  1.00  0.00     0.006 C 
BRANCH  13  14
ATOM     14  C   UNL     1     -14.651 -11.550  -4.644  1.00  0.00     0.053 C 
BRANCH  14  15
ATOM     15  C   UNL     1     -14.494 -11.454  -3.157  1.00  0.00     0.041 C 
ATOM     16  O   UNL     1     -14.005 -10.417  -2.636  1.00  0.00    -0.550 OA
ATOM     17  O   UNL     1     -14.857 -12.523  -2.348  1.00  0.00    -0.550 OA
ENDBRANCH  14  15
ENDBRANCH  13  14
ENDBRANCH  12  13
ENDBRANCH  11  12
ENDBRANCH  10  11
ENDBRANCH   9  10
ENDBRANCH   8   9
ENDBRANCH   7   8
ENDBRANCH   6   7
ENDBRANCH   5   6
ENDBRANCH   4   5
ENDBRANCH   3   4
ENDBRANCH   2   3
ENDBRANCH   1   2
BRANCH   1  18
ATOM     18  C   UNL     1      -8.765 -13.918  -2.992  1.00  0.00     0.000 C 
BRANCH  18  19
ATOM     19  C   UNL     1      -9.942 -13.292  -3.756  1.00  0.00     0.000 C 
BRANCH  19  20
ATOM     20  C   UNL     1     -11.308 -13.784  -3.251  1.00  0.00     0.000 C 
BRANCH  20  21
ATOM     21  C   UNL     1     -11.338 -14.003  -1.731  1.00  0.00     0.000 C 
BRANCH  21  22
ATOM     22  C   UNL     1     -11.547 -12.676  -0.986  1.00  0.00     0.000 C 
BRANCH  22  23
ATOM     23  C   UNL     1     -12.465 -12.813   0.241  1.00  0.00     0.000 C 
BRANCH  23  24
ATOM     24  C   UNL     1     -13.291 -11.558   0.577  1.00  0.00    -0.000 C 
BRANCH  24  25
ATOM     25  C   UNL     1     -14.139 -11.720   1.846  1.00  0.00    -0.000 C 
BRANCH  25  26
ATOM     26  C   UNL     1     -13.476 -11.020   3.039  1.00  0.00    -0.000 C 
BRANCH  26  27
ATOM     27  C   UNL     1     -14.526 -10.492   4.024  1.00  0.00    -0.000 C 
BRANCH  27  28
ATOM     28  C   UNL     1     -13.869 -10.031   5.332  1.00  0.00    -0.000 C 
BRANCH  28  29
ATOM     29  C   UNL     1     -12.357 -10.311   5.374  1.00  0.00    -0.000 C 
BRANCH  29  30
ATOM     30  C   UNL     1     -11.634  -9.627   6.554  1.00  0.00    -0.000 C 
BRANCH  30  31
ATOM     31  C   UNL     1     -12.165 -10.101   7.915  1.00  0.00    -0.003 C 
ATOM     32  C   UNL     1     -12.839  -8.962   8.672  1.00  0.00     0.004 C 
ENDBRANCH  30  31
ENDBRANCH  29  30
ENDBRANCH  28  29
ENDBRANCH  27  28
ENDBRANCH  26  27
ENDBRANCH  25  26
ENDBRANCH  24  25
ENDBRANCH  23  24
ENDBRANCH  22  23
ENDBRANCH  21  22
ENDBRANCH  20  21
ENDBRANCH  19  20
ENDBRANCH  18  19
ENDBRANCH   1  18
TORSDOF 28
ENDMDL
MODEL 9
REMARK VINA RESULT:    -3.551      3.915     12.723
REMARK INTER + INTRA:         -12.355
REMARK INTER:                  -9.362
REMARK INTRA:                  -2.993
REMARK UNBOUND:                -2.990
REMARK SMILES CCCCCCCCCCCCCCCCCCCCCCCCCCCCCC(=O)[O-]
REMARK SMILES IDX 16 1 17 2 18 3 19 4 20 5 21 6 22 7 23 8 24 9 25 10 26 11
REMARK SMILES IDX 27 12 28 13 29 14 30 15 31 16 32 17 15 18 14 19 13 20 12 21
REMARK SMILES IDX 11 22 10 23 9 24 8 25 7 26 6 27 5 28 4 29 3 30 2 31 1 32
REMARK H PARENT
REMARK Flexibility Score: inf
ROOT
ATOM      1  C   UNL     1     -13.101 -11.501   0.876  1.00  0.00     0.000 C 
ENDROOT
BRANCH   1   2
ATOM      2  C   UNL     1     -12.690 -12.323  -0.364  1.00  0.00     0.000 C 
BRANCH   2   3
ATOM      3  C   UNL     1     -13.873 -12.739  -1.254  1.00  0.00     0.000 C 
BRANCH   3   4
ATOM      4  C   UNL     1     -14.033 -11.843  -2.491  1.00  0.00     0.000 C 
BRANCH   4   5
ATOM      5  C   UNL     1     -14.206 -12.647  -3.794  1.00  0.00     0.000 C 
BRANCH   5   6
ATOM      6  C   UNL     1     -12.983 -13.493  -4.197  1.00  0.00     0.000 C 
BRANCH   6   7
ATOM      7  C   UNL     1     -11.770 -12.638  -4.603  1.00  0.00     0.000 C 
BRANCH   7   8
ATOM      8  C   UNL     1     -11.961 -11.959  -5.970  1.00  0.00     0.000 C 
BRANCH   8   9
ATOM      9  C   UNL     1     -10.929 -12.424  -7.012  1.00  0.00     0.000 C 
BRANCH   9  10
ATOM     10  C   UNL     1      -9.689 -13.075  -6.372  1.00  0.00     0.000 C 
BRANCH  10  11
ATOM     11  C   UNL     1      -8.910 -14.040  -7.291  1.00  0.00     0.000 C 
BRANCH  11  12
ATOM     12  C   UNL     1      -7.431 -13.680  -7.518  1.00  0.00     0.000 C 
BRANCH  12  13
ATOM     13  C   UNL     1      -7.019 -12.373  -6.820  1.00  0.00     0.006 C 
BRANCH  13  14
ATOM     14  C   UNL     1      -5.714 -12.526  -6.026  1.00  0.00     0.053 C 
BRANCH  14  15
ATOM     15  C   UNL     1      -5.972 -12.803  -4.576  1.00  0.00     0.041 C 
ATOM     16  O   UNL     1      -5.537 -13.858  -4.044  1.00  0.00    -0.550 OA
ATOM     17  O   UNL     1      -6.723 -11.912  -3.819  1.00  0.00    -0.550 OA
ENDBRANCH  14  15
ENDBRANCH  13  14
ENDBRANCH  12  13
ENDBRANCH  11  12
ENDBRANCH  10  11
ENDBRANCH   9  10
ENDBRANCH   8   9
ENDBRANCH   7   8
ENDBRANCH   6   7
ENDBRANCH   5   6
ENDBRANCH   4   5
ENDBRANCH   3   4
ENDBRANCH   2   3
ENDBRANCH   1   2
BRANCH   1  18
ATOM     18  C   UNL     1     -14.224 -12.176   1.680  1.00  0.00     0.000 C 
BRANCH  18  19
ATOM     19  C   UNL     1     -14.338 -11.567   3.086  1.00  0.00     0.000 C 
BRANCH  19  20
ATOM     20  C   UNL     1     -13.012 -10.972   3.587  1.00  0.00     0.000 C 
BRANCH  20  21
ATOM     21  C   UNL     1     -13.200  -9.643   4.333  1.00  0.00     0.000 C 
BRANCH  21  22
ATOM     22  C   UNL     1     -12.983  -9.822   5.843  1.00  0.00     0.000 C 
BRANCH  22  23
ATOM     23  C   UNL     1     -14.249  -9.535   6.671  1.00  0.00     0.000 C 
BRANCH  23  24
ATOM     24  C   UNL     1     -14.010  -8.743   7.969  1.00  0.00    -0.000 C 
BRANCH  24  25
ATOM     25  C   UNL     1     -12.591  -8.922   8.528  1.00  0.00    -0.000 C 
BRANCH  25  26
ATOM     26  C   UNL     1     -12.556 -10.038   9.580  1.00  0.00    -0.000 C 
BRANCH  26  27
ATOM     27  C   UNL     1     -11.190 -10.736   9.600  1.00  0.00    -0.000 C 
BRANCH  27  28
ATOM     28  C   UNL     1     -11.346 -12.251   9.410  1.00  0.00    -0.000 C 
BRANCH  28  29
ATOM     29  C   UNL     1     -12.451 -12.619   8.406  1.00  0.00    -0.000 C 
BRANCH  29  30
ATOM     30  C   UNL     1     -11.913 -13.151   7.061  1.00  0.00    -0.000 C 
BRANCH  30  31
ATOM     31  C   UNL     1     -13.042 -13.498   6.080  1.00  0.00    -0.003 C 
ATOM     32  C   UNL     1     -14.412 -13.234   6.698  1.00  0.00     0.004 C 
ENDBRANCH  30  31
ENDBRANCH  29  30
ENDBRANCH  28  29
ENDBRANCH  27  28
ENDBRANCH  26  27
ENDBRANCH  25  26
ENDBRANCH  24  25
ENDBRANCH  23  24
ENDBRANCH  22  23
ENDBRANCH  21  22
ENDBRANCH  20  21
ENDBRANCH  19  20
ENDBRANCH  18  19
ENDBRANCH   1  18
TORSDOF 28
ENDMDL
