MODEL 1
REMARK VINA RESULT:    -4.264      0.000      0.000
REMARK INTER + INTRA:          -5.926
REMARK INTER:                  -5.510
REMARK INTRA:                  -0.416
REMARK UNBOUND:                -0.416
REMARK SMILES CO[C@@]1(CO)O[C@@H](CO)[C@@H](O)[C@H]1O
REMARK SMILES IDX 3 1 12 2 10 3 7 4 6 5 2 6 1 7 4 8 5 9 13 11 11 13 8 15 9 16
REMARK H PARENT 5 10 13 12 11 14 9 17
REMARK Flexibility Score: inf
ROOT
ATOM      1  C   UNL     1      16.323   6.488  41.222  1.00  0.00     0.221 C 
ATOM      2  C   UNL     1      16.458   7.784  40.395  1.00  0.00     0.207 C 
ATOM      3  C   UNL     1      16.295   8.860  41.440  1.00  0.00     0.180 C 
ATOM      4  C   UNL     1      16.817   8.183  42.711  1.00  0.00     0.179 C 
ATOM      5  O   UNL     1      16.759   6.781  42.537  1.00  0.00    -0.337 OA
ENDROOT
BRANCH   1   6
ATOM      6  O   UNL     1      17.164   5.448  40.724  1.00  0.00    -0.349 OA
ATOM      7  C   UNL     1      16.538   4.177  40.684  1.00  0.00     0.198 C 
ENDBRANCH   1   6
BRANCH   1   8
ATOM      8  C   UNL     1      14.840   6.035  41.329  1.00  0.00     0.224 C 
BRANCH   8   9
ATOM      9  O   UNL     1      14.099   6.503  40.234  1.00  0.00    -0.391 OA
ATOM     10  H   UNL     1      14.034   7.488  40.327  1.00  0.00     0.210 HD
ENDBRANCH   8   9
ENDBRANCH   1   8
BRANCH   2  11
ATOM     11  O   UNL     1      17.737   7.856  39.811  1.00  0.00    -0.385 OA
ATOM     12  H   UNL     1      18.371   8.104  40.534  1.00  0.00     0.211 HD
ENDBRANCH   2  11
BRANCH   3  13
ATOM     13  O   UNL     1      16.992  10.036  41.112  1.00  0.00    -0.387 OA
ATOM     14  H   UNL     1      16.395  10.793  41.347  1.00  0.00     0.211 HD
ENDBRANCH   3  13
BRANCH   4  15
ATOM     15  C   UNL     1      18.259   8.572  43.088  1.00  0.00     0.191 C 
BRANCH  15  16
ATOM     16  O   UNL     1      19.159   8.206  42.075  1.00  0.00    -0.394 OA
ATOM     17  H   UNL     1      19.875   7.673  42.511  1.00  0.00     0.210 HD
ENDBRANCH  15  16
ENDBRANCH   4  15
TORSDOF 7
ENDMDL
MODEL 2
REMARK VINA RESULT:    -4.252      1.280      4.072
REMARK INTER + INTRA:          -5.910
REMARK INTER:                  -5.421
REMARK INTRA:                  -0.489
REMARK UNBOUND:                -0.416
REMARK SMILES CO[C@@]1(CO)O[C@@H](CO)[C@@H](O)[C@H]1O
REMARK SMILES IDX 3 1 12 2 10 3 7 4 6 5 2 6 1 7 4 8 5 9 13 11 11 13 8 15 9 16
REMARK H PARENT 5 10 13 12 11 14 9 17
REMARK Flexibility Score: inf
ROOT
ATOM      1  C   UNL     1      16.861   8.833  42.013  1.00  0.00     0.221 C 
ATOM      2  C   UNL     1      17.844   7.860  41.328  1.00  0.00     0.207 C 
ATOM      3  C   UNL     1      17.526   6.545  41.996  1.00  0.00     0.180 C 
ATOM      4  C   UNL     1      16.048   6.700  42.367  1.00  0.00     0.179 C 
ATOM      5  O   UNL     1      15.731   8.077  42.410  1.00  0.00    -0.337 OA
ENDROOT
BRANCH   1   6
ATOM      6  O   UNL     1      16.397   9.841  41.116  1.00  0.00    -0.349 OA
ATOM      7  C   UNL     1      15.568  10.814  41.728  1.00  0.00     0.198 C 
ENDBRANCH   1   6
BRANCH   1   8
ATOM      8  C   UNL     1      17.472   9.443  43.305  1.00  0.00     0.224 C 
BRANCH   8   9
ATOM      9  O   UNL     1      18.860   9.600  43.170  1.00  0.00    -0.391 OA
ATOM     10  H   UNL     1      19.225   9.756  44.078  1.00  0.00     0.210 HD
ENDBRANCH   8   9
ENDBRANCH   1   8
BRANCH   2  11
ATOM     11  O   UNL     1      17.575   7.788  39.948  1.00  0.00    -0.385 OA
ATOM     12  H   UNL     1      18.418   7.510  39.504  1.00  0.00     0.211 HD
ENDBRANCH   2  11
BRANCH   3  13
ATOM     13  O   UNL     1      17.776   5.444  41.159  1.00  0.00    -0.387 OA
ATOM     14  H   UNL     1      18.328   5.781  40.407  1.00  0.00     0.211 HD
ENDBRANCH   3  13
BRANCH   4  15
ATOM     15  C   UNL     1      15.076   6.004  41.395  1.00  0.00     0.191 C 
BRANCH  15  16
ATOM     16  O   UNL     1      15.117   6.604  40.127  1.00  0.00    -0.394 OA
ATOM     17  H   UNL     1      15.955   7.134  40.090  1.00  0.00     0.210 HD
ENDBRANCH  15  16
ENDBRANCH   4  15
TORSDOF 7
ENDMDL
MODEL 3
REMARK VINA RESULT:    -4.198      1.641      2.848
REMARK INTER + INTRA:          -5.841
REMARK INTER:                  -5.321
REMARK INTRA:                  -0.520
REMARK UNBOUND:                -0.416
REMARK SMILES CO[C@@]1(CO)O[C@@H](CO)[C@@H](O)[C@H]1O
REMARK SMILES IDX 3 1 12 2 10 3 7 4 6 5 2 6 1 7 4 8 5 9 13 11 11 13 8 15 9 16
REMARK H PARENT 5 10 13 12 11 14 9 17
REMARK Flexibility Score: inf
ROOT
ATOM      1  C   UNL     1      17.196   6.926  42.581  1.00  0.00     0.221 C 
ATOM      2  C   UNL     1      18.129   7.551  41.523  1.00  0.00     0.207 C 
ATOM      3  C   UNL     1      17.156   8.153  40.538  1.00  0.00     0.180 C 
ATOM      4  C   UNL     1      15.942   8.477  41.414  1.00  0.00     0.179 C 
ATOM      5  O   UNL     1      15.998   7.682  42.582  1.00  0.00    -0.337 OA
ENDROOT
BRANCH   1   6
ATOM      6  O   UNL     1      17.747   7.013  43.894  1.00  0.00    -0.349 OA
ATOM      7  C   UNL     1      16.830   7.479  44.869  1.00  0.00     0.198 C 
ENDBRANCH   1   6
BRANCH   1   8
ATOM      8  C   UNL     1      16.809   5.468  42.207  1.00  0.00     0.224 C 
BRANCH   8   9
ATOM      9  O   UNL     1      17.781   4.897  41.371  1.00  0.00    -0.391 OA
ATOM     10  H   UNL     1      18.099   4.072  41.818  1.00  0.00     0.210 HD
ENDBRANCH   8   9
ENDBRANCH   1   8
BRANCH   2  11
ATOM     11  O   UNL     1      18.921   8.558  42.107  1.00  0.00    -0.385 OA
ATOM     12  H   UNL     1      19.723   8.665  41.530  1.00  0.00     0.211 HD
ENDBRANCH   2  11
BRANCH   3  13
ATOM     13  O   UNL     1      17.683   9.279  39.882  1.00  0.00    -0.387 OA
ATOM     14  H   UNL     1      17.687  10.016  40.546  1.00  0.00     0.211 HD
ENDBRANCH   3  13
BRANCH   4  15
ATOM     15  C   UNL     1      15.841   9.956  41.832  1.00  0.00     0.191 C 
BRANCH  15  16
ATOM     16  O   UNL     1      16.943  10.334  42.615  1.00  0.00    -0.394 OA
ATOM     17  H   UNL     1      16.675  11.155  43.105  1.00  0.00     0.210 HD
ENDBRANCH  15  16
ENDBRANCH   4  15
TORSDOF 7
ENDMDL
MODEL 4
REMARK VINA RESULT:    -4.173      9.069     11.487
REMARK INTER + INTRA:          -5.809
REMARK INTER:                  -5.284
REMARK INTRA:                  -0.524
REMARK UNBOUND:                -0.416
REMARK SMILES CO[C@@]1(CO)O[C@@H](CO)[C@@H](O)[C@H]1O
REMARK SMILES IDX 3 1 12 2 10 3 7 4 6 5 2 6 1 7 4 8 5 9 13 11 11 13 8 15 9 16
REMARK H PARENT 5 10 13 12 11 14 9 17
REMARK Flexibility Score: inf
ROOT
ATOM      1  C   UNL     1       9.996  -0.146  41.417  1.00  0.00     0.221 C 
ATOM      2  C   UNL     1       8.768  -0.959  41.878  1.00  0.00     0.207 C 
ATOM      3  C   UNL     1       8.006  -1.165  40.592  1.00  0.00     0.180 C 
ATOM      4  C   UNL     1       9.114  -1.153  39.534  1.00  0.00     0.179 C 
ATOM      5  O   UNL     1      10.245  -0.492  40.066  1.00  0.00    -0.337 OA
ENDROOT
BRANCH   1   6
ATOM      6  O   UNL     1      11.167  -0.484  42.159  1.00  0.00    -0.349 OA
ATOM      7  C   UNL     1      12.365  -0.395  41.406  1.00  0.00     0.198 C 
ENDBRANCH   1   6
BRANCH   1   8
ATOM      8  C   UNL     1       9.709   1.381  41.446  1.00  0.00     0.224 C 
BRANCH   8   9
ATOM      9  O   UNL     1      10.031   1.921  42.700  1.00  0.00    -0.391 OA
ATOM     10  H   UNL     1      10.829   1.435  43.030  1.00  0.00     0.210 HD
ENDBRANCH   8   9
ENDBRANCH   1   8
BRANCH   2  11
ATOM     11  O   UNL     1       9.177  -2.197  42.410  1.00  0.00    -0.385 OA
ATOM     12  H   UNL     1       8.596  -2.379  43.195  1.00  0.00     0.211 HD
ENDBRANCH   2  11
BRANCH   3  13
ATOM     13  O   UNL     1       7.257  -2.354  40.596  1.00  0.00    -0.387 OA
ATOM     14  H   UNL     1       6.443  -2.176  40.058  1.00  0.00     0.211 HD
ENDBRANCH   3  13
BRANCH   4  15
ATOM     15  C   UNL     1       9.546  -2.553  39.055  1.00  0.00     0.191 C 
BRANCH  15  16
ATOM     16  O   UNL     1      10.176  -3.265  40.086  1.00  0.00    -0.394 OA
ATOM     17  H   UNL     1       9.507  -3.910  40.436  1.00  0.00     0.210 HD
ENDBRANCH  15  16
ENDBRANCH   4  15
TORSDOF 7
ENDMDL
MODEL 5
REMARK VINA RESULT:    -4.112      1.496      3.905
REMARK INTER + INTRA:          -5.729
REMARK INTER:                  -5.265
REMARK INTRA:                  -0.464
REMARK UNBOUND:                -0.416
REMARK SMILES CO[C@@]1(CO)O[C@@H](CO)[C@@H](O)[C@H]1O
REMARK SMILES IDX 3 1 12 2 10 3 7 4 6 5 2 6 1 7 4 8 5 9 13 11 11 13 8 15 9 16
REMARK H PARENT 5 10 13 12 11 14 9 17
REMARK Flexibility Score: inf
ROOT
ATOM      1  C   UNL     1      16.661   7.814  41.326  1.00  0.00     0.221 C 
ATOM      2  C   UNL     1      16.215   6.693  40.364  1.00  0.00     0.207 C 
ATOM      3  C   UNL     1      16.863   5.469  40.962  1.00  0.00     0.180 C 
ATOM      4  C   UNL     1      16.939   5.817  42.452  1.00  0.00     0.179 C 
ATOM      5  O   UNL     1      16.866   7.221  42.596  1.00  0.00    -0.337 OA
ENDROOT
BRANCH   1   6
ATOM      6  O   UNL     1      15.651   8.810  41.487  1.00  0.00    -0.349 OA
ATOM      7  C   UNL     1      16.163  10.106  41.744  1.00  0.00     0.198 C 
ENDBRANCH   1   6
BRANCH   1   8
ATOM      8  C   UNL     1      18.020   8.430  40.891  1.00  0.00     0.224 C 
BRANCH   8   9
ATOM      9  O   UNL     1      18.151   8.402  39.494  1.00  0.00    -0.391 OA
ATOM     10  H   UNL     1      19.117   8.309  39.295  1.00  0.00     0.210 HD
ENDBRANCH   8   9
ENDBRANCH   1   8
BRANCH   2  11
ATOM     11  O   UNL     1      14.813   6.565  40.382  1.00  0.00    -0.385 OA
ATOM     12  H   UNL     1      14.443   7.391  39.973  1.00  0.00     0.211 HD
ENDBRANCH   2  11
BRANCH   3  13
ATOM     13  O   UNL     1      16.134   4.295  40.703  1.00  0.00    -0.387 OA
ATOM     14  H   UNL     1      15.615   4.462  39.875  1.00  0.00     0.211 HD
ENDBRANCH   3  13
BRANCH   4  15
ATOM     15  C   UNL     1      15.829   5.178  43.308  1.00  0.00     0.191 C 
BRANCH  15  16
ATOM     16  O   UNL     1      14.575   5.723  42.994  1.00  0.00    -0.394 OA
ATOM     17  H   UNL     1      14.557   5.847  42.009  1.00  0.00     0.210 HD
ENDBRANCH  15  16
ENDBRANCH   4  15
TORSDOF 7
ENDMDL
MODEL 6
REMARK VINA RESULT:    -3.995      9.290     11.293
REMARK INTER + INTRA:          -5.579
REMARK INTER:                  -5.044
REMARK INTRA:                  -0.535
REMARK UNBOUND:                -0.416
REMARK SMILES CO[C@@]1(CO)O[C@@H](CO)[C@@H](O)[C@H]1O
REMARK SMILES IDX 3 1 12 2 10 3 7 4 6 5 2 6 1 7 4 8 5 9 13 11 11 13 8 15 9 16
REMARK H PARENT 5 10 13 12 11 14 9 17
REMARK Flexibility Score: inf
ROOT
ATOM      1  C   UNL     1       9.217   0.547  41.027  1.00  0.00     0.221 C 
ATOM      2  C   UNL     1       9.434  -0.181  42.370  1.00  0.00     0.207 C 
ATOM      3  C   UNL     1       8.449  -1.321  42.290  1.00  0.00     0.180 C 
ATOM      4  C   UNL     1       8.348  -1.579  40.784  1.00  0.00     0.179 C 
ATOM      5  O   UNL     1       8.769  -0.419  40.094  1.00  0.00    -0.337 OA
ENDROOT
BRANCH   1   6
ATOM      6  O   UNL     1      10.433   1.092  40.515  1.00  0.00    -0.349 OA
ATOM      7  C   UNL     1      10.573   0.954  39.111  1.00  0.00     0.198 C 
ENDBRANCH   1   6
BRANCH   1   8
ATOM      8  C   UNL     1       8.100   1.622  41.137  1.00  0.00     0.224 C 
BRANCH   8   9
ATOM      9  O   UNL     1       8.246   2.370  42.315  1.00  0.00    -0.391 OA
ATOM     10  H   UNL     1       8.282   3.324  42.050  1.00  0.00     0.210 HD
ENDBRANCH   8   9
ENDBRANCH   1   8
BRANCH   2  11
ATOM     11  O   UNL     1      10.750  -0.674  42.450  1.00  0.00    -0.385 OA
ATOM     12  H   UNL     1      10.912  -1.200  41.624  1.00  0.00     0.211 HD
ENDBRANCH   2  11
BRANCH   3  13
ATOM     13  O   UNL     1       8.871  -2.447  43.019  1.00  0.00    -0.387 OA
ATOM     14  H   UNL     1       8.380  -3.224  42.646  1.00  0.00     0.211 HD
ENDBRANCH   3  13
BRANCH   4  15
ATOM     15  C   UNL     1       9.187  -2.774  40.290  1.00  0.00     0.191 C 
BRANCH  15  16
ATOM     16  O   UNL     1      10.544  -2.431  40.197  1.00  0.00    -0.394 OA
ATOM     17  H   UNL     1      10.946  -3.044  39.526  1.00  0.00     0.210 HD
ENDBRANCH  15  16
ENDBRANCH   4  15
TORSDOF 7
ENDMDL
MODEL 7
REMARK VINA RESULT:    -3.991      1.707      3.193
REMARK INTER + INTRA:          -5.573
REMARK INTER:                  -5.188
REMARK INTRA:                  -0.386
REMARK UNBOUND:                -0.416
REMARK SMILES CO[C@@]1(CO)O[C@@H](CO)[C@@H](O)[C@H]1O
REMARK SMILES IDX 3 1 12 2 10 3 7 4 6 5 2 6 1 7 4 8 5 9 13 11 11 13 8 15 9 16
REMARK H PARENT 5 10 13 12 11 14 9 17
REMARK Flexibility Score: inf
ROOT
ATOM      1  C   UNL     1      14.712   6.351  41.757  1.00  0.00     0.221 C 
ATOM      2  C   UNL     1      16.000   5.821  42.422  1.00  0.00     0.207 C 
ATOM      3  C   UNL     1      16.985   5.817  41.279  1.00  0.00     0.180 C 
ATOM      4  C   UNL     1      16.471   6.948  40.383  1.00  0.00     0.179 C 
ATOM      5  O   UNL     1      15.108   7.180  40.679  1.00  0.00    -0.337 OA
ENDROOT
BRANCH   1   6
ATOM      6  O   UNL     1      13.946   7.160  42.648  1.00  0.00    -0.349 OA
ATOM      7  C   UNL     1      13.575   8.415  42.105  1.00  0.00     0.198 C 
ENDBRANCH   1   6
BRANCH   1   8
ATOM      8  C   UNL     1      13.869   5.195  41.151  1.00  0.00     0.224 C 
BRANCH   8   9
ATOM      9  O   UNL     1      13.181   5.630  40.008  1.00  0.00    -0.391 OA
ATOM     10  H   UNL     1      12.654   4.860  39.675  1.00  0.00     0.210 HD
ENDBRANCH   8   9
ENDBRANCH   1   8
BRANCH   2  11
ATOM     11  O   UNL     1      16.424   6.704  43.433  1.00  0.00    -0.385 OA
ATOM     12  H   UNL     1      16.770   7.517  42.980  1.00  0.00     0.211 HD
ENDBRANCH   2  11
BRANCH   3  13
ATOM     13  O   UNL     1      18.309   6.009  41.712  1.00  0.00    -0.387 OA
ATOM     14  H   UNL     1      18.704   5.106  41.822  1.00  0.00     0.211 HD
ENDBRANCH   3  13
BRANCH   4  15
ATOM     15  C   UNL     1      17.239   8.274  40.537  1.00  0.00     0.191 C 
BRANCH  15  16
ATOM     16  O   UNL     1      18.256   8.381  39.576  1.00  0.00    -0.394 OA
ATOM     17  H   UNL     1      19.033   7.873  39.928  1.00  0.00     0.210 HD
ENDBRANCH  15  16
ENDBRANCH   4  15
TORSDOF 7
ENDMDL
MODEL 8
REMARK VINA RESULT:    -3.942      1.461      2.851
REMARK INTER + INTRA:          -5.510
REMARK INTER:                  -5.108
REMARK INTRA:                  -0.402
REMARK UNBOUND:                -0.416
REMARK SMILES CO[C@@]1(CO)O[C@@H](CO)[C@@H](O)[C@H]1O
REMARK SMILES IDX 3 1 12 2 10 3 7 4 6 5 2 6 1 7 4 8 5 9 13 11 11 13 8 15 9 16
REMARK H PARENT 5 10 13 12 11 14 9 17
REMARK Flexibility Score: inf
ROOT
ATOM      1  C   UNL     1      16.263   6.500  41.849  1.00  0.00     0.221 C 
ATOM      2  C   UNL     1      17.548   7.012  42.532  1.00  0.00     0.207 C 
ATOM      3  C   UNL     1      17.904   8.221  41.702  1.00  0.00     0.180 C 
ATOM      4  C   UNL     1      16.541   8.697  41.192  1.00  0.00     0.179 C 
ATOM      5  O   UNL     1      15.628   7.619  41.256  1.00  0.00    -0.337 OA
ENDROOT
BRANCH   1   6
ATOM      6  O   UNL     1      15.344   5.946  42.789  1.00  0.00    -0.349 OA
ATOM      7  C   UNL     1      13.993   6.298  42.543  1.00  0.00     0.198 C 
ENDBRANCH   1   6
BRANCH   1   8
ATOM      8  C   UNL     1      16.588   5.505  40.700  1.00  0.00     0.224 C 
BRANCH   8   9
ATOM      9  O   UNL     1      17.706   4.722  41.025  1.00  0.00    -0.391 OA
ATOM     10  H   UNL     1      17.540   4.337  41.922  1.00  0.00     0.210 HD
ENDBRANCH   8   9
ENDBRANCH   1   8
BRANCH   2  11
ATOM     11  O   UNL     1      17.275   7.391  43.860  1.00  0.00    -0.385 OA
ATOM     12  H   UNL     1      16.871   8.298  43.824  1.00  0.00     0.211 HD
ENDBRANCH   2  11
BRANCH   3  13
ATOM     13  O   UNL     1      18.591   9.198  42.444  1.00  0.00    -0.387 OA
ATOM     14  H   UNL     1      19.457   9.344  41.984  1.00  0.00     0.211 HD
ENDBRANCH   3  13
BRANCH   4  15
ATOM     15  C   UNL     1      15.952   9.885  41.976  1.00  0.00     0.191 C 
BRANCH  15  16
ATOM     16  O   UNL     1      16.361  11.107  41.421  1.00  0.00    -0.394 OA
ATOM     17  H   UNL     1      15.761  11.804  41.794  1.00  0.00     0.210 HD
ENDBRANCH  15  16
ENDBRANCH   4  15
TORSDOF 7
ENDMDL
MODEL 9
REMARK VINA RESULT:    -3.937      8.502     10.842
REMARK INTER + INTRA:          -5.504
REMARK INTER:                  -4.955
REMARK INTRA:                  -0.549
REMARK UNBOUND:                -0.416
REMARK SMILES CO[C@@]1(CO)O[C@@H](CO)[C@@H](O)[C@H]1O
REMARK SMILES IDX 3 1 12 2 10 3 7 4 6 5 2 6 1 7 4 8 5 9 13 11 11 13 8 15 9 16
REMARK H PARENT 5 10 13 12 11 14 9 17
REMARK Flexibility Score: inf
ROOT
ATOM      1  C   UNL     1       8.362  -0.296  41.147  1.00  0.00     0.221 C 
ATOM      2  C   UNL     1       9.503  -1.113  41.788  1.00  0.00     0.207 C 
ATOM      3  C   UNL     1      10.694  -0.737  40.941  1.00  0.00     0.180 C 
ATOM      4  C   UNL     1      10.344   0.678  40.470  1.00  0.00     0.179 C 
ATOM      5  O   UNL     1       8.945   0.858  40.569  1.00  0.00    -0.337 OA
ENDROOT
BRANCH   1   6
ATOM      6  O   UNL     1       7.418   0.154  42.119  1.00  0.00    -0.349 OA
ATOM      7  C   UNL     1       6.980   1.486  41.915  1.00  0.00     0.198 C 
ENDBRANCH   1   6
BRANCH   1   8
ATOM      8  C   UNL     1       7.678  -1.083  39.994  1.00  0.00     0.224 C 
BRANCH   8   9
ATOM      9  O   UNL     1       7.228  -2.332  40.446  1.00  0.00    -0.391 OA
ATOM     10  H   UNL     1       7.079  -2.895  39.645  1.00  0.00     0.210 HD
ENDBRANCH   8   9
ENDBRANCH   1   8
BRANCH   2  11
ATOM     11  O   UNL     1       9.702  -0.708  43.122  1.00  0.00    -0.385 OA
ATOM     12  H   UNL     1       9.044  -1.205  43.675  1.00  0.00     0.211 HD
ENDBRANCH   2  11
BRANCH   3  13
ATOM     13  O   UNL     1      11.903  -0.800  41.657  1.00  0.00    -0.387 OA
ATOM     14  H   UNL     1      12.497  -0.106  41.269  1.00  0.00     0.211 HD
ENDBRANCH   3  13
BRANCH   4  15
ATOM     15  C   UNL     1      11.039   1.800  41.266  1.00  0.00     0.191 C 
BRANCH  15  16
ATOM     16  O   UNL     1      10.592   1.824  42.596  1.00  0.00    -0.394 OA
ATOM     17  H   UNL     1       9.600   1.836  42.562  1.00  0.00     0.210 HD
ENDBRANCH  15  16
ENDBRANCH   4  15
TORSDOF 7
ENDMDL
