MODEL 1
REMARK VINA RESULT:    22.848      0.000      0.000
REMARK INTER + INTRA:          32.173
REMARK INTER:                  32.198
REMARK INTRA:                  -0.025
REMARK UNBOUND:                -0.025
REMARK SMILES O=C(C=Cc1ccc(O)cc1)CC(=O)C=Cc1ccc(O)cc1
REMARK SMILES IDX 12 1 2 2 1 3 3 4 4 5 5 6 6 7 7 8 8 9 11 10 10 11 9 12 13 14
REMARK SMILES IDX 14 15 15 16 16 17 17 18 18 19 23 20 19 21 22 22 20 23 21 24
REMARK H PARENT 9 13 21 25
REMARK Flexibility Score: inf
ROOT
ATOM      1  C   UNL     1     -36.853  24.919   0.618  1.00  0.00     0.160 C 
ENDROOT
BRANCH   1   2
ATOM      2  C   UNL     1     -37.885  25.078   1.693  1.00  0.00     0.163 C 
ATOM      3  O   UNL     1     -38.662  26.069   1.655  1.00  0.00    -0.294 OA
BRANCH   2   4
ATOM      4  C   UNL     1     -37.957  24.107   2.803  1.00  0.00     0.048 C 
ATOM      5  C   UNL     1     -38.756  24.291   3.863  1.00  0.00     0.012 C 
BRANCH   5   6
ATOM      6  C   UNL     1     -38.843  23.343   4.997  1.00  0.00    -0.025 A 
ATOM      7  C   UNL     1     -38.778  23.768   6.340  1.00  0.00     0.012 A 
ATOM      8  C   UNL     1     -38.846  22.837   7.379  1.00  0.00     0.047 A 
ATOM      9  C   UNL     1     -38.973  21.472   7.096  1.00  0.00     0.115 A 
ATOM     10  C   UNL     1     -38.959  21.970   4.724  1.00  0.00     0.012 A 
ATOM     11  C   UNL     1     -39.028  21.042   5.766  1.00  0.00     0.047 A 
BRANCH   9  12
ATOM     12  O   UNL     1     -39.039  20.535   8.125  1.00  0.00    -0.508 OA
ATOM     13  H   UNL     1     -38.427  19.729   8.148  1.00  0.00     0.293 HD
ENDBRANCH   9  12
ENDBRANCH   5   6
ENDBRANCH   2   4
ENDBRANCH   1   2
BRANCH   1  14
ATOM     14  C   UNL     1     -37.122  25.891  -0.491  1.00  0.00     0.163 C 
ATOM     15  O   UNL     1     -38.281  25.958  -0.985  1.00  0.00    -0.294 OA
BRANCH  14  16
ATOM     16  C   UNL     1     -36.023  26.716  -1.034  1.00  0.00     0.048 C 
ATOM     17  C   UNL     1     -36.195  27.999  -1.378  1.00  0.00     0.012 C 
BRANCH  17  18
ATOM     18  C   UNL     1     -35.127  28.832  -1.975  1.00  0.00    -0.025 A 
ATOM     19  C   UNL     1     -33.797  28.804  -1.507  1.00  0.00     0.012 A 
ATOM     20  C   UNL     1     -35.455  29.696  -3.033  1.00  0.00     0.012 A 
ATOM     21  C   UNL     1     -32.819  29.597  -2.113  1.00  0.00     0.047 A 
ATOM     22  C   UNL     1     -34.473  30.481  -3.641  1.00  0.00     0.047 A 
ATOM     23  C   UNL     1     -33.152  30.430  -3.188  1.00  0.00     0.115 A 
BRANCH  23  24
ATOM     24  O   UNL     1     -32.183  31.209  -3.811  1.00  0.00    -0.508 OA
ATOM     25  H   UNL     1     -32.418  32.090  -4.252  1.00  0.00     0.293 HD
ENDBRANCH  23  24
ENDBRANCH  17  18
ENDBRANCH  14  16
ENDBRANCH   1  14
TORSDOF 8
ENDMDL
MODEL 2
REMARK VINA RESULT:    23.994      7.720     11.798
REMARK INTER + INTRA:          33.788
REMARK INTER:                  34.106
REMARK INTRA:                  -0.319
REMARK UNBOUND:                -0.025
REMARK SMILES O=C(C=Cc1ccc(O)cc1)CC(=O)C=Cc1ccc(O)cc1
REMARK SMILES IDX 12 1 2 2 1 3 3 4 4 5 5 6 6 7 7 8 8 9 11 10 10 11 9 12 13 14
REMARK SMILES IDX 14 15 15 16 16 17 17 18 18 19 23 20 19 21 22 22 20 23 21 24
REMARK H PARENT 9 13 21 25
REMARK Flexibility Score: inf
ROOT
ATOM      1  C   UNL     1     -28.584  32.678  -3.178  1.00  0.00     0.160 C 
ENDROOT
BRANCH   1   2
ATOM      2  C   UNL     1     -29.524  31.983  -2.241  1.00  0.00     0.163 C 
ATOM      3  O   UNL     1     -29.089  31.562  -1.137  1.00  0.00    -0.294 OA
BRANCH   2   4
ATOM      4  C   UNL     1     -30.931  31.757  -2.631  1.00  0.00     0.048 C 
ATOM      5  C   UNL     1     -31.635  30.707  -2.188  1.00  0.00     0.012 C 
BRANCH   5   6
ATOM      6  C   UNL     1     -33.042  30.447  -2.568  1.00  0.00    -0.025 A 
ATOM      7  C   UNL     1     -33.482  30.499  -3.907  1.00  0.00     0.012 A 
ATOM      8  C   UNL     1     -34.823  30.264  -4.220  1.00  0.00     0.047 A 
ATOM      9  C   UNL     1     -35.745  29.982  -3.205  1.00  0.00     0.115 A 
ATOM     10  C   UNL     1     -33.978  30.174  -1.557  1.00  0.00     0.012 A 
ATOM     11  C   UNL     1     -35.318  29.938  -1.873  1.00  0.00     0.047 A 
BRANCH   9  12
ATOM     12  O   UNL     1     -37.085  29.748  -3.505  1.00  0.00    -0.508 OA
ATOM     13  H   UNL     1     -37.371  28.956  -4.069  1.00  0.00     0.293 HD
ENDBRANCH   9  12
ENDBRANCH   5   6
ENDBRANCH   2   4
ENDBRANCH   1   2
BRANCH   1  14
ATOM     14  C   UNL     1     -27.660  31.678  -3.805  1.00  0.00     0.163 C 
ATOM     15  O   UNL     1     -27.041  30.863  -3.067  1.00  0.00    -0.294 OA
BRANCH  14  16
ATOM     16  C   UNL     1     -27.437  31.692  -5.265  1.00  0.00     0.048 C 
ATOM     17  C   UNL     1     -26.414  31.044  -5.838  1.00  0.00     0.012 C 
BRANCH  17  18
ATOM     18  C   UNL     1     -26.135  31.085  -7.291  1.00  0.00    -0.025 A 
ATOM     19  C   UNL     1     -27.022  30.546  -8.246  1.00  0.00     0.012 A 
ATOM     20  C   UNL     1     -24.934  31.664  -7.732  1.00  0.00     0.012 A 
ATOM     21  C   UNL     1     -26.723  30.623  -9.609  1.00  0.00     0.047 A 
ATOM     22  C   UNL     1     -24.643  31.746  -9.096  1.00  0.00     0.047 A 
ATOM     23  C   UNL     1     -25.538  31.232 -10.038  1.00  0.00     0.115 A 
BRANCH  23  24
ATOM     24  O   UNL     1     -25.239  31.331 -11.393  1.00  0.00    -0.508 OA
ATOM     25  H   UNL     1     -25.821  30.889 -12.095  1.00  0.00     0.293 HD
ENDBRANCH  23  24
ENDBRANCH  17  18
ENDBRANCH  14  16
ENDBRANCH   1  14
TORSDOF 8
ENDMDL
MODEL 3
REMARK VINA RESULT:    24.366      7.713     14.559
REMARK INTER + INTRA:          34.313
REMARK INTER:                  34.454
REMARK INTRA:                  -0.141
REMARK UNBOUND:                -0.025
REMARK SMILES O=C(C=Cc1ccc(O)cc1)CC(=O)C=Cc1ccc(O)cc1
REMARK SMILES IDX 12 1 2 2 1 3 3 4 4 5 5 6 6 7 7 8 8 9 11 10 10 11 9 12 13 14
REMARK SMILES IDX 14 15 15 16 16 17 17 18 18 19 23 20 19 21 22 22 20 23 21 24
REMARK H PARENT 9 13 21 25
REMARK Flexibility Score: inf
ROOT
ATOM      1  C   UNL     1     -28.738  32.744  -3.252  1.00  0.00     0.160 C 
ENDROOT
BRANCH   1   2
ATOM      2  C   UNL     1     -27.773  31.769  -3.855  1.00  0.00     0.163 C 
ATOM      3  O   UNL     1     -27.239  30.899  -3.118  1.00  0.00    -0.294 OA
BRANCH   2   4
ATOM      4  C   UNL     1     -27.424  31.858  -5.288  1.00  0.00     0.048 C 
ATOM      5  C   UNL     1     -26.534  31.036  -5.858  1.00  0.00     0.012 C 
BRANCH   5   6
ATOM      6  C   UNL     1     -26.154  31.107  -7.288  1.00  0.00    -0.025 A 
ATOM      7  C   UNL     1     -24.891  31.571  -7.709  1.00  0.00     0.012 A 
ATOM      8  C   UNL     1     -24.581  31.639  -9.070  1.00  0.00     0.047 A 
ATOM      9  C   UNL     1     -25.524  31.252 -10.028  1.00  0.00     0.115 A 
ATOM     10  C   UNL     1     -27.097  30.732  -8.259  1.00  0.00     0.012 A 
ATOM     11  C   UNL     1     -26.783  30.799  -9.618  1.00  0.00     0.047 A 
BRANCH   9  12
ATOM     12  O   UNL     1     -25.226  31.317 -11.387  1.00  0.00    -0.508 OA
ATOM     13  H   UNL     1     -24.320  31.039 -11.745  1.00  0.00     0.293 HD
ENDBRANCH   9  12
ENDBRANCH   5   6
ENDBRANCH   2   4
ENDBRANCH   1   2
BRANCH   1  14
ATOM     14  C   UNL     1     -29.570  32.056  -2.211  1.00  0.00     0.163 C 
ATOM     15  O   UNL     1     -29.012  31.612  -1.171  1.00  0.00    -0.294 OA
BRANCH  14  16
ATOM     16  C   UNL     1     -31.016  31.852  -2.437  1.00  0.00     0.048 C 
ATOM     17  C   UNL     1     -31.593  30.649  -2.327  1.00  0.00     0.012 C 
BRANCH  17  18
ATOM     18  C   UNL     1     -33.027  30.406  -2.600  1.00  0.00    -0.025 A 
ATOM     19  C   UNL     1     -33.948  30.090  -1.579  1.00  0.00     0.012 A 
ATOM     20  C   UNL     1     -33.484  30.474  -3.926  1.00  0.00     0.012 A 
ATOM     21  C   UNL     1     -35.296  29.885  -1.884  1.00  0.00     0.047 A 
ATOM     22  C   UNL     1     -34.834  30.276  -4.225  1.00  0.00     0.047 A 
ATOM     23  C   UNL     1     -35.744  29.987  -3.206  1.00  0.00     0.115 A 
BRANCH  23  24
ATOM     24  O   UNL     1     -37.087  29.804  -3.518  1.00  0.00    -0.508 OA
ATOM     25  H   UNL     1     -37.767  30.542  -3.376  1.00  0.00     0.293 HD
ENDBRANCH  23  24
ENDBRANCH  17  18
ENDBRANCH  14  16
ENDBRANCH   1  14
TORSDOF 8
ENDMDL
