MODEL 1
REMARK VINA RESULT:    -3.436      0.000      0.000
REMARK INTER + INTRA:          -6.291
REMARK INTER:                  -5.243
REMARK INTRA:                  -1.047
REMARK UNBOUND:                -1.047
REMARK SMILES CCCCCCCCCC=CC(=O)[O-]
REMARK SMILES IDX 7 1 8 2 9 3 10 4 11 5 12 6 13 7 14 8 6 9 5 10 4 11 3 12 2 13
REMARK SMILES IDX 1 14
REMARK H PARENT
REMARK Flexibility Score: inf
ROOT
ATOM      1  C   UNL     1      43.284  53.370  28.067  1.00  0.00     0.000 C 
ENDROOT
BRANCH   1   2
ATOM      2  C   UNL     1      42.422  53.228  29.332  1.00  0.00     0.004 C 
BRANCH   2   3
ATOM      3  C   UNL     1      43.240  53.360  30.625  1.00  0.00     0.027 C 
BRANCH   3   4
ATOM      4  C   UNL     1      42.968  54.671  31.307  1.00  0.00    -0.025 C 
ATOM      5  C   UNL     1      42.095  55.550  30.806  1.00  0.00     0.020 C 
BRANCH   5   6
ATOM      6  C   UNL     1      41.828  56.842  31.454  1.00  0.00     0.064 C 
ATOM      7  O   UNL     1      41.703  57.877  30.751  1.00  0.00    -0.545 OA
ATOM      8  O   UNL     1      41.709  56.939  32.837  1.00  0.00    -0.545 OA
ENDBRANCH   5   6
ENDBRANCH   3   4
ENDBRANCH   2   3
ENDBRANCH   1   2
BRANCH   1   9
ATOM      9  C   UNL     1      44.745  53.734  28.387  1.00  0.00     0.000 C 
BRANCH   9  10
ATOM     10  C   UNL     1      45.100  55.170  27.967  1.00  0.00     0.000 C 
BRANCH  10  11
ATOM     11  C   UNL     1      45.917  55.913  29.040  1.00  0.00    -0.000 C 
BRANCH  11  12
ATOM     12  C   UNL     1      45.132  57.067  29.683  1.00  0.00    -0.000 C 
BRANCH  12  13
ATOM     13  C   UNL     1      45.987  58.329  29.878  1.00  0.00    -0.003 C 
ATOM     14  C   UNL     1      47.365  58.162  29.244  1.00  0.00     0.004 C 
ENDBRANCH  12  13
ENDBRANCH  11  12
ENDBRANCH  10  11
ENDBRANCH   9  10
ENDBRANCH   1   9
TORSDOF 9
ENDMDL
MODEL 2
REMARK VINA RESULT:    -3.351      2.156      4.193
REMARK INTER + INTRA:          -6.162
REMARK INTER:                  -4.841
REMARK INTRA:                  -1.321
REMARK UNBOUND:                -1.047
REMARK SMILES CCCCCCCCCC=CC(=O)[O-]
REMARK SMILES IDX 7 1 8 2 9 3 10 4 11 5 12 6 13 7 14 8 6 9 5 10 4 11 3 12 2 13
REMARK SMILES IDX 1 14
REMARK H PARENT
REMARK Flexibility Score: inf
ROOT
ATOM      1  C   UNL     1      42.274  53.530  29.446  1.00  0.00     0.000 C 
ENDROOT
BRANCH   1   2
ATOM      2  C   UNL     1      43.672  53.855  28.894  1.00  0.00     0.004 C 
BRANCH   2   3
ATOM      3  C   UNL     1      44.753  53.859  29.985  1.00  0.00     0.027 C 
BRANCH   3   4
ATOM      4  C   UNL     1      45.560  55.125  29.944  1.00  0.00    -0.025 C 
ATOM      5  C   UNL     1      45.101  56.225  29.340  1.00  0.00     0.020 C 
BRANCH   5   6
ATOM      6  C   UNL     1      45.885  57.468  29.280  1.00  0.00     0.064 C 
ATOM      7  O   UNL     1      46.634  57.684  28.293  1.00  0.00    -0.545 OA
ATOM      8  O   UNL     1      45.809  58.413  30.298  1.00  0.00    -0.545 OA
ENDBRANCH   5   6
ENDBRANCH   3   4
ENDBRANCH   2   3
ENDBRANCH   1   2
BRANCH   1   9
ATOM      9  C   UNL     1      42.322  52.953  30.872  1.00  0.00     0.000 C 
BRANCH   9  10
ATOM     10  C   UNL     1      41.498  53.781  31.872  1.00  0.00     0.000 C 
BRANCH  10  11
ATOM     11  C   UNL     1      42.347  54.832  32.607  1.00  0.00    -0.000 C 
BRANCH  11  12
ATOM     12  C   UNL     1      41.726  56.238  32.548  1.00  0.00    -0.000 C 
BRANCH  12  13
ATOM     13  C   UNL     1      41.637  56.787  31.116  1.00  0.00    -0.003 C 
ATOM     14  C   UNL     1      42.416  58.092  30.979  1.00  0.00     0.004 C 
ENDBRANCH  12  13
ENDBRANCH  11  12
ENDBRANCH  10  11
ENDBRANCH   9  10
ENDBRANCH   1   9
TORSDOF 9
ENDMDL
MODEL 3
REMARK VINA RESULT:    -3.328      2.514      5.072
REMARK INTER + INTRA:          -6.126
REMARK INTER:                  -5.106
REMARK INTRA:                  -1.019
REMARK UNBOUND:                -1.047
REMARK SMILES CCCCCCCCCC=CC(=O)[O-]
REMARK SMILES IDX 7 1 8 2 9 3 10 4 11 5 12 6 13 7 14 8 6 9 5 10 4 11 3 12 2 13
REMARK SMILES IDX 1 14
REMARK H PARENT
REMARK Flexibility Score: inf
ROOT
ATOM      1  C   UNL     1      41.941  56.775  31.982  1.00  0.00     0.000 C 
ENDROOT
BRANCH   1   2
ATOM      2  C   UNL     1      42.287  57.607  30.736  1.00  0.00     0.004 C 
BRANCH   2   3
ATOM      3  C   UNL     1      43.179  58.815  31.059  1.00  0.00     0.027 C 
BRANCH   3   4
ATOM      4  C   UNL     1      44.385  58.851  30.164  1.00  0.00    -0.025 C 
ATOM      5  C   UNL     1      45.253  57.836  30.120  1.00  0.00     0.020 C 
BRANCH   5   6
ATOM      6  C   UNL     1      46.445  57.863  29.259  1.00  0.00     0.064 C 
ATOM      7  O   UNL     1      46.430  57.258  28.157  1.00  0.00    -0.545 OA
ATOM      8  O   UNL     1      47.591  58.551  29.644  1.00  0.00    -0.545 OA
ENDBRANCH   5   6
ENDBRANCH   3   4
ENDBRANCH   2   3
ENDBRANCH   1   2
BRANCH   1   9
ATOM      9  C   UNL     1      41.648  55.302  31.646  1.00  0.00     0.000 C 
BRANCH   9  10
ATOM     10  C   UNL     1      42.657  54.337  32.291  1.00  0.00     0.000 C 
BRANCH  10  11
ATOM     11  C   UNL     1      43.473  53.554  31.248  1.00  0.00    -0.000 C 
BRANCH  11  12
ATOM     12  C   UNL     1      44.266  54.475  30.307  1.00  0.00    -0.000 C 
BRANCH  12  13
ATOM     13  C   UNL     1      43.972  54.203  28.824  1.00  0.00    -0.003 C 
ATOM     14  C   UNL     1      42.778  53.265  28.664  1.00  0.00     0.004 C 
ENDBRANCH  12  13
ENDBRANCH  11  12
ENDBRANCH  10  11
ENDBRANCH   9  10
ENDBRANCH   1   9
TORSDOF 9
ENDMDL
MODEL 4
REMARK VINA RESULT:    -3.319      1.570      2.338
REMARK INTER + INTRA:          -6.112
REMARK INTER:                  -5.173
REMARK INTRA:                  -0.939
REMARK UNBOUND:                -1.047
REMARK SMILES CCCCCCCCCC=CC(=O)[O-]
REMARK SMILES IDX 7 1 8 2 9 3 10 4 11 5 12 6 13 7 14 8 6 9 5 10 4 11 3 12 2 13
REMARK SMILES IDX 1 14
REMARK H PARENT
REMARK Flexibility Score: inf
ROOT
ATOM      1  C   UNL     1      42.207  54.027  30.195  1.00  0.00     0.000 C 
ENDROOT
BRANCH   1   2
ATOM      2  C   UNL     1      42.293  54.339  31.698  1.00  0.00     0.004 C 
BRANCH   2   3
ATOM      3  C   UNL     1      41.374  55.497  32.116  1.00  0.00     0.027 C 
BRANCH   3   4
ATOM      4  C   UNL     1      41.497  56.655  31.167  1.00  0.00    -0.025 C 
ATOM      5  C   UNL     1      42.381  57.635  31.373  1.00  0.00     0.020 C 
BRANCH   5   6
ATOM      6  C   UNL     1      42.503  58.782  30.461  1.00  0.00     0.064 C 
ATOM      7  O   UNL     1      43.618  59.345  30.315  1.00  0.00    -0.545 OA
ATOM      8  O   UNL     1      41.403  59.254  29.752  1.00  0.00    -0.545 OA
ENDBRANCH   5   6
ENDBRANCH   3   4
ENDBRANCH   2   3
ENDBRANCH   1   2
BRANCH   1   9
ATOM      9  C   UNL     1      43.573  54.126  29.493  1.00  0.00     0.000 C 
BRANCH   9  10
ATOM     10  C   UNL     1      44.680  54.643  30.427  1.00  0.00     0.000 C 
BRANCH  10  11
ATOM     11  C   UNL     1      45.889  55.202  29.656  1.00  0.00    -0.000 C 
BRANCH  11  12
ATOM     12  C   UNL     1      45.488  56.273  28.629  1.00  0.00    -0.000 C 
BRANCH  12  13
ATOM     13  C   UNL     1      46.613  57.283  28.356  1.00  0.00    -0.003 C 
ATOM     14  C   UNL     1      46.803  58.227  29.541  1.00  0.00     0.004 C 
ENDBRANCH  12  13
ENDBRANCH  11  12
ENDBRANCH  10  11
ENDBRANCH   9  10
ENDBRANCH   1   9
TORSDOF 9
ENDMDL
MODEL 5
REMARK VINA RESULT:    -3.215     13.869     15.741
REMARK INTER + INTRA:          -5.953
REMARK INTER:                  -4.702
REMARK INTRA:                  -1.251
REMARK UNBOUND:                -1.047
REMARK SMILES CCCCCCCCCC=CC(=O)[O-]
REMARK SMILES IDX 7 1 8 2 9 3 10 4 11 5 12 6 13 7 14 8 6 9 5 10 4 11 3 12 2 13
REMARK SMILES IDX 1 14
REMARK H PARENT
REMARK Flexibility Score: inf
ROOT
ATOM      1  C   UNL     1      45.433  71.216  29.932  1.00  0.00     0.000 C 
ENDROOT
BRANCH   1   2
ATOM      2  C   UNL     1      44.094  71.754  30.463  1.00  0.00     0.004 C 
BRANCH   2   3
ATOM      3  C   UNL     1      44.261  73.020  31.317  1.00  0.00     0.027 C 
BRANCH   3   4
ATOM      4  C   UNL     1      43.527  72.895  32.621  1.00  0.00    -0.025 C 
ATOM      5  C   UNL     1      43.112  71.709  33.077  1.00  0.00     0.020 C 
BRANCH   5   6
ATOM      6  C   UNL     1      42.381  71.571  34.345  1.00  0.00     0.064 C 
ATOM      7  O   UNL     1      41.180  71.200  34.333  1.00  0.00    -0.545 OA
ATOM      8  O   UNL     1      42.998  71.844  35.562  1.00  0.00    -0.545 OA
ENDBRANCH   5   6
ENDBRANCH   3   4
ENDBRANCH   2   3
ENDBRANCH   1   2
BRANCH   1   9
ATOM      9  C   UNL     1      45.943  70.006  30.733  1.00  0.00     0.000 C 
BRANCH   9  10
ATOM     10  C   UNL     1      46.966  70.400  31.812  1.00  0.00     0.000 C 
BRANCH  10  11
ATOM     11  C   UNL     1      46.496  70.038  33.231  1.00  0.00    -0.000 C 
BRANCH  11  12
ATOM     12  C   UNL     1      46.095  68.560  33.361  1.00  0.00    -0.000 C 
BRANCH  12  13
ATOM     13  C   UNL     1      44.641  68.377  33.821  1.00  0.00    -0.003 C 
ATOM     14  C   UNL     1      44.510  68.596  35.326  1.00  0.00     0.004 C 
ENDBRANCH  12  13
ENDBRANCH  11  12
ENDBRANCH  10  11
ENDBRANCH   9  10
ENDBRANCH   1   9
TORSDOF 9
ENDMDL
MODEL 6
REMARK VINA RESULT:    -3.198      2.995      5.530
REMARK INTER + INTRA:          -5.928
REMARK INTER:                  -5.022
REMARK INTRA:                  -0.906
REMARK UNBOUND:                -1.047
REMARK SMILES CCCCCCCCCC=CC(=O)[O-]
REMARK SMILES IDX 7 1 8 2 9 3 10 4 11 5 12 6 13 7 14 8 6 9 5 10 4 11 3 12 2 13
REMARK SMILES IDX 1 14
REMARK H PARENT
REMARK Flexibility Score: inf
ROOT
ATOM      1  C   UNL     1      42.625  56.182  30.629  1.00  0.00     0.000 C 
ENDROOT
BRANCH   1   2
ATOM      2  C   UNL     1      42.159  57.516  31.235  1.00  0.00     0.004 C 
BRANCH   2   3
ATOM      3  C   UNL     1      43.204  58.631  31.087  1.00  0.00     0.027 C 
BRANCH   3   4
ATOM      4  C   UNL     1      44.265  58.251  30.094  1.00  0.00    -0.025 C 
ATOM      5  C   UNL     1      45.553  58.541  30.302  1.00  0.00     0.020 C 
BRANCH   5   6
ATOM      6  C   UNL     1      46.600  58.188  29.333  1.00  0.00     0.064 C 
ATOM      7  O   UNL     1      46.364  57.326  28.448  1.00  0.00    -0.545 OA
ATOM      8  O   UNL     1      47.852  58.793  29.378  1.00  0.00    -0.545 OA
ENDBRANCH   5   6
ENDBRANCH   3   4
ENDBRANCH   2   3
ENDBRANCH   1   2
BRANCH   1   9
ATOM      9  C   UNL     1      41.812  54.982  31.149  1.00  0.00     0.000 C 
BRANCH   9  10
ATOM     10  C   UNL     1      42.701  53.783  31.520  1.00  0.00     0.000 C 
BRANCH  10  11
ATOM     11  C   UNL     1      42.918  53.658  33.038  1.00  0.00    -0.000 C 
BRANCH  11  12
ATOM     12  C   UNL     1      41.817  54.359  33.850  1.00  0.00    -0.000 C 
BRANCH  12  13
ATOM     13  C   UNL     1      42.372  55.431  34.800  1.00  0.00    -0.003 C 
ATOM     14  C   UNL     1      41.511  56.691  34.769  1.00  0.00     0.004 C 
ENDBRANCH  12  13
ENDBRANCH  11  12
ENDBRANCH  10  11
ENDBRANCH   9  10
ENDBRANCH   1   9
TORSDOF 9
ENDMDL
MODEL 7
REMARK VINA RESULT:    -3.134     13.774     15.226
REMARK INTER + INTRA:          -5.830
REMARK INTER:                  -4.427
REMARK INTRA:                  -1.403
REMARK UNBOUND:                -1.047
REMARK SMILES CCCCCCCCCC=CC(=O)[O-]
REMARK SMILES IDX 7 1 8 2 9 3 10 4 11 5 12 6 13 7 14 8 6 9 5 10 4 11 3 12 2 13
REMARK SMILES IDX 1 14
REMARK H PARENT
REMARK Flexibility Score: inf
ROOT
ATOM      1  C   UNL     1      46.393  69.515  30.871  1.00  0.00     0.000 C 
ENDROOT
BRANCH   1   2
ATOM      2  C   UNL     1      45.660  69.053  32.141  1.00  0.00     0.004 C 
BRANCH   2   3
ATOM      3  C   UNL     1      46.220  69.701  33.417  1.00  0.00     0.027 C 
BRANCH   3   4
ATOM      4  C   UNL     1      45.344  69.408  34.602  1.00  0.00    -0.025 C 
ATOM      5  C   UNL     1      44.244  68.659  34.488  1.00  0.00     0.020 C 
BRANCH   5   6
ATOM      6  C   UNL     1      43.369  68.375  35.635  1.00  0.00     0.064 C 
ATOM      7  O   UNL     1      43.870  67.955  36.710  1.00  0.00    -0.545 OA
ATOM      8  O   UNL     1      41.994  68.567  35.553  1.00  0.00    -0.545 OA
ENDBRANCH   5   6
ENDBRANCH   3   4
ENDBRANCH   2   3
ENDBRANCH   1   2
BRANCH   1   9
ATOM      9  C   UNL     1      46.120  70.992  30.536  1.00  0.00     0.000 C 
BRANCH   9  10
ATOM     10  C   UNL     1      44.620  71.294  30.381  1.00  0.00     0.000 C 
BRANCH  10  11
ATOM     11  C   UNL     1      44.241  72.687  30.913  1.00  0.00    -0.000 C 
BRANCH  11  12
ATOM     12  C   UNL     1      44.125  72.721  32.446  1.00  0.00    -0.000 C 
BRANCH  12  13
ATOM     13  C   UNL     1      43.024  71.792  32.978  1.00  0.00    -0.003 C 
ATOM     14  C   UNL     1      42.719  72.086  34.445  1.00  0.00     0.004 C 
ENDBRANCH  12  13
ENDBRANCH  11  12
ENDBRANCH  10  11
ENDBRANCH   9  10
ENDBRANCH   1   9
TORSDOF 9
ENDMDL
MODEL 8
REMARK VINA RESULT:    -3.088      1.990      4.305
REMARK INTER + INTRA:          -5.759
REMARK INTER:                  -4.860
REMARK INTRA:                  -0.899
REMARK UNBOUND:                -1.047
REMARK SMILES CCCCCCCCCC=CC(=O)[O-]
REMARK SMILES IDX 7 1 8 2 9 3 10 4 11 5 12 6 13 7 14 8 6 9 5 10 4 11 3 12 2 13
REMARK SMILES IDX 1 14
REMARK H PARENT
REMARK Flexibility Score: inf
ROOT
ATOM      1  C   UNL     1      44.105  53.548  28.835  1.00  0.00     0.000 C 
ENDROOT
BRANCH   1   2
ATOM      2  C   UNL     1      44.526  54.481  27.688  1.00  0.00     0.004 C 
BRANCH   2   3
ATOM      3  C   UNL     1      46.035  54.769  27.682  1.00  0.00     0.027 C 
BRANCH   3   4
ATOM      4  C   UNL     1      46.316  56.194  28.066  1.00  0.00    -0.025 C 
ATOM      5  C   UNL     1      45.892  56.701  29.227  1.00  0.00     0.020 C 
BRANCH   5   6
ATOM      6  C   UNL     1      46.147  58.097  29.611  1.00  0.00     0.064 C 
ATOM      7  O   UNL     1      47.235  58.641  29.292  1.00  0.00    -0.545 OA
ATOM      8  O   UNL     1      45.201  58.829  30.321  1.00  0.00    -0.545 OA
ENDBRANCH   5   6
ENDBRANCH   3   4
ENDBRANCH   2   3
ENDBRANCH   1   2
BRANCH   1   9
ATOM      9  C   UNL     1      42.650  53.066  28.700  1.00  0.00     0.000 C 
BRANCH   9  10
ATOM     10  C   UNL     1      41.852  53.223  30.005  1.00  0.00     0.000 C 
BRANCH  10  11
ATOM     11  C   UNL     1      42.723  53.721  31.172  1.00  0.00    -0.000 C 
BRANCH  11  12
ATOM     12  C   UNL     1      42.269  55.089  31.705  1.00  0.00    -0.000 C 
BRANCH  12  13
ATOM     13  C   UNL     1      42.668  56.249  30.781  1.00  0.00    -0.003 C 
ATOM     14  C   UNL     1      41.837  57.495  31.072  1.00  0.00     0.004 C 
ENDBRANCH  12  13
ENDBRANCH  11  12
ENDBRANCH  10  11
ENDBRANCH   9  10
ENDBRANCH   1   9
TORSDOF 9
ENDMDL
MODEL 9
REMARK VINA RESULT:    -3.017     13.849     15.827
REMARK INTER + INTRA:          -5.651
REMARK INTER:                  -4.712
REMARK INTRA:                  -0.939
REMARK UNBOUND:                -1.047
REMARK SMILES CCCCCCCCCC=CC(=O)[O-]
REMARK SMILES IDX 7 1 8 2 9 3 10 4 11 5 12 6 13 7 14 8 6 9 5 10 4 11 3 12 2 13
REMARK SMILES IDX 1 14
REMARK H PARENT
REMARK Flexibility Score: inf
ROOT
ATOM      1  C   UNL     1      44.551  72.611  31.772  1.00  0.00     0.000 C 
ENDROOT
BRANCH   1   2
ATOM      2  C   UNL     1      43.307  72.776  32.660  1.00  0.00     0.004 C 
BRANCH   2   3
ATOM      3  C   UNL     1      43.099  71.592  33.616  1.00  0.00     0.027 C 
BRANCH   3   4
ATOM      4  C   UNL     1      41.768  71.681  34.307  1.00  0.00    -0.025 C 
ATOM      5  C   UNL     1      41.224  70.622  34.914  1.00  0.00     0.020 C 
BRANCH   5   6
ATOM      6  C   UNL     1      39.917  70.691  35.583  1.00  0.00     0.064 C 
ATOM      7  O   UNL     1      39.783  70.210  36.737  1.00  0.00    -0.545 OA
ATOM      8  O   UNL     1      38.823  71.282  34.959  1.00  0.00    -0.545 OA
ENDBRANCH   5   6
ENDBRANCH   3   4
ENDBRANCH   2   3
ENDBRANCH   1   2
BRANCH   1   9
ATOM      9  C   UNL     1      44.238  71.899  30.444  1.00  0.00     0.000 C 
BRANCH   9  10
ATOM     10  C   UNL     1      45.334  70.901  30.037  1.00  0.00     0.000 C 
BRANCH  10  11
ATOM     11  C   UNL     1      46.278  70.553  31.201  1.00  0.00    -0.000 C 
BRANCH  11  12
ATOM     12  C   UNL     1      45.989  69.168  31.802  1.00  0.00    -0.000 C 
BRANCH  12  13
ATOM     13  C   UNL     1      45.925  69.188  33.336  1.00  0.00    -0.003 C 
ATOM     14  C   UNL     1      44.757  68.349  33.848  1.00  0.00     0.004 C 
ENDBRANCH  12  13
ENDBRANCH  11  12
ENDBRANCH  10  11
ENDBRANCH   9  10
ENDBRANCH   1   9
TORSDOF 9
ENDMDL
