MODEL 1
REMARK VINA RESULT:    -4.169      0.000      0.000
REMARK INTER + INTRA:          -4.290
REMARK INTER:                  -4.290
REMARK INTRA:                   0.000
REMARK UNBOUND:                 0.000
REMARK SMILES O=c1ccc2cc(O)ccc2o1
REMARK SMILES IDX 9 1 10 2 11 3 5 4 4 5 3 6 2 7 1 8 12 9 6 10 7 11 8 12
REMARK H PARENT 8 13
REMARK Flexibility Score: inf
ROOT
ATOM      1  C   UNL     1      -6.213   4.110  16.187  1.00  0.00     0.050 A 
ATOM      2  C   UNL     1      -5.488   3.681  17.303  1.00  0.00     0.052 A 
ATOM      3  C   UNL     1      -4.839   2.442  17.283  1.00  0.00     0.138 A 
ATOM      4  C   UNL     1      -4.918   1.627  16.132  1.00  0.00     0.021 A 
ATOM      5  C   UNL     1      -4.259   0.394  16.142  1.00  0.00     0.019 A 
ATOM      6  C   UNL     1      -3.547   0.007  17.276  1.00  0.00     0.094 A 
ATOM      7  C   UNL     1      -3.512   0.867  18.380  1.00  0.00     0.336 A 
ATOM      8  O   UNL     1      -2.875   0.534  19.414  1.00  0.00    -0.246 OA
ATOM      9  O   UNL     1      -4.148   2.035  18.346  1.00  0.00    -0.423 OA
ATOM     10  C   UNL     1      -5.647   2.062  15.015  1.00  0.00     0.058 A 
ATOM     11  C   UNL     1      -6.294   3.306  15.044  1.00  0.00     0.116 A 
ENDROOT
BRANCH  11  12
ATOM     12  O   UNL     1      -7.022   3.752  13.942  1.00  0.00    -0.508 OA
ATOM     13  H   UNL     1      -6.707   3.580  12.994  1.00  0.00     0.293 HD
ENDBRANCH  11  12
TORSDOF 1
ENDMDL
MODEL 2
REMARK VINA RESULT:    -4.163      0.936      4.765
REMARK INTER + INTRA:          -4.285
REMARK INTER:                  -4.285
REMARK INTRA:                   0.000
REMARK UNBOUND:                 0.000
REMARK SMILES O=c1ccc2cc(O)ccc2o1
REMARK SMILES IDX 9 1 10 2 11 3 5 4 4 5 3 6 2 7 1 8 12 9 6 10 7 11 8 12
REMARK H PARENT 8 13
REMARK Flexibility Score: inf
ROOT
ATOM      1  C   UNL     1      -3.545   0.115  17.650  1.00  0.00     0.050 A 
ATOM      2  C   UNL     1      -4.192   0.436  16.453  1.00  0.00     0.052 A 
ATOM      3  C   UNL     1      -4.827   1.674  16.309  1.00  0.00     0.138 A 
ATOM      4  C   UNL     1      -4.812   2.598  17.376  1.00  0.00     0.021 A 
ATOM      5  C   UNL     1      -5.454   3.828  17.202  1.00  0.00     0.019 A 
ATOM      6  C   UNL     1      -6.087   4.105  15.990  1.00  0.00     0.094 A 
ATOM      7  C   UNL     1      -6.061   3.140  14.976  1.00  0.00     0.336 A 
ATOM      8  O   UNL     1      -6.627   3.371  13.876  1.00  0.00    -0.246 OA
ATOM      9  O   UNL     1      -5.442   1.978  15.168  1.00  0.00    -0.423 OA
ATOM     10  C   UNL     1      -4.162   2.272  18.575  1.00  0.00     0.058 A 
ATOM     11  C   UNL     1      -3.527   1.029  18.712  1.00  0.00     0.116 A 
ENDROOT
BRANCH  11  12
ATOM     12  O   UNL     1      -2.877   0.691  19.897  1.00  0.00    -0.508 OA
ATOM     13  H   UNL     1      -3.394   0.447  20.734  1.00  0.00     0.293 HD
ENDBRANCH  11  12
TORSDOF 1
ENDMDL
MODEL 3
REMARK VINA RESULT:    -3.828      1.193      4.312
REMARK INTER + INTRA:          -3.940
REMARK INTER:                  -3.940
REMARK INTRA:                   0.000
REMARK UNBOUND:                 0.000
REMARK SMILES O=c1ccc2cc(O)ccc2o1
REMARK SMILES IDX 9 1 10 2 11 3 5 4 4 5 3 6 2 7 1 8 12 9 6 10 7 11 8 12
REMARK H PARENT 8 13
REMARK Flexibility Score: inf
ROOT
ATOM      1  C   UNL     1      -3.632   2.426  19.086  1.00  0.00     0.050 A 
ATOM      2  C   UNL     1      -4.218   3.305  18.171  1.00  0.00     0.052 A 
ATOM      3  C   UNL     1      -4.639   2.838  16.920  1.00  0.00     0.138 A 
ATOM      4  C   UNL     1      -4.469   1.477  16.587  1.00  0.00     0.021 A 
ATOM      5  C   UNL     1      -4.899   1.039  15.331  1.00  0.00     0.019 A 
ATOM      6  C   UNL     1      -5.479   1.952  14.450  1.00  0.00     0.094 A 
ATOM      7  C   UNL     1      -5.615   3.286  14.849  1.00  0.00     0.336 A 
ATOM      8  O   UNL     1      -6.135   4.125  14.067  1.00  0.00    -0.246 OA
ATOM      9  O   UNL     1      -5.197   3.677  16.050  1.00  0.00    -0.423 OA
ATOM     10  C   UNL     1      -3.880   0.598  17.509  1.00  0.00     0.058 A 
ATOM     11  C   UNL     1      -3.462   1.075  18.760  1.00  0.00     0.116 A 
ENDROOT
BRANCH  11  12
ATOM     12  O   UNL     1      -2.875   0.214  19.686  1.00  0.00    -0.508 OA
ATOM     13  H   UNL     1      -2.979  -0.791  19.615  1.00  0.00     0.293 HD
ENDBRANCH  11  12
TORSDOF 1
ENDMDL
MODEL 4
REMARK VINA RESULT:    -3.231      2.590      5.184
REMARK INTER + INTRA:          -3.325
REMARK INTER:                  -3.325
REMARK INTRA:                   0.000
REMARK UNBOUND:                 0.000
REMARK SMILES O=c1ccc2cc(O)ccc2o1
REMARK SMILES IDX 9 1 10 2 11 3 5 4 4 5 3 6 2 7 1 8 12 9 6 10 7 11 8 12
REMARK H PARENT 8 13
REMARK Flexibility Score: inf
ROOT
ATOM      1  C   UNL     1      -3.035  -0.314  19.327  1.00  0.00     0.050 A 
ATOM      2  C   UNL     1      -3.092   0.072  17.984  1.00  0.00     0.052 A 
ATOM      3  C   UNL     1      -3.047   1.428  17.642  1.00  0.00     0.138 A 
ATOM      4  C   UNL     1      -2.942   2.404  18.656  1.00  0.00     0.021 A 
ATOM      5  C   UNL     1      -2.898   3.751  18.283  1.00  0.00     0.019 A 
ATOM      6  C   UNL     1      -2.958   4.089  16.931  1.00  0.00     0.094 A 
ATOM      7  C   UNL     1      -3.061   3.067  15.981  1.00  0.00     0.336 A 
ATOM      8  O   UNL     1      -3.117   3.353  14.756  1.00  0.00    -0.246 OA
ATOM      9  O   UNL     1      -3.101   1.793  16.362  1.00  0.00    -0.423 OA
ATOM     10  C   UNL     1      -2.885   2.012  20.002  1.00  0.00     0.058 A 
ATOM     11  C   UNL     1      -2.931   0.651  20.337  1.00  0.00     0.116 A 
ENDROOT
BRANCH  11  12
ATOM     12  O   UNL     1      -2.875   0.246  21.669  1.00  0.00    -0.508 OA
ATOM     13  H   UNL     1      -3.182   0.854  22.420  1.00  0.00     0.293 HD
ENDBRANCH  11  12
TORSDOF 1
ENDMDL
MODEL 5
REMARK VINA RESULT:    -3.097      1.721      2.311
REMARK INTER + INTRA:          -3.188
REMARK INTER:                  -3.188
REMARK INTRA:                   0.000
REMARK UNBOUND:                 0.000
REMARK SMILES O=c1ccc2cc(O)ccc2o1
REMARK SMILES IDX 9 1 10 2 11 3 5 4 4 5 3 6 2 7 1 8 12 9 6 10 7 11 8 12
REMARK H PARENT 8 13
REMARK Flexibility Score: inf
ROOT
ATOM      1  C   UNL     1      -5.782   2.374  15.162  1.00  0.00     0.050 A 
ATOM      2  C   UNL     1      -5.476   3.167  16.271  1.00  0.00     0.052 A 
ATOM      3  C   UNL     1      -4.619   2.683  17.265  1.00  0.00     0.138 A 
ATOM      4  C   UNL     1      -4.063   1.391  17.144  1.00  0.00     0.021 A 
ATOM      5  C   UNL     1      -3.209   0.936  18.152  1.00  0.00     0.019 A 
ATOM      6  C   UNL     1      -2.933   1.762  19.241  1.00  0.00     0.094 A 
ATOM      7  C   UNL     1      -3.520   3.032  19.294  1.00  0.00     0.336 A 
ATOM      8  O   UNL     1      -3.283   3.792  20.270  1.00  0.00    -0.246 OA
ATOM      9  O   UNL     1      -4.329   3.441  18.321  1.00  0.00    -0.423 OA
ATOM     10  C   UNL     1      -4.373   0.599  16.029  1.00  0.00     0.058 A 
ATOM     11  C   UNL     1      -5.233   1.092  15.036  1.00  0.00     0.116 A 
ENDROOT
BRANCH  11  12
ATOM     12  O   UNL     1      -5.549   0.316  13.923  1.00  0.00    -0.508 OA
ATOM     13  H   UNL     1      -5.835  -0.652  14.016  1.00  0.00     0.293 HD
ENDBRANCH  11  12
TORSDOF 1
ENDMDL
MODEL 6
REMARK VINA RESULT:    -2.769      3.302      5.903
REMARK INTER + INTRA:          -2.850
REMARK INTER:                  -2.850
REMARK INTRA:                   0.000
REMARK UNBOUND:                 0.000
REMARK SMILES O=c1ccc2cc(O)ccc2o1
REMARK SMILES IDX 9 1 10 2 11 3 5 4 4 5 3 6 2 7 1 8 12 9 6 10 7 11 8 12
REMARK H PARENT 8 13
REMARK Flexibility Score: inf
ROOT
ATOM      1  C   UNL     1      -2.879  -0.061  22.524  1.00  0.00     0.050 A 
ATOM      2  C   UNL     1      -2.881   1.206  21.933  1.00  0.00     0.052 A 
ATOM      3  C   UNL     1      -2.879   1.330  20.539  1.00  0.00     0.138 A 
ATOM      4  C   UNL     1      -2.876   0.172  19.732  1.00  0.00     0.021 A 
ATOM      5  C   UNL     1      -2.875   0.327  18.343  1.00  0.00     0.019 A 
ATOM      6  C   UNL     1      -2.876   1.611  17.798  1.00  0.00     0.094 A 
ATOM      7  C   UNL     1      -2.879   2.713  18.660  1.00  0.00     0.336 A 
ATOM      8  O   UNL     1      -2.880   3.880  18.186  1.00  0.00    -0.246 OA
ATOM      9  O   UNL     1      -2.880   2.538  19.978  1.00  0.00    -0.423 OA
ATOM     10  C   UNL     1      -2.875  -1.098  20.330  1.00  0.00     0.058 A 
ATOM     11  C   UNL     1      -2.877  -1.213  21.728  1.00  0.00     0.116 A 
ENDROOT
BRANCH  11  12
ATOM     12  O   UNL     1      -2.876  -2.467  22.335  1.00  0.00    -0.508 OA
ATOM     13  H   UNL     1      -2.102  -2.776  22.911  1.00  0.00     0.293 HD
ENDBRANCH  11  12
TORSDOF 1
ENDMDL
MODEL 7
REMARK VINA RESULT:    -2.528      2.209      4.792
REMARK INTER + INTRA:          -2.602
REMARK INTER:                  -2.602
REMARK INTRA:                   0.000
REMARK UNBOUND:                 0.000
REMARK SMILES O=c1ccc2cc(O)ccc2o1
REMARK SMILES IDX 9 1 10 2 11 3 5 4 4 5 3 6 2 7 1 8 12 9 6 10 7 11 8 12
REMARK H PARENT 8 13
REMARK Flexibility Score: inf
ROOT
ATOM      1  C   UNL     1      -2.875   0.702  20.592  1.00  0.00     0.050 A 
ATOM      2  C   UNL     1      -2.890   1.888  19.854  1.00  0.00     0.052 A 
ATOM      3  C   UNL     1      -3.183   1.859  18.486  1.00  0.00     0.138 A 
ATOM      4  C   UNL     1      -3.464   0.628  17.855  1.00  0.00     0.021 A 
ATOM      5  C   UNL     1      -3.754   0.631  16.487  1.00  0.00     0.019 A 
ATOM      6  C   UNL     1      -3.758   1.839  15.791  1.00  0.00     0.094 A 
ATOM      7  C   UNL     1      -3.470   3.021  16.482  1.00  0.00     0.336 A 
ATOM      8  O   UNL     1      -3.468   4.122  15.870  1.00  0.00    -0.246 OA
ATOM      9  O   UNL     1      -3.198   2.991  17.784  1.00  0.00    -0.423 OA
ATOM     10  C   UNL     1      -3.448  -0.560  18.600  1.00  0.00     0.058 A 
ATOM     11  C   UNL     1      -3.154  -0.522  19.971  1.00  0.00     0.116 A 
ENDROOT
BRANCH  11  12
ATOM     12  O   UNL     1      -3.134  -1.694  20.724  1.00  0.00    -0.508 OA
ATOM     13  H   UNL     1      -2.982  -1.678  21.726  1.00  0.00     0.293 HD
ENDBRANCH  11  12
TORSDOF 1
ENDMDL
