MODEL 1
REMARK VINA RESULT:    -6.985      0.000      0.000
REMARK INTER + INTRA:          -9.819
REMARK INTER:                  -8.822
REMARK INTRA:                  -0.996
REMARK UNBOUND:                -0.996
REMARK SMILES O=C(C=Cc1ccc(O)cc1)c1ccc(O)cc1O
REMARK SMILES IDX 4 1 3 2 5 3 6 4 7 5 8 6 11 7 10 8 9 9 2 11 1 12 12 13 18 14
REMARK SMILES IDX 13 15 17 16 14 17 15 18 19 19 16 21
REMARK H PARENT 9 10 19 20 16 22
REMARK Flexibility Score: inf
ROOT
ATOM      1  C   UNL     1      -9.166  -7.386  -3.970  1.00  0.00     0.012 C 
ATOM      2  C   UNL     1      -7.894  -7.181  -4.349  1.00  0.00     0.053 C 
ENDROOT
BRANCH   1   3
ATOM      3  C   UNL     1     -10.347  -6.687  -4.514  1.00  0.00    -0.025 A 
ATOM      4  C   UNL     1     -10.610  -5.345  -4.185  1.00  0.00     0.012 A 
ATOM      5  C   UNL     1     -11.705  -4.684  -4.750  1.00  0.00     0.047 A 
ATOM      6  C   UNL     1     -12.532  -5.346  -5.663  1.00  0.00     0.115 A 
ATOM      7  C   UNL     1     -11.161  -7.337  -5.452  1.00  0.00     0.012 A 
ATOM      8  C   UNL     1     -12.255  -6.673  -6.017  1.00  0.00     0.047 A 
BRANCH   6   9
ATOM      9  O   UNL     1     -13.620  -4.675  -6.218  1.00  0.00    -0.508 OA
ATOM     10  H   UNL     1     -14.021  -3.858  -5.775  1.00  0.00     0.293 HD
ENDBRANCH   6   9
ENDBRANCH   1   3
BRANCH   2  11
ATOM     11  C   UNL     1      -7.423  -6.098  -5.250  1.00  0.00     0.189 C 
ATOM     12  O   UNL     1      -6.817  -5.095  -4.788  1.00  0.00    -0.289 OA
BRANCH  11  13
ATOM     13  C   UNL     1      -7.649  -6.178  -6.708  1.00  0.00     0.064 A 
ATOM     14  C   UNL     1      -6.791  -6.912  -7.555  1.00  0.00     0.130 A 
ATOM     15  C   UNL     1      -8.731  -5.478  -7.267  1.00  0.00     0.020 A 
ATOM     16  C   UNL     1      -7.054  -6.969  -8.932  1.00  0.00     0.093 A 
ATOM     17  C   UNL     1      -8.980  -5.535  -8.640  1.00  0.00     0.047 A 
ATOM     18  C   UNL     1      -8.144  -6.286  -9.476  1.00  0.00     0.119 A 
BRANCH  14  19
ATOM     19  O   UNL     1      -5.669  -7.558  -7.038  1.00  0.00    -0.507 OA
ATOM     20  H   UNL     1      -5.325  -7.364  -6.104  1.00  0.00     0.293 HD
ENDBRANCH  14  19
BRANCH  18  21
ATOM     21  O   UNL     1      -8.386  -6.354 -10.846  1.00  0.00    -0.508 OA
ATOM     22  H   UNL     1      -8.783  -7.183 -11.273  1.00  0.00     0.293 HD
ENDBRANCH  18  21
ENDBRANCH  11  13
ENDBRANCH   2  11
TORSDOF 6
ENDMDL
MODEL 2
REMARK VINA RESULT:    -6.951      2.050      4.448
REMARK INTER + INTRA:          -9.776
REMARK INTER:                  -8.459
REMARK INTRA:                  -1.317
REMARK UNBOUND:                -0.996
REMARK SMILES O=C(C=Cc1ccc(O)cc1)c1ccc(O)cc1O
REMARK SMILES IDX 4 1 3 2 5 3 6 4 7 5 8 6 11 7 10 8 9 9 2 11 1 12 12 13 18 14
REMARK SMILES IDX 13 15 17 16 14 17 15 18 19 19 16 21
REMARK H PARENT 9 10 19 20 16 22
REMARK Flexibility Score: inf
ROOT
ATOM      1  C   UNL     1      -9.243  -7.405  -4.478  1.00  0.00     0.012 C 
ATOM      2  C   UNL     1      -9.930  -6.782  -5.448  1.00  0.00     0.053 C 
ENDROOT
BRANCH   1   3
ATOM      3  C   UNL     1      -7.962  -6.947  -3.904  1.00  0.00    -0.025 A 
ATOM      4  C   UNL     1      -6.734  -7.421  -4.400  1.00  0.00     0.012 A 
ATOM      5  C   UNL     1      -5.530  -6.938  -3.879  1.00  0.00     0.047 A 
ATOM      6  C   UNL     1      -5.539  -5.962  -2.877  1.00  0.00     0.115 A 
ATOM      7  C   UNL     1      -7.966  -5.948  -2.920  1.00  0.00     0.012 A 
ATOM      8  C   UNL     1      -6.760  -5.465  -2.401  1.00  0.00     0.047 A 
BRANCH   6   9
ATOM      9  O   UNL     1      -4.332  -5.489  -2.365  1.00  0.00    -0.508 OA
ATOM     10  H   UNL     1      -3.724  -4.891  -2.910  1.00  0.00     0.293 HD
ENDBRANCH   6   9
ENDBRANCH   1   3
BRANCH   2  11
ATOM     11  C   UNL     1      -9.450  -5.622  -6.241  1.00  0.00     0.189 C 
ATOM     12  O   UNL     1     -10.090  -4.536  -6.246  1.00  0.00    -0.289 OA
BRANCH  11  13
ATOM     13  C   UNL     1      -8.208  -5.714  -7.037  1.00  0.00     0.064 A 
ATOM     14  C   UNL     1      -7.118  -4.845  -6.817  1.00  0.00     0.130 A 
ATOM     15  C   UNL     1      -8.126  -6.674  -8.059  1.00  0.00     0.020 A 
ATOM     16  C   UNL     1      -5.954  -4.980  -7.589  1.00  0.00     0.093 A 
ATOM     17  C   UNL     1      -6.966  -6.796  -8.827  1.00  0.00     0.047 A 
ATOM     18  C   UNL     1      -5.875  -5.951  -8.590  1.00  0.00     0.119 A 
BRANCH  14  19
ATOM     19  O   UNL     1      -7.199  -3.836  -5.858  1.00  0.00    -0.507 OA
ATOM     20  H   UNL     1      -6.374  -3.483  -5.387  1.00  0.00     0.293 HD
ENDBRANCH  14  19
BRANCH  18  21
ATOM     21  O   UNL     1      -4.710  -6.067  -9.347  1.00  0.00    -0.508 OA
ATOM     22  H   UNL     1      -3.827  -5.693  -9.019  1.00  0.00     0.293 HD
ENDBRANCH  18  21
ENDBRANCH  11  13
ENDBRANCH   2  11
TORSDOF 6
ENDMDL
MODEL 3
REMARK VINA RESULT:    -6.678      3.261      6.546
REMARK INTER + INTRA:          -9.431
REMARK INTER:                  -9.299
REMARK INTRA:                  -0.132
REMARK UNBOUND:                -0.996
REMARK SMILES O=C(C=Cc1ccc(O)cc1)c1ccc(O)cc1O
REMARK SMILES IDX 4 1 3 2 5 3 6 4 7 5 8 6 11 7 10 8 9 9 2 11 1 12 12 13 18 14
REMARK SMILES IDX 13 15 17 16 14 17 15 18 19 19 16 21
REMARK H PARENT 9 10 19 20 16 22
REMARK Flexibility Score: inf
ROOT
ATOM      1  C   UNL     1      -6.739  -5.489  -4.287  1.00  0.00     0.012 C 
ATOM      2  C   UNL     1      -7.247  -6.031  -3.169  1.00  0.00     0.053 C 
ENDROOT
BRANCH   1   3
ATOM      3  C   UNL     1      -7.077  -5.892  -5.667  1.00  0.00    -0.025 A 
ATOM      4  C   UNL     1      -8.241  -5.418  -6.296  1.00  0.00     0.012 A 
ATOM      5  C   UNL     1      -8.518  -5.769  -7.621  1.00  0.00     0.047 A 
ATOM      6  C   UNL     1      -7.627  -6.576  -8.336  1.00  0.00     0.115 A 
ATOM      7  C   UNL     1      -6.172  -6.677  -6.396  1.00  0.00     0.012 A 
ATOM      8  C   UNL     1      -6.450  -7.026  -7.722  1.00  0.00     0.047 A 
BRANCH   6   9
ATOM      9  O   UNL     1      -7.915  -6.920  -9.655  1.00  0.00    -0.508 OA
ATOM     10  H   UNL     1      -8.572  -6.386 -10.210  1.00  0.00     0.293 HD
ENDBRANCH   6   9
ENDBRANCH   1   3
BRANCH   2  11
ATOM     11  C   UNL     1      -8.101  -7.244  -3.106  1.00  0.00     0.189 C 
ATOM     12  O   UNL     1      -8.157  -8.044  -4.078  1.00  0.00    -0.289 OA
BRANCH  11  13
ATOM     13  C   UNL     1      -8.899  -7.543  -1.898  1.00  0.00     0.064 A 
ATOM     14  C   UNL     1      -9.964  -8.469  -1.921  1.00  0.00     0.130 A 
ATOM     15  C   UNL     1      -8.606  -6.862  -0.705  1.00  0.00     0.020 A 
ATOM     16  C   UNL     1     -10.685  -8.730  -0.745  1.00  0.00     0.093 A 
ATOM     17  C   UNL     1      -9.333  -7.124   0.458  1.00  0.00     0.047 A 
ATOM     18  C   UNL     1     -10.372  -8.063   0.442  1.00  0.00     0.119 A 
BRANCH  14  19
ATOM     19  O   UNL     1     -10.324  -9.106  -3.107  1.00  0.00    -0.507 OA
ATOM     20  H   UNL     1     -10.423 -10.113  -3.162  1.00  0.00     0.293 HD
ENDBRANCH  14  19
BRANCH  18  21
ATOM     21  O   UNL     1     -11.101  -8.335   1.597  1.00  0.00    -0.508 OA
ATOM     22  H   UNL     1     -10.977  -7.790   2.443  1.00  0.00     0.293 HD
ENDBRANCH  18  21
ENDBRANCH  11  13
ENDBRANCH   2  11
TORSDOF 6
ENDMDL
MODEL 4
REMARK VINA RESULT:    -6.657      1.633      5.136
REMARK INTER + INTRA:          -9.404
REMARK INTER:                  -8.593
REMARK INTRA:                  -0.811
REMARK UNBOUND:                -0.996
REMARK SMILES O=C(C=Cc1ccc(O)cc1)c1ccc(O)cc1O
REMARK SMILES IDX 4 1 3 2 5 3 6 4 7 5 8 6 11 7 10 8 9 9 2 11 1 12 12 13 18 14
REMARK SMILES IDX 13 15 17 16 14 17 15 18 19 19 16 21
REMARK H PARENT 9 10 19 20 16 22
REMARK Flexibility Score: inf
ROOT
ATOM      1  C   UNL     1      -7.786  -6.096  -4.944  1.00  0.00     0.012 C 
ATOM      2  C   UNL     1      -8.732  -6.407  -4.044  1.00  0.00     0.053 C 
ENDROOT
BRANCH   1   3
ATOM      3  C   UNL     1      -7.928  -6.198  -6.410  1.00  0.00    -0.025 A 
ATOM      4  C   UNL     1      -8.926  -5.481  -7.093  1.00  0.00     0.012 A 
ATOM      5  C   UNL     1      -9.014  -5.549  -8.487  1.00  0.00     0.047 A 
ATOM      6  C   UNL     1      -8.095  -6.314  -9.212  1.00  0.00     0.115 A 
ATOM      7  C   UNL     1      -6.991  -6.941  -7.143  1.00  0.00     0.012 A 
ATOM      8  C   UNL     1      -7.080  -7.007  -8.538  1.00  0.00     0.047 A 
BRANCH   6   9
ATOM      9  O   UNL     1      -8.194  -6.375 -10.601  1.00  0.00    -0.508 OA
ATOM     10  H   UNL     1      -7.465  -6.794 -11.165  1.00  0.00     0.293 HD
ENDBRANCH   6   9
ENDBRANCH   1   3
BRANCH   2  11
ATOM     11  C   UNL     1     -10.025  -7.073  -4.342  1.00  0.00     0.189 C 
ATOM     12  O   UNL     1     -10.166  -8.313  -4.168  1.00  0.00    -0.289 OA
BRANCH  11  13
ATOM     13  C   UNL     1     -11.177  -6.294  -4.842  1.00  0.00     0.064 A 
ATOM     14  C   UNL     1     -12.100  -6.837  -5.762  1.00  0.00     0.130 A 
ATOM     15  C   UNL     1     -11.338  -4.966  -4.412  1.00  0.00     0.020 A 
ATOM     16  C   UNL     1     -13.186  -6.063  -6.199  1.00  0.00     0.093 A 
ATOM     17  C   UNL     1     -12.418  -4.202  -4.857  1.00  0.00     0.047 A 
ATOM     18  C   UNL     1     -13.348  -4.750  -5.749  1.00  0.00     0.119 A 
BRANCH  14  19
ATOM     19  O   UNL     1     -11.925  -8.127  -6.262  1.00  0.00    -0.507 OA
ATOM     20  H   UNL     1     -12.458  -8.467  -7.055  1.00  0.00     0.293 HD
ENDBRANCH  14  19
BRANCH  18  21
ATOM     21  O   UNL     1     -14.432  -3.998  -6.196  1.00  0.00    -0.508 OA
ATOM     22  H   UNL     1     -15.083  -4.363  -6.881  1.00  0.00     0.293 HD
ENDBRANCH  18  21
ENDBRANCH  11  13
ENDBRANCH   2  11
TORSDOF 6
ENDMDL
MODEL 5
REMARK VINA RESULT:    -6.538      2.736      6.583
REMARK INTER + INTRA:          -9.254
REMARK INTER:                  -9.014
REMARK INTRA:                  -0.239
REMARK UNBOUND:                -0.996
REMARK SMILES O=C(C=Cc1ccc(O)cc1)c1ccc(O)cc1O
REMARK SMILES IDX 4 1 3 2 5 3 6 4 7 5 8 6 11 7 10 8 9 9 2 11 1 12 12 13 18 14
REMARK SMILES IDX 13 15 17 16 14 17 15 18 19 19 16 21
REMARK H PARENT 9 10 19 20 16 22
REMARK Flexibility Score: inf
ROOT
ATOM      1  C   UNL     1      -9.305  -6.121  -6.445  1.00  0.00     0.012 C 
ATOM      2  C   UNL     1      -9.541  -6.711  -5.262  1.00  0.00     0.053 C 
ENDROOT
BRANCH   1   3
ATOM      3  C   UNL     1      -7.974  -5.910  -7.048  1.00  0.00    -0.025 A 
ATOM      4  C   UNL     1      -7.453  -6.815  -7.989  1.00  0.00     0.012 A 
ATOM      5  C   UNL     1      -6.213  -6.573  -8.588  1.00  0.00     0.047 A 
ATOM      6  C   UNL     1      -5.495  -5.415  -8.273  1.00  0.00     0.115 A 
ATOM      7  C   UNL     1      -7.264  -4.736  -6.756  1.00  0.00     0.012 A 
ATOM      8  C   UNL     1      -6.024  -4.495  -7.358  1.00  0.00     0.047 A 
BRANCH   6   9
ATOM      9  O   UNL     1      -4.260  -5.185  -8.876  1.00  0.00    -0.508 OA
ATOM     10  H   UNL     1      -4.138  -5.260  -9.879  1.00  0.00     0.293 HD
ENDBRANCH   6   9
ENDBRANCH   1   3
BRANCH   2  11
ATOM     11  C   UNL     1      -8.510  -7.099  -4.267  1.00  0.00     0.189 C 
ATOM     12  O   UNL     1      -7.319  -7.309  -4.622  1.00  0.00    -0.289 OA
BRANCH  11  13
ATOM     13  C   UNL     1      -8.856  -7.240  -2.837  1.00  0.00     0.064 A 
ATOM     14  C   UNL     1      -8.281  -6.414  -1.848  1.00  0.00     0.130 A 
ATOM     15  C   UNL     1      -9.760  -8.244  -2.453  1.00  0.00     0.020 A 
ATOM     16  C   UNL     1      -8.651  -6.578  -0.503  1.00  0.00     0.093 A 
ATOM     17  C   UNL     1     -10.117  -8.403  -1.112  1.00  0.00     0.047 A 
ATOM     18  C   UNL     1      -9.566  -7.566  -0.134  1.00  0.00     0.119 A 
BRANCH  14  19
ATOM     19  O   UNL     1      -7.327  -5.457  -2.190  1.00  0.00    -0.507 OA
ATOM     20  H   UNL     1      -6.795  -4.960  -1.485  1.00  0.00     0.293 HD
ENDBRANCH  14  19
BRANCH  18  21
ATOM     21  O   UNL     1      -9.918  -7.713   1.206  1.00  0.00    -0.508 OA
ATOM     22  H   UNL     1     -10.598  -7.102   1.644  1.00  0.00     0.293 HD
ENDBRANCH  18  21
ENDBRANCH  11  13
ENDBRANCH   2  11
TORSDOF 6
ENDMDL
MODEL 6
REMARK VINA RESULT:    -6.513      1.977      5.339
REMARK INTER + INTRA:          -9.223
REMARK INTER:                  -8.331
REMARK INTRA:                  -0.892
REMARK UNBOUND:                -0.996
REMARK SMILES O=C(C=Cc1ccc(O)cc1)c1ccc(O)cc1O
REMARK SMILES IDX 4 1 3 2 5 3 6 4 7 5 8 6 11 7 10 8 9 9 2 11 1 12 12 13 18 14
REMARK SMILES IDX 13 15 17 16 14 17 15 18 19 19 16 21
REMARK H PARENT 9 10 19 20 16 22
REMARK Flexibility Score: inf
ROOT
ATOM      1  C   UNL     1      -7.169  -5.825  -3.186  1.00  0.00     0.012 C 
ATOM      2  C   UNL     1      -8.283  -6.314  -2.618  1.00  0.00     0.053 C 
ENDROOT
BRANCH   1   3
ATOM      3  C   UNL     1      -6.755  -6.038  -4.587  1.00  0.00    -0.025 A 
ATOM      4  C   UNL     1      -6.178  -7.254  -4.996  1.00  0.00     0.012 A 
ATOM      5  C   UNL     1      -5.840  -7.457  -6.337  1.00  0.00     0.047 A 
ATOM      6  C   UNL     1      -6.095  -6.461  -7.285  1.00  0.00     0.115 A 
ATOM      7  C   UNL     1      -7.035  -5.054  -5.546  1.00  0.00     0.012 A 
ATOM      8  C   UNL     1      -6.697  -5.259  -6.888  1.00  0.00     0.047 A 
BRANCH   6   9
ATOM      9  O   UNL     1      -5.752  -6.675  -8.619  1.00  0.00    -0.508 OA
ATOM     10  H   UNL     1      -6.414  -7.062  -9.280  1.00  0.00     0.293 HD
ENDBRANCH   6   9
ENDBRANCH   1   3
BRANCH   2  11
ATOM     11  C   UNL     1      -9.208  -7.297  -3.234  1.00  0.00     0.189 C 
ATOM     12  O   UNL     1      -9.016  -8.536  -3.098  1.00  0.00    -0.289 OA
BRANCH  11  13
ATOM     13  C   UNL     1     -10.379  -6.846  -4.014  1.00  0.00     0.064 A 
ATOM     14  C   UNL     1     -11.345  -7.754  -4.500  1.00  0.00     0.130 A 
ATOM     15  C   UNL     1     -10.516  -5.478  -4.304  1.00  0.00     0.020 A 
ATOM     16  C   UNL     1     -12.447  -7.275  -5.225  1.00  0.00     0.093 A 
ATOM     17  C   UNL     1     -11.613  -5.013  -5.032  1.00  0.00     0.047 A 
ATOM     18  C   UNL     1     -12.585  -5.911  -5.490  1.00  0.00     0.119 A 
BRANCH  14  19
ATOM     19  O   UNL     1     -11.198  -9.124  -4.290  1.00  0.00    -0.507 OA
ATOM     20  H   UNL     1     -11.820  -9.798  -4.720  1.00  0.00     0.293 HD
ENDBRANCH  14  19
BRANCH  18  21
ATOM     21  O   UNL     1     -13.686  -5.457  -6.214  1.00  0.00    -0.508 OA
ATOM     22  H   UNL     1     -14.516  -5.107  -5.750  1.00  0.00     0.293 HD
ENDBRANCH  18  21
ENDBRANCH  11  13
ENDBRANCH   2  11
TORSDOF 6
ENDMDL
MODEL 7
REMARK VINA RESULT:    -6.486      2.536      3.413
REMARK INTER + INTRA:          -9.188
REMARK INTER:                  -9.126
REMARK INTRA:                  -0.062
REMARK UNBOUND:                -0.996
REMARK SMILES O=C(C=Cc1ccc(O)cc1)c1ccc(O)cc1O
REMARK SMILES IDX 4 1 3 2 5 3 6 4 7 5 8 6 11 7 10 8 9 9 2 11 1 12 12 13 18 14
REMARK SMILES IDX 13 15 17 16 14 17 15 18 19 19 16 21
REMARK H PARENT 9 10 19 20 16 22
REMARK Flexibility Score: inf
ROOT
ATOM      1  C   UNL     1      -7.126  -5.608  -2.584  1.00  0.00     0.012 C 
ATOM      2  C   UNL     1      -6.446  -5.749  -3.733  1.00  0.00     0.053 C 
ENDROOT
BRANCH   1   3
ATOM      3  C   UNL     1      -8.132  -6.554  -2.061  1.00  0.00    -0.025 A 
ATOM      4  C   UNL     1      -8.363  -6.675  -0.679  1.00  0.00     0.012 A 
ATOM      5  C   UNL     1      -9.356  -7.538  -0.204  1.00  0.00     0.047 A 
ATOM      6  C   UNL     1     -10.142  -8.268  -1.103  1.00  0.00     0.115 A 
ATOM      7  C   UNL     1      -8.941  -7.265  -2.958  1.00  0.00     0.012 A 
ATOM      8  C   UNL     1      -9.935  -8.127  -2.481  1.00  0.00     0.047 A 
BRANCH   6   9
ATOM      9  O   UNL     1     -11.127  -9.125  -0.617  1.00  0.00    -0.508 OA
ATOM     10  H   UNL     1     -12.090  -9.051  -0.921  1.00  0.00     0.293 HD
ENDBRANCH   6   9
ENDBRANCH   1   3
BRANCH   2  11
ATOM     11  C   UNL     1      -6.703  -6.780  -4.770  1.00  0.00     0.189 C 
ATOM     12  O   UNL     1      -6.391  -7.985  -4.571  1.00  0.00    -0.289 OA
BRANCH  11  13
ATOM     13  C   UNL     1      -7.336  -6.417  -6.055  1.00  0.00     0.064 A 
ATOM     14  C   UNL     1      -6.797  -6.828  -7.293  1.00  0.00     0.130 A 
ATOM     15  C   UNL     1      -8.489  -5.614  -6.041  1.00  0.00     0.020 A 
ATOM     16  C   UNL     1      -7.442  -6.469  -8.487  1.00  0.00     0.093 A 
ATOM     17  C   UNL     1      -9.119  -5.256  -7.235  1.00  0.00     0.047 A 
ATOM     18  C   UNL     1      -8.599  -5.687  -8.461  1.00  0.00     0.119 A 
BRANCH  14  19
ATOM     19  O   UNL     1      -5.614  -7.565  -7.341  1.00  0.00    -0.507 OA
ATOM     20  H   UNL     1      -5.586  -8.543  -7.078  1.00  0.00     0.293 HD
ENDBRANCH  14  19
BRANCH  18  21
ATOM     21  O   UNL     1      -9.222  -5.340  -9.658  1.00  0.00    -0.508 OA
ATOM     22  H   UNL     1      -9.721  -4.464  -9.760  1.00  0.00     0.293 HD
ENDBRANCH  18  21
ENDBRANCH  11  13
ENDBRANCH   2  11
TORSDOF 6
ENDMDL
MODEL 8
REMARK VINA RESULT:    -6.457      1.019      1.627
REMARK INTER + INTRA:          -9.152
REMARK INTER:                  -7.875
REMARK INTRA:                  -1.277
REMARK UNBOUND:                -0.996
REMARK SMILES O=C(C=Cc1ccc(O)cc1)c1ccc(O)cc1O
REMARK SMILES IDX 4 1 3 2 5 3 6 4 7 5 8 6 11 7 10 8 9 9 2 11 1 12 12 13 18 14
REMARK SMILES IDX 13 15 17 16 14 17 15 18 19 19 16 21
REMARK H PARENT 9 10 19 20 16 22
REMARK Flexibility Score: inf
ROOT
ATOM      1  C   UNL     1      -8.604  -7.343  -3.669  1.00  0.00     0.012 C 
ATOM      2  C   UNL     1      -7.354  -7.027  -4.043  1.00  0.00     0.053 C 
ENDROOT
BRANCH   1   3
ATOM      3  C   UNL     1      -9.841  -6.787  -4.252  1.00  0.00    -0.025 A 
ATOM      4  C   UNL     1     -10.339  -5.538  -3.840  1.00  0.00     0.012 A 
ATOM      5  C   UNL     1     -11.483  -5.003  -4.440  1.00  0.00     0.047 A 
ATOM      6  C   UNL     1     -12.126  -5.697  -5.471  1.00  0.00     0.115 A 
ATOM      7  C   UNL     1     -10.472  -7.465  -5.306  1.00  0.00     0.012 A 
ATOM      8  C   UNL     1     -11.616  -6.927  -5.905  1.00  0.00     0.047 A 
BRANCH   6   9
ATOM      9  O   UNL     1     -13.266  -5.154  -6.060  1.00  0.00    -0.508 OA
ATOM     10  H   UNL     1     -14.195  -5.405  -5.746  1.00  0.00     0.293 HD
ENDBRANCH   6   9
ENDBRANCH   1   3
BRANCH   2  11
ATOM     11  C   UNL     1      -6.980  -5.939  -4.981  1.00  0.00     0.189 C 
ATOM     12  O   UNL     1      -6.404  -4.898  -4.563  1.00  0.00    -0.289 OA
BRANCH  11  13
ATOM     13  C   UNL     1      -7.268  -6.056  -6.426  1.00  0.00     0.064 A 
ATOM     14  C   UNL     1      -8.148  -5.170  -7.083  1.00  0.00     0.130 A 
ATOM     15  C   UNL     1      -6.670  -7.098  -7.155  1.00  0.00     0.020 A 
ATOM     16  C   UNL     1      -8.379  -5.313  -8.460  1.00  0.00     0.093 A 
ATOM     17  C   UNL     1      -6.912  -7.236  -8.523  1.00  0.00     0.047 A 
ATOM     18  C   UNL     1      -7.765  -6.340  -9.180  1.00  0.00     0.119 A 
BRANCH  14  19
ATOM     19  O   UNL     1      -8.811  -4.172  -6.371  1.00  0.00    -0.507 OA
ATOM     20  H   UNL     1      -9.269  -4.363  -5.488  1.00  0.00     0.293 HD
ENDBRANCH  14  19
BRANCH  18  21
ATOM     21  O   UNL     1      -8.010  -6.465 -10.546  1.00  0.00    -0.508 OA
ATOM     22  H   UNL     1      -7.714  -5.754 -11.205  1.00  0.00     0.293 HD
ENDBRANCH  18  21
ENDBRANCH  11  13
ENDBRANCH   2  11
TORSDOF 6
ENDMDL
MODEL 9
REMARK VINA RESULT:    -6.418      3.370      5.862
REMARK INTER + INTRA:          -9.102
REMARK INTER:                  -8.106
REMARK INTRA:                  -0.996
REMARK UNBOUND:                -0.996
REMARK SMILES O=C(C=Cc1ccc(O)cc1)c1ccc(O)cc1O
REMARK SMILES IDX 4 1 3 2 5 3 6 4 7 5 8 6 11 7 10 8 9 9 2 11 1 12 12 13 18 14
REMARK SMILES IDX 13 15 17 16 14 17 15 18 19 19 16 21
REMARK H PARENT 9 10 19 20 16 22
REMARK Flexibility Score: inf
ROOT
ATOM      1  C   UNL     1      -8.688  -7.419  -3.757  1.00  0.00     0.012 C 
ATOM      2  C   UNL     1      -9.402  -6.930  -4.784  1.00  0.00     0.053 C 
ENDROOT
BRANCH   1   3
ATOM      3  C   UNL     1      -9.168  -7.559  -2.368  1.00  0.00    -0.025 A 
ATOM      4  C   UNL     1     -10.089  -8.561  -2.016  1.00  0.00     0.012 A 
ATOM      5  C   UNL     1     -10.493  -8.711  -0.686  1.00  0.00     0.047 A 
ATOM      6  C   UNL     1      -9.964  -7.880   0.307  1.00  0.00     0.115 A 
ATOM      7  C   UNL     1      -8.619  -6.747  -1.365  1.00  0.00     0.012 A 
ATOM      8  C   UNL     1      -9.023  -6.899  -0.034  1.00  0.00     0.047 A 
BRANCH   6   9
ATOM      9  O   UNL     1     -10.375  -8.039   1.629  1.00  0.00    -0.508 OA
ATOM     10  H   UNL     1     -10.073  -7.403   2.358  1.00  0.00     0.293 HD
ENDBRANCH   6   9
ENDBRANCH   1   3
BRANCH   2  11
ATOM     11  C   UNL     1     -10.733  -6.280  -4.681  1.00  0.00     0.189 C 
ATOM     12  O   UNL     1     -10.861  -5.161  -4.114  1.00  0.00    -0.289 OA
BRANCH  11  13
ATOM     13  C   UNL     1     -11.935  -6.927  -5.247  1.00  0.00     0.064 A 
ATOM     14  C   UNL     1     -12.999  -6.175  -5.789  1.00  0.00     0.130 A 
ATOM     15  C   UNL     1     -12.031  -8.328  -5.215  1.00  0.00     0.020 A 
ATOM     16  C   UNL     1     -14.115  -6.835  -6.327  1.00  0.00     0.093 A 
ATOM     17  C   UNL     1     -13.148  -8.975  -5.747  1.00  0.00     0.047 A 
ATOM     18  C   UNL     1     -14.191  -8.229  -6.309  1.00  0.00     0.119 A 
BRANCH  14  19
ATOM     19  O   UNL     1     -12.964  -4.781  -5.769  1.00  0.00    -0.507 OA
ATOM     20  H   UNL     1     -13.813  -4.227  -5.784  1.00  0.00     0.293 HD
ENDBRANCH  14  19
BRANCH  18  21
ATOM     21  O   UNL     1     -15.308  -8.865  -6.847  1.00  0.00    -0.508 OA
ATOM     22  H   UNL     1     -16.024  -9.270  -6.254  1.00  0.00     0.293 HD
ENDBRANCH  18  21
ENDBRANCH  11  13
ENDBRANCH   2  11
TORSDOF 6
ENDMDL
