MODEL 1
REMARK VINA RESULT:    -3.804      0.000      0.000
REMARK INTER + INTRA:          -4.138
REMARK INTER:                  -4.138
REMARK INTRA:                   0.000
REMARK UNBOUND:                 0.000
REMARK SMILES [NH3+]CC(=O)[O-]
REMARK SMILES IDX 2 1 1 2 3 6 4 7 5 8
REMARK H PARENT 1 3 1 4 1 5
REMARK Flexibility Score: inf
ROOT
ATOM      1  C   UNL     1      22.991  25.477  30.882  1.00  0.00     0.312 C 
ENDROOT
BRANCH   1   2
ATOM      2  N   UNL     1      22.120  26.145  29.918  1.00  0.00    -0.353 N 
ATOM      3  H   UNL     1      21.418  26.738  30.418  1.00  0.00     0.344 HD
ATOM      4  H   UNL     1      22.689  26.740  29.272  1.00  0.00     0.344 HD
ATOM      5  H   UNL     1      21.614  25.423  29.356  1.00  0.00     0.344 HD
ENDBRANCH   1   2
BRANCH   1   6
ATOM      6  C   UNL     1      22.613  25.849  32.283  1.00  0.00     0.096 C 
ATOM      7  O   UNL     1      22.524  27.060  32.615  1.00  0.00    -0.544 OA
ATOM      8  O   UNL     1      22.308  24.858  33.207  1.00  0.00    -0.544 OA
ENDBRANCH   1   6
TORSDOF 2
ENDMDL
MODEL 2
REMARK VINA RESULT:    -3.803      0.107      1.452
REMARK INTER + INTRA:          -4.137
REMARK INTER:                  -4.137
REMARK INTRA:                   0.000
REMARK UNBOUND:                 0.000
REMARK SMILES [NH3+]CC(=O)[O-]
REMARK SMILES IDX 2 1 1 2 3 6 4 7 5 8
REMARK H PARENT 1 3 1 4 1 5
REMARK Flexibility Score: inf
ROOT
ATOM      1  C   UNL     1      22.971  25.350  30.942  1.00  0.00     0.312 C 
ENDROOT
BRANCH   1   2
ATOM      2  N   UNL     1      22.242  26.139  29.953  1.00  0.00    -0.353 N 
ATOM      3  H   UNL     1      21.211  26.034  30.096  1.00  0.00     0.344 HD
ATOM      4  H   UNL     1      22.508  27.149  30.032  1.00  0.00     0.344 HD
ATOM      5  H   UNL     1      22.487  25.799  28.995  1.00  0.00     0.344 HD
ENDBRANCH   1   2
BRANCH   1   6
ATOM      6  C   UNL     1      22.573  25.745  32.331  1.00  0.00     0.096 C 
ATOM      7  O   UNL     1      22.326  24.861  33.194  1.00  0.00    -0.544 OA
ATOM      8  O   UNL     1      22.527  27.086  32.687  1.00  0.00    -0.544 OA
ENDBRANCH   1   6
TORSDOF 2
ENDMDL
MODEL 3
REMARK VINA RESULT:    -3.499      2.058      2.438
REMARK INTER + INTRA:          -3.806
REMARK INTER:                  -3.806
REMARK INTRA:                   0.000
REMARK UNBOUND:                 0.000
REMARK SMILES [NH3+]CC(=O)[O-]
REMARK SMILES IDX 2 1 1 2 3 6 4 7 5 8
REMARK H PARENT 1 3 1 4 1 5
REMARK Flexibility Score: inf
ROOT
ATOM      1  C   UNL     1      23.889  24.276  31.722  1.00  0.00     0.312 C 
ENDROOT
BRANCH   1   2
ATOM      2  N   UNL     1      23.446  22.891  31.867  1.00  0.00    -0.353 N 
ATOM      3  H   UNL     1      24.201  22.315  32.305  1.00  0.00     0.344 HD
ATOM      4  H   UNL     1      22.582  22.850  32.457  1.00  0.00     0.344 HD
ATOM      5  H   UNL     1      23.228  22.501  30.921  1.00  0.00     0.344 HD
ENDBRANCH   1   2
BRANCH   1   6
ATOM      6  C   UNL     1      22.838  25.222  32.217  1.00  0.00     0.096 C 
ATOM      7  O   UNL     1      22.209  24.970  33.278  1.00  0.00    -0.544 OA
ATOM      8  O   UNL     1      22.591  26.406  31.535  1.00  0.00    -0.544 OA
ENDBRANCH   1   6
TORSDOF 2
ENDMDL
MODEL 4
REMARK VINA RESULT:    -3.428      1.827      1.827
REMARK INTER + INTRA:          -3.728
REMARK INTER:                  -3.728
REMARK INTRA:                   0.000
REMARK UNBOUND:                 0.000
REMARK SMILES [NH3+]CC(=O)[O-]
REMARK SMILES IDX 2 1 1 2 3 6 4 7 5 8
REMARK H PARENT 1 3 1 4 1 5
REMARK Flexibility Score: inf
ROOT
ATOM      1  C   UNL     1      23.949  24.338  31.631  1.00  0.00     0.312 C 
ENDROOT
BRANCH   1   2
ATOM      2  N   UNL     1      25.116  25.058  31.128  1.00  0.00    -0.353 N 
ATOM      3  H   UNL     1      25.166  26.010  31.559  1.00  0.00     0.344 HD
ATOM      4  H   UNL     1      25.990  24.525  31.347  1.00  0.00     0.344 HD
ATOM      5  H   UNL     1      25.034  25.161  30.090  1.00  0.00     0.344 HD
ENDBRANCH   1   2
BRANCH   1   6
ATOM      6  C   UNL     1      22.916  25.297  32.139  1.00  0.00     0.096 C 
ATOM      7  O   UNL     1      22.631  26.329  31.478  1.00  0.00    -0.544 OA
ATOM      8  O   UNL     1      22.231  25.021  33.315  1.00  0.00    -0.544 OA
ENDBRANCH   1   6
TORSDOF 2
ENDMDL
MODEL 5
REMARK VINA RESULT:    -3.110      6.844      7.155
REMARK INTER + INTRA:          -3.383
REMARK INTER:                  -3.383
REMARK INTRA:                   0.000
REMARK UNBOUND:                 0.000
REMARK SMILES [NH3+]CC(=O)[O-]
REMARK SMILES IDX 2 1 1 2 3 6 4 7 5 8
REMARK H PARENT 1 3 1 4 1 5
REMARK Flexibility Score: inf
ROOT
ATOM      1  C   UNL     1      19.585  22.842  25.319  1.00  0.00     0.312 C 
ENDROOT
BRANCH   1   2
ATOM      2  N   UNL     1      18.599  22.686  26.386  1.00  0.00    -0.353 N 
ATOM      3  H   UNL     1      17.898  21.954  26.125  1.00  0.00     0.344 HD
ATOM      4  H   UNL     1      19.075  22.417  27.278  1.00  0.00     0.344 HD
ATOM      5  H   UNL     1      18.102  23.595  26.528  1.00  0.00     0.344 HD
ENDBRANCH   1   2
BRANCH   1   6
ATOM      6  C   UNL     1      20.976  22.779  25.871  1.00  0.00     0.096 C 
ATOM      7  O   UNL     1      21.965  22.763  25.093  1.00  0.00    -0.544 OA
ATOM      8  O   UNL     1      21.180  22.790  27.245  1.00  0.00    -0.544 OA
ENDBRANCH   1   6
TORSDOF 2
ENDMDL
MODEL 6
REMARK VINA RESULT:    -3.095      4.795      5.041
REMARK INTER + INTRA:          -3.367
REMARK INTER:                  -3.367
REMARK INTRA:                   0.000
REMARK UNBOUND:                 0.000
REMARK SMILES [NH3+]CC(=O)[O-]
REMARK SMILES IDX 2 1 1 2 3 6 4 7 5 8
REMARK H PARENT 1 3 1 4 1 5
REMARK Flexibility Score: inf
ROOT
ATOM      1  C   UNL     1      18.892  23.129  30.474  1.00  0.00     0.312 C 
ENDROOT
BRANCH   1   2
ATOM      2  N   UNL     1      17.956  24.038  31.132  1.00  0.00    -0.353 N 
ATOM      3  H   UNL     1      16.971  23.750  30.928  1.00  0.00     0.344 HD
ATOM      4  H   UNL     1      18.118  24.034  32.166  1.00  0.00     0.344 HD
ATOM      5  H   UNL     1      18.107  25.007  30.769  1.00  0.00     0.344 HD
ENDBRANCH   1   2
BRANCH   1   6
ATOM      6  C   UNL     1      19.594  23.819  29.345  1.00  0.00     0.096 C 
ATOM      7  O   UNL     1      19.455  23.403  28.165  1.00  0.00    -0.544 OA
ATOM      8  O   UNL     1      20.360  24.951  29.590  1.00  0.00    -0.544 OA
ENDBRANCH   1   6
TORSDOF 2
ENDMDL
MODEL 7
REMARK VINA RESULT:    -3.038      2.581      2.821
REMARK INTER + INTRA:          -3.304
REMARK INTER:                  -3.304
REMARK INTRA:                   0.000
REMARK UNBOUND:                 0.000
REMARK SMILES [NH3+]CC(=O)[O-]
REMARK SMILES IDX 2 1 1 2 3 6 4 7 5 8
REMARK H PARENT 1 3 1 4 1 5
REMARK Flexibility Score: inf
ROOT
ATOM      1  C   UNL     1      22.864  25.663  30.400  1.00  0.00     0.312 C 
ENDROOT
BRANCH   1   2
ATOM      2  N   UNL     1      22.500  26.353  31.634  1.00  0.00    -0.353 N 
ATOM      3  H   UNL     1      21.584  26.845  31.515  1.00  0.00     0.344 HD
ATOM      4  H   UNL     1      22.432  25.667  32.423  1.00  0.00     0.344 HD
ATOM      5  H   UNL     1      23.236  27.059  31.863  1.00  0.00     0.344 HD
ENDBRANCH   1   2
BRANCH   1   6
ATOM      6  C   UNL     1      24.193  24.987  30.544  1.00  0.00     0.096 C 
ATOM      7  O   UNL     1      24.703  24.378  29.567  1.00  0.00    -0.544 OA
ATOM      8  O   UNL     1      24.892  25.074  31.741  1.00  0.00    -0.544 OA
ENDBRANCH   1   6
TORSDOF 2
ENDMDL
MODEL 8
REMARK VINA RESULT:    -2.940      2.212      2.462
REMARK INTER + INTRA:          -3.198
REMARK INTER:                  -3.198
REMARK INTRA:                   0.000
REMARK UNBOUND:                 0.000
REMARK SMILES [NH3+]CC(=O)[O-]
REMARK SMILES IDX 2 1 1 2 3 6 4 7 5 8
REMARK H PARENT 1 3 1 4 1 5
REMARK Flexibility Score: inf
ROOT
ATOM      1  C   UNL     1      22.017  25.044  29.103  1.00  0.00     0.312 C 
ENDROOT
BRANCH   1   2
ATOM      2  N   UNL     1      20.675  24.938  29.670  1.00  0.00    -0.353 N 
ATOM      3  H   UNL     1      19.956  25.098  28.927  1.00  0.00     0.344 HD
ATOM      4  H   UNL     1      20.539  23.991  30.095  1.00  0.00     0.344 HD
ATOM      5  H   UNL     1      20.559  25.663  30.415  1.00  0.00     0.344 HD
ENDBRANCH   1   2
BRANCH   1   6
ATOM      6  C   UNL     1      22.969  25.626  30.103  1.00  0.00     0.096 C 
ATOM      7  O   UNL     1      22.537  26.331  31.052  1.00  0.00    -0.544 OA
ATOM      8  O   UNL     1      24.326  25.347  30.015  1.00  0.00    -0.544 OA
ENDBRANCH   1   6
TORSDOF 2
ENDMDL
MODEL 9
REMARK VINA RESULT:    -2.936      3.113      3.321
REMARK INTER + INTRA:          -3.193
REMARK INTER:                  -3.193
REMARK INTRA:                   0.000
REMARK UNBOUND:                 0.000
REMARK SMILES [NH3+]CC(=O)[O-]
REMARK SMILES IDX 2 1 1 2 3 6 4 7 5 8
REMARK H PARENT 1 3 1 4 1 5
REMARK Flexibility Score: inf
ROOT
ATOM      1  C   UNL     1      23.038  25.738  30.027  1.00  0.00     0.312 C 
ENDROOT
BRANCH   1   2
ATOM      2  N   UNL     1      22.496  26.259  31.280  1.00  0.00    -0.353 N 
ATOM      3  H   UNL     1      22.654  25.573  32.054  1.00  0.00     0.344 HD
ATOM      4  H   UNL     1      22.952  27.171  31.517  1.00  0.00     0.344 HD
ATOM      5  H   UNL     1      21.467  26.414  31.170  1.00  0.00     0.344 HD
ENDBRANCH   1   2
BRANCH   1   6
ATOM      6  C   UNL     1      21.953  25.125  29.196  1.00  0.00     0.096 C 
ATOM      7  O   UNL     1      22.224  24.618  28.076  1.00  0.00    -0.544 OA
ATOM      8  O   UNL     1      20.653  25.068  29.682  1.00  0.00    -0.544 OA
ENDBRANCH   1   6
TORSDOF 2
ENDMDL
