MODEL 1
REMARK VINA RESULT:    -5.291      0.000      0.000
REMARK INTER + INTRA:         -10.613
REMARK INTER:                  -9.621
REMARK INTRA:                  -0.992
REMARK UNBOUND:                -0.992
REMARK SMILES CCCCCCCCCCCCCC[C@H](C)C(=O)[O-]
REMARK SMILES IDX 9 1 10 2 11 3 12 4 13 5 14 6 15 7 16 8 17 9 18 10 19 11 8 12
REMARK SMILES IDX 7 13 6 14 5 15 4 16 3 17 2 18 1 19
REMARK H PARENT
REMARK Flexibility Score: inf
ROOT
ATOM      1  C   UNL     1       5.119  56.669  21.256  1.00  0.00     0.000 C 
ENDROOT
BRANCH   1   2
ATOM      2  C   UNL     1       6.635  56.636  20.982  1.00  0.00     0.000 C 
BRANCH   2   3
ATOM      3  C   UNL     1       7.032  56.085  19.601  1.00  0.00     0.000 C 
BRANCH   3   4
ATOM      4  C   UNL     1       7.860  54.791  19.695  1.00  0.00     0.000 C 
BRANCH   4   5
ATOM      5  C   UNL     1       8.823  54.785  20.894  1.00  0.00     0.001 C 
BRANCH   5   6
ATOM      6  C   UNL     1       9.074  53.407  21.548  1.00  0.00     0.009 C 
BRANCH   6   7
ATOM      7  C   UNL     1       8.583  53.224  23.007  1.00  0.00     0.032 C 
ATOM      8  C   UNL     1       7.102  53.589  23.193  1.00  0.00     0.014 C 
BRANCH   7   9
ATOM      9  C   UNL     1       9.484  53.909  24.006  1.00  0.00     0.044 C 
ATOM     10  O   UNL     1      10.723  54.016  23.804  1.00  0.00    -0.550 OA
ATOM     11  O   UNL     1       8.936  54.458  25.159  1.00  0.00    -0.550 OA
ENDBRANCH   7   9
ENDBRANCH   6   7
ENDBRANCH   5   6
ENDBRANCH   4   5
ENDBRANCH   3   4
ENDBRANCH   2   3
ENDBRANCH   1   2
BRANCH   1  12
ATOM     12  C   UNL     1       4.359  57.722  20.422  1.00  0.00     0.000 C 
BRANCH  12  13
ATOM     13  C   UNL     1       3.313  58.481  21.258  1.00  0.00    -0.000 C 
BRANCH  13  14
ATOM     14  C   UNL     1       2.014  58.765  20.480  1.00  0.00    -0.000 C 
BRANCH  14  15
ATOM     15  C   UNL     1       1.709  60.258  20.258  1.00  0.00    -0.000 C 
BRANCH  15  16
ATOM     16  C   UNL     1       1.343  60.582  18.800  1.00  0.00    -0.000 C 
BRANCH  16  17
ATOM     17  C   UNL     1       1.855  59.523  17.807  1.00  0.00    -0.000 C 
BRANCH  17  18
ATOM     18  C   UNL     1       1.641  59.875  16.324  1.00  0.00    -0.003 C 
ATOM     19  C   UNL     1       0.747  58.874  15.594  1.00  0.00     0.004 C 
ENDBRANCH  17  18
ENDBRANCH  16  17
ENDBRANCH  15  16
ENDBRANCH  14  15
ENDBRANCH  13  14
ENDBRANCH  12  13
ENDBRANCH   1  12
TORSDOF 14
ENDMDL
MODEL 2
REMARK VINA RESULT:    -5.274      3.937      9.082
REMARK INTER + INTRA:         -10.583
REMARK INTER:                  -9.565
REMARK INTRA:                  -1.018
REMARK UNBOUND:                -0.992
REMARK SMILES CCCCCCCCCCCCCC[C@H](C)C(=O)[O-]
REMARK SMILES IDX 9 1 10 2 11 3 12 4 13 5 14 6 15 7 16 8 17 9 18 10 19 11 8 12
REMARK SMILES IDX 7 13 6 14 5 15 4 16 3 17 2 18 1 19
REMARK H PARENT
REMARK Flexibility Score: inf
ROOT
ATOM      1  C   UNL     1       7.233  54.610  19.410  1.00  0.00     0.000 C 
ENDROOT
BRANCH   1   2
ATOM      2  C   UNL     1       6.826  56.094  19.498  1.00  0.00     0.000 C 
BRANCH   2   3
ATOM      3  C   UNL     1       6.558  56.609  20.923  1.00  0.00     0.000 C 
BRANCH   3   4
ATOM      4  C   UNL     1       5.059  56.806  21.209  1.00  0.00     0.000 C 
BRANCH   4   5
ATOM      5  C   UNL     1       4.431  57.923  20.358  1.00  0.00     0.001 C 
BRANCH   5   6
ATOM      6  C   UNL     1       2.950  58.245  20.659  1.00  0.00     0.009 C 
BRANCH   6   7
ATOM      7  C   UNL     1       2.568  59.743  20.775  1.00  0.00     0.032 C 
ATOM      8  C   UNL     1       1.661  60.041  21.980  1.00  0.00     0.014 C 
BRANCH   7   9
ATOM      9  C   UNL     1       2.022  60.298  19.481  1.00  0.00     0.044 C 
ATOM     10  O   UNL     1       1.246  61.290  19.471  1.00  0.00    -0.550 OA
ATOM     11  O   UNL     1       2.402  59.723  18.275  1.00  0.00    -0.550 OA
ENDBRANCH   7   9
ENDBRANCH   6   7
ENDBRANCH   5   6
ENDBRANCH   4   5
ENDBRANCH   3   4
ENDBRANCH   2   3
ENDBRANCH   1   2
BRANCH   1  12
ATOM     12  C   UNL     1       7.768  54.032  20.737  1.00  0.00     0.000 C 
BRANCH  12  13
ATOM     13  C   UNL     1       9.285  54.243  20.894  1.00  0.00    -0.000 C 
BRANCH  13  14
ATOM     14  C   UNL     1      10.004  53.015  21.482  1.00  0.00    -0.000 C 
BRANCH  14  15
ATOM     15  C   UNL     1      10.698  53.262  22.834  1.00  0.00    -0.000 C 
BRANCH  15  16
ATOM     16  C   UNL     1      10.195  54.532  23.541  1.00  0.00    -0.000 C 
BRANCH  16  17
ATOM     17  C   UNL     1       9.434  54.227  24.844  1.00  0.00    -0.000 C 
BRANCH  17  18
ATOM     18  C   UNL     1       7.931  53.951  24.661  1.00  0.00    -0.003 C 
ATOM     19  C   UNL     1       7.635  52.518  24.223  1.00  0.00     0.004 C 
ENDBRANCH  17  18
ENDBRANCH  16  17
ENDBRANCH  15  16
ENDBRANCH  14  15
ENDBRANCH  13  14
ENDBRANCH  12  13
ENDBRANCH   1  12
TORSDOF 14
ENDMDL
MODEL 3
REMARK VINA RESULT:    -5.255      4.179      9.652
REMARK INTER + INTRA:         -10.548
REMARK INTER:                  -9.524
REMARK INTRA:                  -1.023
REMARK UNBOUND:                -0.992
REMARK SMILES CCCCCCCCCCCCCC[C@H](C)C(=O)[O-]
REMARK SMILES IDX 9 1 10 2 11 3 12 4 13 5 14 6 15 7 16 8 17 9 18 10 19 11 8 12
REMARK SMILES IDX 7 13 6 14 5 15 4 16 3 17 2 18 1 19
REMARK H PARENT
REMARK Flexibility Score: inf
ROOT
ATOM      1  C   UNL     1       6.114  56.859  20.353  1.00  0.00     0.000 C 
ENDROOT
BRANCH   1   2
ATOM      2  C   UNL     1       4.854  57.299  21.125  1.00  0.00     0.000 C 
BRANCH   2   3
ATOM      3  C   UNL     1       3.828  58.089  20.294  1.00  0.00     0.000 C 
BRANCH   3   4
ATOM      4  C   UNL     1       2.563  58.443  21.095  1.00  0.00     0.000 C 
BRANCH   4   5
ATOM      5  C   UNL     1       2.386  59.958  21.294  1.00  0.00     0.001 C 
BRANCH   5   6
ATOM      6  C   UNL     1       2.414  60.812  20.006  1.00  0.00     0.009 C 
BRANCH   6   7
ATOM      7  C   UNL     1       1.072  60.985  19.250  1.00  0.00     0.032 C 
ATOM      8  C   UNL     1      -0.153  60.652  20.116  1.00  0.00     0.014 C 
BRANCH   7   9
ATOM      9  C   UNL     1       1.064  60.263  17.924  1.00  0.00     0.044 C 
ATOM     10  O   UNL     1       2.020  59.520  17.578  1.00  0.00    -0.550 OA
ATOM     11  O   UNL     1      -0.030  60.398  17.078  1.00  0.00    -0.550 OA
ENDBRANCH   7   9
ENDBRANCH   6   7
ENDBRANCH   5   6
ENDBRANCH   4   5
ENDBRANCH   3   4
ENDBRANCH   2   3
ENDBRANCH   1   2
BRANCH   1  12
ATOM     12  C   UNL     1       7.159  56.137  21.229  1.00  0.00     0.000 C 
BRANCH  12  13
ATOM     13  C   UNL     1       8.197  55.374  20.387  1.00  0.00    -0.000 C 
BRANCH  13  14
ATOM     14  C   UNL     1       8.450  53.943  20.898  1.00  0.00    -0.000 C 
BRANCH  14  15
ATOM     15  C   UNL     1       9.934  53.577  21.081  1.00  0.00    -0.000 C 
BRANCH  15  16
ATOM     16  C   UNL     1      10.298  53.270  22.543  1.00  0.00    -0.000 C 
BRANCH  16  17
ATOM     17  C   UNL     1      10.055  54.466  23.482  1.00  0.00    -0.000 C 
BRANCH  17  18
ATOM     18  C   UNL     1       9.344  54.115  24.800  1.00  0.00    -0.003 C 
ATOM     19  C   UNL     1       7.907  53.638  24.597  1.00  0.00     0.004 C 
ENDBRANCH  17  18
ENDBRANCH  16  17
ENDBRANCH  15  16
ENDBRANCH  14  15
ENDBRANCH  13  14
ENDBRANCH  12  13
ENDBRANCH   1  12
TORSDOF 14
ENDMDL
MODEL 4
REMARK VINA RESULT:    -5.168      1.968      3.112
REMARK INTER + INTRA:         -10.390
REMARK INTER:                  -9.588
REMARK INTRA:                  -0.802
REMARK UNBOUND:                -0.992
REMARK SMILES CCCCCCCCCCCCCC[C@H](C)C(=O)[O-]
REMARK SMILES IDX 9 1 10 2 11 3 12 4 13 5 14 6 15 7 16 8 17 9 18 10 19 11 8 12
REMARK SMILES IDX 7 13 6 14 5 15 4 16 3 17 2 18 1 19
REMARK H PARENT
REMARK Flexibility Score: inf
ROOT
ATOM      1  C   UNL     1       5.129  57.355  20.527  1.00  0.00     0.000 C 
ENDROOT
BRANCH   1   2
ATOM      2  C   UNL     1       5.421  56.029  21.256  1.00  0.00     0.000 C 
BRANCH   2   3
ATOM      3  C   UNL     1       6.106  54.953  20.396  1.00  0.00     0.000 C 
BRANCH   3   4
ATOM      4  C   UNL     1       7.487  55.394  19.884  1.00  0.00     0.000 C 
BRANCH   4   5
ATOM      5  C   UNL     1       8.638  54.567  20.481  1.00  0.00     0.001 C 
BRANCH   5   6
ATOM      6  C   UNL     1       8.896  54.765  21.991  1.00  0.00     0.009 C 
BRANCH   6   7
ATOM      7  C   UNL     1       9.970  53.858  22.644  1.00  0.00     0.032 C 
ATOM      8  C   UNL     1       9.825  52.379  22.252  1.00  0.00     0.014 C 
BRANCH   7   9
ATOM      9  C   UNL     1      10.062  54.061  24.137  1.00  0.00     0.044 C 
ATOM     10  O   UNL     1      11.131  54.449  24.680  1.00  0.00    -0.550 OA
ATOM     11  O   UNL     1       8.941  53.844  24.929  1.00  0.00    -0.550 OA
ENDBRANCH   7   9
ENDBRANCH   6   7
ENDBRANCH   5   6
ENDBRANCH   4   5
ENDBRANCH   3   4
ENDBRANCH   2   3
ENDBRANCH   1   2
BRANCH   1  12
ATOM     12  C   UNL     1       3.748  57.957  20.859  1.00  0.00     0.000 C 
BRANCH  12  13
ATOM     13  C   UNL     1       3.386  59.131  19.932  1.00  0.00    -0.000 C 
BRANCH  13  14
ATOM     14  C   UNL     1       2.308  60.055  20.526  1.00  0.00    -0.000 C 
BRANCH  14  15
ATOM     15  C   UNL     1       2.067  59.878  22.037  1.00  0.00    -0.000 C 
BRANCH  15  16
ATOM     16  C   UNL     1       0.593  60.069  22.433  1.00  0.00    -0.000 C 
BRANCH  16  17
ATOM     17  C   UNL     1       0.152  59.123  23.564  1.00  0.00    -0.000 C 
BRANCH  17  18
ATOM     18  C   UNL     1      -0.922  58.097  23.162  1.00  0.00    -0.003 C 
ATOM     19  C   UNL     1      -0.447  57.127  22.081  1.00  0.00     0.004 C 
ENDBRANCH  17  18
ENDBRANCH  16  17
ENDBRANCH  15  16
ENDBRANCH  14  15
ENDBRANCH  13  14
ENDBRANCH  12  13
ENDBRANCH   1  12
TORSDOF 14
ENDMDL
MODEL 5
REMARK VINA RESULT:    -5.144      4.071      9.197
REMARK INTER + INTRA:         -10.346
REMARK INTER:                  -9.393
REMARK INTRA:                  -0.953
REMARK UNBOUND:                -0.992
REMARK SMILES CCCCCCCCCCCCCC[C@H](C)C(=O)[O-]
REMARK SMILES IDX 9 1 10 2 11 3 12 4 13 5 14 6 15 7 16 8 17 9 18 10 19 11 8 12
REMARK SMILES IDX 7 13 6 14 5 15 4 16 3 17 2 18 1 19
REMARK H PARENT
REMARK Flexibility Score: inf
ROOT
ATOM      1  C   UNL     1       6.046  56.898  20.310  1.00  0.00     0.000 C 
ENDROOT
BRANCH   1   2
ATOM      2  C   UNL     1       4.720  57.276  21.000  1.00  0.00     0.000 C 
BRANCH   2   3
ATOM      3  C   UNL     1       3.883  58.333  20.260  1.00  0.00     0.000 C 
BRANCH   3   4
ATOM      4  C   UNL     1       2.459  58.466  20.829  1.00  0.00     0.000 C 
BRANCH   4   5
ATOM      5  C   UNL     1       2.378  59.445  22.013  1.00  0.00     0.001 C 
BRANCH   5   6
ATOM      6  C   UNL     1       0.969  59.668  22.605  1.00  0.00     0.009 C 
BRANCH   6   7
ATOM      7  C   UNL     1      -0.101  58.589  22.297  1.00  0.00     0.032 C 
ATOM      8  C   UNL     1      -1.276  59.128  21.465  1.00  0.00     0.014 C 
BRANCH   7   9
ATOM      9  C   UNL     1      -0.551  57.856  23.538  1.00  0.00     0.044 C 
ATOM     10  O   UNL     1      -1.484  57.011  23.496  1.00  0.00    -0.550 OA
ATOM     11  O   UNL     1       0.092  58.096  24.746  1.00  0.00    -0.550 OA
ENDBRANCH   7   9
ENDBRANCH   6   7
ENDBRANCH   5   6
ENDBRANCH   4   5
ENDBRANCH   3   4
ENDBRANCH   2   3
ENDBRANCH   1   2
BRANCH   1  12
ATOM     12  C   UNL     1       7.062  56.213  21.249  1.00  0.00     0.000 C 
BRANCH  12  13
ATOM     13  C   UNL     1       6.588  54.821  21.703  1.00  0.00    -0.000 C 
BRANCH  13  14
ATOM     14  C   UNL     1       7.531  53.690  21.253  1.00  0.00    -0.000 C 
BRANCH  14  15
ATOM     15  C   UNL     1       8.895  54.163  20.715  1.00  0.00    -0.000 C 
BRANCH  15  16
ATOM     16  C   UNL     1      10.080  53.610  21.525  1.00  0.00    -0.000 C 
BRANCH  16  17
ATOM     17  C   UNL     1       9.671  53.130  22.929  1.00  0.00    -0.000 C 
BRANCH  17  18
ATOM     18  C   UNL     1      10.226  53.978  24.086  1.00  0.00    -0.003 C 
ATOM     19  C   UNL     1       9.226  54.164  25.226  1.00  0.00     0.004 C 
ENDBRANCH  17  18
ENDBRANCH  16  17
ENDBRANCH  15  16
ENDBRANCH  14  15
ENDBRANCH  13  14
ENDBRANCH  12  13
ENDBRANCH   1  12
TORSDOF 14
ENDMDL
MODEL 6
REMARK VINA RESULT:    -5.144      4.413      9.498
REMARK INTER + INTRA:         -10.346
REMARK INTER:                  -9.390
REMARK INTRA:                  -0.955
REMARK UNBOUND:                -0.992
REMARK SMILES CCCCCCCCCCCCCC[C@H](C)C(=O)[O-]
REMARK SMILES IDX 9 1 10 2 11 3 12 4 13 5 14 6 15 7 16 8 17 9 18 10 19 11 8 12
REMARK SMILES IDX 7 13 6 14 5 15 4 16 3 17 2 18 1 19
REMARK H PARENT
REMARK Flexibility Score: inf
ROOT
ATOM      1  C   UNL     1       5.012  56.640  21.243  1.00  0.00     0.000 C 
ENDROOT
BRANCH   1   2
ATOM      2  C   UNL     1       4.375  57.786  20.432  1.00  0.00     0.000 C 
BRANCH   2   3
ATOM      3  C   UNL     1       3.173  58.468  21.107  1.00  0.00     0.000 C 
BRANCH   3   4
ATOM      4  C   UNL     1       2.882  59.864  20.528  1.00  0.00     0.000 C 
BRANCH   4   5
ATOM      5  C   UNL     1       2.792  59.867  18.993  1.00  0.00     0.001 C 
BRANCH   5   6
ATOM      6  C   UNL     1       1.391  59.594  18.401  1.00  0.00     0.009 C 
BRANCH   6   7
ATOM      7  C   UNL     1       1.044  60.301  17.065  1.00  0.00     0.032 C 
ATOM      8  C   UNL     1      -0.357  60.935  17.068  1.00  0.00     0.014 C 
BRANCH   7   9
ATOM      9  C   UNL     1       1.282  59.414  15.867  1.00  0.00     0.044 C 
ATOM     10  O   UNL     1       0.497  58.469  15.586  1.00  0.00    -0.550 OA
ATOM     11  O   UNL     1       2.371  59.657  15.040  1.00  0.00    -0.550 OA
ENDBRANCH   7   9
ENDBRANCH   6   7
ENDBRANCH   5   6
ENDBRANCH   4   5
ENDBRANCH   3   4
ENDBRANCH   2   3
ENDBRANCH   1   2
BRANCH   1  12
ATOM     12  C   UNL     1       6.553  56.613  21.176  1.00  0.00     0.000 C 
BRANCH  12  13
ATOM     13  C   UNL     1       7.072  56.588  19.727  1.00  0.00    -0.000 C 
BRANCH  13  14
ATOM     14  C   UNL     1       7.446  55.174  19.247  1.00  0.00    -0.000 C 
BRANCH  14  15
ATOM     15  C   UNL     1       7.673  54.149  20.373  1.00  0.00    -0.000 C 
BRANCH  15  16
ATOM     16  C   UNL     1       9.117  54.157  20.905  1.00  0.00    -0.000 C 
BRANCH  16  17
ATOM     17  C   UNL     1       9.195  53.910  22.422  1.00  0.00    -0.000 C 
BRANCH  17  18
ATOM     18  C   UNL     1       7.844  53.616  23.097  1.00  0.00    -0.003 C 
ATOM     19  C   UNL     1       7.959  53.427  24.608  1.00  0.00     0.004 C 
ENDBRANCH  17  18
ENDBRANCH  16  17
ENDBRANCH  15  16
ENDBRANCH  14  15
ENDBRANCH  13  14
ENDBRANCH  12  13
ENDBRANCH   1  12
TORSDOF 14
ENDMDL
MODEL 7
REMARK VINA RESULT:    -5.106      1.993      3.256
REMARK INTER + INTRA:         -10.276
REMARK INTER:                  -9.426
REMARK INTRA:                  -0.850
REMARK UNBOUND:                -0.992
REMARK SMILES CCCCCCCCCCCCCC[C@H](C)C(=O)[O-]
REMARK SMILES IDX 9 1 10 2 11 3 12 4 13 5 14 6 15 7 16 8 17 9 18 10 19 11 8 12
REMARK SMILES IDX 7 13 6 14 5 15 4 16 3 17 2 18 1 19
REMARK H PARENT
REMARK Flexibility Score: inf
ROOT
ATOM      1  C   UNL     1       5.564  56.086  21.045  1.00  0.00     0.000 C 
ENDROOT
BRANCH   1   2
ATOM      2  C   UNL     1       6.718  56.608  20.166  1.00  0.00     0.000 C 
BRANCH   2   3
ATOM      3  C   UNL     1       7.208  55.626  19.088  1.00  0.00     0.000 C 
BRANCH   3   4
ATOM      4  C   UNL     1       7.850  54.362  19.686  1.00  0.00     0.000 C 
BRANCH   4   5
ATOM      5  C   UNL     1       8.728  54.661  20.913  1.00  0.00     0.001 C 
BRANCH   5   6
ATOM      6  C   UNL     1       9.247  53.428  21.685  1.00  0.00     0.009 C 
BRANCH   6   7
ATOM      7  C   UNL     1       8.729  53.238  23.133  1.00  0.00     0.032 C 
ATOM      8  C   UNL     1       7.239  53.585  23.289  1.00  0.00     0.014 C 
BRANCH   7   9
ATOM      9  C   UNL     1       9.600  53.934  24.151  1.00  0.00     0.044 C 
ATOM     10  O   UNL     1      10.810  54.191  23.910  1.00  0.00    -0.550 OA
ATOM     11  O   UNL     1       9.054  54.326  25.367  1.00  0.00    -0.550 OA
ENDBRANCH   7   9
ENDBRANCH   6   7
ENDBRANCH   5   6
ENDBRANCH   4   5
ENDBRANCH   3   4
ENDBRANCH   2   3
ENDBRANCH   1   2
BRANCH   1  12
ATOM     12  C   UNL     1       4.627  57.196  21.565  1.00  0.00     0.000 C 
BRANCH  12  13
ATOM     13  C   UNL     1       4.127  58.113  20.434  1.00  0.00    -0.000 C 
BRANCH  13  14
ATOM     14  C   UNL     1       2.641  58.490  20.580  1.00  0.00    -0.000 C 
BRANCH  14  15
ATOM     15  C   UNL     1       2.294  59.257  21.868  1.00  0.00    -0.000 C 
BRANCH  15  16
ATOM     16  C   UNL     1       0.869  59.838  21.852  1.00  0.00    -0.000 C 
BRANCH  16  17
ATOM     17  C   UNL     1      -0.142  58.959  22.610  1.00  0.00    -0.000 C 
BRANCH  17  18
ATOM     18  C   UNL     1      -0.219  59.225  24.123  1.00  0.00    -0.003 C 
ATOM     19  C   UNL     1      -0.189  57.946  24.959  1.00  0.00     0.004 C 
ENDBRANCH  17  18
ENDBRANCH  16  17
ENDBRANCH  15  16
ENDBRANCH  14  15
ENDBRANCH  13  14
ENDBRANCH  12  13
ENDBRANCH   1  12
TORSDOF 14
ENDMDL
MODEL 8
REMARK VINA RESULT:    -5.104      4.648      6.989
REMARK INTER + INTRA:         -10.274
REMARK INTER:                  -9.336
REMARK INTRA:                  -0.938
REMARK UNBOUND:                -0.992
REMARK SMILES CCCCCCCCCCCCCC[C@H](C)C(=O)[O-]
REMARK SMILES IDX 9 1 10 2 11 3 12 4 13 5 14 6 15 7 16 8 17 9 18 10 19 11 8 12
REMARK SMILES IDX 7 13 6 14 5 15 4 16 3 17 2 18 1 19
REMARK H PARENT
REMARK Flexibility Score: inf
ROOT
ATOM      1  C   UNL     1       9.638  53.171  21.748  1.00  0.00     0.000 C 
ENDROOT
BRANCH   1   2
ATOM      2  C   UNL     1      10.619  52.035  22.099  1.00  0.00     0.000 C 
BRANCH   2   3
ATOM      3  C   UNL     1       9.962  50.666  22.346  1.00  0.00     0.000 C 
BRANCH   3   4
ATOM      4  C   UNL     1      10.982  49.580  22.733  1.00  0.00     0.000 C 
BRANCH   4   5
ATOM      5  C   UNL     1      10.361  48.175  22.803  1.00  0.00     0.001 C 
BRANCH   5   6
ATOM      6  C   UNL     1      10.341  47.518  24.201  1.00  0.00     0.009 C 
BRANCH   6   7
ATOM      7  C   UNL     1      11.625  46.770  24.643  1.00  0.00     0.032 C 
ATOM      8  C   UNL     1      11.341  45.363  25.193  1.00  0.00     0.014 C 
BRANCH   7   9
ATOM      9  C   UNL     1      12.481  47.598  25.570  1.00  0.00     0.044 C 
ATOM     10  O   UNL     1      13.576  48.088  25.186  1.00  0.00    -0.550 OA
ATOM     11  O   UNL     1      12.043  47.851  26.864  1.00  0.00    -0.550 OA
ENDBRANCH   7   9
ENDBRANCH   6   7
ENDBRANCH   5   6
ENDBRANCH   4   5
ENDBRANCH   3   4
ENDBRANCH   2   3
ENDBRANCH   1   2
BRANCH   1  12
ATOM     12  C   UNL     1       8.181  52.888  22.173  1.00  0.00     0.000 C 
BRANCH  12  13
ATOM     13  C   UNL     1       7.475  54.149  22.704  1.00  0.00    -0.000 C 
BRANCH  13  14
ATOM     14  C   UNL     1       6.152  54.448  21.975  1.00  0.00    -0.000 C 
BRANCH  14  15
ATOM     15  C   UNL     1       6.119  55.792  21.225  1.00  0.00    -0.000 C 
BRANCH  15  16
ATOM     16  C   UNL     1       7.488  56.186  20.645  1.00  0.00    -0.000 C 
BRANCH  16  17
ATOM     17  C   UNL     1       7.515  56.158  19.106  1.00  0.00    -0.000 C 
BRANCH  17  18
ATOM     18  C   UNL     1       6.983  54.859  18.477  1.00  0.00    -0.003 C 
ATOM     19  C   UNL     1       6.883  54.928  16.954  1.00  0.00     0.004 C 
ENDBRANCH  17  18
ENDBRANCH  16  17
ENDBRANCH  15  16
ENDBRANCH  14  15
ENDBRANCH  13  14
ENDBRANCH  12  13
ENDBRANCH   1  12
TORSDOF 14
ENDMDL
MODEL 9
REMARK VINA RESULT:    -5.097      5.348     12.086
REMARK INTER + INTRA:         -10.261
REMARK INTER:                  -9.469
REMARK INTRA:                  -0.792
REMARK UNBOUND:                -0.992
REMARK SMILES CCCCCCCCCCCCCC[C@H](C)C(=O)[O-]
REMARK SMILES IDX 9 1 10 2 11 3 12 4 13 5 14 6 15 7 16 8 17 9 18 10 19 11 8 12
REMARK SMILES IDX 7 13 6 14 5 15 4 16 3 17 2 18 1 19
REMARK H PARENT
REMARK Flexibility Score: inf
ROOT
ATOM      1  C   UNL     1      10.883  50.090  22.739  1.00  0.00     0.000 C 
ENDROOT
BRANCH   1   2
ATOM      2  C   UNL     1       9.944  51.119  22.079  1.00  0.00     0.000 C 
BRANCH   2   3
ATOM      3  C   UNL     1      10.248  52.587  22.422  1.00  0.00     0.000 C 
BRANCH   3   4
ATOM      4  C   UNL     1       9.918  53.547  21.266  1.00  0.00     0.000 C 
BRANCH   4   5
ATOM      5  C   UNL     1       8.694  54.431  21.555  1.00  0.00     0.001 C 
BRANCH   5   6
ATOM      6  C   UNL     1       7.340  53.896  21.036  1.00  0.00     0.009 C 
BRANCH   6   7
ATOM      7  C   UNL     1       6.711  54.634  19.827  1.00  0.00     0.032 C 
ATOM      8  C   UNL     1       7.276  54.164  18.477  1.00  0.00     0.014 C 
BRANCH   7   9
ATOM      9  C   UNL     1       6.750  56.135  19.987  1.00  0.00     0.044 C 
ATOM     10  O   UNL     1       6.011  56.724  20.820  1.00  0.00    -0.550 OA
ATOM     11  O   UNL     1       7.637  56.882  19.221  1.00  0.00    -0.550 OA
ENDBRANCH   7   9
ENDBRANCH   6   7
ENDBRANCH   5   6
ENDBRANCH   4   5
ENDBRANCH   3   4
ENDBRANCH   2   3
ENDBRANCH   1   2
BRANCH   1  12
ATOM     12  C   UNL     1      10.360  48.639  22.674  1.00  0.00     0.000 C 
BRANCH  12  13
ATOM     13  C   UNL     1      11.503  47.613  22.568  1.00  0.00    -0.000 C 
BRANCH  13  14
ATOM     14  C   UNL     1      12.574  47.793  23.659  1.00  0.00    -0.000 C 
BRANCH  14  15
ATOM     15  C   UNL     1      12.407  46.875  24.884  1.00  0.00    -0.000 C 
BRANCH  15  16
ATOM     16  C   UNL     1      12.235  47.656  26.197  1.00  0.00    -0.000 C 
BRANCH  16  17
ATOM     17  C   UNL     1      12.907  46.963  27.397  1.00  0.00    -0.000 C 
BRANCH  17  18
ATOM     18  C   UNL     1      14.423  47.199  27.510  1.00  0.00    -0.003 C 
ATOM     19  C   UNL     1      14.869  48.526  26.899  1.00  0.00     0.004 C 
ENDBRANCH  17  18
ENDBRANCH  16  17
ENDBRANCH  15  16
ENDBRANCH  14  15
ENDBRANCH  13  14
ENDBRANCH  12  13
ENDBRANCH   1  12
TORSDOF 14
ENDMDL
