MODEL 1
REMARK VINA RESULT:    -4.720      0.000      0.000
REMARK INTER + INTRA:         -16.103
REMARK INTER:                 -11.893
REMARK INTRA:                  -4.210
REMARK UNBOUND:                -4.210
REMARK SMILES CCCCCCCCCCCCCCCCCCCCCCCCCCCC(=O)[O-]
REMARK SMILES IDX 15 1 16 2 17 3 18 4 19 5 20 6 21 7 22 8 23 9 24 10 25 11
REMARK SMILES IDX 26 12 27 13 28 14 29 15 30 16 14 17 13 18 12 19 11 20 10 21
REMARK SMILES IDX 9 22 8 23 7 24 6 25 5 26 4 27 3 28 2 29 1 30
REMARK H PARENT
REMARK Flexibility Score: inf
ROOT
ATOM      1  C   UNL     1     183.826 180.756 183.408  1.00  0.00     0.000 C 
ENDROOT
BRANCH   1   2
ATOM      2  C   UNL     1     182.928 180.750 184.665  1.00  0.00     0.000 C 
BRANCH   2   3
ATOM      3  C   UNL     1     182.013 181.985 184.742  1.00  0.00     0.000 C 
BRANCH   3   4
ATOM      4  C   UNL     1     181.242 182.229 183.436  1.00  0.00     0.000 C 
BRANCH   4   5
ATOM      5  C   UNL     1     180.763 183.683 183.296  1.00  0.00     0.000 C 
BRANCH   5   6
ATOM      6  C   UNL     1     179.282 183.786 182.893  1.00  0.00     0.000 C 
BRANCH   6   7
ATOM      7  C   UNL     1     178.933 183.147 181.533  1.00  0.00     0.000 C 
BRANCH   7   8
ATOM      8  C   UNL     1     177.738 182.172 181.551  1.00  0.00     0.000 C 
BRANCH   8   9
ATOM      9  C   UNL     1     178.070 180.745 182.018  1.00  0.00     0.000 C 
BRANCH   9  10
ATOM     10  C   UNL     1     176.833 179.970 182.505  1.00  0.00     0.000 C 
BRANCH  10  11
ATOM     11  C   UNL     1     176.558 178.705 181.672  1.00  0.00     0.000 C 
BRANCH  11  12
ATOM     12  C   UNL     1     175.332 177.884 182.121  1.00  0.00     0.006 C 
BRANCH  12  13
ATOM     13  C   UNL     1     175.634 176.412 182.447  1.00  0.00     0.053 C 
BRANCH  13  14
ATOM     14  C   UNL     1     174.698 175.861 183.478  1.00  0.00     0.041 C 
ATOM     15  O   UNL     1     173.657 175.246 183.124  1.00  0.00    -0.550 OA
ATOM     16  O   UNL     1     174.985 176.008 184.829  1.00  0.00    -0.550 OA
ENDBRANCH  13  14
ENDBRANCH  12  13
ENDBRANCH  11  12
ENDBRANCH  10  11
ENDBRANCH   9  10
ENDBRANCH   8   9
ENDBRANCH   7   8
ENDBRANCH   6   7
ENDBRANCH   5   6
ENDBRANCH   4   5
ENDBRANCH   3   4
ENDBRANCH   2   3
ENDBRANCH   1   2
BRANCH   1  17
ATOM     17  C   UNL     1     185.155 180.001 183.591  1.00  0.00     0.000 C 
BRANCH  17  18
ATOM     18  C   UNL     1     186.346 180.555 182.783  1.00  0.00     0.000 C 
BRANCH  18  19
ATOM     19  C   UNL     1     185.986 181.335 181.498  1.00  0.00     0.000 C 
BRANCH  19  20
ATOM     20  C   UNL     1     186.590 182.753 181.397  1.00  0.00     0.000 C 
BRANCH  20  21
ATOM     21  C   UNL     1     185.743 183.855 182.065  1.00  0.00     0.000 C 
BRANCH  21  22
ATOM     22  C   UNL     1     184.221 183.662 181.974  1.00  0.00    -0.000 C 
BRANCH  22  23
ATOM     23  C   UNL     1     183.488 184.628 181.020  1.00  0.00    -0.000 C 
BRANCH  23  24
ATOM     24  C   UNL     1     182.686 183.926 179.902  1.00  0.00    -0.000 C 
BRANCH  24  25
ATOM     25  C   UNL     1     182.738 182.390 180.013  1.00  0.00    -0.000 C 
BRANCH  25  26
ATOM     26  C   UNL     1     181.488 181.712 179.432  1.00  0.00    -0.000 C 
BRANCH  26  27
ATOM     27  C   UNL     1     181.095 180.438 180.201  1.00  0.00    -0.000 C 
BRANCH  27  28
ATOM     28  C   UNL     1     182.316 179.636 180.679  1.00  0.00    -0.000 C 
BRANCH  28  29
ATOM     29  C   UNL     1     181.933 178.285 181.301  1.00  0.00    -0.003 C 
ATOM     30  C   UNL     1     180.454 177.980 181.083  1.00  0.00     0.004 C 
ENDBRANCH  28  29
ENDBRANCH  27  28
ENDBRANCH  26  27
ENDBRANCH  25  26
ENDBRANCH  24  25
ENDBRANCH  23  24
ENDBRANCH  22  23
ENDBRANCH  21  22
ENDBRANCH  20  21
ENDBRANCH  19  20
ENDBRANCH  18  19
ENDBRANCH  17  18
ENDBRANCH   1  17
TORSDOF 26
ENDMDL
MODEL 2
REMARK VINA RESULT:    -4.591      5.294      9.631
REMARK INTER + INTRA:         -15.780
REMARK INTER:                 -11.479
REMARK INTRA:                  -4.301
REMARK UNBOUND:                -4.210
REMARK SMILES CCCCCCCCCCCCCCCCCCCCCCCCCCCC(=O)[O-]
REMARK SMILES IDX 15 1 16 2 17 3 18 4 19 5 20 6 21 7 22 8 23 9 24 10 25 11
REMARK SMILES IDX 26 12 27 13 28 14 29 15 30 16 14 17 13 18 12 19 11 20 10 21
REMARK SMILES IDX 9 22 8 23 7 24 6 25 5 26 4 27 3 28 2 29 1 30
REMARK H PARENT
REMARK Flexibility Score: inf
ROOT
ATOM      1  C   UNL     1     179.616 183.870 182.994  1.00  0.00     0.000 C 
ENDROOT
BRANCH   1   2
ATOM      2  C   UNL     1     180.808 183.422 183.865  1.00  0.00     0.000 C 
BRANCH   2   3
ATOM      3  C   UNL     1     181.390 182.069 183.420  1.00  0.00     0.000 C 
BRANCH   3   4
ATOM      4  C   UNL     1     182.195 181.379 184.531  1.00  0.00     0.000 C 
BRANCH   4   5
ATOM      5  C   UNL     1     183.434 180.646 183.993  1.00  0.00     0.000 C 
BRANCH   5   6
ATOM      6  C   UNL     1     184.056 181.343 182.771  1.00  0.00     0.000 C 
BRANCH   6   7
ATOM      7  C   UNL     1     185.175 180.548 182.068  1.00  0.00     0.000 C 
BRANCH   7   8
ATOM      8  C   UNL     1     186.514 181.297 181.908  1.00  0.00     0.000 C 
BRANCH   8   9
ATOM      9  C   UNL     1     186.408 182.688 181.261  1.00  0.00     0.000 C 
BRANCH   9  10
ATOM     10  C   UNL     1     186.775 183.829 182.225  1.00  0.00     0.000 C 
BRANCH  10  11
ATOM     11  C   UNL     1     187.112 185.141 181.495  1.00  0.00     0.000 C 
BRANCH  11  12
ATOM     12  C   UNL     1     188.409 185.832 181.962  1.00  0.00     0.006 C 
BRANCH  12  13
ATOM     13  C   UNL     1     188.371 187.368 181.905  1.00  0.00     0.053 C 
BRANCH  13  14
ATOM     14  C   UNL     1     189.255 187.990 182.942  1.00  0.00     0.041 C 
ATOM     15  O   UNL     1     189.007 187.827 184.167  1.00  0.00    -0.550 OA
ATOM     16  O   UNL     1     190.365 188.732 182.557  1.00  0.00    -0.550 OA
ENDBRANCH  13  14
ENDBRANCH  12  13
ENDBRANCH  11  12
ENDBRANCH  10  11
ENDBRANCH   9  10
ENDBRANCH   8   9
ENDBRANCH   7   8
ENDBRANCH   6   7
ENDBRANCH   5   6
ENDBRANCH   4   5
ENDBRANCH   3   4
ENDBRANCH   2   3
ENDBRANCH   1   2
BRANCH   1  17
ATOM     17  C   UNL     1     179.487 183.093 181.671  1.00  0.00     0.000 C 
BRANCH  17  18
ATOM     18  C   UNL     1     178.067 182.595 181.333  1.00  0.00     0.000 C 
BRANCH  18  19
ATOM     19  C   UNL     1     177.688 181.205 181.893  1.00  0.00     0.000 C 
BRANCH  19  20
ATOM     20  C   UNL     1     178.881 180.303 182.280  1.00  0.00     0.000 C 
BRANCH  20  21
ATOM     21  C   UNL     1     179.503 179.530 181.100  1.00  0.00     0.000 C 
BRANCH  21  22
ATOM     22  C   UNL     1     181.003 179.220 181.232  1.00  0.00    -0.000 C 
BRANCH  22  23
ATOM     23  C   UNL     1     181.930 180.032 180.303  1.00  0.00    -0.000 C 
BRANCH  23  24
ATOM     24  C   UNL     1     181.185 180.964 179.323  1.00  0.00    -0.000 C 
BRANCH  24  25
ATOM     25  C   UNL     1     182.140 181.686 178.353  1.00  0.00    -0.000 C 
BRANCH  25  26
ATOM     26  C   UNL     1     183.098 182.647 179.073  1.00  0.00    -0.000 C 
BRANCH  26  27
ATOM     27  C   UNL     1     182.368 183.595 180.041  1.00  0.00    -0.000 C 
BRANCH  27  28
ATOM     28  C   UNL     1     183.311 184.217 181.083  1.00  0.00    -0.000 C 
BRANCH  28  29
ATOM     29  C   UNL     1     183.414 185.744 180.954  1.00  0.00    -0.003 C 
ATOM     30  C   UNL     1     182.130 186.422 181.420  1.00  0.00     0.004 C 
ENDBRANCH  28  29
ENDBRANCH  27  28
ENDBRANCH  26  27
ENDBRANCH  25  26
ENDBRANCH  24  25
ENDBRANCH  23  24
ENDBRANCH  22  23
ENDBRANCH  21  22
ENDBRANCH  20  21
ENDBRANCH  19  20
ENDBRANCH  18  19
ENDBRANCH  17  18
ENDBRANCH   1  17
TORSDOF 26
ENDMDL
MODEL 3
REMARK VINA RESULT:    -4.454      4.094      7.676
REMARK INTER + INTRA:         -15.434
REMARK INTER:                 -11.555
REMARK INTRA:                  -3.879
REMARK UNBOUND:                -4.210
REMARK SMILES CCCCCCCCCCCCCCCCCCCCCCCCCCCC(=O)[O-]
REMARK SMILES IDX 15 1 16 2 17 3 18 4 19 5 20 6 21 7 22 8 23 9 24 10 25 11
REMARK SMILES IDX 26 12 27 13 28 14 29 15 30 16 14 17 13 18 12 19 11 20 10 21
REMARK SMILES IDX 9 22 8 23 7 24 6 25 5 26 4 27 3 28 2 29 1 30
REMARK H PARENT
REMARK Flexibility Score: inf
ROOT
ATOM      1  C   UNL     1     179.961 183.702 183.229  1.00  0.00     0.000 C 
ENDROOT
BRANCH   1   2
ATOM      2  C   UNL     1     178.514 183.931 183.716  1.00  0.00     0.000 C 
BRANCH   2   3
ATOM      3  C   UNL     1     177.466 183.505 182.674  1.00  0.00     0.000 C 
BRANCH   3   4
ATOM      4  C   UNL     1     178.044 182.558 181.610  1.00  0.00     0.000 C 
BRANCH   4   5
ATOM      5  C   UNL     1     177.465 181.138 181.708  1.00  0.00     0.000 C 
BRANCH   5   6
ATOM      6  C   UNL     1     178.518 180.092 182.117  1.00  0.00     0.000 C 
BRANCH   6   7
ATOM      7  C   UNL     1     179.980 180.506 181.856  1.00  0.00     0.000 C 
BRANCH   7   8
ATOM      8  C   UNL     1     180.802 179.519 181.003  1.00  0.00     0.000 C 
BRANCH   8   9
ATOM      9  C   UNL     1     181.684 180.170 179.923  1.00  0.00     0.000 C 
BRANCH   9  10
ATOM     10  C   UNL     1     180.931 181.212 179.079  1.00  0.00     0.000 C 
BRANCH  10  11
ATOM     11  C   UNL     1     181.707 182.533 178.931  1.00  0.00     0.000 C 
BRANCH  11  12
ATOM     12  C   UNL     1     181.527 183.529 180.094  1.00  0.00     0.006 C 
BRANCH  12  13
ATOM     13  C   UNL     1     182.841 184.034 180.712  1.00  0.00     0.053 C 
BRANCH  13  14
ATOM     14  C   UNL     1     182.832 185.518 180.916  1.00  0.00     0.041 C 
ATOM     15  O   UNL     1     181.835 186.078 181.445  1.00  0.00    -0.550 OA
ATOM     16  O   UNL     1     183.932 186.279 180.543  1.00  0.00    -0.550 OA
ENDBRANCH  13  14
ENDBRANCH  12  13
ENDBRANCH  11  12
ENDBRANCH  10  11
ENDBRANCH   9  10
ENDBRANCH   8   9
ENDBRANCH   7   8
ENDBRANCH   6   7
ENDBRANCH   5   6
ENDBRANCH   4   5
ENDBRANCH   3   4
ENDBRANCH   2   3
ENDBRANCH   1   2
BRANCH   1  17
ATOM     17  C   UNL     1     180.902 183.149 184.316  1.00  0.00     0.000 C 
BRANCH  17  18
ATOM     18  C   UNL     1     182.220 182.537 183.799  1.00  0.00     0.000 C 
BRANCH  18  19
ATOM     19  C   UNL     1     182.576 181.137 184.350  1.00  0.00     0.000 C 
BRANCH  19  20
ATOM     20  C   UNL     1     183.824 180.478 183.720  1.00  0.00     0.000 C 
BRANCH  20  21
ATOM     21  C   UNL     1     184.080 180.876 182.253  1.00  0.00     0.000 C 
BRANCH  21  22
ATOM     22  C   UNL     1     185.555 180.876 181.819  1.00  0.00    -0.000 C 
BRANCH  22  23
ATOM     23  C   UNL     1     186.061 182.195 181.198  1.00  0.00    -0.000 C 
BRANCH  23  24
ATOM     24  C   UNL     1     185.824 183.441 182.079  1.00  0.00    -0.000 C 
BRANCH  24  25
ATOM     25  C   UNL     1     187.121 184.224 182.357  1.00  0.00    -0.000 C 
BRANCH  25  26
ATOM     26  C   UNL     1     187.279 185.449 181.443  1.00  0.00    -0.000 C 
BRANCH  26  27
ATOM     27  C   UNL     1     188.582 186.224 181.714  1.00  0.00    -0.000 C 
BRANCH  27  28
ATOM     28  C   UNL     1     188.331 187.699 182.060  1.00  0.00    -0.000 C 
BRANCH  28  29
ATOM     29  C   UNL     1     189.055 188.140 183.341  1.00  0.00    -0.003 C 
ATOM     30  C   UNL     1     190.569 188.070 183.167  1.00  0.00     0.004 C 
ENDBRANCH  28  29
ENDBRANCH  27  28
ENDBRANCH  26  27
ENDBRANCH  25  26
ENDBRANCH  24  25
ENDBRANCH  23  24
ENDBRANCH  22  23
ENDBRANCH  21  22
ENDBRANCH  20  21
ENDBRANCH  19  20
ENDBRANCH  18  19
ENDBRANCH  17  18
ENDBRANCH   1  17
TORSDOF 26
ENDMDL
MODEL 4
REMARK VINA RESULT:    -4.359      1.987      6.462
REMARK INTER + INTRA:         -15.194
REMARK INTER:                 -10.854
REMARK INTRA:                  -4.340
REMARK UNBOUND:                -4.210
REMARK SMILES CCCCCCCCCCCCCCCCCCCCCCCCCCCC(=O)[O-]
REMARK SMILES IDX 15 1 16 2 17 3 18 4 19 5 20 6 21 7 22 8 23 9 24 10 25 11
REMARK SMILES IDX 26 12 27 13 28 14 29 15 30 16 14 17 13 18 12 19 11 20 10 21
REMARK SMILES IDX 9 22 8 23 7 24 6 25 5 26 4 27 3 28 2 29 1 30
REMARK H PARENT
REMARK Flexibility Score: inf
ROOT
ATOM      1  C   UNL     1     182.778 181.170 184.100  1.00  0.00     0.000 C 
ENDROOT
BRANCH   1   2
ATOM      2  C   UNL     1     183.632 180.313 183.142  1.00  0.00     0.000 C 
BRANCH   2   3
ATOM      3  C   UNL     1     185.084 180.157 183.626  1.00  0.00     0.000 C 
BRANCH   3   4
ATOM      4  C   UNL     1     186.107 180.623 182.579  1.00  0.00     0.000 C 
BRANCH   4   5
ATOM      5  C   UNL     1     185.461 180.935 181.220  1.00  0.00     0.000 C 
BRANCH   5   6
ATOM      6  C   UNL     1     185.643 182.402 180.795  1.00  0.00     0.000 C 
BRANCH   6   7
ATOM      7  C   UNL     1     185.054 183.439 181.773  1.00  0.00     0.000 C 
BRANCH   7   8
ATOM      8  C   UNL     1     183.577 183.809 181.530  1.00  0.00     0.000 C 
BRANCH   8   9
ATOM      9  C   UNL     1     183.110 183.698 180.068  1.00  0.00     0.000 C 
BRANCH   9  10
ATOM     10  C   UNL     1     181.853 182.827 179.903  1.00  0.00     0.000 C 
BRANCH  10  11
ATOM     11  C   UNL     1     182.178 181.391 179.459  1.00  0.00     0.000 C 
BRANCH  11  12
ATOM     12  C   UNL     1     181.369 180.289 180.171  1.00  0.00     0.006 C 
BRANCH  12  13
ATOM     13  C   UNL     1     182.199 179.074 180.619  1.00  0.00     0.053 C 
BRANCH  13  14
ATOM     14  C   UNL     1     181.342 177.991 181.198  1.00  0.00     0.041 C 
ATOM     15  O   UNL     1     180.114 177.936 180.919  1.00  0.00    -0.550 OA
ATOM     16  O   UNL     1     181.902 177.029 182.029  1.00  0.00    -0.550 OA
ENDBRANCH  13  14
ENDBRANCH  12  13
ENDBRANCH  11  12
ENDBRANCH  10  11
ENDBRANCH   9  10
ENDBRANCH   8   9
ENDBRANCH   7   8
ENDBRANCH   6   7
ENDBRANCH   5   6
ENDBRANCH   4   5
ENDBRANCH   3   4
ENDBRANCH   2   3
ENDBRANCH   1   2
BRANCH   1  17
ATOM     17  C   UNL     1     181.484 181.710 183.463  1.00  0.00     0.000 C 
BRANCH  17  18
ATOM     18  C   UNL     1     181.040 183.104 183.952  1.00  0.00     0.000 C 
BRANCH  18  19
ATOM     19  C   UNL     1     180.068 183.867 183.023  1.00  0.00     0.000 C 
BRANCH  19  20
ATOM     20  C   UNL     1     178.586 183.845 183.460  1.00  0.00     0.000 C 
BRANCH  20  21
ATOM     21  C   UNL     1     177.617 183.294 182.396  1.00  0.00     0.000 C 
BRANCH  21  22
ATOM     22  C   UNL     1     178.280 182.749 181.120  1.00  0.00    -0.000 C 
BRANCH  22  23
ATOM     23  C   UNL     1     178.102 181.236 180.877  1.00  0.00    -0.000 C 
BRANCH  23  24
ATOM     24  C   UNL     1     178.127 180.381 182.163  1.00  0.00    -0.000 C 
BRANCH  24  25
ATOM     25  C   UNL     1     176.746 179.788 182.504  1.00  0.00    -0.000 C 
BRANCH  25  26
ATOM     26  C   UNL     1     176.458 178.485 181.744  1.00  0.00    -0.000 C 
BRANCH  26  27
ATOM     27  C   UNL     1     175.383 177.624 182.434  1.00  0.00    -0.000 C 
BRANCH  27  28
ATOM     28  C   UNL     1     175.767 176.137 182.494  1.00  0.00    -0.000 C 
BRANCH  28  29
ATOM     29  C   UNL     1     174.583 175.233 182.863  1.00  0.00    -0.003 C 
ATOM     30  C   UNL     1     173.532 176.001 183.659  1.00  0.00     0.004 C 
ENDBRANCH  28  29
ENDBRANCH  27  28
ENDBRANCH  26  27
ENDBRANCH  25  26
ENDBRANCH  24  25
ENDBRANCH  23  24
ENDBRANCH  22  23
ENDBRANCH  21  22
ENDBRANCH  20  21
ENDBRANCH  19  20
ENDBRANCH  18  19
ENDBRANCH  17  18
ENDBRANCH   1  17
TORSDOF 26
ENDMDL
MODEL 5
REMARK VINA RESULT:    -4.307      3.438      7.607
REMARK INTER + INTRA:         -15.064
REMARK INTER:                 -11.818
REMARK INTRA:                  -3.246
REMARK UNBOUND:                -4.210
REMARK SMILES CCCCCCCCCCCCCCCCCCCCCCCCCCCC(=O)[O-]
REMARK SMILES IDX 15 1 16 2 17 3 18 4 19 5 20 6 21 7 22 8 23 9 24 10 25 11
REMARK SMILES IDX 26 12 27 13 28 14 29 15 30 16 14 17 13 18 12 19 11 20 10 21
REMARK SMILES IDX 9 22 8 23 7 24 6 25 5 26 4 27 3 28 2 29 1 30
REMARK H PARENT
REMARK Flexibility Score: inf
ROOT
ATOM      1  C   UNL     1     183.304 180.512 183.608  1.00  0.00     0.000 C 
ENDROOT
BRANCH   1   2
ATOM      2  C   UNL     1     182.686 180.578 182.195  1.00  0.00     0.000 C 
BRANCH   2   3
ATOM      3  C   UNL     1     182.236 179.198 181.683  1.00  0.00     0.000 C 
BRANCH   3   4
ATOM      4  C   UNL     1     181.163 179.298 180.588  1.00  0.00     0.000 C 
BRANCH   4   5
ATOM      5  C   UNL     1     180.709 180.745 180.337  1.00  0.00     0.000 C 
BRANCH   5   6
ATOM      6  C   UNL     1     180.793 181.147 178.854  1.00  0.00     0.000 C 
BRANCH   6   7
ATOM      7  C   UNL     1     181.992 182.048 178.493  1.00  0.00     0.000 C 
BRANCH   7   8
ATOM      8  C   UNL     1     182.782 182.606 179.694  1.00  0.00     0.000 C 
BRANCH   8   9
ATOM      9  C   UNL     1     182.539 184.094 179.999  1.00  0.00     0.000 C 
BRANCH   9  10
ATOM     10  C   UNL     1     183.550 184.676 181.002  1.00  0.00     0.000 C 
BRANCH  10  11
ATOM     11  C   UNL     1     184.296 183.587 181.794  1.00  0.00     0.000 C 
BRANCH  11  12
ATOM     12  C   UNL     1     185.793 183.867 182.036  1.00  0.00     0.006 C 
BRANCH  12  13
ATOM     13  C   UNL     1     186.746 182.838 181.407  1.00  0.00     0.053 C 
BRANCH  13  14
ATOM     14  C   UNL     1     186.252 181.435 181.582  1.00  0.00     0.041 C 
ATOM     15  O   UNL     1     185.647 180.854 180.641  1.00  0.00    -0.550 OA
ATOM     16  O   UNL     1     186.478 180.760 182.775  1.00  0.00    -0.550 OA
ENDBRANCH  13  14
ENDBRANCH  12  13
ENDBRANCH  11  12
ENDBRANCH  10  11
ENDBRANCH   9  10
ENDBRANCH   8   9
ENDBRANCH   7   8
ENDBRANCH   6   7
ENDBRANCH   5   6
ENDBRANCH   4   5
ENDBRANCH   3   4
ENDBRANCH   2   3
ENDBRANCH   1   2
BRANCH   1  17
ATOM     17  C   UNL     1     182.510 181.294 184.670  1.00  0.00     0.000 C 
BRANCH  17  18
ATOM     18  C   UNL     1     181.158 181.866 184.194  1.00  0.00     0.000 C 
BRANCH  18  19
ATOM     19  C   UNL     1     181.204 183.283 183.577  1.00  0.00     0.000 C 
BRANCH  19  20
ATOM     20  C   UNL     1     180.024 183.634 182.644  1.00  0.00     0.000 C 
BRANCH  20  21
ATOM     21  C   UNL     1     178.681 183.844 183.369  1.00  0.00     0.000 C 
BRANCH  21  22
ATOM     22  C   UNL     1     177.455 183.223 182.679  1.00  0.00    -0.000 C 
BRANCH  22  23
ATOM     23  C   UNL     1     177.767 182.155 181.611  1.00  0.00    -0.000 C 
BRANCH  23  24
ATOM     24  C   UNL     1     178.015 180.742 182.182  1.00  0.00    -0.000 C 
BRANCH  24  25
ATOM     25  C   UNL     1     176.707 179.974 182.449  1.00  0.00    -0.000 C 
BRANCH  25  26
ATOM     26  C   UNL     1     176.726 178.552 181.868  1.00  0.00    -0.000 C 
BRANCH  26  27
ATOM     27  C   UNL     1     175.443 177.765 182.188  1.00  0.00    -0.000 C 
BRANCH  27  28
ATOM     28  C   UNL     1     175.671 176.246 182.209  1.00  0.00    -0.000 C 
BRANCH  28  29
ATOM     29  C   UNL     1     175.061 175.570 183.445  1.00  0.00    -0.003 C 
ATOM     30  C   UNL     1     173.596 175.959 183.617  1.00  0.00     0.004 C 
ENDBRANCH  28  29
ENDBRANCH  27  28
ENDBRANCH  26  27
ENDBRANCH  25  26
ENDBRANCH  24  25
ENDBRANCH  23  24
ENDBRANCH  22  23
ENDBRANCH  21  22
ENDBRANCH  20  21
ENDBRANCH  19  20
ENDBRANCH  18  19
ENDBRANCH  17  18
ENDBRANCH   1  17
TORSDOF 26
ENDMDL
MODEL 6
REMARK VINA RESULT:    -4.216      1.030      3.154
REMARK INTER + INTRA:         -14.835
REMARK INTER:                 -11.041
REMARK INTRA:                  -3.794
REMARK UNBOUND:                -4.210
REMARK SMILES CCCCCCCCCCCCCCCCCCCCCCCCCCCC(=O)[O-]
REMARK SMILES IDX 15 1 16 2 17 3 18 4 19 5 20 6 21 7 22 8 23 9 24 10 25 11
REMARK SMILES IDX 26 12 27 13 28 14 29 15 30 16 14 17 13 18 12 19 11 20 10 21
REMARK SMILES IDX 9 22 8 23 7 24 6 25 5 26 4 27 3 28 2 29 1 30
REMARK H PARENT
REMARK Flexibility Score: inf
ROOT
ATOM      1  C   UNL     1     185.217 181.818 179.760  1.00  0.00     0.000 C 
ENDROOT
BRANCH   1   2
ATOM      2  C   UNL     1     183.676 181.759 179.692  1.00  0.00     0.000 C 
BRANCH   2   3
ATOM      3  C   UNL     1     183.115 182.417 178.419  1.00  0.00     0.000 C 
BRANCH   3   4
ATOM      4  C   UNL     1     181.675 181.976 178.114  1.00  0.00     0.000 C 
BRANCH   4   5
ATOM      5  C   UNL     1     180.931 181.485 179.366  1.00  0.00     0.000 C 
BRANCH   5   6
ATOM      6  C   UNL     1     179.406 181.653 179.256  1.00  0.00     0.000 C 
BRANCH   6   7
ATOM      7  C   UNL     1     178.764 182.501 180.374  1.00  0.00     0.000 C 
BRANCH   7   8
ATOM      8  C   UNL     1     177.703 181.774 181.225  1.00  0.00     0.000 C 
BRANCH   8   9
ATOM      9  C   UNL     1     178.253 180.688 182.164  1.00  0.00     0.000 C 
BRANCH   9  10
ATOM     10  C   UNL     1     177.154 179.780 182.743  1.00  0.00     0.000 C 
BRANCH  10  11
ATOM     11  C   UNL     1     176.484 178.900 181.673  1.00  0.00     0.000 C 
BRANCH  11  12
ATOM     12  C   UNL     1     175.330 178.016 182.186  1.00  0.00     0.006 C 
BRANCH  12  13
ATOM     13  C   UNL     1     175.672 176.521 182.298  1.00  0.00     0.053 C 
BRANCH  13  14
ATOM     14  C   UNL     1     174.819 175.825 183.314  1.00  0.00     0.041 C 
ATOM     15  O   UNL     1     175.061 175.958 184.543  1.00  0.00    -0.550 OA
ATOM     16  O   UNL     1     173.743 175.047 182.904  1.00  0.00    -0.550 OA
ENDBRANCH  13  14
ENDBRANCH  12  13
ENDBRANCH  11  12
ENDBRANCH  10  11
ENDBRANCH   9  10
ENDBRANCH   8   9
ENDBRANCH   7   8
ENDBRANCH   6   7
ENDBRANCH   5   6
ENDBRANCH   4   5
ENDBRANCH   3   4
ENDBRANCH   2   3
ENDBRANCH   1   2
BRANCH   1  17
ATOM     17  C   UNL     1     185.771 181.945 181.191  1.00  0.00     0.000 C 
BRANCH  17  18
ATOM     18  C   UNL     1     185.792 183.376 181.766  1.00  0.00     0.000 C 
BRANCH  18  19
ATOM     19  C   UNL     1     184.412 184.006 182.061  1.00  0.00     0.000 C 
BRANCH  19  20
ATOM     20  C   UNL     1     183.959 185.097 181.064  1.00  0.00     0.000 C 
BRANCH  20  21
ATOM     21  C   UNL     1     182.442 185.368 181.065  1.00  0.00     0.000 C 
BRANCH  21  22
ATOM     22  C   UNL     1     181.553 184.140 181.322  1.00  0.00    -0.000 C 
BRANCH  22  23
ATOM     23  C   UNL     1     180.650 184.226 182.570  1.00  0.00    -0.000 C 
BRANCH  23  24
ATOM     24  C   UNL     1     181.102 183.326 183.741  1.00  0.00    -0.000 C 
BRANCH  24  25
ATOM     25  C   UNL     1     181.323 181.864 183.311  1.00  0.00    -0.000 C 
BRANCH  25  26
ATOM     26  C   UNL     1     182.789 181.423 183.444  1.00  0.00    -0.000 C 
BRANCH  26  27
ATOM     27  C   UNL     1     183.058 180.060 182.781  1.00  0.00    -0.000 C 
BRANCH  27  28
ATOM     28  C   UNL     1     182.053 179.737 181.665  1.00  0.00    -0.000 C 
BRANCH  28  29
ATOM     29  C   UNL     1     181.843 178.228 181.474  1.00  0.00    -0.003 C 
ATOM     30  C   UNL     1     180.438 177.929 180.961  1.00  0.00     0.004 C 
ENDBRANCH  28  29
ENDBRANCH  27  28
ENDBRANCH  26  27
ENDBRANCH  25  26
ENDBRANCH  24  25
ENDBRANCH  23  24
ENDBRANCH  22  23
ENDBRANCH  21  22
ENDBRANCH  20  21
ENDBRANCH  19  20
ENDBRANCH  18  19
ENDBRANCH  17  18
ENDBRANCH   1  17
TORSDOF 26
ENDMDL
MODEL 7
REMARK VINA RESULT:    -4.216      1.187      4.118
REMARK INTER + INTRA:         -14.834
REMARK INTER:                 -11.000
REMARK INTRA:                  -3.834
REMARK UNBOUND:                -4.210
REMARK SMILES CCCCCCCCCCCCCCCCCCCCCCCCCCCC(=O)[O-]
REMARK SMILES IDX 15 1 16 2 17 3 18 4 19 5 20 6 21 7 22 8 23 9 24 10 25 11
REMARK SMILES IDX 26 12 27 13 28 14 29 15 30 16 14 17 13 18 12 19 11 20 10 21
REMARK SMILES IDX 9 22 8 23 7 24 6 25 5 26 4 27 3 28 2 29 1 30
REMARK H PARENT
REMARK Flexibility Score: inf
ROOT
ATOM      1  C   UNL     1     181.973 184.706 180.380  1.00  0.00     0.000 C 
ENDROOT
BRANCH   1   2
ATOM      2  C   UNL     1     180.924 184.556 181.502  1.00  0.00     0.000 C 
BRANCH   2   3
ATOM      3  C   UNL     1     181.442 183.723 182.687  1.00  0.00     0.000 C 
BRANCH   3   4
ATOM      4  C   UNL     1     180.304 183.126 183.529  1.00  0.00     0.000 C 
BRANCH   4   5
ATOM      5  C   UNL     1     179.097 184.071 183.644  1.00  0.00     0.000 C 
BRANCH   5   6
ATOM      6  C   UNL     1     177.777 183.404 183.219  1.00  0.00     0.000 C 
BRANCH   6   7
ATOM      7  C   UNL     1     177.658 183.100 181.712  1.00  0.00     0.000 C 
BRANCH   7   8
ATOM      8  C   UNL     1     177.509 181.608 181.351  1.00  0.00     0.000 C 
BRANCH   8   9
ATOM      9  C   UNL     1     177.675 180.633 182.530  1.00  0.00     0.000 C 
BRANCH   9  10
ATOM     10  C   UNL     1     177.160 179.218 182.216  1.00  0.00     0.000 C 
BRANCH  10  11
ATOM     11  C   UNL     1     175.728 179.217 181.651  1.00  0.00     0.000 C 
BRANCH  11  12
ATOM     12  C   UNL     1     174.861 178.015 182.076  1.00  0.00     0.006 C 
BRANCH  12  13
ATOM     13  C   UNL     1     175.647 176.721 182.339  1.00  0.00     0.053 C 
BRANCH  13  14
ATOM     14  C   UNL     1     174.910 175.793 183.255  1.00  0.00     0.041 C 
ATOM     15  O   UNL     1     174.308 174.788 182.789  1.00  0.00    -0.550 OA
ATOM     16  O   UNL     1     174.905 176.024 184.625  1.00  0.00    -0.550 OA
ENDBRANCH  13  14
ENDBRANCH  12  13
ENDBRANCH  11  12
ENDBRANCH  10  11
ENDBRANCH   9  10
ENDBRANCH   8   9
ENDBRANCH   7   8
ENDBRANCH   6   7
ENDBRANCH   5   6
ENDBRANCH   4   5
ENDBRANCH   3   4
ENDBRANCH   2   3
ENDBRANCH   1   2
BRANCH   1  17
ATOM     17  C   UNL     1     183.189 183.775 180.539  1.00  0.00     0.000 C 
BRANCH  17  18
ATOM     18  C   UNL     1     183.462 182.834 179.347  1.00  0.00     0.000 C 
BRANCH  18  19
ATOM     19  C   UNL     1     182.350 182.764 178.276  1.00  0.00     0.000 C 
BRANCH  19  20
ATOM     20  C   UNL     1     181.629 181.402 178.162  1.00  0.00     0.000 C 
BRANCH  20  21
ATOM     21  C   UNL     1     180.387 181.263 179.064  1.00  0.00     0.000 C 
BRANCH  21  22
ATOM     22  C   UNL     1     180.679 181.064 180.561  1.00  0.00    -0.000 C 
BRANCH  22  23
ATOM     23  C   UNL     1     181.108 179.638 180.967  1.00  0.00    -0.000 C 
BRANCH  23  24
ATOM     24  C   UNL     1     182.623 179.481 181.219  1.00  0.00    -0.000 C 
BRANCH  24  25
ATOM     25  C   UNL     1     183.052 180.019 182.597  1.00  0.00    -0.000 C 
BRANCH  25  26
ATOM     26  C   UNL     1     184.025 181.204 182.494  1.00  0.00    -0.000 C 
BRANCH  26  27
ATOM     27  C   UNL     1     185.289 180.862 181.685  1.00  0.00    -0.000 C 
BRANCH  27  28
ATOM     28  C   UNL     1     186.445 181.837 181.956  1.00  0.00    -0.000 C 
BRANCH  28  29
ATOM     29  C   UNL     1     185.971 183.287 182.126  1.00  0.00    -0.003 C 
ATOM     30  C   UNL     1     187.126 184.267 181.948  1.00  0.00     0.004 C 
ENDBRANCH  28  29
ENDBRANCH  27  28
ENDBRANCH  26  27
ENDBRANCH  25  26
ENDBRANCH  24  25
ENDBRANCH  23  24
ENDBRANCH  22  23
ENDBRANCH  21  22
ENDBRANCH  20  21
ENDBRANCH  19  20
ENDBRANCH  18  19
ENDBRANCH  17  18
ENDBRANCH   1  17
TORSDOF 26
ENDMDL
MODEL 8
REMARK VINA RESULT:    -4.200      5.489      9.450
REMARK INTER + INTRA:         -14.793
REMARK INTER:                 -10.752
REMARK INTRA:                  -4.041
REMARK UNBOUND:                -4.210
REMARK SMILES CCCCCCCCCCCCCCCCCCCCCCCCCCCC(=O)[O-]
REMARK SMILES IDX 15 1 16 2 17 3 18 4 19 5 20 6 21 7 22 8 23 9 24 10 25 11
REMARK SMILES IDX 26 12 27 13 28 14 29 15 30 16 14 17 13 18 12 19 11 20 10 21
REMARK SMILES IDX 9 22 8 23 7 24 6 25 5 26 4 27 3 28 2 29 1 30
REMARK H PARENT
REMARK Flexibility Score: inf
ROOT
ATOM      1  C   UNL     1     181.183 183.138 182.959  1.00  0.00     0.000 C 
ENDROOT
BRANCH   1   2
ATOM      2  C   UNL     1     181.578 183.014 184.446  1.00  0.00     0.000 C 
BRANCH   2   3
ATOM      3  C   UNL     1     182.204 181.648 184.778  1.00  0.00     0.000 C 
BRANCH   3   4
ATOM      4  C   UNL     1     182.530 180.828 183.520  1.00  0.00     0.000 C 
BRANCH   4   5
ATOM      5  C   UNL     1     184.034 180.550 183.369  1.00  0.00     0.000 C 
BRANCH   5   6
ATOM      6  C   UNL     1     184.519 180.668 181.914  1.00  0.00     0.000 C 
BRANCH   6   7
ATOM      7  C   UNL     1     186.019 180.987 181.753  1.00  0.00     0.000 C 
BRANCH   7   8
ATOM      8  C   UNL     1     186.339 182.391 181.201  1.00  0.00     0.000 C 
BRANCH   8   9
ATOM      9  C   UNL     1     186.083 183.549 182.180  1.00  0.00     0.000 C 
BRANCH   9  10
ATOM     10  C   UNL     1     186.750 184.865 181.741  1.00  0.00     0.000 C 
BRANCH  10  11
ATOM     11  C   UNL     1     188.254 184.704 181.456  1.00  0.00     0.000 C 
BRANCH  11  12
ATOM     12  C   UNL     1     189.090 185.987 181.627  1.00  0.00     0.006 C 
BRANCH  12  13
ATOM     13  C   UNL     1     188.279 187.231 182.023  1.00  0.00     0.053 C 
BRANCH  13  14
ATOM     14  C   UNL     1     189.068 188.165 182.888  1.00  0.00     0.041 C 
ATOM     15  O   UNL     1     188.974 188.099 184.143  1.00  0.00    -0.550 OA
ATOM     16  O   UNL     1     189.923 189.095 182.310  1.00  0.00    -0.550 OA
ENDBRANCH  13  14
ENDBRANCH  12  13
ENDBRANCH  11  12
ENDBRANCH  10  11
ENDBRANCH   9  10
ENDBRANCH   8   9
ENDBRANCH   7   8
ENDBRANCH   6   7
ENDBRANCH   5   6
ENDBRANCH   4   5
ENDBRANCH   3   4
ENDBRANCH   2   3
ENDBRANCH   1   2
BRANCH   1  17
ATOM     17  C   UNL     1     181.046 184.593 182.474  1.00  0.00     0.000 C 
BRANCH  17  18
ATOM     18  C   UNL     1     182.097 185.047 181.440  1.00  0.00     0.000 C 
BRANCH  18  19
ATOM     19  C   UNL     1     182.982 183.929 180.843  1.00  0.00     0.000 C 
BRANCH  19  20
ATOM     20  C   UNL     1     182.766 183.648 179.339  1.00  0.00     0.000 C 
BRANCH  20  21
ATOM     21  C   UNL     1     182.933 182.170 178.938  1.00  0.00     0.000 C 
BRANCH  21  22
ATOM     22  C   UNL     1     181.756 181.561 178.158  1.00  0.00    -0.000 C 
BRANCH  22  23
ATOM     23  C   UNL     1     180.521 181.191 179.006  1.00  0.00    -0.000 C 
BRANCH  23  24
ATOM     24  C   UNL     1     180.856 180.476 180.333  1.00  0.00    -0.000 C 
BRANCH  24  25
ATOM     25  C   UNL     1     179.687 180.515 181.335  1.00  0.00    -0.000 C 
BRANCH  25  26
ATOM     26  C   UNL     1     178.666 181.617 181.013  1.00  0.00    -0.000 C 
BRANCH  26  27
ATOM     27  C   UNL     1     177.758 181.950 182.210  1.00  0.00    -0.000 C 
BRANCH  27  28
ATOM     28  C   UNL     1     177.511 183.459 182.362  1.00  0.00    -0.000 C 
BRANCH  28  29
ATOM     29  C   UNL     1     176.909 183.828 183.726  1.00  0.00    -0.003 C 
ATOM     30  C   UNL     1     177.914 184.594 184.580  1.00  0.00     0.004 C 
ENDBRANCH  28  29
ENDBRANCH  27  28
ENDBRANCH  26  27
ENDBRANCH  25  26
ENDBRANCH  24  25
ENDBRANCH  23  24
ENDBRANCH  22  23
ENDBRANCH  21  22
ENDBRANCH  20  21
ENDBRANCH  19  20
ENDBRANCH  18  19
ENDBRANCH  17  18
ENDBRANCH   1  17
TORSDOF 26
ENDMDL
MODEL 9
REMARK VINA RESULT:    -4.068      5.151      9.400
REMARK INTER + INTRA:         -14.460
REMARK INTER:                 -11.060
REMARK INTRA:                  -3.400
REMARK UNBOUND:                -4.210
REMARK SMILES CCCCCCCCCCCCCCCCCCCCCCCCCCCC(=O)[O-]
REMARK SMILES IDX 15 1 16 2 17 3 18 4 19 5 20 6 21 7 22 8 23 9 24 10 25 11
REMARK SMILES IDX 26 12 27 13 28 14 29 15 30 16 14 17 13 18 12 19 11 20 10 21
REMARK SMILES IDX 9 22 8 23 7 24 6 25 5 26 4 27 3 28 2 29 1 30
REMARK H PARENT
REMARK Flexibility Score: inf
ROOT
ATOM      1  C   UNL     1     181.809 181.541 178.852  1.00  0.00     0.000 C 
ENDROOT
BRANCH   1   2
ATOM      2  C   UNL     1     181.233 180.753 180.048  1.00  0.00     0.000 C 
BRANCH   2   3
ATOM      3  C   UNL     1     182.068 179.507 180.391  1.00  0.00     0.000 C 
BRANCH   3   4
ATOM      4  C   UNL     1     182.490 179.468 181.868  1.00  0.00     0.000 C 
BRANCH   4   5
ATOM      5  C   UNL     1     182.336 180.832 182.561  1.00  0.00     0.000 C 
BRANCH   5   6
ATOM      6  C   UNL     1     183.685 181.524 182.819  1.00  0.00     0.000 C 
BRANCH   6   7
ATOM      7  C   UNL     1     184.920 180.609 182.694  1.00  0.00     0.000 C 
BRANCH   7   8
ATOM      8  C   UNL     1     185.992 181.082 181.691  1.00  0.00     0.000 C 
BRANCH   8   9
ATOM      9  C   UNL     1     185.949 182.582 181.351  1.00  0.00     0.000 C 
BRANCH   9  10
ATOM     10  C   UNL     1     186.951 183.412 182.173  1.00  0.00     0.000 C 
BRANCH  10  11
ATOM     11  C   UNL     1     186.849 184.921 181.887  1.00  0.00     0.000 C 
BRANCH  11  12
ATOM     12  C   UNL     1     188.194 185.674 181.874  1.00  0.00     0.006 C 
BRANCH  12  13
ATOM     13  C   UNL     1     188.070 187.202 181.759  1.00  0.00     0.053 C 
BRANCH  13  14
ATOM     14  C   UNL     1     188.933 187.913 182.756  1.00  0.00     0.041 C 
ATOM     15  O   UNL     1     188.826 187.655 183.984  1.00  0.00    -0.550 OA
ATOM     16  O   UNL     1     189.871 188.844 182.326  1.00  0.00    -0.550 OA
ENDBRANCH  13  14
ENDBRANCH  12  13
ENDBRANCH  11  12
ENDBRANCH  10  11
ENDBRANCH   9  10
ENDBRANCH   8   9
ENDBRANCH   7   8
ENDBRANCH   6   7
ENDBRANCH   5   6
ENDBRANCH   4   5
ENDBRANCH   3   4
ENDBRANCH   2   3
ENDBRANCH   1   2
BRANCH   1  17
ATOM     17  C   UNL     1     183.054 182.377 179.201  1.00  0.00     0.000 C 
BRANCH  17  18
ATOM     18  C   UNL     1     182.786 183.864 179.508  1.00  0.00     0.000 C 
BRANCH  18  19
ATOM     19  C   UNL     1     182.994 184.299 180.976  1.00  0.00     0.000 C 
BRANCH  19  20
ATOM     20  C   UNL     1     181.717 184.763 181.713  1.00  0.00     0.000 C 
BRANCH  20  21
ATOM     21  C   UNL     1     180.441 183.989 181.323  1.00  0.00     0.000 C 
BRANCH  21  22
ATOM     22  C   UNL     1     179.718 183.284 182.482  1.00  0.00    -0.000 C 
BRANCH  22  23
ATOM     23  C   UNL     1     178.232 182.951 182.229  1.00  0.00    -0.000 C 
BRANCH  23  24
ATOM     24  C   UNL     1     178.004 181.699 181.355  1.00  0.00    -0.000 C 
BRANCH  24  25
ATOM     25  C   UNL     1     177.970 180.399 182.182  1.00  0.00    -0.000 C 
BRANCH  25  26
ATOM     26  C   UNL     1     176.545 179.862 182.382  1.00  0.00    -0.000 C 
BRANCH  26  27
ATOM     27  C   UNL     1     176.354 178.457 181.784  1.00  0.00    -0.000 C 
BRANCH  27  28
ATOM     28  C   UNL     1     175.274 177.645 182.516  1.00  0.00    -0.000 C 
BRANCH  28  29
ATOM     29  C   UNL     1     175.558 176.136 182.508  1.00  0.00    -0.003 C 
ATOM     30  C   UNL     1     174.457 175.366 183.231  1.00  0.00     0.004 C 
ENDBRANCH  28  29
ENDBRANCH  27  28
ENDBRANCH  26  27
ENDBRANCH  25  26
ENDBRANCH  24  25
ENDBRANCH  23  24
ENDBRANCH  22  23
ENDBRANCH  21  22
ENDBRANCH  20  21
ENDBRANCH  19  20
ENDBRANCH  18  19
ENDBRANCH  17  18
ENDBRANCH   1  17
TORSDOF 26
ENDMDL
