MODEL 1
REMARK VINA RESULT:    -3.893      0.000      0.000
REMARK INTER + INTRA:          -5.264
REMARK INTER:                  -5.486
REMARK INTRA:                   0.222
REMARK UNBOUND:                 0.222
REMARK SMILES CC1=CCC(=C(C)C)C(=O)CC(C)=CCC1
REMARK SMILES IDX 12 1 14 2 13 3 15 4 16 5 2 6 1 7 3 8 11 10 9 11 10 12 5 13
REMARK SMILES IDX 6 14 7 15 8 16 4 17
REMARK H PARENT
REMARK Flexibility Score: 60.00
ROOT
ATOM      1  C   UNL     1      14.145  18.616  17.692  1.00  0.00    -0.070 C 
ATOM      2  C   UNL     1      13.247  19.567  18.027  1.00  0.00    -0.027 C 
ATOM      3  C   UNL     1      15.572  18.799  18.145  1.00  0.00     0.039 C 
ENDROOT
BRANCH   2   4
ATOM      4  C   UNL     1      11.760  19.516  17.750  1.00  0.00     0.032 C 
BRANCH   4   5
ATOM      5  C   UNL     1      11.362  19.826  16.292  1.00  0.00     0.034 C 
BRANCH   5   6
ATOM      6  C   UNL     1      10.497  18.747  15.666  1.00  0.00    -0.077 C 
ATOM      7  C   UNL     1       9.109  18.550  16.225  1.00  0.00     0.039 C 
ATOM      8  C   UNL     1      10.864  17.997  14.599  1.00  0.00    -0.023 CG0
ATOM      9  G   UNL     1      12.203  18.008  13.890  1.00  0.00     0.000 G0
ENDBRANCH   5   6
ENDBRANCH   4   5
ENDBRANCH   2   4
BRANCH   1  10
ATOM     10  C   UNL     1      13.771  17.339  16.966  1.00  0.00     0.111 C 
BRANCH  10  11
ATOM     11  C   UNL     1      14.121  17.409  15.503  1.00  0.00     0.163 C 
ATOM     12  O   UNL     1      15.274  17.807  15.185  1.00  0.00    -0.294 OA
BRANCH  11  13
ATOM     13  C   UNL     1      13.177  16.969  14.432  1.00  0.00    -0.002 C 
ATOM     14  C   UNL     1      13.133  15.662  14.033  1.00  0.00    -0.069 C 
ATOM     15  C   UNL     1      12.084  15.154  13.069  1.00  0.00     0.039 C 
ATOM     16  C   UNL     1      14.137  14.652  14.543  1.00  0.00     0.039 C 
BRANCH  13  17
ATOM     17  C   UNL     1      12.215  18.009  13.882  1.00  0.00     0.066 CG0
ATOM     18  G   UNL     1      10.877  17.989  14.592  1.00  0.00     0.000 G0
ENDBRANCH  13  17
ENDBRANCH  11  13
ENDBRANCH  10  11
ENDBRANCH   1  10
TORSDOF 0
ENDMDL
MODEL 2
REMARK VINA RESULT:    -3.689      1.742      3.771
REMARK INTER + INTRA:          -4.977
REMARK INTER:                  -5.195
REMARK INTRA:                   0.218
REMARK UNBOUND:                 0.222
REMARK SMILES CC1=CCC(=C(C)C)C(=O)CC(C)=CCC1
REMARK SMILES IDX 12 1 14 2 13 3 15 4 16 5 2 6 1 7 3 8 11 10 9 11 10 12 5 13
REMARK SMILES IDX 6 14 7 15 8 16 4 17
REMARK H PARENT
REMARK Flexibility Score: 60.00
ROOT
ATOM      1  C   UNL     1      13.400  19.270  17.304  1.00  0.00    -0.070 C 
ATOM      2  C   UNL     1      14.380  18.408  17.651  1.00  0.00    -0.027 C 
ATOM      3  C   UNL     1      12.111  19.225  18.086  1.00  0.00     0.039 C 
ENDROOT
BRANCH   2   4
ATOM      4  C   UNL     1      15.770  18.365  17.055  1.00  0.00     0.032 C 
BRANCH   4   5
ATOM      5  C   UNL     1      15.826  17.946  15.570  1.00  0.00     0.034 C 
BRANCH   5   6
ATOM      6  C   UNL     1      14.916  16.776  15.246  1.00  0.00    -0.077 C 
ATOM      7  C   UNL     1      15.255  15.435  15.849  1.00  0.00     0.039 C 
ATOM      8  C   UNL     1      13.783  16.870  14.508  1.00  0.00    -0.023 CG0
ATOM      9  G   UNL     1      13.257  18.099  13.793  1.00  0.00     0.000 G0
ENDBRANCH   5   6
ENDBRANCH   4   5
ENDBRANCH   2   4
BRANCH   1  10
ATOM     10  C   UNL     1      13.566  20.332  16.236  1.00  0.00     0.111 C 
BRANCH  10  11
ATOM     11  C   UNL     1      12.554  20.174  15.133  1.00  0.00     0.163 C 
ATOM     12  O   UNL     1      12.048  21.217  14.636  1.00  0.00    -0.294 OA
BRANCH  11  13
ATOM     13  C   UNL     1      12.181  18.841  14.572  1.00  0.00    -0.002 C 
ATOM     14  C   UNL     1      10.909  18.357  14.704  1.00  0.00    -0.069 C 
ATOM     15  C   UNL     1      10.459  17.089  14.014  1.00  0.00     0.039 C 
ATOM     16  C   UNL     1       9.882  19.074  15.553  1.00  0.00     0.039 C 
BRANCH  13  17
ATOM     17  C   UNL     1      13.243  18.101  13.774  1.00  0.00     0.066 CG0
ATOM     18  G   UNL     1      13.773  16.886  14.509  1.00  0.00     0.000 G0
ENDBRANCH  13  17
ENDBRANCH  11  13
ENDBRANCH  10  11
ENDBRANCH   1  10
TORSDOF 0
ENDMDL
MODEL 3
REMARK VINA RESULT:    -3.533      1.411      3.621
REMARK INTER + INTRA:          -4.757
REMARK INTER:                  -4.925
REMARK INTRA:                   0.169
REMARK UNBOUND:                 0.222
REMARK SMILES CC1=CCC(=C(C)C)C(=O)CC(C)=CCC1
REMARK SMILES IDX 12 1 14 2 13 3 15 4 16 5 2 6 1 7 3 8 11 10 9 11 10 12 5 13
REMARK SMILES IDX 6 14 7 15 8 16 4 17
REMARK H PARENT
REMARK Flexibility Score: 60.00
ROOT
ATOM      1  C   UNL     1      14.136  18.292  17.197  1.00  0.00    -0.070 C 
ATOM      2  C   UNL     1      14.881  17.224  16.839  1.00  0.00    -0.027 C 
ATOM      3  C   UNL     1      14.851  19.504  17.740  1.00  0.00     0.039 C 
ENDROOT
BRANCH   2   4
ATOM      4  C   UNL     1      14.361  15.961  16.189  1.00  0.00     0.032 C 
BRANCH   4   5
ATOM      5  C   UNL     1      14.308  16.000  14.647  1.00  0.00     0.034 C 
BRANCH   5   6
ATOM      6  C   UNL     1      13.052  15.366  14.077  1.00  0.00    -0.077 C 
ATOM      7  C   UNL     1      12.956  13.861  14.095  1.00  0.00     0.039 C 
ATOM      8  C   UNL     1      11.985  16.064  13.617  1.00  0.00    -0.023 CG0
ATOM      9  G   UNL     1      11.864  17.569  13.488  1.00  0.00     0.000 G0
ENDBRANCH   5   6
ENDBRANCH   4   5
ENDBRANCH   2   4
BRANCH   1  10
ATOM     10  C   UNL     1      12.636  18.364  16.995  1.00  0.00     0.111 C 
BRANCH  10  11
ATOM     11  C   UNL     1      12.283  18.915  15.639  1.00  0.00     0.163 C 
ATOM     12  O   UNL     1      12.883  19.951  15.244  1.00  0.00    -0.294 OA
BRANCH  11  13
ATOM     13  C   UNL     1      11.301  18.247  14.733  1.00  0.00    -0.002 C 
ATOM     14  C   UNL     1       9.959  18.311  14.986  1.00  0.00    -0.069 C 
ATOM     15  C   UNL     1       8.934  17.783  14.007  1.00  0.00     0.039 C 
ATOM     16  C   UNL     1       9.431  18.920  16.266  1.00  0.00     0.039 C 
BRANCH  13  17
ATOM     17  C   UNL     1      11.852  17.583  13.481  1.00  0.00     0.066 CG0
ATOM     18  G   UNL     1      11.971  16.080  13.630  1.00  0.00     0.000 G0
ENDBRANCH  13  17
ENDBRANCH  11  13
ENDBRANCH  10  11
ENDBRANCH   1  10
TORSDOF 0
ENDMDL
MODEL 4
REMARK VINA RESULT:    -3.405      1.738      3.609
REMARK INTER + INTRA:          -4.576
REMARK INTER:                  -4.837
REMARK INTRA:                   0.261
REMARK UNBOUND:                 0.222
REMARK SMILES CC1=CCC(=C(C)C)C(=O)CC(C)=CCC1
REMARK SMILES IDX 12 1 14 2 13 3 15 4 16 5 2 6 1 7 3 8 11 10 9 11 10 12 5 13
REMARK SMILES IDX 6 14 7 15 8 16 4 17
REMARK H PARENT
REMARK Flexibility Score: 60.00
ROOT
ATOM      1  C   UNL     1      12.256  19.885  16.734  1.00  0.00    -0.070 C 
ATOM      2  C   UNL     1      13.405  19.348  17.197  1.00  0.00    -0.027 C 
ATOM      3  C   UNL     1      12.167  21.387  16.633  1.00  0.00     0.039 C 
ENDROOT
BRANCH   2   4
ATOM      4  C   UNL     1      13.720  17.870  17.279  1.00  0.00     0.032 C 
BRANCH   4   5
ATOM      5  C   UNL     1      14.732  17.363  16.230  1.00  0.00     0.034 C 
BRANCH   5   6
ATOM      6  C   UNL     1      14.311  16.061  15.574  1.00  0.00    -0.077 C 
ATOM      7  C   UNL     1      14.806  14.775  16.187  1.00  0.00     0.039 C 
ATOM      8  C   UNL     1      13.466  15.976  14.517  1.00  0.00    -0.023 CG0
ATOM      9  G   UNL     1      12.863  17.125  13.734  1.00  0.00     0.000 G0
ENDBRANCH   5   6
ENDBRANCH   4   5
ENDBRANCH   2   4
BRANCH   1  10
ATOM     10  C   UNL     1      11.094  19.053  16.228  1.00  0.00     0.111 C 
BRANCH  10  11
ATOM     11  C   UNL     1      11.184  18.816  14.744  1.00  0.00     0.163 C 
ATOM     12  O   UNL     1      11.104  19.814  13.977  1.00  0.00    -0.294 OA
BRANCH  11  13
ATOM     13  C   UNL     1      11.424  17.462  14.162  1.00  0.00    -0.002 C 
ATOM     14  C   UNL     1      10.386  16.598  13.950  1.00  0.00    -0.069 C 
ATOM     15  C   UNL     1      10.573  15.287  13.218  1.00  0.00     0.039 C 
ATOM     16  C   UNL     1       8.990  16.914  14.439  1.00  0.00     0.039 C 
BRANCH  13  17
ATOM     17  C   UNL     1      12.844  17.133  13.731  1.00  0.00     0.066 CG0
ATOM     18  G   UNL     1      13.437  15.988  14.528  1.00  0.00     0.000 G0
ENDBRANCH  13  17
ENDBRANCH  11  13
ENDBRANCH  10  11
ENDBRANCH   1  10
TORSDOF 0
ENDMDL
MODEL 5
REMARK VINA RESULT:    -3.306      2.026      2.842
REMARK INTER + INTRA:          -4.437
REMARK INTER:                  -4.866
REMARK INTRA:                   0.430
REMARK UNBOUND:                 0.222
REMARK SMILES CC1=CCC(=C(C)C)C(=O)CC(C)=CCC1
REMARK SMILES IDX 12 1 14 2 13 3 15 4 16 5 2 6 1 7 3 8 11 10 9 11 10 12 5 13
REMARK SMILES IDX 6 14 7 15 8 16 4 17
REMARK H PARENT
REMARK Flexibility Score: 60.00
ROOT
ATOM      1  C   UNL     1      14.316  18.624  17.553  1.00  0.00    -0.070 C 
ATOM      2  C   UNL     1      13.601  19.759  17.714  1.00  0.00    -0.027 C 
ATOM      3  C   UNL     1      15.765  18.637  17.973  1.00  0.00     0.039 C 
ENDROOT
BRANCH   2   4
ATOM      4  C   UNL     1      12.120  19.915  17.444  1.00  0.00     0.032 C 
BRANCH   4   5
ATOM      5  C   UNL     1      11.764  20.309  15.995  1.00  0.00     0.034 C 
BRANCH   5   6
ATOM      6  C   UNL     1      12.937  20.894  15.230  1.00  0.00    -0.077 C 
ATOM      7  C   UNL     1      13.246  22.357  15.432  1.00  0.00     0.039 C 
ATOM      8  C   UNL     1      13.764  20.175  14.432  1.00  0.00    -0.023 CG0
ATOM      9  G   UNL     1      13.638  18.709  14.070  1.00  0.00     0.000 G0
ENDBRANCH   5   6
ENDBRANCH   4   5
ENDBRANCH   2   4
BRANCH   1  10
ATOM     10  C   UNL     1      13.714  17.324  17.061  1.00  0.00     0.111 C 
BRANCH  10  11
ATOM     11  C   UNL     1      14.327  16.885  15.758  1.00  0.00     0.163 C 
ATOM     12  O   UNL     1      14.448  15.649  15.544  1.00  0.00    -0.294 OA
BRANCH  11  13
ATOM     13  C   UNL     1      14.736  17.855  14.698  1.00  0.00    -0.002 C 
ATOM     14  C   UNL     1      16.029  17.907  14.258  1.00  0.00    -0.069 C 
ATOM     15  C   UNL     1      16.441  18.762  13.080  1.00  0.00     0.039 C 
ATOM     16  C   UNL     1      17.119  17.104  14.932  1.00  0.00     0.039 C 
BRANCH  13  17
ATOM     17  C   UNL     1      13.640  18.702  14.071  1.00  0.00     0.066 CG0
ATOM     18  G   UNL     1      13.765  20.167  14.435  1.00  0.00     0.000 G0
ENDBRANCH  13  17
ENDBRANCH  11  13
ENDBRANCH  10  11
ENDBRANCH   1  10
TORSDOF 0
ENDMDL
MODEL 6
REMARK VINA RESULT:    -3.209      1.531      2.058
REMARK INTER + INTRA:          -4.300
REMARK INTER:                  -4.909
REMARK INTRA:                   0.609
REMARK UNBOUND:                 0.222
REMARK SMILES CC1=CCC(=C(C)C)C(=O)CC(C)=CCC1
REMARK SMILES IDX 12 1 14 2 13 3 15 4 16 5 2 6 1 7 3 8 11 10 9 11 10 12 5 13
REMARK SMILES IDX 6 14 7 15 8 16 4 17
REMARK H PARENT
REMARK Flexibility Score: 60.00
ROOT
ATOM      1  C   UNL     1      14.052  19.539  17.456  1.00  0.00    -0.070 C 
ATOM      2  C   UNL     1      12.797  19.455  17.949  1.00  0.00    -0.027 C 
ATOM      3  C   UNL     1      15.129  18.717  18.119  1.00  0.00     0.039 C 
ENDROOT
BRANCH   2   4
ATOM      4  C   UNL     1      11.572  20.123  17.365  1.00  0.00     0.032 C 
BRANCH   4   5
ATOM      5  C   UNL     1      10.536  19.156  16.755  1.00  0.00     0.034 C 
BRANCH   5   6
ATOM      6  C   UNL     1      10.578  19.115  15.237  1.00  0.00    -0.077 C 
ATOM      7  C   UNL     1       9.583  19.965  14.486  1.00  0.00     0.039 C 
ATOM      8  C   UNL     1      11.492  18.422  14.517  1.00  0.00    -0.023 CG0
ATOM      9  G   UNL     1      12.565  17.494  15.051  1.00  0.00     0.000 G0
ENDBRANCH   5   6
ENDBRANCH   4   5
ENDBRANCH   2   4
BRANCH   1  10
ATOM     10  C   UNL     1      14.408  20.342  16.221  1.00  0.00     0.111 C 
BRANCH  10  11
ATOM     11  C   UNL     1      14.069  19.598  14.957  1.00  0.00     0.163 C 
ATOM     12  O   UNL     1      13.923  20.263  13.896  1.00  0.00    -0.294 OA
BRANCH  11  13
ATOM     13  C   UNL     1      13.964  18.108  14.908  1.00  0.00    -0.002 C 
ATOM     14  C   UNL     1      15.086  17.330  14.831  1.00  0.00    -0.069 C 
ATOM     15  C   UNL     1      15.023  15.823  14.939  1.00  0.00     0.039 C 
ATOM     16  C   UNL     1      16.454  17.945  14.634  1.00  0.00     0.039 C 
BRANCH  13  17
ATOM     17  C   UNL     1      12.576  17.505  15.043  1.00  0.00     0.066 CG0
ATOM     18  G   UNL     1      11.493  18.429  14.526  1.00  0.00     0.000 G0
ENDBRANCH  13  17
ENDBRANCH  11  13
ENDBRANCH  10  11
ENDBRANCH   1  10
TORSDOF 0
ENDMDL
MODEL 7
REMARK VINA RESULT:    -3.176      6.944      9.014
REMARK INTER + INTRA:          -4.254
REMARK INTER:                  -4.602
REMARK INTRA:                   0.348
REMARK UNBOUND:                 0.222
REMARK SMILES CC1=CCC(=C(C)C)C(=O)CC(C)=CCC1
REMARK SMILES IDX 12 1 14 2 13 3 15 4 16 5 2 6 1 7 3 8 11 10 9 11 10 12 5 13
REMARK SMILES IDX 6 14 7 15 8 16 4 17
REMARK H PARENT
REMARK Flexibility Score: 60.00
ROOT
ATOM      1  C   UNL     1      12.963  22.646  15.163  1.00  0.00    -0.070 C 
ATOM      2  C   UNL     1      14.304  22.667  15.000  1.00  0.00    -0.027 C 
ATOM      3  C   UNL     1      12.354  21.454  15.857  1.00  0.00     0.039 C 
ENDROOT
BRANCH   2   4
ATOM      4  C   UNL     1      15.105  23.811  14.419  1.00  0.00     0.032 C 
BRANCH   4   5
ATOM      5  C   UNL     1      15.879  24.653  15.455  1.00  0.00     0.034 C 
BRANCH   5   6
ATOM      6  C   UNL     1      15.845  26.142  15.160  1.00  0.00    -0.077 C 
ATOM      7  C   UNL     1      16.936  26.707  14.283  1.00  0.00     0.039 C 
ATOM      8  C   UNL     1      14.865  26.981  15.574  1.00  0.00    -0.023 CG0
ATOM      9  G   UNL     1      13.691  26.644  16.470  1.00  0.00     0.000 G0
ENDBRANCH   5   6
ENDBRANCH   4   5
ENDBRANCH   2   4
BRANCH   1  10
ATOM     10  C   UNL     1      12.059  23.796  14.766  1.00  0.00     0.111 C 
BRANCH  10  11
ATOM     11  C   UNL     1      11.961  24.828  15.859  1.00  0.00     0.163 C 
ATOM     12  O   UNL     1      11.501  24.468  16.976  1.00  0.00    -0.294 OA
BRANCH  11  13
ATOM     13  C   UNL     1      12.443  26.230  15.682  1.00  0.00    -0.002 C 
ATOM     14  C   UNL     1      11.745  27.118  14.911  1.00  0.00    -0.069 C 
ATOM     15  C   UNL     1      12.117  28.582  14.840  1.00  0.00     0.039 C 
ATOM     16  C   UNL     1      10.556  26.675  14.087  1.00  0.00     0.039 C 
BRANCH  13  17
ATOM     17  C   UNL     1      13.676  26.646  16.467  1.00  0.00     0.066 CG0
ATOM     18  G   UNL     1      14.856  26.953  15.567  1.00  0.00     0.000 G0
ENDBRANCH  13  17
ENDBRANCH  11  13
ENDBRANCH  10  11
ENDBRANCH   1  10
TORSDOF 0
ENDMDL
MODEL 8
REMARK VINA RESULT:    -3.175      7.968     10.005
REMARK INTER + INTRA:          -4.252
REMARK INTER:                  -4.498
REMARK INTRA:                   0.246
REMARK UNBOUND:                 0.222
REMARK SMILES CC1=CCC(=C(C)C)C(=O)CC(C)=CCC1
REMARK SMILES IDX 12 1 14 2 13 3 15 4 16 5 2 6 1 7 3 8 11 10 9 11 10 12 5 13
REMARK SMILES IDX 6 14 7 15 8 16 4 17
REMARK H PARENT
REMARK Flexibility Score: 60.00
ROOT
ATOM      1  C   UNL     1      10.387  27.170  14.390  1.00  0.00    -0.070 C 
ATOM      2  C   UNL     1      10.000  25.945  14.807  1.00  0.00    -0.027 C 
ATOM      3  C   UNL     1       9.442  28.324  14.615  1.00  0.00     0.039 C 
ENDROOT
BRANCH   2   4
ATOM      4  C   UNL     1      10.843  24.689  14.759  1.00  0.00     0.032 C 
BRANCH   4   5
ATOM      5  C   UNL     1      11.749  24.469  15.988  1.00  0.00     0.034 C 
BRANCH   5   6
ATOM      6  C   UNL     1      13.215  24.303  15.628  1.00  0.00    -0.077 C 
ATOM      7  C   UNL     1      13.648  22.980  15.047  1.00  0.00     0.039 C 
ATOM      8  C   UNL     1      14.142  25.286  15.729  1.00  0.00    -0.023 CG0
ATOM      9  G   UNL     1      13.942  26.677  16.296  1.00  0.00     0.000 G0
ENDBRANCH   5   6
ENDBRANCH   4   5
ENDBRANCH   2   4
BRANCH   1  10
ATOM     10  C   UNL     1      11.752  27.454  13.797  1.00  0.00     0.111 C 
BRANCH  10  11
ATOM     11  C   UNL     1      12.619  28.237  14.746  1.00  0.00     0.163 C 
ATOM     12  O   UNL     1      12.168  29.320  15.208  1.00  0.00    -0.294 OA
BRANCH  11  13
ATOM     13  C   UNL     1      13.955  27.748  15.201  1.00  0.00    -0.002 C 
ATOM     14  C   UNL     1      15.106  28.303  14.714  1.00  0.00    -0.069 C 
ATOM     15  C   UNL     1      16.466  27.941  15.270  1.00  0.00     0.039 C 
ATOM     16  C   UNL     1      15.074  29.314  13.590  1.00  0.00     0.039 C 
BRANCH  13  17
ATOM     17  C   UNL     1      13.972  26.685  16.287  1.00  0.00     0.066 CG0
ATOM     18  G   UNL     1      14.133  25.287  15.723  1.00  0.00     0.000 G0
ENDBRANCH  13  17
ENDBRANCH  11  13
ENDBRANCH  10  11
ENDBRANCH   1  10
TORSDOF 0
ENDMDL
MODEL 9
REMARK VINA RESULT:    -2.961     10.243     12.132
REMARK INTER + INTRA:          -3.951
REMARK INTER:                  -4.218
REMARK INTRA:                   0.266
REMARK UNBOUND:                 0.222
REMARK SMILES CC1=CCC(=C(C)C)C(=O)CC(C)=CCC1
REMARK SMILES IDX 12 1 14 2 13 3 15 4 16 5 2 6 1 7 3 8 11 10 9 11 10 12 5 13
REMARK SMILES IDX 6 14 7 15 8 16 4 17
REMARK H PARENT
REMARK Flexibility Score: 60.00
ROOT
ATOM      1  C   UNL     1       6.250  29.855  17.073  1.00  0.00    -0.070 C 
ATOM      2  C   UNL     1       4.910  30.002  17.153  1.00  0.00    -0.027 C 
ATOM      3  C   UNL     1       7.112  31.056  17.373  1.00  0.00     0.039 C 
ENDROOT
BRANCH   2   4
ATOM      4  C   UNL     1       3.889  28.898  16.984  1.00  0.00     0.032 C 
BRANCH   4   5
ATOM      5  C   UNL     1       3.562  28.536  15.520  1.00  0.00     0.034 C 
BRANCH   5   6
ATOM      6  C   UNL     1       3.757  27.062  15.212  1.00  0.00    -0.077 C 
ATOM      7  C   UNL     1       2.768  26.087  15.801  1.00  0.00     0.039 C 
ATOM      8  C   UNL     1       4.716  26.573  14.389  1.00  0.00    -0.023 CG0
ATOM      9  G   UNL     1       5.820  27.355  13.706  1.00  0.00     0.000 G0
ENDBRANCH   5   6
ENDBRANCH   4   5
ENDBRANCH   2   4
BRANCH   1  10
ATOM     10  C   UNL     1       6.925  28.529  16.788  1.00  0.00     0.111 C 
BRANCH  10  11
ATOM     11  C   UNL     1       7.438  28.458  15.374  1.00  0.00     0.163 C 
ATOM     12  O   UNL     1       8.189  29.385  14.967  1.00  0.00    -0.294 OA
BRANCH  11  13
ATOM     13  C   UNL     1       7.137  27.308  14.469  1.00  0.00    -0.002 C 
ATOM     14  C   UNL     1       7.975  26.229  14.408  1.00  0.00    -0.069 C 
ATOM     15  C   UNL     1       7.621  24.984  13.626  1.00  0.00     0.039 C 
ATOM     16  C   UNL     1       9.306  26.229  15.127  1.00  0.00     0.039 C 
BRANCH  13  17
ATOM     17  C   UNL     1       5.825  27.350  13.703  1.00  0.00     0.066 CG0
ATOM     18  G   UNL     1       4.724  26.579  14.404  1.00  0.00     0.000 G0
ENDBRANCH  13  17
ENDBRANCH  11  13
ENDBRANCH  10  11
ENDBRANCH   1  10
TORSDOF 0
ENDMDL
