MODEL 1
REMARK VINA RESULT:    -2.074      0.000      0.000
REMARK INTER + INTRA:          -4.009
REMARK INTER:                  -3.044
REMARK INTRA:                  -0.965
REMARK UNBOUND:                -0.965
REMARK SMILES CCCCCCCCCC=O
REMARK SMILES IDX 6 1 5 2 4 3 3 4 2 5 1 6 7 7 8 8 9 9 10 10 11 11
REMARK H PARENT
REMARK Flexibility Score: inf
ROOT
ATOM      1  C   UNL     1     131.958 145.698 138.864  1.00  0.00     0.000 C 
ENDROOT
BRANCH   1   2
ATOM      2  C   UNL     1     132.915 146.709 139.513  1.00  0.00     0.000 C 
BRANCH   2   3
ATOM      3  C   UNL     1     132.198 147.972 140.020  1.00  0.00    -0.000 C 
BRANCH   3   4
ATOM      4  C   UNL     1     131.957 148.021 141.542  1.00  0.00    -0.000 C 
BRANCH   4   5
ATOM      5  C   UNL     1     130.722 147.245 142.030  1.00  0.00    -0.003 C 
ATOM      6  C   UNL     1     129.405 147.877 141.582  1.00  0.00     0.004 C 
ENDBRANCH   4   5
ENDBRANCH   3   4
ENDBRANCH   2   3
ENDBRANCH   1   2
BRANCH   1   7
ATOM      7  C   UNL     1     130.938 146.405 137.965  1.00  0.00     0.000 C 
BRANCH   7   8
ATOM      8  C   UNL     1     129.504 145.989 138.325  1.00  0.00     0.008 C 
BRANCH   8   9
ATOM      9  C   UNL     1     129.473 144.853 139.357  1.00  0.00     0.072 C 
BRANCH   9  10
ATOM     10  C   UNL     1     128.581 143.725 138.928  1.00  0.00     0.224 C 
ATOM     11  O   UNL     1     129.056 142.709 138.447  1.00  0.00    -0.303 OA
ENDBRANCH   9  10
ENDBRANCH   8   9
ENDBRANCH   7   8
ENDBRANCH   1   7
TORSDOF 8
ENDMDL
MODEL 2
REMARK VINA RESULT:    -1.991      2.814      5.461
REMARK INTER + INTRA:          -3.888
REMARK INTER:                  -3.026
REMARK INTRA:                  -0.861
REMARK UNBOUND:                -0.965
REMARK SMILES CCCCCCCCCC=O
REMARK SMILES IDX 6 1 5 2 4 3 3 4 2 5 1 6 7 7 8 8 9 9 10 10 11 11
REMARK H PARENT
REMARK Flexibility Score: inf
ROOT
ATOM      1  C   UNL     1     128.743 143.426 138.998  1.00  0.00     0.000 C 
ENDROOT
BRANCH   1   2
ATOM      2  C   UNL     1     129.155 142.129 138.286  1.00  0.00     0.000 C 
BRANCH   2   3
ATOM      3  C   UNL     1     130.656 141.820 138.423  1.00  0.00    -0.000 C 
BRANCH   3   4
ATOM      4  C   UNL     1     131.411 141.642 137.091  1.00  0.00    -0.000 C 
BRANCH   4   5
ATOM      5  C   UNL     1     132.353 142.800 136.718  1.00  0.00    -0.003 C 
ATOM      6  C   UNL     1     133.387 143.100 137.802  1.00  0.00     0.004 C 
ENDBRANCH   4   5
ENDBRANCH   3   4
ENDBRANCH   2   3
ENDBRANCH   1   2
BRANCH   1   7
ATOM      7  C   UNL     1     129.959 144.324 139.250  1.00  0.00     0.000 C 
BRANCH   7   8
ATOM      8  C   UNL     1     129.831 145.651 138.487  1.00  0.00     0.008 C 
BRANCH   8   9
ATOM      9  C   UNL     1     131.191 146.175 138.005  1.00  0.00     0.072 C 
BRANCH   9  10
ATOM     10  C   UNL     1     132.157 146.363 139.136  1.00  0.00     0.224 C 
ATOM     11  O   UNL     1     132.415 147.482 139.551  1.00  0.00    -0.303 OA
ENDBRANCH   9  10
ENDBRANCH   8   9
ENDBRANCH   7   8
ENDBRANCH   1   7
TORSDOF 8
ENDMDL
MODEL 3
REMARK VINA RESULT:    -1.978      1.160      2.540
REMARK INTER + INTRA:          -3.868
REMARK INTER:                  -3.122
REMARK INTRA:                  -0.746
REMARK UNBOUND:                -0.965
REMARK SMILES CCCCCCCCCC=O
REMARK SMILES IDX 6 1 5 2 4 3 3 4 2 5 1 6 7 7 8 8 9 9 10 10 11 11
REMARK H PARENT
REMARK Flexibility Score: inf
ROOT
ATOM      1  C   UNL     1     129.463 146.170 138.150  1.00  0.00     0.000 C 
ENDROOT
BRANCH   1   2
ATOM      2  C   UNL     1     130.957 146.158 137.794  1.00  0.00     0.000 C 
BRANCH   2   3
ATOM      3  C   UNL     1     131.780 145.222 138.696  1.00  0.00    -0.000 C 
BRANCH   3   4
ATOM      4  C   UNL     1     132.894 145.911 139.510  1.00  0.00    -0.000 C 
BRANCH   4   5
ATOM      5  C   UNL     1     132.716 147.428 139.700  1.00  0.00    -0.003 C 
ATOM      6  C   UNL     1     131.995 147.784 140.999  1.00  0.00     0.004 C 
ENDBRANCH   4   5
ENDBRANCH   3   4
ENDBRANCH   2   3
ENDBRANCH   1   2
BRANCH   1   7
ATOM      7  C   UNL     1     129.191 145.341 139.410  1.00  0.00     0.000 C 
BRANCH   7   8
ATOM      8  C   UNL     1     128.061 144.328 139.171  1.00  0.00     0.008 C 
BRANCH   8   9
ATOM      9  C   UNL     1     128.479 142.898 139.539  1.00  0.00     0.072 C 
BRANCH   9  10
ATOM     10  C   UNL     1     128.894 142.104 138.335  1.00  0.00     0.224 C 
ATOM     11  O   UNL     1     130.072 142.011 138.031  1.00  0.00    -0.303 OA
ENDBRANCH   9  10
ENDBRANCH   8   9
ENDBRANCH   7   8
ENDBRANCH   1   7
TORSDOF 8
ENDMDL
MODEL 4
REMARK VINA RESULT:    -1.954      2.282      5.037
REMARK INTER + INTRA:          -3.833
REMARK INTER:                  -2.958
REMARK INTRA:                  -0.875
REMARK UNBOUND:                -0.965
REMARK SMILES CCCCCCCCCC=O
REMARK SMILES IDX 6 1 5 2 4 3 3 4 2 5 1 6 7 7 8 8 9 9 10 10 11 11
REMARK H PARENT
REMARK Flexibility Score: inf
ROOT
ATOM      1  C   UNL     1     129.696 145.929 138.308  1.00  0.00     0.000 C 
ENDROOT
BRANCH   1   2
ATOM      2  C   UNL     1     129.350 144.888 139.383  1.00  0.00     0.000 C 
BRANCH   2   3
ATOM      3  C   UNL     1     128.545 143.700 138.829  1.00  0.00    -0.000 C 
BRANCH   3   4
ATOM      4  C   UNL     1     129.173 142.313 139.074  1.00  0.00    -0.000 C 
BRANCH   4   5
ATOM      5  C   UNL     1     130.712 142.290 139.090  1.00  0.00    -0.003 C 
ATOM      6  C   UNL     1     131.319 142.146 137.695  1.00  0.00     0.004 C 
ENDBRANCH   4   5
ENDBRANCH   3   4
ENDBRANCH   2   3
ENDBRANCH   1   2
BRANCH   1   7
ATOM      7  C   UNL     1     131.195 145.913 137.990  1.00  0.00     0.000 C 
BRANCH   7   8
ATOM      8  C   UNL     1     132.031 145.832 139.276  1.00  0.00     0.008 C 
BRANCH   8   9
ATOM      9  C   UNL     1     132.826 147.120 139.533  1.00  0.00     0.072 C 
BRANCH   9  10
ATOM     10  C   UNL     1     132.086 148.070 140.428  1.00  0.00     0.224 C 
ATOM     11  O   UNL     1     131.099 147.701 141.042  1.00  0.00    -0.303 OA
ENDBRANCH   9  10
ENDBRANCH   8   9
ENDBRANCH   7   8
ENDBRANCH   1   7
TORSDOF 8
ENDMDL
MODEL 5
REMARK VINA RESULT:    -1.926      2.915      5.027
REMARK INTER + INTRA:          -3.791
REMARK INTER:                  -3.127
REMARK INTRA:                  -0.665
REMARK UNBOUND:                -0.965
REMARK SMILES CCCCCCCCCC=O
REMARK SMILES IDX 6 1 5 2 4 3 3 4 2 5 1 6 7 7 8 8 9 9 10 10 11 11
REMARK H PARENT
REMARK Flexibility Score: inf
ROOT
ATOM      1  C   UNL     1     132.822 144.201 138.992  1.00  0.00     0.000 C 
ENDROOT
BRANCH   1   2
ATOM      2  C   UNL     1     134.102 143.518 138.489  1.00  0.00     0.000 C 
BRANCH   2   3
ATOM      3  C   UNL     1     133.859 142.609 137.272  1.00  0.00    -0.000 C 
BRANCH   3   4
ATOM      4  C   UNL     1     132.487 142.783 136.590  1.00  0.00    -0.000 C 
BRANCH   4   5
ATOM      5  C   UNL     1     131.631 141.508 136.517  1.00  0.00    -0.003 C 
ATOM      6  C   UNL     1     131.164 141.024 137.889  1.00  0.00     0.004 C 
ENDBRANCH   4   5
ENDBRANCH   3   4
ENDBRANCH   2   3
ENDBRANCH   1   2
BRANCH   1   7
ATOM      7  C   UNL     1     133.120 145.611 139.514  1.00  0.00     0.000 C 
BRANCH   7   8
ATOM      8  C   UNL     1     132.046 146.608 139.054  1.00  0.00     0.008 C 
BRANCH   8   9
ATOM      9  C   UNL     1     131.177 146.042 137.922  1.00  0.00     0.072 C 
BRANCH   9  10
ATOM     10  C   UNL     1     129.712 146.165 138.219  1.00  0.00     0.224 C 
ATOM     11  O   UNL     1     129.323 146.311 139.367  1.00  0.00    -0.303 OA
ENDBRANCH   9  10
ENDBRANCH   8   9
ENDBRANCH   7   8
ENDBRANCH   1   7
TORSDOF 8
ENDMDL
MODEL 6
REMARK VINA RESULT:    -1.917      1.605      3.298
REMARK INTER + INTRA:          -3.779
REMARK INTER:                  -3.064
REMARK INTRA:                  -0.715
REMARK UNBOUND:                -0.965
REMARK SMILES CCCCCCCCCC=O
REMARK SMILES IDX 6 1 5 2 4 3 3 4 2 5 1 6 7 7 8 8 9 9 10 10 11 11
REMARK H PARENT
REMARK Flexibility Score: inf
ROOT
ATOM      1  C   UNL     1     129.280 144.973 139.576  1.00  0.00     0.000 C 
ENDROOT
BRANCH   1   2
ATOM      2  C   UNL     1     129.336 145.929 138.375  1.00  0.00     0.000 C 
BRANCH   2   3
ATOM      3  C   UNL     1     130.773 146.256 137.935  1.00  0.00    -0.000 C 
BRANCH   3   4
ATOM      4  C   UNL     1     131.881 145.667 138.831  1.00  0.00    -0.000 C 
BRANCH   4   5
ATOM      5  C   UNL     1     132.840 146.702 139.444  1.00  0.00    -0.003 C 
ATOM      6  C   UNL     1     132.115 147.917 140.020  1.00  0.00     0.004 C 
ENDBRANCH   4   5
ENDBRANCH   3   4
ENDBRANCH   2   3
ENDBRANCH   1   2
BRANCH   1   7
ATOM      7  C   UNL     1     128.172 143.929 139.397  1.00  0.00     0.000 C 
BRANCH   7   8
ATOM      8  C   UNL     1     128.652 142.759 138.525  1.00  0.00     0.008 C 
BRANCH   8   9
ATOM      9  C   UNL     1     130.006 142.206 138.993  1.00  0.00     0.072 C 
BRANCH   9  10
ATOM     10  C   UNL     1     130.971 142.041 137.857  1.00  0.00     0.224 C 
ATOM     11  O   UNL     1     131.288 140.928 137.470  1.00  0.00    -0.303 OA
ENDBRANCH   9  10
ENDBRANCH   8   9
ENDBRANCH   7   8
ENDBRANCH   1   7
TORSDOF 8
ENDMDL
MODEL 7
REMARK VINA RESULT:    -1.899      2.511      4.289
REMARK INTER + INTRA:          -3.753
REMARK INTER:                  -2.737
REMARK INTRA:                  -1.016
REMARK UNBOUND:                -0.965
REMARK SMILES CCCCCCCCCC=O
REMARK SMILES IDX 6 1 5 2 4 3 3 4 2 5 1 6 7 7 8 8 9 9 10 10 11 11
REMARK H PARENT
REMARK Flexibility Score: inf
ROOT
ATOM      1  C   UNL     1     131.115 145.986 137.777  1.00  0.00     0.000 C 
ENDROOT
BRANCH   1   2
ATOM      2  C   UNL     1     129.682 146.258 138.255  1.00  0.00     0.000 C 
BRANCH   2   3
ATOM      3  C   UNL     1     129.213 145.271 139.338  1.00  0.00    -0.000 C 
BRANCH   3   4
ATOM      4  C   UNL     1     128.586 143.966 138.807  1.00  0.00    -0.000 C 
BRANCH   4   5
ATOM      5  C   UNL     1     129.222 142.673 139.347  1.00  0.00    -0.003 C 
ATOM      6  C   UNL     1     130.003 142.889 140.642  1.00  0.00     0.004 C 
ENDBRANCH   4   5
ENDBRANCH   3   4
ENDBRANCH   2   3
ENDBRANCH   1   2
BRANCH   1   7
ATOM      7  C   UNL     1     132.045 145.701 138.962  1.00  0.00     0.000 C 
BRANCH   7   8
ATOM      8  C   UNL     1     132.840 144.406 138.740  1.00  0.00     0.008 C 
BRANCH   8   9
ATOM      9  C   UNL     1     132.344 143.625 137.515  1.00  0.00     0.072 C 
BRANCH   9  10
ATOM     10  C   UNL     1     133.310 142.555 137.098  1.00  0.00     0.224 C 
ATOM     11  O   UNL     1     133.139 141.936 136.060  1.00  0.00    -0.303 OA
ENDBRANCH   9  10
ENDBRANCH   8   9
ENDBRANCH   7   8
ENDBRANCH   1   7
TORSDOF 8
ENDMDL
MODEL 8
REMARK VINA RESULT:    -1.895      9.475     11.492
REMARK INTER + INTRA:          -3.747
REMARK INTER:                  -2.839
REMARK INTRA:                  -0.908
REMARK UNBOUND:                -0.965
REMARK SMILES CCCCCCCCCC=O
REMARK SMILES IDX 6 1 5 2 4 3 3 4 2 5 1 6 7 7 8 8 9 9 10 10 11 11
REMARK H PARENT
REMARK Flexibility Score: inf
ROOT
ATOM      1  C   UNL     1     142.316 148.118 139.480  1.00  0.00     0.000 C 
ENDROOT
BRANCH   1   2
ATOM      2  C   UNL     1     143.193 148.034 138.222  1.00  0.00     0.000 C 
BRANCH   2   3
ATOM      3  C   UNL     1     143.661 146.601 137.913  1.00  0.00    -0.000 C 
BRANCH   3   4
ATOM      4  C   UNL     1     144.378 145.883 139.073  1.00  0.00    -0.000 C 
BRANCH   4   5
ATOM      5  C   UNL     1     143.648 144.644 139.620  1.00  0.00    -0.003 C 
ATOM      6  C   UNL     1     142.581 144.111 138.665  1.00  0.00     0.004 C 
ENDBRANCH   4   5
ENDBRANCH   3   4
ENDBRANCH   2   3
ENDBRANCH   1   2
BRANCH   1   7
ATOM      7  C   UNL     1     140.850 147.818 139.150  1.00  0.00     0.000 C 
BRANCH   7   8
ATOM      8  C   UNL     1     140.306 146.687 140.036  1.00  0.00     0.008 C 
BRANCH   8   9
ATOM      9  C   UNL     1     139.128 145.953 139.381  1.00  0.00     0.072 C 
BRANCH   9  10
ATOM     10  C   UNL     1     139.186 146.016 137.883  1.00  0.00     0.224 C 
ATOM     11  O   UNL     1     139.523 145.038 137.235  1.00  0.00    -0.303 OA
ENDBRANCH   9  10
ENDBRANCH   8   9
ENDBRANCH   7   8
ENDBRANCH   1   7
TORSDOF 8
ENDMDL
MODEL 9
REMARK VINA RESULT:    -1.880      1.767      2.772
REMARK INTER + INTRA:          -3.724
REMARK INTER:                  -2.887
REMARK INTRA:                  -0.837
REMARK UNBOUND:                -0.965
REMARK SMILES CCCCCCCCCC=O
REMARK SMILES IDX 6 1 5 2 4 3 3 4 2 5 1 6 7 7 8 8 9 9 10 10 11 11
REMARK H PARENT
REMARK Flexibility Score: inf
ROOT
ATOM      1  C   UNL     1     132.492 144.626 138.976  1.00  0.00     0.000 C 
ENDROOT
BRANCH   1   2
ATOM      2  C   UNL     1     131.854 146.022 138.960  1.00  0.00     0.000 C 
BRANCH   2   3
ATOM      3  C   UNL     1     130.856 146.212 137.804  1.00  0.00    -0.000 C 
BRANCH   3   4
ATOM      4  C   UNL     1     129.369 146.133 138.204  1.00  0.00    -0.000 C 
BRANCH   4   5
ATOM      5  C   UNL     1     129.111 145.785 139.680  1.00  0.00    -0.003 C 
ATOM      6  C   UNL     1     128.460 146.928 140.456  1.00  0.00     0.004 C 
ENDBRANCH   4   5
ENDBRANCH   3   4
ENDBRANCH   2   3
ENDBRANCH   1   2
BRANCH   1   7
ATOM      7  C   UNL     1     132.348 143.939 137.614  1.00  0.00     0.000 C 
BRANCH   7   8
ATOM      8  C   UNL     1     131.681 142.563 137.758  1.00  0.00     0.008 C 
BRANCH   8   9
ATOM      9  C   UNL     1     130.672 142.526 138.914  1.00  0.00     0.072 C 
BRANCH   9  10
ATOM     10  C   UNL     1     129.368 141.908 138.506  1.00  0.00     0.224 C 
ATOM     11  O   UNL     1     128.352 142.583 138.452  1.00  0.00    -0.303 OA
ENDBRANCH   9  10
ENDBRANCH   8   9
ENDBRANCH   7   8
ENDBRANCH   1   7
TORSDOF 8
ENDMDL
