MODEL 1
REMARK VINA RESULT:    -3.172      0.000      0.000
REMARK INTER + INTRA:          -3.566
REMARK INTER:                  -3.543
REMARK INTRA:                  -0.023
REMARK UNBOUND:                -0.023
REMARK SMILES CCCC(=O)[O-]
REMARK SMILES IDX 3 1 4 2 5 3 6 4 2 5 1 6
REMARK H PARENT
REMARK Flexibility Score: inf
ROOT
ATOM      1  C   UNL     1      41.237  36.875  22.958  1.00  0.00     0.052 C 
ENDROOT
BRANCH   1   2
ATOM      2  C   UNL     1      42.366  37.622  23.600  1.00  0.00     0.041 C 
ATOM      3  O   UNL     1      42.312  37.927  24.821  1.00  0.00    -0.550 OA
ATOM      4  O   UNL     1      43.463  38.010  22.841  1.00  0.00    -0.550 OA
ENDBRANCH   1   2
BRANCH   1   5
ATOM      5  C   UNL     1      40.202  36.415  23.992  1.00  0.00     0.003 C 
ATOM      6  C   UNL     1      38.766  36.633  23.514  1.00  0.00     0.004 C 
ENDBRANCH   1   5
TORSDOF 2
ENDMDL
MODEL 2
REMARK VINA RESULT:    -3.115      2.762      3.693
REMARK INTER + INTRA:          -3.502
REMARK INTER:                  -3.461
REMARK INTRA:                  -0.041
REMARK UNBOUND:                -0.023
REMARK SMILES CCCC(=O)[O-]
REMARK SMILES IDX 3 1 4 2 5 3 6 4 2 5 1 6
REMARK H PARENT
REMARK Flexibility Score: inf
ROOT
ATOM      1  C   UNL     1      40.003  36.233  24.043  1.00  0.00     0.052 C 
ENDROOT
BRANCH   1   2
ATOM      2  C   UNL     1      38.730  36.968  23.757  1.00  0.00     0.041 C 
ATOM      3  O   UNL     1      37.947  36.556  22.860  1.00  0.00    -0.550 OA
ATOM      4  O   UNL     1      38.423  38.126  24.459  1.00  0.00    -0.550 OA
ENDBRANCH   1   2
BRANCH   1   5
ATOM      5  C   UNL     1      41.224  37.156  23.946  1.00  0.00     0.003 C 
ATOM      6  C   UNL     1      41.837  37.164  22.545  1.00  0.00     0.004 C 
ENDBRANCH   1   5
TORSDOF 2
ENDMDL
MODEL 3
REMARK VINA RESULT:    -3.108     10.574     11.177
REMARK INTER + INTRA:          -3.495
REMARK INTER:                  -3.482
REMARK INTRA:                  -0.013
REMARK UNBOUND:                -0.023
REMARK SMILES CCCC(=O)[O-]
REMARK SMILES IDX 3 1 4 2 5 3 6 4 2 5 1 6
REMARK H PARENT
REMARK Flexibility Score: inf
ROOT
ATOM      1  C   UNL     1      48.618  33.919  16.767  1.00  0.00     0.052 C 
ENDROOT
BRANCH   1   2
ATOM      2  C   UNL     1      48.958  32.719  17.597  1.00  0.00     0.041 C 
ATOM      3  O   UNL     1      50.160  32.386  17.768  1.00  0.00    -0.550 OA
ATOM      4  O   UNL     1      47.944  31.951  18.154  1.00  0.00    -0.550 OA
ENDBRANCH   1   2
BRANCH   1   5
ATOM      5  C   UNL     1      47.762  33.544  15.551  1.00  0.00     0.003 C 
ATOM      6  C   UNL     1      48.432  33.919  14.230  1.00  0.00     0.004 C 
ENDBRANCH   1   5
TORSDOF 2
ENDMDL
MODEL 4
REMARK VINA RESULT:    -3.078     10.569     11.221
REMARK INTER + INTRA:          -3.460
REMARK INTER:                  -3.396
REMARK INTRA:                  -0.065
REMARK UNBOUND:                -0.023
REMARK SMILES CCCC(=O)[O-]
REMARK SMILES IDX 3 1 4 2 5 3 6 4 2 5 1 6
REMARK H PARENT
REMARK Flexibility Score: inf
ROOT
ATOM      1  C   UNL     1      49.589  33.008  17.653  1.00  0.00     0.052 C 
ENDROOT
BRANCH   1   2
ATOM      2  C   UNL     1      48.841  31.711  17.607  1.00  0.00     0.041 C 
ATOM      3  O   UNL     1      47.768  31.574  18.254  1.00  0.00    -0.550 OA
ATOM      4  O   UNL     1      49.344  30.644  16.875  1.00  0.00    -0.550 OA
ENDBRANCH   1   2
BRANCH   1   5
ATOM      5  C   UNL     1      48.805  34.140  16.978  1.00  0.00     0.003 C 
ATOM      6  C   UNL     1      48.372  33.781  15.557  1.00  0.00     0.004 C 
ENDBRANCH   1   5
TORSDOF 2
ENDMDL
MODEL 5
REMARK VINA RESULT:    -3.074     13.507     14.447
REMARK INTER + INTRA:          -3.456
REMARK INTER:                  -3.408
REMARK INTRA:                  -0.048
REMARK UNBOUND:                -0.023
REMARK SMILES CCCC(=O)[O-]
REMARK SMILES IDX 3 1 4 2 5 3 6 4 2 5 1 6
REMARK H PARENT
REMARK Flexibility Score: inf
ROOT
ATOM      1  C   UNL     1      47.730  34.115  11.678  1.00  0.00     0.052 C 
ENDROOT
BRANCH   1   2
ATOM      2  C   UNL     1      48.628  33.719  12.810  1.00  0.00     0.041 C 
ATOM      3  O   UNL     1      48.790  32.503  13.097  1.00  0.00    -0.550 OA
ATOM      4  O   UNL     1      49.261  34.695  13.569  1.00  0.00    -0.550 OA
ENDBRANCH   1   2
BRANCH   1   5
ATOM      5  C   UNL     1      48.045  33.324  10.403  1.00  0.00     0.003 C 
ATOM      6  C   UNL     1      49.451  33.606   9.875  1.00  0.00     0.004 C 
ENDBRANCH   1   5
TORSDOF 2
ENDMDL
MODEL 6
REMARK VINA RESULT:    -3.040     10.945     11.337
REMARK INTER + INTRA:          -3.419
REMARK INTER:                  -3.382
REMARK INTRA:                  -0.037
REMARK UNBOUND:                -0.023
REMARK SMILES CCCC(=O)[O-]
REMARK SMILES IDX 3 1 4 2 5 3 6 4 2 5 1 6
REMARK H PARENT
REMARK Flexibility Score: inf
ROOT
ATOM      1  C   UNL     1      48.115  31.880  18.064  1.00  0.00     0.052 C 
ENDROOT
BRANCH   1   2
ATOM      2  C   UNL     1      47.795  30.707  17.189  1.00  0.00     0.041 C 
ATOM      3  O   UNL     1      47.820  29.539  17.660  1.00  0.00    -0.550 OA
ATOM      4  O   UNL     1      47.502  30.901  15.845  1.00  0.00    -0.550 OA
ENDBRANCH   1   2
BRANCH   1   5
ATOM      5  C   UNL     1      49.301  32.686  17.520  1.00  0.00     0.003 C 
ATOM      6  C   UNL     1      48.903  34.105  17.114  1.00  0.00     0.004 C 
ENDBRANCH   1   5
TORSDOF 2
ENDMDL
MODEL 7
REMARK VINA RESULT:    -2.997     12.654     13.598
REMARK INTER + INTRA:          -3.370
REMARK INTER:                  -3.330
REMARK INTRA:                  -0.039
REMARK UNBOUND:                -0.023
REMARK SMILES CCCC(=O)[O-]
REMARK SMILES IDX 3 1 4 2 5 3 6 4 2 5 1 6
REMARK H PARENT
REMARK Flexibility Score: inf
ROOT
ATOM      1  C   UNL     1      48.598  34.272  13.086  1.00  0.00     0.052 C 
ENDROOT
BRANCH   1   2
ATOM      2  C   UNL     1      48.553  33.346  14.262  1.00  0.00     0.041 C 
ATOM      3  O   UNL     1      48.491  33.808  15.432  1.00  0.00    -0.550 OA
ATOM      4  O   UNL     1      48.611  31.972  14.067  1.00  0.00    -0.550 OA
ENDBRANCH   1   2
BRANCH   1   5
ATOM      5  C   UNL     1      48.888  33.519  11.782  1.00  0.00     0.003 C 
ATOM      6  C   UNL     1      50.347  33.649  11.346  1.00  0.00     0.004 C 
ENDBRANCH   1   5
TORSDOF 2
ENDMDL
MODEL 8
REMARK VINA RESULT:    -2.975     11.515     12.035
REMARK INTER + INTRA:          -3.346
REMARK INTER:                  -3.310
REMARK INTRA:                  -0.036
REMARK UNBOUND:                -0.023
REMARK SMILES CCCC(=O)[O-]
REMARK SMILES IDX 3 1 4 2 5 3 6 4 2 5 1 6
REMARK H PARENT
REMARK Flexibility Score: inf
ROOT
ATOM      1  C   UNL     1      47.847  33.531  15.648  1.00  0.00     0.052 C 
ENDROOT
BRANCH   1   2
ATOM      2  C   UNL     1      48.548  33.451  14.327  1.00  0.00     0.041 C 
ATOM      3  O   UNL     1      48.980  34.496  13.773  1.00  0.00    -0.550 OA
ATOM      4  O   UNL     1      48.696  32.224  13.692  1.00  0.00    -0.550 OA
ENDBRANCH   1   2
BRANCH   1   5
ATOM      5  C   UNL     1      48.810  33.912  16.778  1.00  0.00     0.003 C 
ATOM      6  C   UNL     1      49.362  32.688  17.509  1.00  0.00     0.004 C 
ENDBRANCH   1   5
TORSDOF 2
ENDMDL
