MODEL 1
REMARK VINA RESULT:    -3.940      0.000      0.000
REMARK INTER + INTRA:          -4.318
REMARK INTER:                  -4.285
REMARK INTRA:                  -0.033
REMARK UNBOUND:                -0.033
REMARK SMILES O=C([O-])c1ccc(O)cc1
REMARK SMILES IDX 4 1 5 2 10 3 6 4 9 5 7 6 2 7 1 8 3 9 8 10
REMARK H PARENT 8 11
REMARK Flexibility Score: inf
ROOT
ATOM      1  C   UNL     1      14.673  20.931   4.083  1.00  0.00    -0.003 A 
ATOM      2  C   UNL     1      13.269  21.030   4.057  1.00  0.00     0.014 A 
ATOM      3  C   UNL     1      15.442  22.052   3.724  1.00  0.00     0.014 A 
ATOM      4  C   UNL     1      12.651  22.226   3.679  1.00  0.00     0.047 A 
ATOM      5  C   UNL     1      14.820  23.246   3.347  1.00  0.00     0.047 A 
ATOM      6  C   UNL     1      13.425  23.337   3.323  1.00  0.00     0.115 A 
ENDROOT
BRANCH   1   7
ATOM      7  C   UNL     1      15.333  19.669   4.481  1.00  0.00     0.071 C 
ATOM      8  O   UNL     1      14.791  18.898   5.319  1.00  0.00    -0.545 OA
ATOM      9  O   UNL     1      16.562  19.314   3.937  1.00  0.00    -0.545 OA
ENDBRANCH   1   7
BRANCH   6  10
ATOM     10  O   UNL     1      12.820  24.534   2.945  1.00  0.00    -0.508 OA
ATOM     11  H   UNL     1      11.812  24.636   2.929  1.00  0.00     0.293 HD
ENDBRANCH   6  10
TORSDOF 2
ENDMDL
MODEL 2
REMARK VINA RESULT:    -3.878     14.182     15.019
REMARK INTER + INTRA:          -4.252
REMARK INTER:                  -4.225
REMARK INTRA:                  -0.027
REMARK UNBOUND:                -0.033
REMARK SMILES O=C([O-])c1ccc(O)cc1
REMARK SMILES IDX 4 1 5 2 10 3 6 4 9 5 7 6 2 7 1 8 3 9 8 10
REMARK H PARENT 8 11
REMARK Flexibility Score: inf
ROOT
ATOM      1  C   UNL     1      18.198  21.183  18.968  1.00  0.00    -0.003 A 
ATOM      2  C   UNL     1      17.283  20.268  18.412  1.00  0.00     0.014 A 
ATOM      3  C   UNL     1      18.591  22.299  18.209  1.00  0.00     0.014 A 
ATOM      4  C   UNL     1      16.774  20.469  17.125  1.00  0.00     0.047 A 
ATOM      5  C   UNL     1      18.080  22.496  16.922  1.00  0.00     0.047 A 
ATOM      6  C   UNL     1      17.172  21.584  16.377  1.00  0.00     0.115 A 
ENDROOT
BRANCH   1   7
ATOM      7  C   UNL     1      18.740  20.976  20.329  1.00  0.00     0.071 C 
ATOM      8  O   UNL     1      18.055  21.276  21.344  1.00  0.00    -0.545 OA
ATOM      9  O   UNL     1      20.013  20.448  20.507  1.00  0.00    -0.545 OA
ENDBRANCH   1   7
BRANCH   6  10
ATOM     10  O   UNL     1      16.672  21.794  15.094  1.00  0.00    -0.508 OA
ATOM     11  H   UNL     1      17.194  21.520  14.270  1.00  0.00     0.293 HD
ENDBRANCH   6  10
TORSDOF 2
ENDMDL
MODEL 3
REMARK VINA RESULT:    -3.853     13.713     14.813
REMARK INTER + INTRA:          -4.224
REMARK INTER:                  -4.195
REMARK INTRA:                  -0.029
REMARK UNBOUND:                -0.033
REMARK SMILES O=C([O-])c1ccc(O)cc1
REMARK SMILES IDX 4 1 5 2 10 3 6 4 9 5 7 6 2 7 1 8 3 9 8 10
REMARK H PARENT 8 11
REMARK Flexibility Score: inf
ROOT
ATOM      1  C   UNL     1      17.593  20.578  17.734  1.00  0.00    -0.003 A 
ATOM      2  C   UNL     1      18.353  21.040  16.643  1.00  0.00     0.014 A 
ATOM      3  C   UNL     1      18.033  20.862  19.038  1.00  0.00     0.014 A 
ATOM      4  C   UNL     1      19.527  21.769  16.856  1.00  0.00     0.047 A 
ATOM      5  C   UNL     1      19.207  21.592  19.247  1.00  0.00     0.047 A 
ATOM      6  C   UNL     1      19.957  22.047  18.159  1.00  0.00     0.115 A 
ENDROOT
BRANCH   1   7
ATOM      7  C   UNL     1      16.351  19.806  17.515  1.00  0.00     0.071 C 
ATOM      8  O   UNL     1      16.251  18.621  17.934  1.00  0.00    -0.545 OA
ATOM      9  O   UNL     1      15.275  20.377  16.845  1.00  0.00    -0.545 OA
ENDBRANCH   1   7
BRANCH   6  10
ATOM     10  O   UNL     1      21.125  22.773  18.383  1.00  0.00    -0.508 OA
ATOM     11  H   UNL     1      21.720  23.069  17.618  1.00  0.00     0.293 HD
ENDBRANCH   6  10
TORSDOF 2
ENDMDL
MODEL 4
REMARK VINA RESULT:    -3.846     13.496     14.457
REMARK INTER + INTRA:          -4.217
REMARK INTER:                  -4.182
REMARK INTRA:                  -0.035
REMARK UNBOUND:                -0.033
REMARK SMILES O=C([O-])c1ccc(O)cc1
REMARK SMILES IDX 4 1 5 2 10 3 6 4 9 5 7 6 2 7 1 8 3 9 8 10
REMARK H PARENT 8 11
REMARK Flexibility Score: inf
ROOT
ATOM      1  C   UNL     1      18.664  21.290  17.773  1.00  0.00    -0.003 A 
ATOM      2  C   UNL     1      17.869  20.489  18.614  1.00  0.00     0.014 A 
ATOM      3  C   UNL     1      18.123  21.750  16.560  1.00  0.00     0.014 A 
ATOM      4  C   UNL     1      16.561  20.156  18.246  1.00  0.00     0.047 A 
ATOM      5  C   UNL     1      16.815  21.416  16.196  1.00  0.00     0.047 A 
ATOM      6  C   UNL     1      16.031  20.620  17.036  1.00  0.00     0.115 A 
ENDROOT
BRANCH   1   7
ATOM      7  C   UNL     1      20.048  21.645  18.156  1.00  0.00     0.071 C 
ATOM      8  O   UNL     1      20.861  22.077  17.294  1.00  0.00    -0.545 OA
ATOM      9  O   UNL     1      20.472  21.508  19.473  1.00  0.00    -0.545 OA
ENDBRANCH   1   7
BRANCH   6  10
ATOM     10  O   UNL     1      14.730  20.294  16.659  1.00  0.00    -0.508 OA
ATOM     11  H   UNL     1      14.364  20.543  15.747  1.00  0.00     0.293 HD
ENDBRANCH   6  10
TORSDOF 2
ENDMDL
MODEL 5
REMARK VINA RESULT:    -3.817     13.131     14.252
REMARK INTER + INTRA:          -4.185
REMARK INTER:                  -4.149
REMARK INTRA:                  -0.036
REMARK UNBOUND:                -0.033
REMARK SMILES O=C([O-])c1ccc(O)cc1
REMARK SMILES IDX 4 1 5 2 10 3 6 4 9 5 7 6 2 7 1 8 3 9 8 10
REMARK H PARENT 8 11
REMARK Flexibility Score: inf
ROOT
ATOM      1  C   UNL     1      18.147  21.750  16.966  1.00  0.00    -0.003 A 
ATOM      2  C   UNL     1      18.371  21.276  18.273  1.00  0.00     0.014 A 
ATOM      3  C   UNL     1      17.007  21.312  16.269  1.00  0.00     0.014 A 
ATOM      4  C   UNL     1      17.473  20.382  18.865  1.00  0.00     0.047 A 
ATOM      5  C   UNL     1      16.112  20.419  16.865  1.00  0.00     0.047 A 
ATOM      6  C   UNL     1      16.341  19.952  18.162  1.00  0.00     0.115 A 
ENDROOT
BRANCH   1   7
ATOM      7  C   UNL     1      19.093  22.695  16.333  1.00  0.00     0.071 C 
ATOM      8  O   UNL     1      19.984  23.265  17.019  1.00  0.00    -0.545 OA
ATOM      9  O   UNL     1      19.012  22.967  14.973  1.00  0.00    -0.545 OA
ENDBRANCH   1   7
BRANCH   6  10
ATOM     10  O   UNL     1      15.439  19.062  18.743  1.00  0.00    -0.508 OA
ATOM     11  H   UNL     1      15.605  18.063  18.741  1.00  0.00     0.293 HD
ENDBRANCH   6  10
TORSDOF 2
ENDMDL
MODEL 6
REMARK VINA RESULT:    -3.805     10.615     11.550
REMARK INTER + INTRA:          -4.172
REMARK INTER:                  -4.145
REMARK INTRA:                  -0.027
REMARK UNBOUND:                -0.033
REMARK SMILES O=C([O-])c1ccc(O)cc1
REMARK SMILES IDX 4 1 5 2 10 3 6 4 9 5 7 6 2 7 1 8 3 9 8 10
REMARK H PARENT 8 11
REMARK Flexibility Score: inf
ROOT
ATOM      1  C   UNL     1       4.814  15.991   2.658  1.00  0.00    -0.003 A 
ATOM      2  C   UNL     1       3.684  15.542   3.367  1.00  0.00     0.014 A 
ATOM      3  C   UNL     1       4.723  17.182   1.917  1.00  0.00     0.014 A 
ATOM      4  C   UNL     1       2.491  16.270   3.333  1.00  0.00     0.047 A 
ATOM      5  C   UNL     1       3.528  17.908   1.885  1.00  0.00     0.047 A 
ATOM      6  C   UNL     1       2.411  17.456   2.592  1.00  0.00     0.115 A 
ENDROOT
BRANCH   1   7
ATOM      7  C   UNL     1       6.079  15.225   2.689  1.00  0.00     0.071 C 
ATOM      8  O   UNL     1       6.202  14.164   2.020  1.00  0.00    -0.545 OA
ATOM      9  O   UNL     1       7.150  15.666   3.457  1.00  0.00    -0.545 OA
ENDBRANCH   1   7
BRANCH   6  10
ATOM     10  O   UNL     1       1.227  18.189   2.551  1.00  0.00    -0.508 OA
ATOM     11  H   UNL     1       1.183  19.101   2.112  1.00  0.00     0.293 HD
ENDBRANCH   6  10
TORSDOF 2
ENDMDL
MODEL 7
REMARK VINA RESULT:    -3.694     10.837     12.172
REMARK INTER + INTRA:          -4.051
REMARK INTER:                  -4.023
REMARK INTRA:                  -0.027
REMARK UNBOUND:                -0.033
REMARK SMILES O=C([O-])c1ccc(O)cc1
REMARK SMILES IDX 4 1 5 2 10 3 6 4 9 5 7 6 2 7 1 8 3 9 8 10
REMARK H PARENT 8 11
REMARK Flexibility Score: inf
ROOT
ATOM      1  C   UNL     1       3.539  16.443   2.898  1.00  0.00    -0.003 A 
ATOM      2  C   UNL     1       4.346  17.346   2.181  1.00  0.00     0.014 A 
ATOM      3  C   UNL     1       4.086  15.212   3.300  1.00  0.00     0.014 A 
ATOM      4  C   UNL     1       5.672  17.022   1.875  1.00  0.00     0.047 A 
ATOM      5  C   UNL     1       5.412  14.892   2.993  1.00  0.00     0.047 A 
ATOM      6  C   UNL     1       6.208  15.794   2.281  1.00  0.00     0.115 A 
ENDROOT
BRANCH   1   7
ATOM      7  C   UNL     1       2.136  16.779   3.225  1.00  0.00     0.071 C 
ATOM      8  O   UNL     1       1.247  16.756   2.331  1.00  0.00    -0.545 OA
ATOM      9  O   UNL     1       1.779  17.125   4.522  1.00  0.00    -0.545 OA
ENDBRANCH   1   7
BRANCH   6  10
ATOM     10  O   UNL     1       7.527  15.461   1.981  1.00  0.00    -0.508 OA
ATOM     11  H   UNL     1       7.864  14.508   2.058  1.00  0.00     0.293 HD
ENDBRANCH   6  10
TORSDOF 2
ENDMDL
MODEL 8
REMARK VINA RESULT:    -3.616     12.537     13.419
REMARK INTER + INTRA:          -3.966
REMARK INTER:                  -3.936
REMARK INTRA:                  -0.030
REMARK UNBOUND:                -0.033
REMARK SMILES O=C([O-])c1ccc(O)cc1
REMARK SMILES IDX 4 1 5 2 10 3 6 4 9 5 7 6 2 7 1 8 3 9 8 10
REMARK H PARENT 8 11
REMARK Flexibility Score: inf
ROOT
ATOM      1  C   UNL     1      17.599  20.943  17.155  1.00  0.00    -0.003 A 
ATOM      2  C   UNL     1      16.814  21.353  16.061  1.00  0.00     0.014 A 
ATOM      3  C   UNL     1      18.967  21.268  17.171  1.00  0.00     0.014 A 
ATOM      4  C   UNL     1      17.387  22.071  15.007  1.00  0.00     0.047 A 
ATOM      5  C   UNL     1      19.536  21.987  16.116  1.00  0.00     0.047 A 
ATOM      6  C   UNL     1      18.750  22.391  15.033  1.00  0.00     0.115 A 
ENDROOT
BRANCH   1   7
ATOM      7  C   UNL     1      16.999  20.182  18.273  1.00  0.00     0.071 C 
ATOM      8  O   UNL     1      17.117  20.588  19.461  1.00  0.00    -0.545 OA
ATOM      9  O   UNL     1      16.297  19.008  18.029  1.00  0.00    -0.545 OA
ENDBRANCH   1   7
BRANCH   6  10
ATOM     10  O   UNL     1      19.332  23.106  13.988  1.00  0.00    -0.508 OA
ATOM     11  H   UNL     1      20.113  22.734  13.461  1.00  0.00     0.293 HD
ENDBRANCH   6  10
TORSDOF 2
ENDMDL
MODEL 9
REMARK VINA RESULT:    -2.373     10.847     12.132
REMARK INTER + INTRA:          -2.614
REMARK INTER:                  -2.586
REMARK INTRA:                  -0.027
REMARK UNBOUND:                -0.033
REMARK SMILES O=C([O-])c1ccc(O)cc1
REMARK SMILES IDX 4 1 5 2 10 3 6 4 9 5 7 6 2 7 1 8 3 9 8 10
REMARK H PARENT 8 11
REMARK Flexibility Score: inf
ROOT
ATOM      1  C   UNL     1       3.536  16.422   2.891  1.00  0.00    -0.003 A 
ATOM      2  C   UNL     1       4.080  15.190   3.301  1.00  0.00     0.014 A 
ATOM      3  C   UNL     1       4.347  17.320   2.175  1.00  0.00     0.014 A 
ATOM      4  C   UNL     1       5.406  14.866   2.999  1.00  0.00     0.047 A 
ATOM      5  C   UNL     1       5.673  16.992   1.875  1.00  0.00     0.047 A 
ATOM      6  C   UNL     1       6.206  15.766   2.285  1.00  0.00     0.115 A 
ENDROOT
BRANCH   1   7
ATOM      7  C   UNL     1       2.134  16.772   3.208  1.00  0.00     0.071 C 
ATOM      8  O   UNL     1       1.250  16.752   2.309  1.00  0.00    -0.545 OA
ATOM      9  O   UNL     1       1.772  17.128   4.501  1.00  0.00    -0.545 OA
ENDBRANCH   1   7
BRANCH   6  10
ATOM     10  O   UNL     1       7.529  15.454   1.979  1.00  0.00    -0.508 OA
ATOM     11  H   UNL     1       8.265  15.528   2.671  1.00  0.00     0.293 HD
ENDBRANCH   6  10
TORSDOF 2
ENDMDL
