MODEL 1
REMARK VINA RESULT:    -7.300      0.000      0.000
REMARK INTER + INTRA:         -10.737
REMARK INTER:                  -9.220
REMARK INTRA:                  -1.517
REMARK UNBOUND:                -1.517
REMARK SMILES CC(C)[C@H](C)C=C[C@@H](C)[C@@H]1CC[C@@H]2C3=CC=C4C[C@@H](O)CC[C@]4(C)[C@@H]3CC[C@@]21C
REMARK SMILES IDX 8 1 9 2 7 3 6 4 4 5 5 6 2 7 1 8 3 9 10 10 11 11 28 12 12 13
REMARK SMILES IDX 13 14 27 15 29 16 14 17 26 18 25 19 15 20 23 21 16 22 17 23
REMARK SMILES IDX 22 24 24 25 18 26 21 27 19 28 20 29
REMARK H PARENT 20 30
REMARK Flexibility Score: inf
ROOT
ATOM      1  C   UNL     1     187.161 195.240 191.095  1.00  0.00     0.012 C 
ATOM      2  C   UNL     1     186.675 196.550 190.452  1.00  0.00     0.012 C 
ENDROOT
BRANCH   1   3
ATOM      3  C   UNL     1     188.580 195.468 191.570  1.00  0.00    -0.028 C 
ATOM      4  C   UNL     1     189.035 195.226 192.818  1.00  0.00    -0.028 C 
BRANCH   4   5
ATOM      5  C   UNL     1     188.220 194.624 193.947  1.00  0.00     0.011 C 
ATOM      6  C   UNL     1     189.085 193.630 194.737  1.00  0.00     0.012 C 
BRANCH   5   7
ATOM      7  C   UNL     1     187.581 195.741 194.832  1.00  0.00    -0.011 C 
ATOM      8  C   UNL     1     188.396 197.042 194.774  1.00  0.00     0.008 C 
ATOM      9  C   UNL     1     186.106 196.037 194.502  1.00  0.00     0.008 C 
ENDBRANCH   5   7
ENDBRANCH   4   5
ENDBRANCH   1   3
BRANCH   1  10
ATOM     10  C   UNL     1     187.079 194.055 190.074  1.00  0.00     0.002 C 
ATOM     11  C   UNL     1     185.790 194.087 189.237  1.00  0.00     0.005 C 
ATOM     12  C   UNL     1     187.144 192.588 190.613  1.00  0.00    -0.023 C 
ATOM     13  C   UNL     1     185.539 192.654 188.759  1.00  0.00     0.009 C 
ATOM     14  C   UNL     1     186.647 191.800 189.376  1.00  0.00     0.021 C 
ATOM     15  C   UNL     1     186.224 192.366 191.871  1.00  0.00     0.008 C 
ATOM     16  C   UNL     1     188.601 192.165 190.935  1.00  0.00     0.012 C 
ATOM     17  C   UNL     1     186.202 190.376 189.654  1.00  0.00    -0.063 C 
ATOM     18  C   UNL     1     185.305 191.132 191.830  1.00  0.00     0.009 C 
ATOM     19  C   UNL     1     185.919 189.940 191.073  1.00  0.00     0.025 C 
ATOM     20  C   UNL     1     186.236 189.481 188.662  1.00  0.00    -0.000 C 
ATOM     21  C   UNL     1     185.072 188.602 191.190  1.00  0.00    -0.005 C 
ATOM     22  C   UNL     1     185.882 188.077 188.878  1.00  0.00    -0.000 C 
ATOM     23  C   UNL     1     185.370 187.639 190.039  1.00  0.00    -0.061 C 
ATOM     24  C   UNL     1     183.532 188.856 191.145  1.00  0.00     0.014 C 
ATOM     25  C   UNL     1     185.458 187.932 192.539  1.00  0.00     0.017 C 
ATOM     26  C   UNL     1     184.642 186.317 190.041  1.00  0.00     0.063 C 
ATOM     27  C   UNL     1     182.689 187.560 191.110  1.00  0.00     0.033 C 
ATOM     28  C   UNL     1     183.129 186.586 189.993  1.00  0.00     0.118 C 
BRANCH  28  29
ATOM     29  O   UNL     1     182.445 185.369 190.115  1.00  0.00    -0.393 OA
ATOM     30  H   UNL     1     181.893 185.427 190.936  1.00  0.00     0.210 HD
ENDBRANCH  28  29
ENDBRANCH   1  10
TORSDOF 5
ENDMDL
MODEL 2
REMARK VINA RESULT:    -7.151      1.638      2.434
REMARK INTER + INTRA:         -10.549
REMARK INTER:                  -9.126
REMARK INTRA:                  -1.424
REMARK UNBOUND:                -1.517
REMARK SMILES CC(C)[C@H](C)C=C[C@@H](C)[C@@H]1CC[C@@H]2C3=CC=C4C[C@@H](O)CC[C@]4(C)[C@@H]3CC[C@@]21C
REMARK SMILES IDX 8 1 9 2 7 3 6 4 4 5 5 6 2 7 1 8 3 9 10 10 11 11 28 12 12 13
REMARK SMILES IDX 13 14 27 15 29 16 14 17 26 18 25 19 15 20 23 21 16 22 17 23
REMARK SMILES IDX 22 24 24 25 18 26 21 27 19 28 20 29
REMARK H PARENT 20 30
REMARK Flexibility Score: inf
ROOT
ATOM      1  C   UNL     1     187.441 195.043 190.278  1.00  0.00     0.012 C 
ATOM      2  C   UNL     1     186.129 195.698 190.742  1.00  0.00     0.012 C 
ENDROOT
BRANCH   1   3
ATOM      3  C   UNL     1     188.257 196.109 189.579  1.00  0.00    -0.028 C 
ATOM      4  C   UNL     1     189.585 196.050 189.350  1.00  0.00    -0.028 C 
BRANCH   4   5
ATOM      5  C   UNL     1     190.486 194.879 189.698  1.00  0.00     0.011 C 
ATOM      6  C   UNL     1     191.396 194.554 188.505  1.00  0.00     0.012 C 
BRANCH   5   7
ATOM      7  C   UNL     1     191.263 195.147 191.025  1.00  0.00    -0.011 C 
ATOM      8  C   UNL     1     191.632 196.631 191.173  1.00  0.00     0.008 C 
ATOM      9  C   UNL     1     190.528 194.666 192.292  1.00  0.00     0.008 C 
ENDBRANCH   5   7
ENDBRANCH   4   5
ENDBRANCH   1   3
BRANCH   1  10
ATOM     10  C   UNL     1     187.151 193.827 189.333  1.00  0.00     0.002 C 
ATOM     11  C   UNL     1     185.774 193.922 188.657  1.00  0.00     0.005 C 
ATOM     12  C   UNL     1     187.180 192.382 189.932  1.00  0.00    -0.023 C 
ATOM     13  C   UNL     1     185.366 192.493 188.284  1.00  0.00     0.009 C 
ATOM     14  C   UNL     1     186.481 191.584 188.804  1.00  0.00     0.021 C 
ATOM     15  C   UNL     1     186.410 192.280 191.301  1.00  0.00     0.008 C 
ATOM     16  C   UNL     1     188.633 191.865 190.097  1.00  0.00     0.012 C 
ATOM     17  C   UNL     1     185.976 190.210 189.203  1.00  0.00    -0.063 C 
ATOM     18  C   UNL     1     185.409 191.118 191.431  1.00  0.00     0.009 C 
ATOM     19  C   UNL     1     185.841 189.854 190.665  1.00  0.00     0.025 C 
ATOM     20  C   UNL     1     185.825 189.276 188.259  1.00  0.00    -0.000 C 
ATOM     21  C   UNL     1     184.924 188.589 190.950  1.00  0.00    -0.005 C 
ATOM     22  C   UNL     1     185.403 187.912 188.585  1.00  0.00    -0.000 C 
ATOM     23  C   UNL     1     185.010 187.561 189.820  1.00  0.00    -0.061 C 
ATOM     24  C   UNL     1     183.412 188.955 191.078  1.00  0.00     0.014 C 
ATOM     25  C   UNL     1     185.426 187.947 192.273  1.00  0.00     0.017 C 
ATOM     26  C   UNL     1     184.198 186.298 189.974  1.00  0.00     0.063 C 
ATOM     27  C   UNL     1     182.483 187.726 191.208  1.00  0.00     0.033 C 
ATOM     28  C   UNL     1     182.713 186.678 190.095  1.00  0.00     0.118 C 
BRANCH  28  29
ATOM     29  O   UNL     1     181.966 185.521 190.358  1.00  0.00    -0.393 OA
ATOM     30  H   UNL     1     182.254 184.834 189.705  1.00  0.00     0.210 HD
ENDBRANCH  28  29
ENDBRANCH   1  10
TORSDOF 5
ENDMDL
MODEL 3
REMARK VINA RESULT:    -7.143      1.626      1.865
REMARK INTER + INTRA:         -10.540
REMARK INTER:                  -9.640
REMARK INTRA:                  -0.900
REMARK UNBOUND:                -1.517
REMARK SMILES CC(C)[C@H](C)C=C[C@@H](C)[C@@H]1CC[C@@H]2C3=CC=C4C[C@@H](O)CC[C@]4(C)[C@@H]3CC[C@@]21C
REMARK SMILES IDX 8 1 9 2 7 3 6 4 4 5 5 6 2 7 1 8 3 9 10 10 11 11 28 12 12 13
REMARK SMILES IDX 13 14 27 15 29 16 14 17 26 18 25 19 15 20 23 21 16 22 17 23
REMARK SMILES IDX 22 24 24 25 18 26 21 27 19 28 20 29
REMARK H PARENT 20 30
REMARK Flexibility Score: inf
ROOT
ATOM      1  C   UNL     1     187.442 195.369 190.535  1.00  0.00     0.012 C 
ATOM      2  C   UNL     1     186.071 196.022 190.785  1.00  0.00     0.012 C 
ENDROOT
BRANCH   1   3
ATOM      3  C   UNL     1     188.340 196.423 189.924  1.00  0.00    -0.028 C 
ATOM      4  C   UNL     1     188.980 197.395 190.607  1.00  0.00    -0.028 C 
BRANCH   4   5
ATOM      5  C   UNL     1     188.962 197.566 192.115  1.00  0.00     0.011 C 
ATOM      6  C   UNL     1     190.380 197.378 192.673  1.00  0.00     0.012 C 
BRANCH   5   7
ATOM      7  C   UNL     1     188.305 198.924 192.516  1.00  0.00    -0.011 C 
ATOM      8  C   UNL     1     189.361 200.016 192.746  1.00  0.00     0.008 C 
ATOM      9  C   UNL     1     187.245 199.428 191.518  1.00  0.00     0.008 C 
ENDBRANCH   5   7
ENDBRANCH   4   5
ENDBRANCH   1   3
BRANCH   1  10
ATOM     10  C   UNL     1     187.301 194.120 189.600  1.00  0.00     0.002 C 
ATOM     11  C   UNL     1     185.988 194.129 188.799  1.00  0.00     0.005 C 
ATOM     12  C   UNL     1     187.347 192.692 190.236  1.00  0.00    -0.023 C 
ATOM     13  C   UNL     1     185.689 192.673 188.428  1.00  0.00     0.009 C 
ATOM     14  C   UNL     1     186.795 191.835 189.070  1.00  0.00     0.021 C 
ATOM     15  C   UNL     1     186.461 192.579 191.532  1.00  0.00     0.008 C 
ATOM     16  C   UNL     1     188.803 192.255 190.544  1.00  0.00     0.012 C 
ATOM     17  C   UNL     1     186.325 190.445 189.458  1.00  0.00    -0.063 C 
ATOM     18  C   UNL     1     185.512 191.369 191.601  1.00  0.00     0.009 C 
ATOM     19  C   UNL     1     186.075 190.114 190.910  1.00  0.00     0.025 C 
ATOM     20  C   UNL     1     186.308 189.484 188.529  1.00  0.00    -0.000 C 
ATOM     21  C   UNL     1     185.201 188.809 191.144  1.00  0.00    -0.005 C 
ATOM     22  C   UNL     1     185.928 188.107 188.850  1.00  0.00    -0.000 C 
ATOM     23  C   UNL     1     185.441 187.763 190.053  1.00  0.00    -0.061 C 
ATOM     24  C   UNL     1     183.667 189.098 191.125  1.00  0.00     0.014 C 
ATOM     25  C   UNL     1     185.611 188.222 192.523  1.00  0.00     0.017 C 
ATOM     26  C   UNL     1     184.682 186.463 190.166  1.00  0.00     0.063 C 
ATOM     27  C   UNL     1     182.793 187.825 191.203  1.00  0.00     0.033 C 
ATOM     28  C   UNL     1     183.175 186.767 190.143  1.00  0.00     0.118 C 
BRANCH  28  29
ATOM     29  O   UNL     1     182.467 185.578 190.368  1.00  0.00    -0.393 OA
ATOM     30  H   UNL     1     183.053 184.832 190.083  1.00  0.00     0.210 HD
ENDBRANCH  28  29
ENDBRANCH   1  10
TORSDOF 5
ENDMDL
MODEL 4
REMARK VINA RESULT:    -6.970      3.667      8.594
REMARK INTER + INTRA:         -10.321
REMARK INTER:                  -9.063
REMARK INTRA:                  -1.258
REMARK UNBOUND:                -1.517
REMARK SMILES CC(C)[C@H](C)C=C[C@@H](C)[C@@H]1CC[C@@H]2C3=CC=C4C[C@@H](O)CC[C@]4(C)[C@@H]3CC[C@@]21C
REMARK SMILES IDX 8 1 9 2 7 3 6 4 4 5 5 6 2 7 1 8 3 9 10 10 11 11 28 12 12 13
REMARK SMILES IDX 13 14 27 15 29 16 14 17 26 18 25 19 15 20 23 21 16 22 17 23
REMARK SMILES IDX 22 24 24 25 18 26 21 27 19 28 20 29
REMARK H PARENT 20 30
REMARK Flexibility Score: inf
ROOT
ATOM      1  C   UNL     1     185.727 190.436 188.583  1.00  0.00     0.012 C 
ATOM      2  C   UNL     1     184.248 190.137 188.880  1.00  0.00     0.012 C 
ENDROOT
BRANCH   1   3
ATOM      3  C   UNL     1     186.367 189.143 188.126  1.00  0.00    -0.028 C 
ATOM      4  C   UNL     1     187.310 189.034 187.166  1.00  0.00    -0.028 C 
BRANCH   4   5
ATOM      5  C   UNL     1     187.941 190.196 186.420  1.00  0.00     0.011 C 
ATOM      6  C   UNL     1     189.413 189.879 186.121  1.00  0.00     0.012 C 
BRANCH   5   7
ATOM      7  C   UNL     1     187.108 190.564 185.152  1.00  0.00    -0.011 C 
ATOM      8  C   UNL     1     187.999 191.125 184.034  1.00  0.00     0.008 C 
ATOM      9  C   UNL     1     186.255 189.404 184.602  1.00  0.00     0.008 C 
ENDBRANCH   5   7
ENDBRANCH   4   5
ENDBRANCH   1   3
BRANCH   1  10
ATOM     10  C   UNL     1     186.443 191.016 189.849  1.00  0.00     0.002 C 
ATOM     11  C   UNL     1     185.461 191.325 190.992  1.00  0.00     0.005 C 
ATOM     12  C   UNL     1     187.282 192.329 189.708  1.00  0.00    -0.023 C 
ATOM     13  C   UNL     1     186.127 192.388 191.871  1.00  0.00     0.009 C 
ATOM     14  C   UNL     1     187.456 192.727 191.194  1.00  0.00     0.021 C 
ATOM     15  C   UNL     1     186.536 193.436 188.876  1.00  0.00     0.008 C 
ATOM     16  C   UNL     1     188.677 192.047 189.090  1.00  0.00     0.012 C 
ATOM     17  C   UNL     1     187.882 194.164 191.431  1.00  0.00    -0.063 C 
ATOM     18  C   UNL     1     186.500 194.844 189.498  1.00  0.00     0.009 C 
ATOM     19  C   UNL     1     187.759 195.178 190.318  1.00  0.00     0.025 C 
ATOM     20  C   UNL     1     188.524 194.471 192.563  1.00  0.00    -0.000 C 
ATOM     21  C   UNL     1     187.826 196.690 190.800  1.00  0.00    -0.005 C 
ATOM     22  C   UNL     1     189.019 195.823 192.826  1.00  0.00    -0.000 C 
ATOM     23  C   UNL     1     188.737 196.858 192.018  1.00  0.00    -0.061 C 
ATOM     24  C   UNL     1     186.434 197.250 191.229  1.00  0.00     0.014 C 
ATOM     25  C   UNL     1     188.388 197.524 189.614  1.00  0.00     0.017 C 
ATOM     26  C   UNL     1     188.903 198.254 192.567  1.00  0.00     0.063 C 
ATOM     27  C   UNL     1     186.495 198.669 191.839  1.00  0.00     0.033 C 
ATOM     28  C   UNL     1     187.523 198.786 192.988  1.00  0.00     0.118 C 
BRANCH  28  29
ATOM     29  O   UNL     1     187.653 200.124 193.386  1.00  0.00    -0.393 OA
ATOM     30  H   UNL     1     188.459 200.180 193.960  1.00  0.00     0.210 HD
ENDBRANCH  28  29
ENDBRANCH   1  10
TORSDOF 5
ENDMDL
MODEL 5
REMARK VINA RESULT:    -6.955      2.724      4.418
REMARK INTER + INTRA:         -10.302
REMARK INTER:                  -8.951
REMARK INTRA:                  -1.351
REMARK UNBOUND:                -1.517
REMARK SMILES CC(C)[C@H](C)C=C[C@@H](C)[C@@H]1CC[C@@H]2C3=CC=C4C[C@@H](O)CC[C@]4(C)[C@@H]3CC[C@@]21C
REMARK SMILES IDX 8 1 9 2 7 3 6 4 4 5 5 6 2 7 1 8 3 9 10 10 11 11 28 12 12 13
REMARK SMILES IDX 13 14 27 15 29 16 14 17 26 18 25 19 15 20 23 21 16 22 17 23
REMARK SMILES IDX 22 24 24 25 18 26 21 27 19 28 20 29
REMARK H PARENT 20 30
REMARK Flexibility Score: inf
ROOT
ATOM      1  C   UNL     1     187.444 198.353 192.261  1.00  0.00     0.012 C 
ATOM      2  C   UNL     1     187.231 199.647 191.455  1.00  0.00     0.012 C 
ENDROOT
BRANCH   1   3
ATOM      3  C   UNL     1     188.122 198.736 193.559  1.00  0.00    -0.028 C 
ATOM      4  C   UNL     1     187.573 198.628 194.787  1.00  0.00    -0.028 C 
BRANCH   4   5
ATOM      5  C   UNL     1     186.204 198.047 195.089  1.00  0.00     0.011 C 
ATOM      6  C   UNL     1     186.339 196.557 195.434  1.00  0.00     0.012 C 
BRANCH   5   7
ATOM      7  C   UNL     1     185.473 198.881 196.188  1.00  0.00    -0.011 C 
ATOM      8  C   UNL     1     186.447 199.357 197.277  1.00  0.00     0.008 C 
ATOM      9  C   UNL     1     184.679 200.083 195.640  1.00  0.00     0.008 C 
ENDBRANCH   5   7
ENDBRANCH   4   5
ENDBRANCH   1   3
BRANCH   1  10
ATOM     10  C   UNL     1     188.300 197.325 191.446  1.00  0.00     0.002 C 
ATOM     11  C   UNL     1     188.326 197.642 189.941  1.00  0.00     0.005 C 
ATOM     12  C   UNL     1     187.918 195.809 191.506  1.00  0.00    -0.023 C 
ATOM     13  C   UNL     1     188.639 196.328 189.219  1.00  0.00     0.009 C 
ATOM     14  C   UNL     1     188.726 195.256 190.307  1.00  0.00     0.021 C 
ATOM     15  C   UNL     1     186.371 195.569 191.346  1.00  0.00     0.008 C 
ATOM     16  C   UNL     1     188.428 195.147 192.813  1.00  0.00     0.012 C 
ATOM     17  C   UNL     1     188.294 193.887 189.815  1.00  0.00    -0.063 C 
ATOM     18  C   UNL     1     185.954 194.493 190.327  1.00  0.00     0.009 C 
ATOM     19  C   UNL     1     186.954 193.327 190.230  1.00  0.00     0.025 C 
ATOM     20  C   UNL     1     189.179 193.123 189.166  1.00  0.00    -0.000 C 
ATOM     21  C   UNL     1     186.443 192.119 189.334  1.00  0.00    -0.005 C 
ATOM     22  C   UNL     1     188.848 191.768 188.721  1.00  0.00    -0.000 C 
ATOM     23  C   UNL     1     187.604 191.270 188.811  1.00  0.00    -0.061 C 
ATOM     24  C   UNL     1     185.659 192.593 188.071  1.00  0.00     0.014 C 
ATOM     25  C   UNL     1     185.523 191.242 190.229  1.00  0.00     0.017 C 
ATOM     26  C   UNL     1     187.254 190.075 187.959  1.00  0.00     0.063 C 
ATOM     27  C   UNL     1     185.279 191.445 187.108  1.00  0.00     0.033 C 
ATOM     28  C   UNL     1     186.486 190.561 186.718  1.00  0.00     0.118 C 
BRANCH  28  29
ATOM     29  O   UNL     1     186.054 189.447 185.984  1.00  0.00    -0.393 OA
ATOM     30  H   UNL     1     186.762 189.243 185.322  1.00  0.00     0.210 HD
ENDBRANCH  28  29
ENDBRANCH   1  10
TORSDOF 5
ENDMDL
MODEL 6
REMARK VINA RESULT:    -6.916      3.483      7.988
REMARK INTER + INTRA:         -10.253
REMARK INTER:                  -8.931
REMARK INTRA:                  -1.322
REMARK UNBOUND:                -1.517
REMARK SMILES CC(C)[C@H](C)C=C[C@@H](C)[C@@H]1CC[C@@H]2C3=CC=C4C[C@@H](O)CC[C@]4(C)[C@@H]3CC[C@@]21C
REMARK SMILES IDX 8 1 9 2 7 3 6 4 4 5 5 6 2 7 1 8 3 9 10 10 11 11 28 12 12 13
REMARK SMILES IDX 13 14 27 15 29 16 14 17 26 18 25 19 15 20 23 21 16 22 17 23
REMARK SMILES IDX 22 24 24 25 18 26 21 27 19 28 20 29
REMARK H PARENT 20 30
REMARK Flexibility Score: inf
ROOT
ATOM      1  C   UNL     1     184.184 188.307 189.011  1.00  0.00     0.012 C 
ATOM      2  C   UNL     1     183.491 187.699 187.779  1.00  0.00     0.012 C 
ENDROOT
BRANCH   1   3
ATOM      3  C   UNL     1     183.419 187.847 190.233  1.00  0.00    -0.028 C 
ATOM      4  C   UNL     1     183.948 187.184 191.282  1.00  0.00    -0.028 C 
BRANCH   4   5
ATOM      5  C   UNL     1     185.415 186.835 191.450  1.00  0.00     0.011 C 
ATOM      6  C   UNL     1     186.013 187.657 192.602  1.00  0.00     0.012 C 
BRANCH   5   7
ATOM      7  C   UNL     1     185.609 185.295 191.613  1.00  0.00    -0.011 C 
ATOM      8  C   UNL     1     186.941 184.826 191.007  1.00  0.00     0.008 C 
ATOM      9  C   UNL     1     185.497 184.797 193.067  1.00  0.00     0.008 C 
ENDBRANCH   5   7
ENDBRANCH   4   5
ENDBRANCH   1   3
BRANCH   1  10
ATOM     10  C   UNL     1     184.226 189.869 188.911  1.00  0.00     0.002 C 
ATOM     11  C   UNL     1     184.541 190.361 187.489  1.00  0.00     0.005 C 
ATOM     12  C   UNL     1     185.232 190.657 189.815  1.00  0.00    -0.023 C 
ATOM     13  C   UNL     1     185.133 191.766 187.629  1.00  0.00     0.009 C 
ATOM     14  C   UNL     1     185.214 192.046 189.130  1.00  0.00     0.021 C 
ATOM     15  C   UNL     1     186.668 190.013 189.822  1.00  0.00     0.008 C 
ATOM     16  C   UNL     1     184.702 190.797 191.266  1.00  0.00     0.012 C 
ATOM     17  C   UNL     1     186.370 192.959 189.494  1.00  0.00    -0.063 C 
ATOM     18  C   UNL     1     187.845 190.978 189.585  1.00  0.00     0.009 C 
ATOM     19  C   UNL     1     187.601 192.386 190.156  1.00  0.00     0.025 C 
ATOM     20  C   UNL     1     186.211 194.282 189.383  1.00  0.00    -0.000 C 
ATOM     21  C   UNL     1     188.877 193.330 190.097  1.00  0.00    -0.005 C 
ATOM     22  C   UNL     1     187.262 195.221 189.778  1.00  0.00    -0.000 C 
ATOM     23  C   UNL     1     188.489 194.810 190.136  1.00  0.00    -0.061 C 
ATOM     24  C   UNL     1     189.706 193.143 188.787  1.00  0.00     0.014 C 
ATOM     25  C   UNL     1     189.756 192.992 191.333  1.00  0.00     0.017 C 
ATOM     26  C   UNL     1     189.613 195.818 190.104  1.00  0.00     0.063 C 
ATOM     27  C   UNL     1     190.868 194.152 188.638  1.00  0.00     0.033 C 
ATOM     28  C   UNL     1     190.415 195.620 188.808  1.00  0.00     0.118 C 
BRANCH  28  29
ATOM     29  O   UNL     1     191.530 196.471 188.828  1.00  0.00    -0.393 OA
ATOM     30  H   UNL     1     192.194 196.094 188.197  1.00  0.00     0.210 HD
ENDBRANCH  28  29
ENDBRANCH   1  10
TORSDOF 5
ENDMDL
MODEL 7
REMARK VINA RESULT:    -6.810      1.537      3.087
REMARK INTER + INTRA:         -10.118
REMARK INTER:                  -8.631
REMARK INTRA:                  -1.487
REMARK UNBOUND:                -1.517
REMARK SMILES CC(C)[C@H](C)C=C[C@@H](C)[C@@H]1CC[C@@H]2C3=CC=C4C[C@@H](O)CC[C@]4(C)[C@@H]3CC[C@@]21C
REMARK SMILES IDX 8 1 9 2 7 3 6 4 4 5 5 6 2 7 1 8 3 9 10 10 11 11 28 12 12 13
REMARK SMILES IDX 13 14 27 15 29 16 14 17 26 18 25 19 15 20 23 21 16 22 17 23
REMARK SMILES IDX 22 24 24 25 18 26 21 27 19 28 20 29
REMARK H PARENT 20 30
REMARK Flexibility Score: inf
ROOT
ATOM      1  C   UNL     1     189.304 194.767 189.442  1.00  0.00     0.012 C 
ATOM      2  C   UNL     1     190.734 194.747 190.010  1.00  0.00     0.012 C 
ENDROOT
BRANCH   1   3
ATOM      3  C   UNL     1     188.941 196.214 189.183  1.00  0.00    -0.028 C 
ATOM      4  C   UNL     1     188.598 197.114 190.129  1.00  0.00    -0.028 C 
BRANCH   4   5
ATOM      5  C   UNL     1     188.576 196.852 191.623  1.00  0.00     0.011 C 
ATOM      6  C   UNL     1     189.638 197.718 192.316  1.00  0.00     0.012 C 
BRANCH   5   7
ATOM      7  C   UNL     1     187.138 197.038 192.202  1.00  0.00    -0.011 C 
ATOM      8  C   UNL     1     186.122 197.363 191.096  1.00  0.00     0.008 C 
ATOM      9  C   UNL     1     186.635 195.843 193.034  1.00  0.00     0.008 C 
ENDBRANCH   5   7
ENDBRANCH   4   5
ENDBRANCH   1   3
BRANCH   1  10
ATOM     10  C   UNL     1     188.301 194.091 190.436  1.00  0.00     0.002 C 
ATOM     11  C   UNL     1     189.005 193.179 191.455  1.00  0.00     0.005 C 
ATOM     12  C   UNL     1     187.154 193.197 189.859  1.00  0.00    -0.023 C 
ATOM     13  C   UNL     1     187.964 192.162 191.930  1.00  0.00     0.009 C 
ATOM     14  C   UNL     1     186.690 192.455 191.137  1.00  0.00     0.021 C 
ATOM     15  C   UNL     1     187.661 192.207 188.745  1.00  0.00     0.008 C 
ATOM     16  C   UNL     1     185.983 194.057 189.315  1.00  0.00     0.012 C 
ATOM     17  C   UNL     1     185.853 191.213 190.894  1.00  0.00    -0.063 C 
ATOM     18  C   UNL     1     187.224 190.739 188.892  1.00  0.00     0.009 C 
ATOM     19  C   UNL     1     185.828 190.580 189.522  1.00  0.00     0.025 C 
ATOM     20  C   UNL     1     185.013 190.800 191.848  1.00  0.00    -0.000 C 
ATOM     21  C   UNL     1     185.282 189.088 189.499  1.00  0.00    -0.005 C 
ATOM     22  C   UNL     1     184.131 189.648 191.654  1.00  0.00    -0.000 C 
ATOM     23  C   UNL     1     184.214 188.859 190.571  1.00  0.00    -0.061 C 
ATOM     24  C   UNL     1     186.397 188.032 189.777  1.00  0.00     0.014 C 
ATOM     25  C   UNL     1     184.664 188.848 188.093  1.00  0.00     0.017 C 
ATOM     26  C   UNL     1     183.597 187.484 190.645  1.00  0.00     0.063 C 
ATOM     27  C   UNL     1     185.866 186.586 189.905  1.00  0.00     0.033 C 
ATOM     28  C   UNL     1     184.709 186.458 190.922  1.00  0.00     0.118 C 
BRANCH  28  29
ATOM     29  O   UNL     1     184.162 185.168 190.873  1.00  0.00    -0.393 OA
ATOM     30  H   UNL     1     183.216 185.243 191.156  1.00  0.00     0.210 HD
ENDBRANCH  28  29
ENDBRANCH   1  10
TORSDOF 5
ENDMDL
MODEL 8
REMARK VINA RESULT:    -6.591      3.094      8.030
REMARK INTER + INTRA:          -9.841
REMARK INTER:                  -8.272
REMARK INTRA:                  -1.570
REMARK UNBOUND:                -1.517
REMARK SMILES CC(C)[C@H](C)C=C[C@@H](C)[C@@H]1CC[C@@H]2C3=CC=C4C[C@@H](O)CC[C@]4(C)[C@@H]3CC[C@@]21C
REMARK SMILES IDX 8 1 9 2 7 3 6 4 4 5 5 6 2 7 1 8 3 9 10 10 11 11 28 12 12 13
REMARK SMILES IDX 13 14 27 15 29 16 14 17 26 18 25 19 15 20 23 21 16 22 17 23
REMARK SMILES IDX 22 24 24 25 18 26 21 27 19 28 20 29
REMARK H PARENT 20 30
REMARK Flexibility Score: inf
ROOT
ATOM      1  C   UNL     1     186.725 188.539 189.473  1.00  0.00     0.012 C 
ATOM      2  C   UNL     1     188.065 187.940 189.011  1.00  0.00     0.012 C 
ENDROOT
BRANCH   1   3
ATOM      3  C   UNL     1     185.622 187.680 188.893  1.00  0.00    -0.028 C 
ATOM      4  C   UNL     1     184.528 187.259 189.561  1.00  0.00    -0.028 C 
BRANCH   4   5
ATOM      5  C   UNL     1     184.179 187.623 190.992  1.00  0.00     0.011 C 
ATOM      6  C   UNL     1     182.660 187.802 191.125  1.00  0.00     0.012 C 
BRANCH   5   7
ATOM      7  C   UNL     1     184.778 186.586 191.994  1.00  0.00    -0.011 C 
ATOM      8  C   UNL     1     185.065 185.240 191.310  1.00  0.00     0.008 C 
ATOM      9  C   UNL     1     186.043 187.077 192.725  1.00  0.00     0.008 C 
ENDBRANCH   5   7
ENDBRANCH   4   5
ENDBRANCH   1   3
BRANCH   1  10
ATOM     10  C   UNL     1     186.595 190.031 189.013  1.00  0.00     0.002 C 
ATOM     11  C   UNL     1     187.914 190.594 188.460  1.00  0.00     0.005 C 
ATOM     12  C   UNL     1     186.133 191.103 190.054  1.00  0.00    -0.023 C 
ATOM     13  C   UNL     1     187.845 192.116 188.618  1.00  0.00     0.009 C 
ATOM     14  C   UNL     1     186.517 192.410 189.317  1.00  0.00     0.021 C 
ATOM     15  C   UNL     1     186.869 190.960 191.437  1.00  0.00     0.008 C 
ATOM     16  C   UNL     1     184.596 191.068 190.261  1.00  0.00     0.012 C 
ATOM     17  C   UNL     1     186.578 193.649 190.191  1.00  0.00    -0.063 C 
ATOM     18  C   UNL     1     187.460 192.252 192.029  1.00  0.00     0.009 C 
ATOM     19  C   UNL     1     186.635 193.508 191.694  1.00  0.00     0.025 C 
ATOM     20  C   UNL     1     186.404 194.849 189.627  1.00  0.00    -0.000 C 
ATOM     21  C   UNL     1     187.118 194.814 192.457  1.00  0.00    -0.005 C 
ATOM     22  C   UNL     1     186.387 196.079 190.421  1.00  0.00    -0.000 C 
ATOM     23  C   UNL     1     186.685 196.088 191.730  1.00  0.00    -0.061 C 
ATOM     24  C   UNL     1     188.672 194.901 192.580  1.00  0.00     0.014 C 
ATOM     25  C   UNL     1     186.476 194.781 193.873  1.00  0.00     0.017 C 
ATOM     26  C   UNL     1     187.066 197.406 192.362  1.00  0.00     0.063 C 
ATOM     27  C   UNL     1     189.173 196.231 193.188  1.00  0.00     0.033 C 
ATOM     28  C   UNL     1     188.598 197.475 192.472  1.00  0.00     0.118 C 
BRANCH  28  29
ATOM     29  O   UNL     1     188.952 198.641 193.166  1.00  0.00    -0.393 OA
ATOM     30  H   UNL     1     189.620 198.380 193.850  1.00  0.00     0.210 HD
ENDBRANCH  28  29
ENDBRANCH   1  10
TORSDOF 5
ENDMDL
MODEL 9
REMARK VINA RESULT:    -6.545      2.667      4.637
REMARK INTER + INTRA:          -9.784
REMARK INTER:                  -8.716
REMARK INTRA:                  -1.068
REMARK UNBOUND:                -1.517
REMARK SMILES CC(C)[C@H](C)C=C[C@@H](C)[C@@H]1CC[C@@H]2C3=CC=C4C[C@@H](O)CC[C@]4(C)[C@@H]3CC[C@@]21C
REMARK SMILES IDX 8 1 9 2 7 3 6 4 4 5 5 6 2 7 1 8 3 9 10 10 11 11 28 12 12 13
REMARK SMILES IDX 13 14 27 15 29 16 14 17 26 18 25 19 15 20 23 21 16 22 17 23
REMARK SMILES IDX 22 24 24 25 18 26 21 27 19 28 20 29
REMARK H PARENT 20 30
REMARK Flexibility Score: inf
ROOT
ATOM      1  C   UNL     1     189.254 197.954 192.899  1.00  0.00     0.012 C 
ATOM      2  C   UNL     1     188.494 197.957 194.237  1.00  0.00     0.012 C 
ENDROOT
BRANCH   1   3
ATOM      3  C   UNL     1     189.773 199.358 192.671  1.00  0.00    -0.028 C 
ATOM      4  C   UNL     1     191.020 199.786 192.959  1.00  0.00    -0.028 C 
BRANCH   4   5
ATOM      5  C   UNL     1     192.141 198.920 193.504  1.00  0.00     0.011 C 
ATOM      6  C   UNL     1     193.336 198.954 192.540  1.00  0.00     0.012 C 
BRANCH   5   7
ATOM      7  C   UNL     1     192.503 199.330 194.966  1.00  0.00    -0.011 C 
ATOM      8  C   UNL     1     191.795 198.435 195.995  1.00  0.00     0.008 C 
ATOM      9  C   UNL     1     194.016 199.357 195.256  1.00  0.00     0.008 C 
ENDBRANCH   5   7
ENDBRANCH   4   5
ENDBRANCH   1   3
BRANCH   1  10
ATOM     10  C   UNL     1     188.321 197.489 191.730  1.00  0.00     0.002 C 
ATOM     11  C   UNL     1     186.830 197.573 192.097  1.00  0.00     0.005 C 
ATOM     12  C   UNL     1     188.489 196.041 191.162  1.00  0.00    -0.023 C 
ATOM     13  C   UNL     1     186.096 196.581 191.191  1.00  0.00     0.009 C 
ATOM     14  C   UNL     1     187.174 195.889 190.357  1.00  0.00     0.021 C 
ATOM     15  C   UNL     1     188.622 194.958 192.296  1.00  0.00     0.008 C 
ATOM     16  C   UNL     1     189.694 195.948 190.191  1.00  0.00     0.012 C 
ATOM     17  C   UNL     1     186.805 194.464 189.989  1.00  0.00    -0.063 C 
ATOM     18  C   UNL     1     187.725 193.715 192.157  1.00  0.00     0.009 C 
ATOM     19  C   UNL     1     187.474 193.307 190.694  1.00  0.00     0.025 C 
ATOM     20  C   UNL     1     186.023 194.251 188.925  1.00  0.00    -0.000 C 
ATOM     21  C   UNL     1     186.718 191.919 190.537  1.00  0.00    -0.005 C 
ATOM     22  C   UNL     1     185.680 192.900 188.478  1.00  0.00    -0.000 C 
ATOM     23  C   UNL     1     186.011 191.808 189.185  1.00  0.00    -0.061 C 
ATOM     24  C   UNL     1     185.609 191.710 191.616  1.00  0.00     0.014 C 
ATOM     25  C   UNL     1     187.789 190.798 190.655  1.00  0.00     0.017 C 
ATOM     26  C   UNL     1     185.268 190.525 188.899  1.00  0.00     0.063 C 
ATOM     27  C   UNL     1     184.762 190.435 191.397  1.00  0.00     0.033 C 
ATOM     28  C   UNL     1     184.179 190.338 189.969  1.00  0.00     0.118 C 
BRANCH  28  29
ATOM     29  O   UNL     1     183.565 189.091 189.780  1.00  0.00    -0.393 OA
ATOM     30  H   UNL     1     184.207 188.523 189.285  1.00  0.00     0.210 HD
ENDBRANCH  28  29
ENDBRANCH   1  10
TORSDOF 5
ENDMDL
