MODEL 1
REMARK VINA RESULT:    -2.423      0.000      0.000
REMARK INTER + INTRA:          -2.423
REMARK INTER:                  -2.423
REMARK INTRA:                   0.000
REMARK UNBOUND:                 0.000
REMARK SMILES CC(=O)[O-]
REMARK SMILES IDX 1 1 2 2 3 3 4 4
REMARK H PARENT
REMARK Flexibility Score: inf
ROOT
ATOM      1  C   UNL     1     108.022  85.521 124.345  1.00  0.00     0.063 C 
ATOM      2  C   UNL     1     108.705  86.828 124.117  1.00  0.00     0.038 C 
ATOM      3  O   UNL     1     108.303  87.862 124.710  1.00  0.00    -0.550 OA
ATOM      4  O   UNL     1     109.820  86.896 123.293  1.00  0.00    -0.550 OA
ENDROOT
TORSDOF 0
ENDMDL
MODEL 2
REMARK VINA RESULT:    -2.418      0.090      1.619
REMARK INTER + INTRA:          -2.418
REMARK INTER:                  -2.418
REMARK INTRA:                   0.000
REMARK UNBOUND:                 0.000
REMARK SMILES CC(=O)[O-]
REMARK SMILES IDX 1 1 2 2 3 3 4 4
REMARK H PARENT
REMARK Flexibility Score: inf
ROOT
ATOM      1  C   UNL     1     108.025  85.487 124.327  1.00  0.00     0.063 C 
ATOM      2  C   UNL     1     108.744  86.772 124.087  1.00  0.00     0.038 C 
ATOM      3  O   UNL     1     109.705  86.816 123.275  1.00  0.00    -0.550 OA
ATOM      4  O   UNL     1     108.322  87.934 124.719  1.00  0.00    -0.550 OA
ENDROOT
TORSDOF 0
ENDMDL
MODEL 3
REMARK VINA RESULT:    -2.348      1.421      1.805
REMARK INTER + INTRA:          -2.348
REMARK INTER:                  -2.348
REMARK INTRA:                   0.000
REMARK UNBOUND:                 0.000
REMARK SMILES CC(=O)[O-]
REMARK SMILES IDX 1 1 2 2 3 3 4 4
REMARK H PARENT
REMARK Flexibility Score: inf
ROOT
ATOM      1  C   UNL     1     108.242  85.099 123.986  1.00  0.00     0.063 C 
ATOM      2  C   UNL     1     109.193  85.766 123.050  1.00  0.00     0.038 C 
ATOM      3  O   UNL     1     109.777  86.827 123.393  1.00  0.00    -0.550 OA
ATOM      4  O   UNL     1     109.476  85.191 121.819  1.00  0.00    -0.550 OA
ENDROOT
TORSDOF 0
ENDMDL
MODEL 4
REMARK VINA RESULT:    -2.329      1.371      2.213
REMARK INTER + INTRA:          -2.329
REMARK INTER:                  -2.329
REMARK INTRA:                   0.000
REMARK UNBOUND:                 0.000
REMARK SMILES CC(=O)[O-]
REMARK SMILES IDX 1 1 2 2 3 3 4 4
REMARK H PARENT
REMARK Flexibility Score: inf
ROOT
ATOM      1  C   UNL     1     107.547  84.100 124.394  1.00  0.00     0.063 C 
ATOM      2  C   UNL     1     108.194  85.382 123.988  1.00  0.00     0.038 C 
ATOM      3  O   UNL     1     108.906  85.429 122.951  1.00  0.00    -0.550 OA
ATOM      4  O   UNL     1     107.968  86.538 124.721  1.00  0.00    -0.550 OA
ENDROOT
TORSDOF 0
ENDMDL
MODEL 5
REMARK VINA RESULT:    -2.259      1.801      2.210
REMARK INTER + INTRA:          -2.259
REMARK INTER:                  -2.259
REMARK INTRA:                   0.000
REMARK UNBOUND:                 0.000
REMARK SMILES CC(=O)[O-]
REMARK SMILES IDX 1 1 2 2 3 3 4 4
REMARK H PARENT
REMARK Flexibility Score: inf
ROOT
ATOM      1  C   UNL     1     109.234  85.781 123.107  1.00  0.00     0.063 C 
ATOM      2  C   UNL     1     108.215  85.873 124.193  1.00  0.00     0.038 C 
ATOM      3  O   UNL     1     107.478  84.886 124.452  1.00  0.00    -0.550 OA
ATOM      4  O   UNL     1     108.114  87.027 124.957  1.00  0.00    -0.550 OA
ENDROOT
TORSDOF 0
ENDMDL
MODEL 6
REMARK VINA RESULT:    -2.206      2.818      3.478
REMARK INTER + INTRA:          -2.206
REMARK INTER:                  -2.206
REMARK INTRA:                   0.000
REMARK UNBOUND:                 0.000
REMARK SMILES CC(=O)[O-]
REMARK SMILES IDX 1 1 2 2 3 3 4 4
REMARK H PARENT
REMARK Flexibility Score: inf
ROOT
ATOM      1  C   UNL     1     107.798  84.165 124.075  1.00  0.00     0.063 C 
ATOM      2  C   UNL     1     108.406  84.014 122.721  1.00  0.00     0.038 C 
ATOM      3  O   UNL     1     108.312  82.921 122.105  1.00  0.00    -0.550 OA
ATOM      4  O   UNL     1     109.030  85.096 122.114  1.00  0.00    -0.550 OA
ENDROOT
TORSDOF 0
ENDMDL
MODEL 7
REMARK VINA RESULT:    -2.106     11.275     11.412
REMARK INTER + INTRA:          -2.106
REMARK INTER:                  -2.106
REMARK INTRA:                   0.000
REMARK UNBOUND:                 0.000
REMARK SMILES CC(=O)[O-]
REMARK SMILES IDX 1 1 2 2 3 3 4 4
REMARK H PARENT
REMARK Flexibility Score: inf
ROOT
ATOM      1  C   UNL     1     103.868  91.857 116.036  1.00  0.00     0.063 C 
ATOM      2  C   UNL     1     102.535  91.235 115.789  1.00  0.00     0.038 C 
ATOM      3  O   UNL     1     101.592  91.418 116.603  1.00  0.00    -0.550 OA
ATOM      4  O   UNL     1     102.314  90.497 114.635  1.00  0.00    -0.550 OA
ENDROOT
TORSDOF 0
ENDMDL
MODEL 8
REMARK VINA RESULT:    -2.066      2.839      3.067
REMARK INTER + INTRA:          -2.066
REMARK INTER:                  -2.066
REMARK INTRA:                   0.000
REMARK UNBOUND:                 0.000
REMARK SMILES CC(=O)[O-]
REMARK SMILES IDX 1 1 2 2 3 3 4 4
REMARK H PARENT
REMARK Flexibility Score: inf
ROOT
ATOM      1  C   UNL     1     108.313  83.236 122.485  1.00  0.00     0.063 C 
ATOM      2  C   UNL     1     108.358  84.037 123.742  1.00  0.00     0.038 C 
ATOM      3  O   UNL     1     107.302  84.247 124.395  1.00  0.00    -0.550 OA
ATOM      4  O   UNL     1     109.571  84.509 124.224  1.00  0.00    -0.550 OA
ENDROOT
TORSDOF 0
ENDMDL
MODEL 9
REMARK VINA RESULT:    -2.045      9.926     10.137
REMARK INTER + INTRA:          -2.045
REMARK INTER:                  -2.045
REMARK INTRA:                   0.000
REMARK UNBOUND:                 0.000
REMARK SMILES CC(=O)[O-]
REMARK SMILES IDX 1 1 2 2 3 3 4 4
REMARK H PARENT
REMARK Flexibility Score: inf
ROOT
ATOM      1  C   UNL     1     106.171  91.787 116.349  1.00  0.00     0.063 C 
ATOM      2  C   UNL     1     107.130  92.915 116.167  1.00  0.00     0.038 C 
ATOM      3  O   UNL     1     106.754  94.101 116.363  1.00  0.00    -0.550 OA
ATOM      4  O   UNL     1     108.452  92.658 115.835  1.00  0.00    -0.550 OA
ENDROOT
TORSDOF 0
ENDMDL
