MODEL 1
REMARK VINA RESULT:    -3.859      0.000      0.000
REMARK INTER + INTRA:          -5.743
REMARK INTER:                  -5.212
REMARK INTRA:                  -0.531
REMARK UNBOUND:                -0.531
REMARK SMILES CCCCCCCC(=O)[O-]
REMARK SMILES IDX 5 1 6 2 7 3 8 4 9 5 10 6 4 7 3 8 2 9 1 10
REMARK H PARENT
REMARK Flexibility Score: inf
ROOT
ATOM      1  C   UNL     1       2.629  -2.666  -6.679  1.00  0.00     0.000 C 
ENDROOT
BRANCH   1   2
ATOM      2  C   UNL     1       2.271  -4.049  -6.108  1.00  0.00     0.006 C 
BRANCH   2   3
ATOM      3  C   UNL     1       0.918  -4.565  -6.613  1.00  0.00     0.053 C 
BRANCH   3   4
ATOM      4  C   UNL     1       1.038  -5.042  -8.027  1.00  0.00     0.041 C 
ATOM      5  O   UNL     1       2.049  -5.699  -8.391  1.00  0.00    -0.550 OA
ATOM      6  O   UNL     1       0.010  -4.803  -8.931  1.00  0.00    -0.550 OA
ENDBRANCH   3   4
ENDBRANCH   2   3
ENDBRANCH   1   2
BRANCH   1   7
ATOM      7  C   UNL     1       1.846  -1.528  -6.001  1.00  0.00     0.000 C 
BRANCH   7   8
ATOM      8  C   UNL     1       0.722  -0.975  -6.892  1.00  0.00    -0.000 C 
BRANCH   8   9
ATOM      9  C   UNL     1       0.966  -1.237  -8.386  1.00  0.00    -0.003 C 
ATOM     10  C   UNL     1      -0.351  -1.298  -9.154  1.00  0.00     0.004 C 
ENDBRANCH   8   9
ENDBRANCH   7   8
ENDBRANCH   1   7
TORSDOF 6
ENDMDL
MODEL 2
REMARK VINA RESULT:    -3.765      2.564      4.383
REMARK INTER + INTRA:          -5.616
REMARK INTER:                  -5.300
REMARK INTRA:                  -0.316
REMARK UNBOUND:                -0.531
REMARK SMILES CCCCCCCC(=O)[O-]
REMARK SMILES IDX 5 1 6 2 7 3 8 4 9 5 10 6 4 7 3 8 2 9 1 10
REMARK H PARENT
REMARK Flexibility Score: inf
ROOT
ATOM      1  C   UNL     1       0.758  -4.575  -7.074  1.00  0.00     0.000 C 
ENDROOT
BRANCH   1   2
ATOM      2  C   UNL     1       1.526  -3.850  -5.956  1.00  0.00     0.006 C 
BRANCH   2   3
ATOM      3  C   UNL     1       2.600  -2.897  -6.497  1.00  0.00     0.053 C 
BRANCH   3   4
ATOM      4  C   UNL     1       1.992  -1.576  -6.851  1.00  0.00     0.041 C 
ATOM      5  O   UNL     1       1.526  -0.831  -5.950  1.00  0.00    -0.550 OA
ATOM      6  O   UNL     1       1.984  -1.146  -8.173  1.00  0.00    -0.550 OA
ENDBRANCH   3   4
ENDBRANCH   2   3
ENDBRANCH   1   2
BRANCH   1   7
ATOM      7  C   UNL     1       1.684  -5.075  -8.197  1.00  0.00     0.000 C 
BRANCH   7   8
ATOM      8  C   UNL     1       0.933  -5.892  -9.260  1.00  0.00    -0.000 C 
BRANCH   8   9
ATOM      9  C   UNL     1      -0.480  -6.294  -8.810  1.00  0.00    -0.003 C 
ATOM     10  C   UNL     1      -0.813  -7.716  -9.251  1.00  0.00     0.004 C 
ENDBRANCH   8   9
ENDBRANCH   7   8
ENDBRANCH   1   7
TORSDOF 6
ENDMDL
MODEL 3
REMARK VINA RESULT:    -3.739      1.475      2.423
REMARK INTER + INTRA:          -5.581
REMARK INTER:                  -5.108
REMARK INTRA:                  -0.473
REMARK UNBOUND:                -0.531
REMARK SMILES CCCCCCCC(=O)[O-]
REMARK SMILES IDX 5 1 6 2 7 3 8 4 9 5 10 6 4 7 3 8 2 9 1 10
REMARK H PARENT
REMARK Flexibility Score: inf
ROOT
ATOM      1  C   UNL     1       1.226  -1.078  -6.356  1.00  0.00     0.000 C 
ENDROOT
BRANCH   1   2
ATOM      2  C   UNL     1       2.090  -2.333  -6.569  1.00  0.00     0.006 C 
BRANCH   2   3
ATOM      3  C   UNL     1       1.465  -3.593  -5.957  1.00  0.00     0.053 C 
BRANCH   3   4
ATOM      4  C   UNL     1       2.317  -4.789  -6.243  1.00  0.00     0.041 C 
ATOM      5  O   UNL     1       2.798  -4.964  -7.394  1.00  0.00    -0.550 OA
ATOM      6  O   UNL     1       2.621  -5.686  -5.226  1.00  0.00    -0.550 OA
ENDBRANCH   3   4
ENDBRANCH   2   3
ENDBRANCH   1   2
BRANCH   1   7
ATOM      7  C   UNL     1       0.166  -0.899  -7.457  1.00  0.00     0.000 C 
BRANCH   7   8
ATOM      8  C   UNL     1       0.592  -1.529  -8.793  1.00  0.00    -0.000 C 
BRANCH   8   9
ATOM      9  C   UNL     1      -0.466  -2.487  -9.361  1.00  0.00    -0.003 C 
ATOM     10  C   UNL     1       0.054  -3.921  -9.397  1.00  0.00     0.004 C 
ENDBRANCH   8   9
ENDBRANCH   7   8
ENDBRANCH   1   7
TORSDOF 6
ENDMDL
MODEL 4
REMARK VINA RESULT:    -3.726      2.170      3.780
REMARK INTER + INTRA:          -5.563
REMARK INTER:                  -4.968
REMARK INTRA:                  -0.595
REMARK UNBOUND:                -0.531
REMARK SMILES CCCCCCCC(=O)[O-]
REMARK SMILES IDX 5 1 6 2 7 3 8 4 9 5 10 6 4 7 3 8 2 9 1 10
REMARK H PARENT
REMARK Flexibility Score: inf
ROOT
ATOM      1  C   UNL     1       1.837  -1.977  -6.399  1.00  0.00     0.000 C 
ENDROOT
BRANCH   1   2
ATOM      2  C   UNL     1       0.752  -1.063  -6.994  1.00  0.00     0.006 C 
BRANCH   2   3
ATOM      3  C   UNL     1       0.398  -1.430  -8.441  1.00  0.00     0.053 C 
BRANCH   3   4
ATOM      4  C   UNL     1       1.550  -1.131  -9.349  1.00  0.00     0.041 C 
ATOM      5  O   UNL     1       1.987   0.045  -9.453  1.00  0.00    -0.550 OA
ATOM      6  O   UNL     1       2.172  -2.161 -10.045  1.00  0.00    -0.550 OA
ENDBRANCH   3   4
ENDBRANCH   2   3
ENDBRANCH   1   2
BRANCH   1   7
ATOM      7  C   UNL     1       1.249  -3.238  -5.741  1.00  0.00     0.000 C 
BRANCH   7   8
ATOM      8  C   UNL     1       2.110  -4.487  -5.991  1.00  0.00    -0.000 C 
BRANCH   8   9
ATOM      9  C   UNL     1       2.435  -4.696  -7.478  1.00  0.00    -0.003 C 
ATOM     10  C   UNL     1       1.215  -5.202  -8.241  1.00  0.00     0.004 C 
ENDBRANCH   8   9
ENDBRANCH   7   8
ENDBRANCH   1   7
TORSDOF 6
ENDMDL
MODEL 5
REMARK VINA RESULT:    -3.702      1.386      1.867
REMARK INTER + INTRA:          -5.531
REMARK INTER:                  -5.008
REMARK INTRA:                  -0.523
REMARK UNBOUND:                -0.531
REMARK SMILES CCCCCCCC(=O)[O-]
REMARK SMILES IDX 5 1 6 2 7 3 8 4 9 5 10 6 4 7 3 8 2 9 1 10
REMARK H PARENT
REMARK Flexibility Score: inf
ROOT
ATOM      1  C   UNL     1       1.839  -1.894  -6.212  1.00  0.00     0.000 C 
ENDROOT
BRANCH   1   2
ATOM      2  C   UNL     1       1.253  -3.233  -5.733  1.00  0.00     0.006 C 
BRANCH   2   3
ATOM      3  C   UNL     1       2.184  -4.421  -6.013  1.00  0.00     0.053 C 
BRANCH   3   4
ATOM      4  C   UNL     1       2.028  -4.881  -7.429  1.00  0.00     0.041 C 
ATOM      5  O   UNL     1       3.021  -5.318  -8.067  1.00  0.00    -0.550 OA
ATOM      6  O   UNL     1       0.774  -4.873  -8.028  1.00  0.00    -0.550 OA
ENDBRANCH   3   4
ENDBRANCH   2   3
ENDBRANCH   1   2
BRANCH   1   7
ATOM      7  C   UNL     1       0.897  -1.149  -7.174  1.00  0.00     0.000 C 
BRANCH   7   8
ATOM      8  C   UNL     1       1.359  -1.237  -8.638  1.00  0.00    -0.000 C 
BRANCH   8   9
ATOM      9  C   UNL     1       2.849  -1.588  -8.769  1.00  0.00    -0.003 C 
ATOM     10  C   UNL     1       3.532  -0.698  -9.803  1.00  0.00     0.004 C 
ENDBRANCH   8   9
ENDBRANCH   7   8
ENDBRANCH   1   7
TORSDOF 6
ENDMDL
MODEL 6
REMARK VINA RESULT:    -3.602      2.490      3.547
REMARK INTER + INTRA:          -5.396
REMARK INTER:                  -4.716
REMARK INTRA:                  -0.680
REMARK UNBOUND:                -0.531
REMARK SMILES CCCCCCCC(=O)[O-]
REMARK SMILES IDX 5 1 6 2 7 3 8 4 9 5 10 6 4 7 3 8 2 9 1 10
REMARK H PARENT
REMARK Flexibility Score: inf
ROOT
ATOM      1  C   UNL     1       1.751  -4.882  -7.331  1.00  0.00     0.000 C 
ENDROOT
BRANCH   1   2
ATOM      2  C   UNL     1       2.378  -3.879  -6.349  1.00  0.00     0.006 C 
BRANCH   2   3
ATOM      3  C   UNL     1       1.395  -2.785  -5.912  1.00  0.00     0.053 C 
BRANCH   3   4
ATOM      4  C   UNL     1       1.720  -1.492  -6.592  1.00  0.00     0.041 C 
ATOM      5  O   UNL     1       1.144  -0.428  -6.242  1.00  0.00    -0.550 OA
ATOM      6  O   UNL     1       2.697  -1.453  -7.580  1.00  0.00    -0.550 OA
ENDBRANCH   3   4
ENDBRANCH   2   3
ENDBRANCH   1   2
BRANCH   1   7
ATOM      7  C   UNL     1       2.396  -4.822  -8.727  1.00  0.00     0.000 C 
BRANCH   7   8
ATOM      8  C   UNL     1       1.551  -4.024  -9.733  1.00  0.00    -0.000 C 
BRANCH   8   9
ATOM      9  C   UNL     1       0.071  -3.938  -9.327  1.00  0.00    -0.003 C 
ATOM     10  C   UNL     1      -0.434  -2.499  -9.396  1.00  0.00     0.004 C 
ENDBRANCH   8   9
ENDBRANCH   7   8
ENDBRANCH   1   7
TORSDOF 6
ENDMDL
MODEL 7
REMARK VINA RESULT:    -3.436      1.695      2.893
REMARK INTER + INTRA:          -5.172
REMARK INTER:                  -4.674
REMARK INTRA:                  -0.498
REMARK UNBOUND:                -0.531
REMARK SMILES CCCCCCCC(=O)[O-]
REMARK SMILES IDX 5 1 6 2 7 3 8 4 9 5 10 6 4 7 3 8 2 9 1 10
REMARK H PARENT
REMARK Flexibility Score: inf
ROOT
ATOM      1  C   UNL     1       0.871  -4.990  -7.293  1.00  0.00     0.000 C 
ENDROOT
BRANCH   1   2
ATOM      2  C   UNL     1       0.791  -4.460  -8.734  1.00  0.00     0.006 C 
BRANCH   2   3
ATOM      3  C   UNL     1       1.757  -5.181  -9.684  1.00  0.00     0.053 C 
BRANCH   3   4
ATOM      4  C   UNL     1       3.174  -4.933  -9.271  1.00  0.00     0.041 C 
ATOM      5  O   UNL     1       3.662  -3.775  -9.340  1.00  0.00    -0.550 OA
ATOM      6  O   UNL     1       3.942  -5.974  -8.763  1.00  0.00    -0.550 OA
ENDBRANCH   3   4
ENDBRANCH   2   3
ENDBRANCH   1   2
BRANCH   1   7
ATOM      7  C   UNL     1       0.843  -3.860  -6.248  1.00  0.00     0.000 C 
BRANCH   7   8
ATOM      8  C   UNL     1       2.160  -3.069  -6.201  1.00  0.00    -0.000 C 
BRANCH   8   9
ATOM      9  C   UNL     1       1.938  -1.548  -6.199  1.00  0.00    -0.003 C 
ATOM     10  C   UNL     1       0.728  -1.170  -7.049  1.00  0.00     0.004 C 
ENDBRANCH   8   9
ENDBRANCH   7   8
ENDBRANCH   1   7
TORSDOF 6
ENDMDL
MODEL 8
REMARK VINA RESULT:    -3.391      2.473      4.385
REMARK INTER + INTRA:          -5.111
REMARK INTER:                  -4.602
REMARK INTRA:                  -0.509
REMARK UNBOUND:                -0.531
REMARK SMILES CCCCCCCC(=O)[O-]
REMARK SMILES IDX 5 1 6 2 7 3 8 4 9 5 10 6 4 7 3 8 2 9 1 10
REMARK H PARENT
REMARK Flexibility Score: inf
ROOT
ATOM      1  C   UNL     1       0.116  -4.390  -9.235  1.00  0.00     0.000 C 
ENDROOT
BRANCH   1   2
ATOM      2  C   UNL     1       0.028  -2.872  -9.002  1.00  0.00     0.006 C 
BRANCH   2   3
ATOM      3  C   UNL     1       1.160  -2.100  -9.692  1.00  0.00     0.053 C 
BRANCH   3   4
ATOM      4  C   UNL     1       1.322  -0.748  -9.071  1.00  0.00     0.041 C 
ATOM      5  O   UNL     1       0.768  -0.484  -7.972  1.00  0.00    -0.550 OA
ATOM      6  O   UNL     1       2.126   0.207  -9.684  1.00  0.00    -0.550 OA
ENDBRANCH   3   4
ENDBRANCH   2   3
ENDBRANCH   1   2
BRANCH   1   7
ATOM      7  C   UNL     1       0.995  -5.096  -8.188  1.00  0.00     0.000 C 
BRANCH   7   8
ATOM      8  C   UNL     1       0.777  -4.546  -6.769  1.00  0.00    -0.000 C 
BRANCH   8   9
ATOM      9  C   UNL     1       2.095  -4.321  -6.013  1.00  0.00    -0.003 C 
ATOM     10  C   UNL     1       2.709  -2.970  -6.371  1.00  0.00     0.004 C 
ENDBRANCH   8   9
ENDBRANCH   7   8
ENDBRANCH   1   7
TORSDOF 6
ENDMDL
MODEL 9
REMARK VINA RESULT:    -3.348     15.695     17.137
REMARK INTER + INTRA:          -5.053
REMARK INTER:                  -4.659
REMARK INTRA:                  -0.395
REMARK UNBOUND:                -0.531
REMARK SMILES CCCCCCCC(=O)[O-]
REMARK SMILES IDX 5 1 6 2 7 3 8 4 9 5 10 6 4 7 3 8 2 9 1 10
REMARK H PARENT
REMARK Flexibility Score: inf
ROOT
ATOM      1  C   UNL     1       9.347   3.657   3.894  1.00  0.00     0.000 C 
ENDROOT
BRANCH   1   2
ATOM      2  C   UNL     1       8.926   5.035   4.432  1.00  0.00     0.006 C 
BRANCH   2   3
ATOM      3  C   UNL     1      10.048   6.077   4.333  1.00  0.00     0.053 C 
BRANCH   3   4
ATOM      4  C   UNL     1       9.757   7.052   3.235  1.00  0.00     0.041 C 
ATOM      5  O   UNL     1       9.888   6.709   2.031  1.00  0.00    -0.550 OA
ATOM      6  O   UNL     1       9.295   8.326   3.542  1.00  0.00    -0.550 OA
ENDBRANCH   3   4
ENDBRANCH   2   3
ENDBRANCH   1   2
BRANCH   1   7
ATOM      7  C   UNL     1       8.571   2.505   4.556  1.00  0.00     0.000 C 
BRANCH   7   8
ATOM      8  C   UNL     1       7.740   2.971   5.762  1.00  0.00    -0.000 C 
BRANCH   8   9
ATOM      9  C   UNL     1       8.246   2.389   7.091  1.00  0.00    -0.003 C 
ATOM     10  C   UNL     1       9.565   3.036   7.506  1.00  0.00     0.004 C 
ENDBRANCH   8   9
ENDBRANCH   7   8
ENDBRANCH   1   7
TORSDOF 6
ENDMDL
