MODEL 1
REMARK VINA RESULT:    -2.647      0.000      0.000
REMARK INTER + INTRA:          -9.589
REMARK INTER:                  -5.742
REMARK INTRA:                  -3.847
REMARK UNBOUND:                -3.847
REMARK SMILES CCCCCCCCCCCCCCCCCCCCCC(=O)[O-]
REMARK SMILES IDX 12 1 11 2 10 3 9 4 8 5 7 6 6 7 5 8 4 9 3 10 2 11 1 12 13 13
REMARK SMILES IDX 14 14 15 15 16 16 17 17 18 18 19 19 20 20 21 21 22 22 23 23
REMARK SMILES IDX 24 24
REMARK H PARENT
REMARK Flexibility Score: inf
ROOT
ATOM      1  C   UNL     1       2.027  22.215   9.979  1.00  0.00     0.000 C 
ENDROOT
BRANCH   1   2
ATOM      2  C   UNL     1       2.368  22.714   8.566  1.00  0.00     0.000 C 
BRANCH   2   3
ATOM      3  C   UNL     1       3.808  22.376   8.153  1.00  0.00     0.000 C 
BRANCH   3   4
ATOM      4  C   UNL     1       4.731  22.318   9.379  1.00  0.00    -0.000 C 
BRANCH   4   5
ATOM      5  C   UNL     1       5.514  20.998   9.467  1.00  0.00    -0.000 C 
BRANCH   5   6
ATOM      6  C   UNL     1       6.319  20.706   8.192  1.00  0.00    -0.000 C 
BRANCH   6   7
ATOM      7  C   UNL     1       5.830  19.422   7.509  1.00  0.00    -0.000 C 
BRANCH   7   8
ATOM      8  C   UNL     1       5.623  19.591   5.994  1.00  0.00    -0.000 C 
BRANCH   8   9
ATOM      9  C   UNL     1       4.203  19.211   5.520  1.00  0.00    -0.000 C 
BRANCH   9  10
ATOM     10  C   UNL     1       3.211  19.107   6.692  1.00  0.00    -0.000 C 
BRANCH  10  11
ATOM     11  C   UNL     1       1.842  19.725   6.363  1.00  0.00    -0.003 C 
ATOM     12  C   UNL     1       1.920  20.773   5.253  1.00  0.00     0.004 C 
ENDBRANCH  10  11
ENDBRANCH   9  10
ENDBRANCH   8   9
ENDBRANCH   7   8
ENDBRANCH   6   7
ENDBRANCH   5   6
ENDBRANCH   4   5
ENDBRANCH   3   4
ENDBRANCH   2   3
ENDBRANCH   1   2
BRANCH   1  13
ATOM     13  C   UNL     1       1.256  20.882   9.965  1.00  0.00     0.000 C 
BRANCH  13  14
ATOM     14  C   UNL     1       1.892  19.828  10.895  1.00  0.00     0.000 C 
BRANCH  14  15
ATOM     15  C   UNL     1       2.852  18.857  10.180  1.00  0.00     0.000 C 
BRANCH  15  16
ATOM     16  C   UNL     1       3.847  18.123  11.096  1.00  0.00     0.000 C 
BRANCH  16  17
ATOM     17  C   UNL     1       4.826  17.227  10.316  1.00  0.00     0.000 C 
BRANCH  17  18
ATOM     18  C   UNL     1       4.397  15.750  10.314  1.00  0.00     0.000 C 
BRANCH  18  19
ATOM     19  C   UNL     1       4.729  15.014   8.997  1.00  0.00     0.000 C 
BRANCH  19  20
ATOM     20  C   UNL     1       4.016  15.612   7.768  1.00  0.00     0.006 C 
BRANCH  20  21
ATOM     21  C   UNL     1       4.936  15.777   6.546  1.00  0.00     0.053 C 
BRANCH  21  22
ATOM     22  C   UNL     1       4.794  14.639   5.582  1.00  0.00     0.041 C 
ATOM     23  O   UNL     1       3.984  13.704   5.818  1.00  0.00    -0.550 OA
ATOM     24  O   UNL     1       5.576  14.596   4.434  1.00  0.00    -0.550 OA
ENDBRANCH  21  22
ENDBRANCH  20  21
ENDBRANCH  19  20
ENDBRANCH  18  19
ENDBRANCH  17  18
ENDBRANCH  16  17
ENDBRANCH  15  16
ENDBRANCH  14  15
ENDBRANCH  13  14
ENDBRANCH   1  13
TORSDOF 20
ENDMDL
MODEL 2
REMARK VINA RESULT:    -2.593      2.777      4.969
REMARK INTER + INTRA:          -9.473
REMARK INTER:                  -7.136
REMARK INTRA:                  -2.337
REMARK UNBOUND:                -3.847
REMARK SMILES CCCCCCCCCCCCCCCCCCCCCC(=O)[O-]
REMARK SMILES IDX 12 1 11 2 10 3 9 4 8 5 7 6 6 7 5 8 4 9 3 10 2 11 1 12 13 13
REMARK SMILES IDX 14 14 15 15 16 16 17 17 18 18 19 19 20 20 21 21 22 22 23 23
REMARK SMILES IDX 24 24
REMARK H PARENT
REMARK Flexibility Score: inf
ROOT
ATOM      1  C   UNL     1       2.574  19.355  10.232  1.00  0.00     0.000 C 
ENDROOT
BRANCH   1   2
ATOM      2  C   UNL     1       1.378  20.114  10.827  1.00  0.00     0.000 C 
BRANCH   2   3
ATOM      3  C   UNL     1       0.944  21.305   9.960  1.00  0.00     0.000 C 
BRANCH   3   4
ATOM      4  C   UNL     1      -0.585  21.366   9.838  1.00  0.00    -0.000 C 
BRANCH   4   5
ATOM      5  C   UNL     1      -1.049  21.866   8.460  1.00  0.00    -0.000 C 
BRANCH   5   6
ATOM      6  C   UNL     1      -0.050  21.523   7.344  1.00  0.00    -0.000 C 
BRANCH   6   7
ATOM      7  C   UNL     1      -0.637  20.488   6.374  1.00  0.00    -0.000 C 
BRANCH   7   8
ATOM      8  C   UNL     1      -2.166  20.357   6.492  1.00  0.00    -0.000 C 
BRANCH   8   9
ATOM      9  C   UNL     1      -2.880  20.228   5.128  1.00  0.00    -0.000 C 
BRANCH   9  10
ATOM     10  C   UNL     1      -3.646  18.900   4.999  1.00  0.00    -0.000 C 
BRANCH  10  11
ATOM     11  C   UNL     1      -3.494  18.009   6.242  1.00  0.00    -0.003 C 
ATOM     12  C   UNL     1      -2.827  16.669   5.929  1.00  0.00     0.004 C 
ENDBRANCH  10  11
ENDBRANCH   9  10
ENDBRANCH   8   9
ENDBRANCH   7   8
ENDBRANCH   6   7
ENDBRANCH   5   6
ENDBRANCH   4   5
ENDBRANCH   3   4
ENDBRANCH   2   3
ENDBRANCH   1   2
BRANCH   1  13
ATOM     13  C   UNL     1       3.038  19.944   8.888  1.00  0.00     0.000 C 
BRANCH  13  14
ATOM     14  C   UNL     1       3.198  18.863   7.798  1.00  0.00     0.000 C 
BRANCH  14  15
ATOM     15  C   UNL     1       2.812  19.338   6.383  1.00  0.00     0.000 C 
BRANCH  15  16
ATOM     16  C   UNL     1       3.995  19.608   5.437  1.00  0.00     0.000 C 
BRANCH  16  17
ATOM     17  C   UNL     1       5.197  18.684   5.707  1.00  0.00     0.000 C 
BRANCH  17  18
ATOM     18  C   UNL     1       5.355  17.596   4.631  1.00  0.00     0.000 C 
BRANCH  18  19
ATOM     19  C   UNL     1       5.284  16.159   5.193  1.00  0.00     0.000 C 
BRANCH  19  20
ATOM     20  C   UNL     1       5.300  16.106   6.733  1.00  0.00     0.006 C 
BRANCH  20  21
ATOM     21  C   UNL     1       4.156  15.268   7.330  1.00  0.00     0.053 C 
BRANCH  21  22
ATOM     22  C   UNL     1       4.338  13.804   7.064  1.00  0.00     0.041 C 
ATOM     23  O   UNL     1       5.189  13.142   7.714  1.00  0.00    -0.550 OA
ATOM     24  O   UNL     1       3.585  13.176   6.079  1.00  0.00    -0.550 OA
ENDBRANCH  21  22
ENDBRANCH  20  21
ENDBRANCH  19  20
ENDBRANCH  18  19
ENDBRANCH  17  18
ENDBRANCH  16  17
ENDBRANCH  15  16
ENDBRANCH  14  15
ENDBRANCH  13  14
ENDBRANCH   1  13
TORSDOF 20
ENDMDL
MODEL 3
REMARK VINA RESULT:    -2.561      1.851      4.724
REMARK INTER + INTRA:          -9.403
REMARK INTER:                  -6.475
REMARK INTRA:                  -2.928
REMARK UNBOUND:                -3.847
REMARK SMILES CCCCCCCCCCCCCCCCCCCCCC(=O)[O-]
REMARK SMILES IDX 12 1 11 2 10 3 9 4 8 5 7 6 6 7 5 8 4 9 3 10 2 11 1 12 13 13
REMARK SMILES IDX 14 14 15 15 16 16 17 17 18 18 19 19 20 20 21 21 22 22 23 23
REMARK SMILES IDX 24 24
REMARK H PARENT
REMARK Flexibility Score: inf
ROOT
ATOM      1  C   UNL     1       4.151  20.226   5.454  1.00  0.00     0.000 C 
ENDROOT
BRANCH   1   2
ATOM      2  C   UNL     1       3.049  20.805   4.553  1.00  0.00     0.000 C 
BRANCH   2   3
ATOM      3  C   UNL     1       1.689  20.885   5.261  1.00  0.00     0.000 C 
BRANCH   3   4
ATOM      4  C   UNL     1       1.652  19.956   6.483  1.00  0.00    -0.000 C 
BRANCH   4   5
ATOM      5  C   UNL     1       1.316  20.704   7.784  1.00  0.00    -0.000 C 
BRANCH   5   6
ATOM      6  C   UNL     1       2.250  20.320   8.941  1.00  0.00    -0.000 C 
BRANCH   6   7
ATOM      7  C   UNL     1       1.520  20.387  10.289  1.00  0.00    -0.000 C 
BRANCH   7   8
ATOM      8  C   UNL     1       1.911  19.241  11.239  1.00  0.00    -0.000 C 
BRANCH   8   9
ATOM      9  C   UNL     1       3.416  18.894  11.199  1.00  0.00    -0.000 C 
BRANCH   9  10
ATOM     10  C   UNL     1       3.705  17.505  11.793  1.00  0.00    -0.000 C 
BRANCH  10  11
ATOM     11  C   UNL     1       5.060  16.938  11.337  1.00  0.00    -0.003 C 
ATOM     12  C   UNL     1       5.995  18.017  10.790  1.00  0.00     0.004 C 
ENDBRANCH  10  11
ENDBRANCH   9  10
ENDBRANCH   8   9
ENDBRANCH   7   8
ENDBRANCH   6   7
ENDBRANCH   5   6
ENDBRANCH   4   5
ENDBRANCH   3   4
ENDBRANCH   2   3
ENDBRANCH   1   2
BRANCH   1  13
ATOM     13  C   UNL     1       4.951  19.106   4.764  1.00  0.00     0.000 C 
BRANCH  13  14
ATOM     14  C   UNL     1       5.112  17.862   5.663  1.00  0.00     0.000 C 
BRANCH  14  15
ATOM     15  C   UNL     1       4.907  18.142   7.165  1.00  0.00     0.000 C 
BRANCH  15  16
ATOM     16  C   UNL     1       3.869  17.246   7.864  1.00  0.00     0.000 C 
BRANCH  16  17
ATOM     17  C   UNL     1       3.964  15.773   7.426  1.00  0.00     0.000 C 
BRANCH  17  18
ATOM     18  C   UNL     1       4.890  14.947   8.335  1.00  0.00     0.000 C 
BRANCH  18  19
ATOM     19  C   UNL     1       6.208  14.524   7.650  1.00  0.00     0.000 C 
BRANCH  19  20
ATOM     20  C   UNL     1       6.480  13.009   7.735  1.00  0.00     0.006 C 
BRANCH  20  21
ATOM     21  C   UNL     1       5.215  12.149   7.573  1.00  0.00     0.053 C 
BRANCH  21  22
ATOM     22  C   UNL     1       4.744  12.110   6.151  1.00  0.00     0.041 C 
ATOM     23  O   UNL     1       5.514  11.708   5.239  1.00  0.00    -0.550 OA
ATOM     24  O   UNL     1       3.463  12.541   5.829  1.00  0.00    -0.550 OA
ENDBRANCH  21  22
ENDBRANCH  20  21
ENDBRANCH  19  20
ENDBRANCH  18  19
ENDBRANCH  17  18
ENDBRANCH  16  17
ENDBRANCH  15  16
ENDBRANCH  14  15
ENDBRANCH  13  14
ENDBRANCH   1  13
TORSDOF 20
ENDMDL
MODEL 4
REMARK VINA RESULT:    -2.553      1.595      3.246
REMARK INTER + INTRA:          -9.386
REMARK INTER:                  -6.389
REMARK INTRA:                  -2.996
REMARK UNBOUND:                -3.847
REMARK SMILES CCCCCCCCCCCCCCCCCCCCCC(=O)[O-]
REMARK SMILES IDX 12 1 11 2 10 3 9 4 8 5 7 6 6 7 5 8 4 9 3 10 2 11 1 12 13 13
REMARK SMILES IDX 14 14 15 15 16 16 17 17 18 18 19 19 20 20 21 21 22 22 23 23
REMARK SMILES IDX 24 24
REMARK H PARENT
REMARK Flexibility Score: inf
ROOT
ATOM      1  C   UNL     1       1.127  21.281   9.027  1.00  0.00     0.000 C 
ENDROOT
BRANCH   1   2
ATOM      2  C   UNL     1      -0.188  21.531   8.272  1.00  0.00     0.000 C 
BRANCH   2   3
ATOM      3  C   UNL     1      -0.195  20.897   6.874  1.00  0.00     0.000 C 
BRANCH   3   4
ATOM      4  C   UNL     1       1.147  20.212   6.575  1.00  0.00    -0.000 C 
BRANCH   4   5
ATOM      5  C   UNL     1       1.858  20.813   5.352  1.00  0.00    -0.000 C 
BRANCH   5   6
ATOM      6  C   UNL     1       3.281  20.262   5.169  1.00  0.00    -0.000 C 
BRANCH   6   7
ATOM      7  C   UNL     1       3.674  19.347   6.336  1.00  0.00    -0.000 C 
BRANCH   7   8
ATOM      8  C   UNL     1       4.397  18.068   5.877  1.00  0.00    -0.000 C 
BRANCH   8   9
ATOM      9  C   UNL     1       5.937  18.190   5.898  1.00  0.00    -0.000 C 
BRANCH   9  10
ATOM     10  C   UNL     1       6.440  18.942   7.142  1.00  0.00    -0.000 C 
BRANCH  10  11
ATOM     11  C   UNL     1       7.437  18.113   7.969  1.00  0.00    -0.003 C 
ATOM     12  C   UNL     1       8.600  18.951   8.501  1.00  0.00     0.004 C 
ENDBRANCH  10  11
ENDBRANCH   9  10
ENDBRANCH   8   9
ENDBRANCH   7   8
ENDBRANCH   6   7
ENDBRANCH   5   6
ENDBRANCH   4   5
ENDBRANCH   3   4
ENDBRANCH   2   3
ENDBRANCH   1   2
BRANCH   1  13
ATOM     13  C   UNL     1       0.909  20.562  10.371  1.00  0.00     0.000 C 
BRANCH  13  14
ATOM     14  C   UNL     1       2.063  19.595  10.711  1.00  0.00     0.000 C 
BRANCH  14  15
ATOM     15  C   UNL     1       3.432  20.029  10.150  1.00  0.00     0.000 C 
BRANCH  15  16
ATOM     16  C   UNL     1       4.524  18.946  10.176  1.00  0.00     0.000 C 
BRANCH  16  17
ATOM     17  C   UNL     1       4.031  17.589   9.643  1.00  0.00     0.000 C 
BRANCH  17  18
ATOM     18  C   UNL     1       4.372  16.426  10.590  1.00  0.00     0.000 C 
BRANCH  18  19
ATOM     19  C   UNL     1       4.799  15.137   9.854  1.00  0.00     0.000 C 
BRANCH  19  20
ATOM     20  C   UNL     1       5.017  15.342   8.342  1.00  0.00     0.006 C 
BRANCH  20  21
ATOM     21  C   UNL     1       3.884  14.768   7.475  1.00  0.00     0.053 C 
BRANCH  21  22
ATOM     22  C   UNL     1       4.230  13.419   6.924  1.00  0.00     0.041 C 
ATOM     23  O   UNL     1       3.592  12.950   5.945  1.00  0.00    -0.550 OA
ATOM     24  O   UNL     1       5.242  12.666   7.508  1.00  0.00    -0.550 OA
ENDBRANCH  21  22
ENDBRANCH  20  21
ENDBRANCH  19  20
ENDBRANCH  18  19
ENDBRANCH  17  18
ENDBRANCH  16  17
ENDBRANCH  15  16
ENDBRANCH  14  15
ENDBRANCH  13  14
ENDBRANCH   1  13
TORSDOF 20
ENDMDL
MODEL 5
REMARK VINA RESULT:    -2.526      1.833      4.746
REMARK INTER + INTRA:          -9.325
REMARK INTER:                  -6.293
REMARK INTRA:                  -3.032
REMARK UNBOUND:                -3.847
REMARK SMILES CCCCCCCCCCCCCCCCCCCCCC(=O)[O-]
REMARK SMILES IDX 12 1 11 2 10 3 9 4 8 5 7 6 6 7 5 8 4 9 3 10 2 11 1 12 13 13
REMARK SMILES IDX 14 14 15 15 16 16 17 17 18 18 19 19 20 20 21 21 22 22 23 23
REMARK SMILES IDX 24 24
REMARK H PARENT
REMARK Flexibility Score: inf
ROOT
ATOM      1  C   UNL     1       0.011  21.776   7.920  1.00  0.00     0.000 C 
ENDROOT
BRANCH   1   2
ATOM      2  C   UNL     1       0.839  20.897   8.870  1.00  0.00     0.000 C 
BRANCH   2   3
ATOM      3  C   UNL     1       2.102  21.607   9.379  1.00  0.00     0.000 C 
BRANCH   3   4
ATOM      4  C   UNL     1       2.826  20.750  10.429  1.00  0.00    -0.000 C 
BRANCH   4   5
ATOM      5  C   UNL     1       2.296  19.309  10.483  1.00  0.00    -0.000 C 
BRANCH   5   6
ATOM      6  C   UNL     1       3.291  18.341  11.141  1.00  0.00    -0.000 C 
BRANCH   6   7
ATOM      7  C   UNL     1       3.017  18.201  12.644  1.00  0.00    -0.000 C 
BRANCH   7   8
ATOM      8  C   UNL     1       1.587  18.617  13.033  1.00  0.00    -0.000 C 
BRANCH   8   9
ATOM      9  C   UNL     1       1.538  19.818  14.003  1.00  0.00    -0.000 C 
BRANCH   9  10
ATOM     10  C   UNL     1       0.542  20.895  13.539  1.00  0.00    -0.000 C 
BRANCH  10  11
ATOM     11  C   UNL     1      -0.518  20.343  12.573  1.00  0.00    -0.003 C 
ATOM     12  C   UNL     1      -1.213  21.442  11.769  1.00  0.00     0.004 C 
ENDBRANCH  10  11
ENDBRANCH   9  10
ENDBRANCH   8   9
ENDBRANCH   7   8
ENDBRANCH   6   7
ENDBRANCH   5   6
ENDBRANCH   4   5
ENDBRANCH   3   4
ENDBRANCH   2   3
ENDBRANCH   1   2
BRANCH   1  13
ATOM     13  C   UNL     1       0.071  21.289   6.461  1.00  0.00     0.000 C 
BRANCH  13  14
ATOM     14  C   UNL     1       1.045  20.105   6.279  1.00  0.00     0.000 C 
BRANCH  14  15
ATOM     15  C   UNL     1       2.285  20.438   5.426  1.00  0.00     0.000 C 
BRANCH  15  16
ATOM     16  C   UNL     1       3.558  19.653   5.785  1.00  0.00     0.000 C 
BRANCH  16  17
ATOM     17  C   UNL     1       3.402  18.821   7.071  1.00  0.00     0.000 C 
BRANCH  17  18
ATOM     18  C   UNL     1       3.926  17.384   6.908  1.00  0.00     0.000 C 
BRANCH  18  19
ATOM     19  C   UNL     1       4.859  16.936   8.055  1.00  0.00     0.000 C 
BRANCH  19  20
ATOM     20  C   UNL     1       4.343  15.696   8.811  1.00  0.00     0.006 C 
BRANCH  20  21
ATOM     21  C   UNL     1       5.108  14.406   8.468  1.00  0.00     0.053 C 
BRANCH  21  22
ATOM     22  C   UNL     1       4.850  13.962   7.060  1.00  0.00     0.041 C 
ATOM     23  O   UNL     1       3.707  13.556   6.722  1.00  0.00    -0.550 OA
ATOM     24  O   UNL     1       5.880  13.970   6.127  1.00  0.00    -0.550 OA
ENDBRANCH  21  22
ENDBRANCH  20  21
ENDBRANCH  19  20
ENDBRANCH  18  19
ENDBRANCH  17  18
ENDBRANCH  16  17
ENDBRANCH  15  16
ENDBRANCH  14  15
ENDBRANCH  13  14
ENDBRANCH   1  13
TORSDOF 20
ENDMDL
MODEL 6
REMARK VINA RESULT:    -2.523      1.703      5.185
REMARK INTER + INTRA:          -9.319
REMARK INTER:                  -5.652
REMARK INTRA:                  -3.667
REMARK UNBOUND:                -3.847
REMARK SMILES CCCCCCCCCCCCCCCCCCCCCC(=O)[O-]
REMARK SMILES IDX 12 1 11 2 10 3 9 4 8 5 7 6 6 7 5 8 4 9 3 10 2 11 1 12 13 13
REMARK SMILES IDX 14 14 15 15 16 16 17 17 18 18 19 19 20 20 21 21 22 22 23 23
REMARK SMILES IDX 24 24
REMARK H PARENT
REMARK Flexibility Score: inf
ROOT
ATOM      1  C   UNL     1       3.051  18.930   6.966  1.00  0.00     0.000 C 
ENDROOT
BRANCH   1   2
ATOM      2  C   UNL     1       3.208  20.164   7.868  1.00  0.00     0.000 C 
BRANCH   2   3
ATOM      3  C   UNL     1       2.265  20.133   9.080  1.00  0.00     0.000 C 
BRANCH   3   4
ATOM      4  C   UNL     1       2.792  19.175  10.159  1.00  0.00    -0.000 C 
BRANCH   4   5
ATOM      5  C   UNL     1       1.957  19.222  11.449  1.00  0.00    -0.000 C 
BRANCH   5   6
ATOM      6  C   UNL     1       2.716  18.659  12.660  1.00  0.00    -0.000 C 
BRANCH   6   7
ATOM      7  C   UNL     1       3.987  17.920  12.223  1.00  0.00    -0.000 C 
BRANCH   7   8
ATOM      8  C   UNL     1       4.039  16.467  12.731  1.00  0.00    -0.000 C 
BRANCH   8   9
ATOM      9  C   UNL     1       5.471  15.891  12.802  1.00  0.00    -0.000 C 
BRANCH   9  10
ATOM     10  C   UNL     1       5.471  14.358  12.933  1.00  0.00    -0.000 C 
BRANCH  10  11
ATOM     11  C   UNL     1       4.640  13.672  11.838  1.00  0.00    -0.003 C 
ATOM     12  C   UNL     1       5.508  12.978  10.787  1.00  0.00     0.004 C 
ENDBRANCH  10  11
ENDBRANCH   9  10
ENDBRANCH   8   9
ENDBRANCH   7   8
ENDBRANCH   6   7
ENDBRANCH   5   6
ENDBRANCH   4   5
ENDBRANCH   3   4
ENDBRANCH   2   3
ENDBRANCH   1   2
BRANCH   1  13
ATOM     13  C   UNL     1       3.928  19.007   5.702  1.00  0.00     0.000 C 
BRANCH  13  14
ATOM     14  C   UNL     1       5.172  18.098   5.796  1.00  0.00     0.000 C 
BRANCH  14  15
ATOM     15  C   UNL     1       6.386  18.764   6.474  1.00  0.00     0.000 C 
BRANCH  15  16
ATOM     16  C   UNL     1       7.085  17.913   7.549  1.00  0.00     0.000 C 
BRANCH  16  17
ATOM     17  C   UNL     1       6.249  17.772   8.833  1.00  0.00     0.000 C 
BRANCH  17  18
ATOM     18  C   UNL     1       5.833  16.316   9.107  1.00  0.00     0.000 C 
BRANCH  18  19
ATOM     19  C   UNL     1       4.306  16.091   9.057  1.00  0.00     0.000 C 
BRANCH  19  20
ATOM     20  C   UNL     1       3.850  15.279   7.829  1.00  0.00     0.006 C 
BRANCH  20  21
ATOM     21  C   UNL     1       5.013  14.645   7.046  1.00  0.00     0.053 C 
BRANCH  21  22
ATOM     22  C   UNL     1       4.549  14.014   5.769  1.00  0.00     0.041 C 
ATOM     23  O   UNL     1       4.854  14.527   4.660  1.00  0.00    -0.550 OA
ATOM     24  O   UNL     1       3.757  12.873   5.803  1.00  0.00    -0.550 OA
ENDBRANCH  21  22
ENDBRANCH  20  21
ENDBRANCH  19  20
ENDBRANCH  18  19
ENDBRANCH  17  18
ENDBRANCH  16  17
ENDBRANCH  15  16
ENDBRANCH  14  15
ENDBRANCH  13  14
ENDBRANCH   1  13
TORSDOF 20
ENDMDL
MODEL 7
REMARK VINA RESULT:    -2.496      1.233      2.872
REMARK INTER + INTRA:          -9.261
REMARK INTER:                  -5.694
REMARK INTRA:                  -3.567
REMARK UNBOUND:                -3.847
REMARK SMILES CCCCCCCCCCCCCCCCCCCCCC(=O)[O-]
REMARK SMILES IDX 12 1 11 2 10 3 9 4 8 5 7 6 6 7 5 8 4 9 3 10 2 11 1 12 13 13
REMARK SMILES IDX 14 14 15 15 16 16 17 17 18 18 19 19 20 20 21 21 22 22 23 23
REMARK SMILES IDX 24 24
REMARK H PARENT
REMARK Flexibility Score: inf
ROOT
ATOM      1  C   UNL     1       1.907  20.914   8.040  1.00  0.00     0.000 C 
ENDROOT
BRANCH   1   2
ATOM      2  C   UNL     1       1.559  20.131   6.765  1.00  0.00     0.000 C 
BRANCH   2   3
ATOM      3  C   UNL     1       2.772  19.401   6.170  1.00  0.00     0.000 C 
BRANCH   3   4
ATOM      4  C   UNL     1       3.459  20.263   5.101  1.00  0.00    -0.000 C 
BRANCH   4   5
ATOM      5  C   UNL     1       4.707  19.587   4.509  1.00  0.00    -0.000 C 
BRANCH   5   6
ATOM      6  C   UNL     1       5.061  18.275   5.226  1.00  0.00    -0.000 C 
BRANCH   6   7
ATOM      7  C   UNL     1       6.371  18.408   6.012  1.00  0.00    -0.000 C 
BRANCH   7   8
ATOM      8  C   UNL     1       6.147  18.573   7.526  1.00  0.00    -0.000 C 
BRANCH   8   9
ATOM      9  C   UNL     1       6.021  20.047   7.973  1.00  0.00    -0.000 C 
BRANCH   9  10
ATOM     10  C   UNL     1       6.934  20.978   7.156  1.00  0.00    -0.000 C 
BRANCH  10  11
ATOM     11  C   UNL     1       6.215  22.258   6.701  1.00  0.00    -0.003 C 
ATOM     12  C   UNL     1       5.084  22.667   7.646  1.00  0.00     0.004 C 
ENDBRANCH  10  11
ENDBRANCH   9  10
ENDBRANCH   8   9
ENDBRANCH   7   8
ENDBRANCH   6   7
ENDBRANCH   5   6
ENDBRANCH   4   5
ENDBRANCH   3   4
ENDBRANCH   2   3
ENDBRANCH   1   2
BRANCH   1  13
ATOM     13  C   UNL     1       2.485  20.013   9.147  1.00  0.00     0.000 C 
BRANCH  13  14
ATOM     14  C   UNL     1       1.589  19.981  10.404  1.00  0.00     0.000 C 
BRANCH  14  15
ATOM     15  C   UNL     1       2.131  19.089  11.538  1.00  0.00     0.000 C 
BRANCH  15  16
ATOM     16  C   UNL     1       3.627  18.744  11.443  1.00  0.00     0.000 C 
BRANCH  16  17
ATOM     17  C   UNL     1       3.889  17.227  11.429  1.00  0.00     0.000 C 
BRANCH  17  18
ATOM     18  C   UNL     1       4.910  16.817  10.354  1.00  0.00     0.000 C 
BRANCH  18  19
ATOM     19  C   UNL     1       4.519  15.531   9.593  1.00  0.00     0.000 C 
BRANCH  19  20
ATOM     20  C   UNL     1       3.978  15.802   8.175  1.00  0.00     0.006 C 
BRANCH  20  21
ATOM     21  C   UNL     1       3.965  14.555   7.274  1.00  0.00     0.053 C 
BRANCH  21  22
ATOM     22  C   UNL     1       4.982  14.648   6.178  1.00  0.00     0.041 C 
ATOM     23  O   UNL     1       4.642  14.462   4.980  1.00  0.00    -0.550 OA
ATOM     24  O   UNL     1       6.312  14.915   6.481  1.00  0.00    -0.550 OA
ENDBRANCH  21  22
ENDBRANCH  20  21
ENDBRANCH  19  20
ENDBRANCH  18  19
ENDBRANCH  17  18
ENDBRANCH  16  17
ENDBRANCH  15  16
ENDBRANCH  14  15
ENDBRANCH  13  14
ENDBRANCH   1  13
TORSDOF 20
ENDMDL
MODEL 8
REMARK VINA RESULT:    -2.477      1.690      4.668
REMARK INTER + INTRA:          -9.219
REMARK INTER:                  -6.484
REMARK INTRA:                  -2.734
REMARK UNBOUND:                -3.847
REMARK SMILES CCCCCCCCCCCCCCCCCCCCCC(=O)[O-]
REMARK SMILES IDX 12 1 11 2 10 3 9 4 8 5 7 6 6 7 5 8 4 9 3 10 2 11 1 12 13 13
REMARK SMILES IDX 14 14 15 15 16 16 17 17 18 18 19 19 20 20 21 21 22 22 23 23
REMARK SMILES IDX 24 24
REMARK H PARENT
REMARK Flexibility Score: inf
ROOT
ATOM      1  C   UNL     1       1.389  20.502   5.845  1.00  0.00     0.000 C 
ENDROOT
BRANCH   1   2
ATOM      2  C   UNL     1       0.008  20.874   6.407  1.00  0.00     0.000 C 
BRANCH   2   3
ATOM      3  C   UNL     1       0.088  21.924   7.525  1.00  0.00     0.000 C 
BRANCH   3   4
ATOM      4  C   UNL     1      -0.243  21.299   8.888  1.00  0.00    -0.000 C 
BRANCH   4   5
ATOM      5  C   UNL     1       0.946  21.338   9.861  1.00  0.00    -0.000 C 
BRANCH   5   6
ATOM      6  C   UNL     1       0.618  20.691  11.216  1.00  0.00    -0.000 C 
BRANCH   6   7
ATOM      7  C   UNL     1       1.567  19.523  11.516  1.00  0.00    -0.000 C 
BRANCH   7   8
ATOM      8  C   UNL     1       2.561  19.250  10.373  1.00  0.00    -0.000 C 
BRANCH   8   9
ATOM      9  C   UNL     1       3.627  18.189  10.724  1.00  0.00    -0.000 C 
BRANCH   9  10
ATOM     10  C   UNL     1       4.169  17.478   9.472  1.00  0.00    -0.000 C 
BRANCH  10  11
ATOM     11  C   UNL     1       5.643  17.812   9.195  1.00  0.00    -0.003 C 
ATOM     12  C   UNL     1       5.880  19.309   8.993  1.00  0.00     0.004 C 
ENDBRANCH  10  11
ENDBRANCH   9  10
ENDBRANCH   8   9
ENDBRANCH   7   8
ENDBRANCH   6   7
ENDBRANCH   5   6
ENDBRANCH   4   5
ENDBRANCH   3   4
ENDBRANCH   2   3
ENDBRANCH   1   2
BRANCH   1  13
ATOM     13  C   UNL     1       2.229  19.679   6.838  1.00  0.00     0.000 C 
BRANCH  13  14
ATOM     14  C   UNL     1       3.466  19.042   6.171  1.00  0.00     0.000 C 
BRANCH  14  15
ATOM     15  C   UNL     1       4.011  19.838   4.969  1.00  0.00     0.000 C 
BRANCH  15  16
ATOM     16  C   UNL     1       5.352  19.336   4.404  1.00  0.00     0.000 C 
BRANCH  16  17
ATOM     17  C   UNL     1       6.048  18.324   5.332  1.00  0.00     0.000 C 
BRANCH  17  18
ATOM     18  C   UNL     1       6.349  16.991   4.627  1.00  0.00     0.000 C 
BRANCH  18  19
ATOM     19  C   UNL     1       5.219  15.948   4.775  1.00  0.00     0.000 C 
BRANCH  19  20
ATOM     20  C   UNL     1       4.794  15.712   6.238  1.00  0.00     0.006 C 
BRANCH  20  21
ATOM     21  C   UNL     1       5.593  14.599   6.937  1.00  0.00     0.053 C 
BRANCH  21  22
ATOM     22  C   UNL     1       4.811  13.325   7.033  1.00  0.00     0.041 C 
ATOM     23  O   UNL     1       5.251  12.359   7.710  1.00  0.00    -0.550 OA
ATOM     24  O   UNL     1       3.606  13.194   6.353  1.00  0.00    -0.550 OA
ENDBRANCH  21  22
ENDBRANCH  20  21
ENDBRANCH  19  20
ENDBRANCH  18  19
ENDBRANCH  17  18
ENDBRANCH  16  17
ENDBRANCH  15  16
ENDBRANCH  14  15
ENDBRANCH  13  14
ENDBRANCH   1  13
TORSDOF 20
ENDMDL
MODEL 9
REMARK VINA RESULT:    -2.476      1.533      4.077
REMARK INTER + INTRA:          -9.218
REMARK INTER:                  -5.681
REMARK INTRA:                  -3.537
REMARK UNBOUND:                -3.847
REMARK SMILES CCCCCCCCCCCCCCCCCCCCCC(=O)[O-]
REMARK SMILES IDX 12 1 11 2 10 3 9 4 8 5 7 6 6 7 5 8 4 9 3 10 2 11 1 12 13 13
REMARK SMILES IDX 14 14 15 15 16 16 17 17 18 18 19 19 20 20 21 21 22 22 23 23
REMARK SMILES IDX 24 24
REMARK H PARENT
REMARK Flexibility Score: inf
ROOT
ATOM      1  C   UNL     1       0.879  20.152   6.398  1.00  0.00     0.000 C 
ENDROOT
BRANCH   1   2
ATOM      2  C   UNL     1       0.750  21.562   6.995  1.00  0.00     0.000 C 
BRANCH   2   3
ATOM      3  C   UNL     1       1.233  21.633   8.451  1.00  0.00     0.000 C 
BRANCH   3   4
ATOM      4  C   UNL     1       2.421  22.596   8.588  1.00  0.00    -0.000 C 
BRANCH   4   5
ATOM      5  C   UNL     1       3.552  22.022   9.456  1.00  0.00    -0.000 C 
BRANCH   5   6
ATOM      6  C   UNL     1       4.557  21.193   8.640  1.00  0.00    -0.000 C 
BRANCH   6   7
ATOM      7  C   UNL     1       4.820  19.834   9.302  1.00  0.00    -0.000 C 
BRANCH   7   8
ATOM      8  C   UNL     1       3.538  19.004   9.496  1.00  0.00    -0.000 C 
BRANCH   8   9
ATOM      9  C   UNL     1       3.601  18.050  10.709  1.00  0.00    -0.000 C 
BRANCH   9  10
ATOM     10  C   UNL     1       2.722  18.537  11.874  1.00  0.00    -0.000 C 
BRANCH  10  11
ATOM     11  C   UNL     1       1.605  19.487  11.414  1.00  0.00    -0.003 C 
ATOM     12  C   UNL     1       1.475  20.721  12.307  1.00  0.00     0.004 C 
ENDBRANCH  10  11
ENDBRANCH   9  10
ENDBRANCH   8   9
ENDBRANCH   7   8
ENDBRANCH   6   7
ENDBRANCH   5   6
ENDBRANCH   4   5
ENDBRANCH   3   4
ENDBRANCH   2   3
ENDBRANCH   1   2
BRANCH   1  13
ATOM     13  C   UNL     1       2.344  19.741   6.164  1.00  0.00     0.000 C 
BRANCH  13  14
ATOM     14  C   UNL     1       3.051  20.652   5.139  1.00  0.00     0.000 C 
BRANCH  14  15
ATOM     15  C   UNL     1       4.303  20.020   4.497  1.00  0.00     0.000 C 
BRANCH  15  16
ATOM     16  C   UNL     1       5.285  19.364   5.483  1.00  0.00     0.000 C 
BRANCH  16  17
ATOM     17  C   UNL     1       5.288  17.827   5.386  1.00  0.00     0.000 C 
BRANCH  17  18
ATOM     18  C   UNL     1       5.342  17.152   6.766  1.00  0.00     0.000 C 
BRANCH  18  19
ATOM     19  C   UNL     1       4.022  16.455   7.163  1.00  0.00     0.000 C 
BRANCH  19  20
ATOM     20  C   UNL     1       4.236  15.138   7.936  1.00  0.00     0.006 C 
BRANCH  20  21
ATOM     21  C   UNL     1       4.265  13.894   7.031  1.00  0.00     0.053 C 
BRANCH  21  22
ATOM     22  C   UNL     1       5.615  13.244   7.018  1.00  0.00     0.041 C 
ATOM     23  O   UNL     1       6.625  13.870   7.435  1.00  0.00    -0.550 OA
ATOM     24  O   UNL     1       5.764  11.955   6.520  1.00  0.00    -0.550 OA
ENDBRANCH  21  22
ENDBRANCH  20  21
ENDBRANCH  19  20
ENDBRANCH  18  19
ENDBRANCH  17  18
ENDBRANCH  16  17
ENDBRANCH  15  16
ENDBRANCH  14  15
ENDBRANCH  13  14
ENDBRANCH   1  13
TORSDOF 20
ENDMDL
