MODEL 1
REMARK VINA RESULT:    -0.575      0.000      0.000
REMARK INTER + INTRA:           0.230
REMARK INTER:                  -1.012
REMARK INTRA:                   1.242
REMARK UNBOUND:                 1.242
REMARK SMILES CCCCCCCCCCCCCCC(=O)[O-]
REMARK SMILES IDX 9 1 10 2 11 3 12 4 13 5 14 6 15 7 16 8 17 9 8 10 7 11 6 12
REMARK SMILES IDX 5 13 4 14 3 15 2 16 1 17
REMARK H PARENT
REMARK Flexibility Score: inf
ROOT
ATOM      1  C   UNL     1      -2.964   6.361   7.494  1.00  0.00     0.000 C 
ENDROOT
BRANCH   1   2
ATOM      2  C   UNL     1      -2.906   5.867   8.950  1.00  0.00     0.000 C 
BRANCH   2   3
ATOM      3  C   UNL     1      -2.047   6.731   9.894  1.00  0.00     0.000 C 
BRANCH   3   4
ATOM      4  C   UNL     1      -1.861   8.184   9.408  1.00  0.00     0.000 C 
BRANCH   4   5
ATOM      5  C   UNL     1      -0.486   8.755   9.786  1.00  0.00     0.006 C 
BRANCH   5   6
ATOM      6  C   UNL     1       0.519   7.634  10.063  1.00  0.00     0.053 C 
BRANCH   6   7
ATOM      7  C   UNL     1       1.914   8.172  10.076  1.00  0.00     0.041 C 
ATOM      8  O   UNL     1       2.897   7.386  10.125  1.00  0.00    -0.550 OA
ATOM      9  O   UNL     1       2.130   9.544  10.085  1.00  0.00    -0.550 OA
ENDBRANCH   6   7
ENDBRANCH   5   6
ENDBRANCH   4   5
ENDBRANCH   3   4
ENDBRANCH   2   3
ENDBRANCH   1   2
BRANCH   1  10
ATOM     10  C   UNL     1      -2.949   5.247   6.429  1.00  0.00     0.000 C 
BRANCH  10  11
ATOM     11  C   UNL     1      -3.288   3.849   6.990  1.00  0.00    -0.000 C 
BRANCH  11  12
ATOM     12  C   UNL     1      -3.783   3.907   8.442  1.00  0.00    -0.000 C 
BRANCH  12  13
ATOM     13  C   UNL     1      -4.998   2.993   8.648  1.00  0.00    -0.000 C 
BRANCH  13  14
ATOM     14  C   UNL     1      -5.702   3.305   9.977  1.00  0.00    -0.000 C 
BRANCH  14  15
ATOM     15  C   UNL     1      -6.978   4.141   9.789  1.00  0.00    -0.000 C 
BRANCH  15  16
ATOM     16  C   UNL     1      -8.254   3.354  10.125  1.00  0.00    -0.003 C 
ATOM     17  C   UNL     1      -9.497   4.219   9.935  1.00  0.00     0.004 C 
ENDBRANCH  15  16
ENDBRANCH  14  15
ENDBRANCH  13  14
ENDBRANCH  12  13
ENDBRANCH  11  12
ENDBRANCH  10  11
ENDBRANCH   1  10
TORSDOF 13
ENDMDL
MODEL 2
REMARK VINA RESULT:     1.007      5.593     11.624
REMARK INTER + INTRA:           3.014
REMARK INTER:                   3.328
REMARK INTRA:                  -0.313
REMARK UNBOUND:                 1.242
REMARK SMILES CCCCCCCCCCCCCCC(=O)[O-]
REMARK SMILES IDX 9 1 10 2 11 3 12 4 13 5 14 6 15 7 16 8 17 9 8 10 7 11 6 12
REMARK SMILES IDX 5 13 4 14 3 15 2 16 1 17
REMARK H PARENT
REMARK Flexibility Score: inf
ROOT
ATOM      1  C   UNL     1       6.272   8.125   8.890  1.00  0.00     0.000 C 
ENDROOT
BRANCH   1   2
ATOM      2  C   UNL     1       5.793   9.533   9.283  1.00  0.00     0.000 C 
BRANCH   2   3
ATOM      3  C   UNL     1       4.501   9.568  10.124  1.00  0.00     0.000 C 
BRANCH   3   4
ATOM      4  C   UNL     1       3.228   9.831   9.293  1.00  0.00     0.000 C 
BRANCH   4   5
ATOM      5  C   UNL     1       1.944   9.641  10.115  1.00  0.00     0.006 C 
BRANCH   5   6
ATOM      6  C   UNL     1       1.458   8.191  10.048  1.00  0.00     0.053 C 
BRANCH   6   7
ATOM      7  C   UNL     1      -0.007   8.142   9.749  1.00  0.00     0.041 C 
ATOM      8  O   UNL     1      -0.592   7.035   9.622  1.00  0.00    -0.550 OA
ATOM      9  O   UNL     1      -0.717   9.322   9.562  1.00  0.00    -0.550 OA
ENDBRANCH   6   7
ENDBRANCH   5   6
ENDBRANCH   4   5
ENDBRANCH   3   4
ENDBRANCH   2   3
ENDBRANCH   1   2
BRANCH   1  10
ATOM     10  C   UNL     1       7.154   7.423   9.941  1.00  0.00     0.000 C 
BRANCH  10  11
ATOM     11  C   UNL     1       8.645   7.813   9.859  1.00  0.00    -0.000 C 
BRANCH  11  12
ATOM     12  C   UNL     1       8.845   9.264   9.396  1.00  0.00    -0.000 C 
BRANCH  12  13
ATOM     13  C   UNL     1      10.020   9.374   8.417  1.00  0.00    -0.000 C 
BRANCH  13  14
ATOM     14  C   UNL     1       9.592  10.078   7.120  1.00  0.00    -0.000 C 
BRANCH  14  15
ATOM     15  C   UNL     1       8.066  10.125   6.948  1.00  0.00    -0.000 C 
BRANCH  15  16
ATOM     16  C   UNL     1       7.616   9.674   5.551  1.00  0.00    -0.003 C 
ATOM     17  C   UNL     1       8.683   9.981   4.505  1.00  0.00     0.004 C 
ENDBRANCH  15  16
ENDBRANCH  14  15
ENDBRANCH  13  14
ENDBRANCH  12  13
ENDBRANCH  11  12
ENDBRANCH  10  11
ENDBRANCH   1  10
TORSDOF 13
ENDMDL
MODEL 3
REMARK VINA RESULT:     1.643      5.241      8.235
REMARK INTER + INTRA:           4.133
REMARK INTER:                   4.756
REMARK INTRA:                  -0.623
REMARK UNBOUND:                 1.242
REMARK SMILES CCCCCCCCCCCCCCC(=O)[O-]
REMARK SMILES IDX 9 1 10 2 11 3 12 4 13 5 14 6 15 7 16 8 17 9 8 10 7 11 6 12
REMARK SMILES IDX 5 13 4 14 3 15 2 16 1 17
REMARK H PARENT
REMARK Flexibility Score: inf
ROOT
ATOM      1  C   UNL     1      -4.376   3.059   7.630  1.00  0.00     0.000 C 
ENDROOT
BRANCH   1   2
ATOM      2  C   UNL     1      -3.235   2.034   7.500  1.00  0.00     0.000 C 
BRANCH   2   3
ATOM      3  C   UNL     1      -2.951   1.215   8.775  1.00  0.00     0.000 C 
BRANCH   3   4
ATOM      4  C   UNL     1      -1.639   0.406   8.713  1.00  0.00     0.000 C 
BRANCH   4   5
ATOM      5  C   UNL     1      -1.803  -1.018   9.265  1.00  0.00     0.006 C 
BRANCH   5   6
ATOM      6  C   UNL     1      -1.531  -2.063   8.180  1.00  0.00     0.053 C 
BRANCH   6   7
ATOM      7  C   UNL     1      -1.692  -3.445   8.731  1.00  0.00     0.041 C 
ATOM      8  O   UNL     1      -1.206  -3.740   9.854  1.00  0.00    -0.550 OA
ATOM      9  O   UNL     1      -2.336  -4.421   7.981  1.00  0.00    -0.550 OA
ENDBRANCH   6   7
ENDBRANCH   5   6
ENDBRANCH   4   5
ENDBRANCH   3   4
ENDBRANCH   2   3
ENDBRANCH   1   2
BRANCH   1  10
ATOM     10  C   UNL     1      -5.151   3.003   8.960  1.00  0.00     0.000 C 
BRANCH  10  11
ATOM     11  C   UNL     1      -5.181   4.347   9.719  1.00  0.00    -0.000 C 
BRANCH  11  12
ATOM     12  C   UNL     1      -4.446   5.462   8.959  1.00  0.00    -0.000 C 
BRANCH  12  13
ATOM     13  C   UNL     1      -3.549   6.273   9.902  1.00  0.00    -0.000 C 
BRANCH  13  14
ATOM     14  C   UNL     1      -2.308   6.798   9.164  1.00  0.00    -0.000 C 
BRANCH  14  15
ATOM     15  C   UNL     1      -1.169   7.184  10.120  1.00  0.00    -0.000 C 
BRANCH  15  16
ATOM     16  C   UNL     1      -0.869   8.690  10.104  1.00  0.00    -0.003 C 
ATOM     17  C   UNL     1       0.625   8.950   9.936  1.00  0.00     0.004 C 
ENDBRANCH  15  16
ENDBRANCH  14  15
ENDBRANCH  13  14
ENDBRANCH  12  13
ENDBRANCH  11  12
ENDBRANCH  10  11
ENDBRANCH   1  10
TORSDOF 13
ENDMDL
MODEL 4
REMARK VINA RESULT:     1.995      4.021      5.805
REMARK INTER + INTRA:           4.754
REMARK INTER:                   3.917
REMARK INTRA:                   0.837
REMARK UNBOUND:                 1.242
REMARK SMILES CCCCCCCCCCCCCCC(=O)[O-]
REMARK SMILES IDX 9 1 10 2 11 3 12 4 13 5 14 6 15 7 16 8 17 9 8 10 7 11 6 12
REMARK SMILES IDX 5 13 4 14 3 15 2 16 1 17
REMARK H PARENT
REMARK Flexibility Score: inf
ROOT
ATOM      1  C   UNL     1      -6.219   3.688   9.412  1.00  0.00     0.000 C 
ENDROOT
BRANCH   1   2
ATOM      2  C   UNL     1      -4.990   4.280  10.125  1.00  0.00     0.000 C 
BRANCH   2   3
ATOM      3  C   UNL     1      -4.900   5.819  10.093  1.00  0.00     0.000 C 
BRANCH   3   4
ATOM      4  C   UNL     1      -3.455   6.355  10.030  1.00  0.00     0.000 C 
BRANCH   4   5
ATOM      5  C   UNL     1      -2.728   5.927   8.746  1.00  0.00     0.006 C 
BRANCH   5   6
ATOM      6  C   UNL     1      -3.725   5.488   7.670  1.00  0.00     0.053 C 
BRANCH   6   7
ATOM      7  C   UNL     1      -3.233   5.873   6.311  1.00  0.00     0.041 C 
ATOM      8  O   UNL     1      -3.389   7.050   5.890  1.00  0.00    -0.550 OA
ATOM      9  O   UNL     1      -2.646   4.920   5.488  1.00  0.00    -0.550 OA
ENDBRANCH   6   7
ENDBRANCH   5   6
ENDBRANCH   4   5
ENDBRANCH   3   4
ENDBRANCH   2   3
ENDBRANCH   1   2
BRANCH   1  10
ATOM     10  C   UNL     1      -5.897   2.691   8.283  1.00  0.00     0.000 C 
BRANCH  10  11
ATOM     11  C   UNL     1      -4.471   2.840   7.711  1.00  0.00    -0.000 C 
BRANCH  11  12
ATOM     12  C   UNL     1      -3.424   2.095   8.551  1.00  0.00    -0.000 C 
BRANCH  12  13
ATOM     13  C   UNL     1      -2.849   0.898   7.782  1.00  0.00    -0.000 C 
BRANCH  13  14
ATOM     14  C   UNL     1      -1.593   0.350   8.476  1.00  0.00    -0.000 C 
BRANCH  14  15
ATOM     15  C   UNL     1      -1.861  -0.955   9.241  1.00  0.00    -0.000 C 
BRANCH  15  16
ATOM     16  C   UNL     1      -1.513  -2.204   8.417  1.00  0.00    -0.003 C 
ATOM     17  C   UNL     1      -1.564  -3.461   9.280  1.00  0.00     0.004 C 
ENDBRANCH  15  16
ENDBRANCH  14  15
ENDBRANCH  13  14
ENDBRANCH  12  13
ENDBRANCH  11  12
ENDBRANCH  10  11
ENDBRANCH   1  10
TORSDOF 13
ENDMDL
