MODEL 1
REMARK VINA RESULT:    -5.124      0.000      0.000
REMARK INTER + INTRA:          -6.146
REMARK INTER:                  -5.873
REMARK INTRA:                  -0.274
REMARK UNBOUND:                -0.274
REMARK SMILES COc1ccc(C=O)c(O)c1
REMARK SMILES IDX 3 1 11 2 9 3 6 4 5 5 4 6 2 7 1 8 10 9 7 11 8 12
REMARK H PARENT 10 10
REMARK Flexibility Score: inf
ROOT
ATOM      1  C   UNL     1     -12.052  -5.658  -5.793  1.00  0.00     0.122 A 
ATOM      2  C   UNL     1     -11.043  -6.249  -6.575  1.00  0.00     0.093 A 
ATOM      3  C   UNL     1     -10.648  -5.670  -7.790  1.00  0.00     0.129 A 
ATOM      4  C   UNL     1     -11.268  -4.481  -8.237  1.00  0.00     0.056 A 
ATOM      5  C   UNL     1     -12.274  -3.898  -7.449  1.00  0.00     0.019 A 
ATOM      6  C   UNL     1     -12.660  -4.483  -6.240  1.00  0.00     0.047 A 
ENDROOT
BRANCH   1   7
ATOM      7  O   UNL     1     -12.476  -6.205  -4.572  1.00  0.00    -0.497 OA
ATOM      8  C   UNL     1     -13.403  -5.581  -3.690  1.00  0.00     0.278 C 
ENDBRANCH   1   7
BRANCH   3   9
ATOM      9  O   UNL     1      -9.645  -6.275  -8.547  1.00  0.00    -0.507 OA
ATOM     10  H   UNL     1      -8.956  -6.887  -8.126  1.00  0.00     0.293 HD
ENDBRANCH   3   9
BRANCH   4  11
ATOM     11  C   UNL     1     -10.896  -3.822  -9.507  1.00  0.00     0.263 C 
ATOM     12  O   UNL     1     -10.778  -4.471 -10.580  1.00  0.00    -0.298 OA
ENDBRANCH   4  11
TORSDOF 3
ENDMDL
MODEL 2
REMARK VINA RESULT:    -5.066      1.522      4.712
REMARK INTER + INTRA:          -6.080
REMARK INTER:                  -5.881
REMARK INTRA:                  -0.199
REMARK UNBOUND:                -0.274
REMARK SMILES COc1ccc(C=O)c(O)c1
REMARK SMILES IDX 3 1 11 2 9 3 6 4 5 5 4 6 2 7 1 8 10 9 7 11 8 12
REMARK H PARENT 10 10
REMARK Flexibility Score: inf
ROOT
ATOM      1  C   UNL     1     -10.692  -4.811  -8.669  1.00  0.00     0.122 A 
ATOM      2  C   UNL     1     -11.134  -3.691  -7.942  1.00  0.00     0.093 A 
ATOM      3  C   UNL     1     -11.532  -3.819  -6.603  1.00  0.00     0.129 A 
ATOM      4  C   UNL     1     -11.490  -5.084  -5.975  1.00  0.00     0.056 A 
ATOM      5  C   UNL     1     -11.046  -6.196  -6.709  1.00  0.00     0.019 A 
ATOM      6  C   UNL     1     -10.652  -6.059  -8.042  1.00  0.00     0.047 A 
ENDROOT
BRANCH   1   7
ATOM      7  O   UNL     1     -10.286  -4.727 -10.010  1.00  0.00    -0.497 OA
ATOM      8  C   UNL     1     -11.165  -4.820 -11.125  1.00  0.00     0.278 C 
ENDBRANCH   1   7
BRANCH   3   9
ATOM      9  O   UNL     1     -11.967  -2.693  -5.904  1.00  0.00    -0.507 OA
ATOM     10  H   UNL     1     -11.327  -1.956  -5.631  1.00  0.00     0.293 HD
ENDBRANCH   3   9
BRANCH   4  11
ATOM     11  C   UNL     1     -11.895  -5.284  -4.567  1.00  0.00     0.263 C 
ATOM     12  O   UNL     1     -13.094  -5.169  -4.201  1.00  0.00    -0.298 OA
ENDBRANCH   4  11
TORSDOF 3
ENDMDL
MODEL 3
REMARK VINA RESULT:    -4.865      1.283      2.085
REMARK INTER + INTRA:          -5.850
REMARK INTER:                  -5.590
REMARK INTRA:                  -0.259
REMARK UNBOUND:                -0.274
REMARK SMILES COc1ccc(C=O)c(O)c1
REMARK SMILES IDX 3 1 11 2 9 3 6 4 5 5 4 6 2 7 1 8 10 9 7 11 8 12
REMARK H PARENT 10 10
REMARK Flexibility Score: inf
ROOT
ATOM      1  C   UNL     1     -12.426  -5.975  -5.369  1.00  0.00     0.122 A 
ATOM      2  C   UNL     1     -12.788  -4.763  -5.984  1.00  0.00     0.093 A 
ATOM      3  C   UNL     1     -12.154  -4.343  -7.163  1.00  0.00     0.129 A 
ATOM      4  C   UNL     1     -11.144  -5.143  -7.742  1.00  0.00     0.056 A 
ATOM      5  C   UNL     1     -10.791  -6.352  -7.121  1.00  0.00     0.019 A 
ATOM      6  C   UNL     1     -11.427  -6.762  -5.947  1.00  0.00     0.047 A 
ENDROOT
BRANCH   1   7
ATOM      7  O   UNL     1     -13.034  -6.431  -4.189  1.00  0.00    -0.497 OA
ATOM      8  C   UNL     1     -13.756  -5.604  -3.283  1.00  0.00     0.278 C 
ENDBRANCH   1   7
BRANCH   3   9
ATOM      9  O   UNL     1     -12.530  -3.137  -7.754  1.00  0.00    -0.507 OA
ATOM     10  H   UNL     1     -12.090  -2.800  -8.602  1.00  0.00     0.293 HD
ENDBRANCH   3   9
BRANCH   4  11
ATOM     11  C   UNL     1     -10.440  -4.757  -8.984  1.00  0.00     0.263 C 
ATOM     12  O   UNL     1     -11.035  -4.171  -9.927  1.00  0.00    -0.298 OA
ENDBRANCH   4  11
TORSDOF 3
ENDMDL
MODEL 4
REMARK VINA RESULT:    -4.732      1.838      2.803
REMARK INTER + INTRA:          -5.697
REMARK INTER:                  -5.638
REMARK INTRA:                  -0.059
REMARK UNBOUND:                -0.274
REMARK SMILES COc1ccc(C=O)c(O)c1
REMARK SMILES IDX 3 1 11 2 9 3 6 4 5 5 4 6 2 7 1 8 10 9 7 11 8 12
REMARK H PARENT 10 10
REMARK Flexibility Score: inf
ROOT
ATOM      1  C   UNL     1     -10.189  -5.936  -6.114  1.00  0.00     0.122 A 
ATOM      2  C   UNL     1     -11.190  -4.956  -5.988  1.00  0.00     0.093 A 
ATOM      3  C   UNL     1     -11.623  -4.228  -7.107  1.00  0.00     0.129 A 
ATOM      4  C   UNL     1     -11.050  -4.480  -8.374  1.00  0.00     0.056 A 
ATOM      5  C   UNL     1     -10.051  -5.460  -8.490  1.00  0.00     0.019 A 
ATOM      6  C   UNL     1      -9.627  -6.179  -7.370  1.00  0.00     0.047 A 
ENDROOT
BRANCH   1   7
ATOM      7  O   UNL     1      -9.727  -6.686  -5.021  1.00  0.00    -0.497 OA
ATOM      8  C   UNL     1      -9.082  -7.949  -5.128  1.00  0.00     0.278 C 
ENDBRANCH   1   7
BRANCH   3   9
ATOM      9  O   UNL     1     -12.617  -3.262  -6.957  1.00  0.00    -0.507 OA
ATOM     10  H   UNL     1     -13.477  -3.456  -6.459  1.00  0.00     0.293 HD
ENDBRANCH   3   9
BRANCH   4  11
ATOM     11  C   UNL     1     -11.463  -3.747  -9.591  1.00  0.00     0.263 C 
ATOM     12  O   UNL     1     -11.117  -4.125 -10.740  1.00  0.00    -0.298 OA
ENDBRANCH   4  11
TORSDOF 3
ENDMDL
MODEL 5
REMARK VINA RESULT:    -4.624      1.829      2.420
REMARK INTER + INTRA:          -5.573
REMARK INTER:                  -5.339
REMARK INTRA:                  -0.235
REMARK UNBOUND:                -0.274
REMARK SMILES COc1ccc(C=O)c(O)c1
REMARK SMILES IDX 3 1 11 2 9 3 6 4 5 5 4 6 2 7 1 8 10 9 7 11 8 12
REMARK H PARENT 10 10
REMARK Flexibility Score: inf
ROOT
ATOM      1  C   UNL     1      -9.885  -6.264  -5.671  1.00  0.00     0.122 A 
ATOM      2  C   UNL     1      -9.557  -6.303  -7.038  1.00  0.00     0.093 A 
ATOM      3  C   UNL     1     -10.215  -5.469  -7.955  1.00  0.00     0.129 A 
ATOM      4  C   UNL     1     -11.217  -4.580  -7.505  1.00  0.00     0.056 A 
ATOM      5  C   UNL     1     -11.537  -4.549  -6.138  1.00  0.00     0.019 A 
ATOM      6  C   UNL     1     -10.876  -5.383  -5.232  1.00  0.00     0.047 A 
ENDROOT
BRANCH   1   7
ATOM      7  O   UNL     1      -9.252  -7.081  -4.721  1.00  0.00    -0.497 OA
ATOM      8  C   UNL     1      -8.796  -8.405  -4.974  1.00  0.00     0.278 C 
ENDBRANCH   1   7
BRANCH   3   9
ATOM      9  O   UNL     1      -9.872  -5.527  -9.306  1.00  0.00    -0.507 OA
ATOM     10  H   UNL     1      -9.838  -6.405  -9.809  1.00  0.00     0.293 HD
ENDBRANCH   3   9
BRANCH   4  11
ATOM     11  C   UNL     1     -11.945  -3.677  -8.421  1.00  0.00     0.263 C 
ATOM     12  O   UNL     1     -11.456  -3.317  -9.523  1.00  0.00    -0.298 OA
ENDBRANCH   4  11
TORSDOF 3
ENDMDL
MODEL 6
REMARK VINA RESULT:    -4.511      1.054      4.352
REMARK INTER + INTRA:          -5.444
REMARK INTER:                  -5.181
REMARK INTRA:                  -0.263
REMARK UNBOUND:                -0.274
REMARK SMILES COc1ccc(C=O)c(O)c1
REMARK SMILES IDX 3 1 11 2 9 3 6 4 5 5 4 6 2 7 1 8 10 9 7 11 8 12
REMARK H PARENT 10 10
REMARK Flexibility Score: inf
ROOT
ATOM      1  C   UNL     1     -10.855  -4.925  -8.308  1.00  0.00     0.122 A 
ATOM      2  C   UNL     1     -10.664  -6.099  -7.557  1.00  0.00     0.093 A 
ATOM      3  C   UNL     1     -11.256  -6.243  -6.293  1.00  0.00     0.129 A 
ATOM      4  C   UNL     1     -12.054  -5.202  -5.767  1.00  0.00     0.056 A 
ATOM      5  C   UNL     1     -12.239  -4.034  -6.525  1.00  0.00     0.019 A 
ATOM      6  C   UNL     1     -11.645  -3.900  -7.783  1.00  0.00     0.047 A 
ENDROOT
BRANCH   1   7
ATOM      7  O   UNL     1     -10.281  -4.740  -9.576  1.00  0.00    -0.497 OA
ATOM      8  C   UNL     1     -11.022  -4.617 -10.784  1.00  0.00     0.278 C 
ENDBRANCH   1   7
BRANCH   3   9
ATOM      9  O   UNL     1     -11.051  -7.416  -5.567  1.00  0.00    -0.507 OA
ATOM     10  H   UNL     1     -11.231  -8.329  -5.969  1.00  0.00     0.293 HD
ENDBRANCH   3   9
BRANCH   4  11
ATOM     11  C   UNL     1     -12.705  -5.293  -4.443  1.00  0.00     0.263 C 
ATOM     12  O   UNL     1     -13.407  -6.286  -4.118  1.00  0.00    -0.298 OA
ENDBRANCH   4  11
TORSDOF 3
ENDMDL
MODEL 7
REMARK VINA RESULT:    -4.170      6.630      8.252
REMARK INTER + INTRA:          -5.053
REMARK INTER:                  -4.792
REMARK INTRA:                  -0.261
REMARK UNBOUND:                -0.274
REMARK SMILES COc1ccc(C=O)c(O)c1
REMARK SMILES IDX 3 1 11 2 9 3 6 4 5 5 4 6 2 7 1 8 10 9 7 11 8 12
REMARK H PARENT 10 10
REMARK Flexibility Score: inf
ROOT
ATOM      1  C   UNL     1      -5.983 -10.953  -6.385  1.00  0.00     0.122 A 
ATOM      2  C   UNL     1      -6.533 -10.047  -5.460  1.00  0.00     0.093 A 
ATOM      3  C   UNL     1      -7.891 -10.115  -5.114  1.00  0.00     0.129 A 
ATOM      4  C   UNL     1      -8.717 -11.101  -5.697  1.00  0.00     0.056 A 
ATOM      5  C   UNL     1      -8.159 -12.002  -6.619  1.00  0.00     0.019 A 
ATOM      6  C   UNL     1      -6.806 -11.927  -6.957  1.00  0.00     0.047 A 
ENDROOT
BRANCH   1   7
ATOM      7  O   UNL     1      -4.630 -10.921  -6.758  1.00  0.00    -0.497 OA
ATOM      8  C   UNL     1      -3.544 -11.157  -5.870  1.00  0.00     0.278 C 
ENDBRANCH   1   7
BRANCH   3   9
ATOM      9  O   UNL     1      -8.412  -9.204  -4.195  1.00  0.00    -0.507 OA
ATOM     10  H   UNL     1      -7.975  -9.047  -3.294  1.00  0.00     0.293 HD
ENDBRANCH   3   9
BRANCH   4  11
ATOM     11  C   UNL     1     -10.155 -11.224  -5.373  1.00  0.00     0.263 C 
ATOM     12  O   UNL     1     -10.930 -10.233  -5.418  1.00  0.00    -0.298 OA
ENDBRANCH   4  11
TORSDOF 3
ENDMDL
MODEL 8
REMARK VINA RESULT:    -4.138      3.784      5.369
REMARK INTER + INTRA:          -5.017
REMARK INTER:                  -4.752
REMARK INTRA:                  -0.264
REMARK UNBOUND:                -0.274
REMARK SMILES COc1ccc(C=O)c(O)c1
REMARK SMILES IDX 3 1 11 2 9 3 6 4 5 5 4 6 2 7 1 8 10 9 7 11 8 12
REMARK H PARENT 10 10
REMARK Flexibility Score: inf
ROOT
ATOM      1  C   UNL     1     -10.363  -7.011  -5.615  1.00  0.00     0.122 A 
ATOM      2  C   UNL     1      -9.166  -7.531  -5.089  1.00  0.00     0.093 A 
ATOM      3  C   UNL     1      -8.989  -8.916  -4.951  1.00  0.00     0.129 A 
ATOM      4  C   UNL     1     -10.019  -9.800  -5.343  1.00  0.00     0.056 A 
ATOM      5  C   UNL     1     -11.210  -9.271  -5.867  1.00  0.00     0.019 A 
ATOM      6  C   UNL     1     -11.377  -7.890  -6.001  1.00  0.00     0.047 A 
ENDROOT
BRANCH   1   7
ATOM      7  O   UNL     1     -10.581  -5.633  -5.770  1.00  0.00    -0.497 OA
ATOM      8  C   UNL     1     -11.492  -4.870  -4.988  1.00  0.00     0.278 C 
ENDBRANCH   1   7
BRANCH   3   9
ATOM      9  O   UNL     1      -7.793  -9.407  -4.427  1.00  0.00    -0.507 OA
ATOM     10  H   UNL     1      -7.388 -10.278  -4.750  1.00  0.00     0.293 HD
ENDBRANCH   3   9
BRANCH   4  11
ATOM     11  C   UNL     1      -9.892 -11.268  -5.223  1.00  0.00     0.263 C 
ATOM     12  O   UNL     1      -8.855 -11.876  -5.596  1.00  0.00    -0.298 OA
ENDBRANCH   4  11
TORSDOF 3
ENDMDL
MODEL 9
REMARK VINA RESULT:    -4.124      6.720      8.080
REMARK INTER + INTRA:          -5.000
REMARK INTER:                  -4.740
REMARK INTRA:                  -0.260
REMARK UNBOUND:                -0.274
REMARK SMILES COc1ccc(C=O)c(O)c1
REMARK SMILES IDX 3 1 11 2 9 3 6 4 5 5 4 6 2 7 1 8 10 9 7 11 8 12
REMARK H PARENT 10 10
REMARK Flexibility Score: inf
ROOT
ATOM      1  C   UNL     1      -7.814 -10.353  -5.523  1.00  0.00     0.122 A 
ATOM      2  C   UNL     1      -6.473 -10.010  -5.772  1.00  0.00     0.093 A 
ATOM      3  C   UNL     1      -5.671 -10.814  -6.596  1.00  0.00     0.129 A 
ATOM      4  C   UNL     1      -6.212 -11.980  -7.183  1.00  0.00     0.056 A 
ATOM      5  C   UNL     1      -7.552 -12.314  -6.928  1.00  0.00     0.019 A 
ATOM      6  C   UNL     1      -8.343 -11.507  -6.107  1.00  0.00     0.047 A 
ENDROOT
BRANCH   1   7
ATOM      7  O   UNL     1      -8.651  -9.577  -4.706  1.00  0.00    -0.497 OA
ATOM      8  C   UNL     1      -8.923  -8.196  -4.914  1.00  0.00     0.278 C 
ENDBRANCH   1   7
BRANCH   3   9
ATOM      9  O   UNL     1      -4.344 -10.453  -6.827  1.00  0.00    -0.507 OA
ATOM     10  H   UNL     1      -4.009 -10.222  -7.755  1.00  0.00     0.293 HD
ENDBRANCH   3   9
BRANCH   4  11
ATOM     11  C   UNL     1      -5.418 -12.868  -8.060  1.00  0.00     0.263 C 
ATOM     12  O   UNL     1      -4.297 -13.318  -7.706  1.00  0.00    -0.298 OA
ENDBRANCH   4  11
TORSDOF 3
ENDMDL
