MODEL 1
REMARK VINA RESULT:    -3.265      0.000      0.000
REMARK INTER + INTRA:          -4.240
REMARK INTER:                  -4.028
REMARK INTRA:                  -0.211
REMARK UNBOUND:                -0.211
REMARK SMILES C=CC[C@@H](C)C(=O)CC
REMARK SMILES IDX 4 1 5 2 6 3 7 4 8 5 9 6 3 7 2 8 1 9
REMARK H PARENT
REMARK Flexibility Score: inf
ROOT
ATOM      1  C   UNL     1      -8.467 -14.959  -1.778  1.00  0.00     0.057 C 
ATOM      2  C   UNL     1      -7.914 -15.959  -2.803  1.00  0.00     0.016 C 
ENDROOT
BRANCH   1   3
ATOM      3  C   UNL     1      -8.064 -15.378  -0.381  1.00  0.00     0.135 C 
ATOM      4  O   UNL     1      -7.043 -14.925   0.118  1.00  0.00    -0.299 OA
BRANCH   3   5
ATOM      5  C   UNL     1      -8.903 -16.342   0.417  1.00  0.00     0.072 C 
ATOM      6  C   UNL     1     -10.375 -16.215   0.042  1.00  0.00     0.012 C 
ENDBRANCH   3   5
ENDBRANCH   1   3
BRANCH   1   7
ATOM      7  C   UNL     1      -7.975 -13.522  -2.059  1.00  0.00     0.038 C 
BRANCH   7   8
ATOM      8  C   UNL     1      -8.603 -12.933  -3.294  1.00  0.00    -0.034 C 
ATOM      9  C   UNL     1      -9.237 -11.757  -3.269  1.00  0.00     0.004 C 
ENDBRANCH   7   8
ENDBRANCH   1   7
TORSDOF 4
ENDMDL
MODEL 2
REMARK VINA RESULT:    -3.248     14.455     15.946
REMARK INTER + INTRA:          -4.219
REMARK INTER:                  -3.998
REMARK INTRA:                  -0.222
REMARK UNBOUND:                -0.211
REMARK SMILES C=CC[C@@H](C)C(=O)CC
REMARK SMILES IDX 4 1 5 2 6 3 7 4 8 5 9 6 3 7 2 8 1 9
REMARK H PARENT
REMARK Flexibility Score: inf
ROOT
ATOM      1  C   UNL     1     -23.096 -10.837  -7.585  1.00  0.00     0.057 C 
ATOM      2  C   UNL     1     -23.429  -9.395  -7.174  1.00  0.00     0.016 C 
ENDROOT
BRANCH   1   3
ATOM      3  C   UNL     1     -21.751 -10.877  -8.276  1.00  0.00     0.135 C 
ATOM      4  O   UNL     1     -21.595 -10.285  -9.335  1.00  0.00    -0.299 OA
BRANCH   3   5
ATOM      5  C   UNL     1     -20.590 -11.630  -7.680  1.00  0.00     0.072 C 
ATOM      6  C   UNL     1     -19.697 -12.202  -8.776  1.00  0.00     0.012 C 
ENDBRANCH   3   5
ENDBRANCH   1   3
BRANCH   1   7
ATOM      7  C   UNL     1     -23.094 -11.790  -6.371  1.00  0.00     0.038 C 
BRANCH   7   8
ATOM      8  C   UNL     1     -24.252 -11.539  -5.441  1.00  0.00    -0.034 C 
ATOM      9  C   UNL     1     -24.091 -11.479  -4.116  1.00  0.00     0.004 C 
ENDBRANCH   7   8
ENDBRANCH   1   7
TORSDOF 4
ENDMDL
MODEL 3
REMARK VINA RESULT:    -3.215     14.589     15.913
REMARK INTER + INTRA:          -4.179
REMARK INTER:                  -3.950
REMARK INTRA:                  -0.228
REMARK UNBOUND:                -0.211
REMARK SMILES C=CC[C@@H](C)C(=O)CC
REMARK SMILES IDX 4 1 5 2 6 3 7 4 8 5 9 6 3 7 2 8 1 9
REMARK H PARENT
REMARK Flexibility Score: inf
ROOT
ATOM      1  C   UNL     1     -22.232 -10.161  -7.901  1.00  0.00     0.057 C 
ATOM      2  C   UNL     1     -22.605  -9.787  -9.342  1.00  0.00     0.016 C 
ENDROOT
BRANCH   1   3
ATOM      3  C   UNL     1     -23.463 -10.624  -7.154  1.00  0.00     0.135 C 
ATOM      4  O   UNL     1     -24.511 -10.003  -7.268  1.00  0.00    -0.299 OA
BRANCH   3   5
ATOM      5  C   UNL     1     -23.428 -11.847  -6.275  1.00  0.00     0.072 C 
ATOM      6  C   UNL     1     -24.002 -11.537  -4.897  1.00  0.00     0.012 C 
ENDBRANCH   3   5
ENDBRANCH   1   3
BRANCH   1   7
ATOM      7  C   UNL     1     -21.145 -11.257  -7.859  1.00  0.00     0.038 C 
BRANCH   7   8
ATOM      8  C   UNL     1     -20.591 -11.569  -9.224  1.00  0.00    -0.034 C 
ATOM      9  C   UNL     1     -19.456 -12.256  -9.383  1.00  0.00     0.004 C 
ENDBRANCH   7   8
ENDBRANCH   1   7
TORSDOF 4
ENDMDL
MODEL 4
REMARK VINA RESULT:    -3.203     15.538     16.255
REMARK INTER + INTRA:          -4.163
REMARK INTER:                  -3.984
REMARK INTRA:                  -0.180
REMARK UNBOUND:                -0.211
REMARK SMILES C=CC[C@@H](C)C(=O)CC
REMARK SMILES IDX 4 1 5 2 6 3 7 4 8 5 9 6 3 7 2 8 1 9
REMARK H PARENT
REMARK Flexibility Score: inf
ROOT
ATOM      1  C   UNL     1     -23.391 -11.130  -7.141  1.00  0.00     0.057 C 
ATOM      2  C   UNL     1     -22.594 -12.359  -6.682  1.00  0.00     0.016 C 
ENDROOT
BRANCH   1   3
ATOM      3  C   UNL     1     -24.029 -10.455  -5.946  1.00  0.00     0.135 C 
ATOM      4  O   UNL     1     -24.336  -9.273  -6.009  1.00  0.00    -0.299 OA
BRANCH   3   5
ATOM      5  C   UNL     1     -24.304 -11.216  -4.674  1.00  0.00     0.072 C 
ATOM      6  C   UNL     1     -24.626 -10.259  -3.532  1.00  0.00     0.012 C 
ENDBRANCH   3   5
ENDBRANCH   1   3
BRANCH   1   7
ATOM      7  C   UNL     1     -22.502 -10.123  -7.902  1.00  0.00     0.038 C 
BRANCH   7   8
ATOM      8  C   UNL     1     -21.408 -10.801  -8.684  1.00  0.00    -0.034 C 
ATOM      9  C   UNL     1     -21.413 -10.830 -10.020  1.00  0.00     0.004 C 
ENDBRANCH   7   8
ENDBRANCH   1   7
TORSDOF 4
ENDMDL
MODEL 5
REMARK VINA RESULT:    -3.197      1.815      2.373
REMARK INTER + INTRA:          -4.156
REMARK INTER:                  -3.842
REMARK INTRA:                  -0.314
REMARK UNBOUND:                -0.211
REMARK SMILES C=CC[C@@H](C)C(=O)CC
REMARK SMILES IDX 4 1 5 2 6 3 7 4 8 5 9 6 3 7 2 8 1 9
REMARK H PARENT
REMARK Flexibility Score: inf
ROOT
ATOM      1  C   UNL     1      -8.866 -15.846  -1.039  1.00  0.00     0.057 C 
ATOM      2  C   UNL     1      -8.480 -17.117  -1.807  1.00  0.00     0.016 C 
ENDROOT
BRANCH   1   3
ATOM      3  C   UNL     1      -9.743 -16.205   0.141  1.00  0.00     0.135 C 
ATOM      4  O   UNL     1     -10.922 -16.475  -0.040  1.00  0.00    -0.299 OA
BRANCH   3   5
ATOM      5  C   UNL     1      -9.189 -16.245   1.541  1.00  0.00     0.072 C 
ATOM      6  C   UNL     1      -8.875 -17.678   1.957  1.00  0.00     0.012 C 
ENDBRANCH   3   5
ENDBRANCH   1   3
BRANCH   1   7
ATOM      7  C   UNL     1      -7.623 -15.070  -0.555  1.00  0.00     0.038 C 
BRANCH   7   8
ATOM      8  C   UNL     1      -7.424 -13.779  -1.306  1.00  0.00    -0.034 C 
ATOM      9  C   UNL     1      -8.114 -13.496  -2.414  1.00  0.00     0.004 C 
ENDBRANCH   7   8
ENDBRANCH   1   7
TORSDOF 4
ENDMDL
MODEL 6
REMARK VINA RESULT:    -3.188      1.723      4.300
REMARK INTER + INTRA:          -4.145
REMARK INTER:                  -4.024
REMARK INTRA:                  -0.120
REMARK UNBOUND:                -0.211
REMARK SMILES C=CC[C@@H](C)C(=O)CC
REMARK SMILES IDX 4 1 5 2 6 3 7 4 8 5 9 6 3 7 2 8 1 9
REMARK H PARENT
REMARK Flexibility Score: inf
ROOT
ATOM      1  C   UNL     1      -8.219 -14.011  -1.796  1.00  0.00     0.057 C 
ATOM      2  C   UNL     1      -6.730 -13.776  -1.508  1.00  0.00     0.016 C 
ENDROOT
BRANCH   1   3
ATOM      3  C   UNL     1      -8.578 -13.437  -3.149  1.00  0.00     0.135 C 
ATOM      4  O   UNL     1      -8.511 -14.145  -4.145  1.00  0.00    -0.299 OA
BRANCH   3   5
ATOM      5  C   UNL     1      -9.028 -12.007  -3.297  1.00  0.00     0.072 C 
ATOM      6  C   UNL     1     -10.059 -11.878  -4.412  1.00  0.00     0.012 C 
ENDBRANCH   3   5
ENDBRANCH   1   3
BRANCH   1   7
ATOM      7  C   UNL     1      -8.582 -15.511  -1.746  1.00  0.00     0.038 C 
BRANCH   7   8
ATOM      8  C   UNL     1      -8.989 -15.957  -0.366  1.00  0.00    -0.034 C 
ATOM      9  C   UNL     1     -10.261 -16.228  -0.061  1.00  0.00     0.004 C 
ENDBRANCH   7   8
ENDBRANCH   1   7
TORSDOF 4
ENDMDL
MODEL 7
REMARK VINA RESULT:    -3.172      1.201      3.916
REMARK INTER + INTRA:          -4.125
REMARK INTER:                  -3.876
REMARK INTRA:                  -0.249
REMARK UNBOUND:                -0.211
REMARK SMILES C=CC[C@@H](C)C(=O)CC
REMARK SMILES IDX 4 1 5 2 6 3 7 4 8 5 9 6 3 7 2 8 1 9
REMARK H PARENT
REMARK Flexibility Score: inf
ROOT
ATOM      1  C   UNL     1      -7.919 -15.704  -0.585  1.00  0.00     0.057 C 
ATOM      2  C   UNL     1      -6.838 -16.724  -0.967  1.00  0.00     0.016 C 
ENDROOT
BRANCH   1   3
ATOM      3  C   UNL     1      -7.719 -14.424  -1.366  1.00  0.00     0.135 C 
ATOM      4  O   UNL     1      -7.022 -13.533  -0.901  1.00  0.00    -0.299 OA
BRANCH   3   5
ATOM      5  C   UNL     1      -8.356 -14.226  -2.717  1.00  0.00     0.072 C 
ATOM      6  C   UNL     1      -8.588 -12.745  -2.993  1.00  0.00     0.012 C 
ENDBRANCH   3   5
ENDBRANCH   1   3
BRANCH   1   7
ATOM      7  C   UNL     1      -9.339 -16.256  -0.834  1.00  0.00     0.038 C 
BRANCH   7   8
ATOM      8  C   UNL     1     -10.152 -16.341   0.432  1.00  0.00    -0.034 C 
ATOM      9  C   UNL     1      -9.597 -16.657   1.605  1.00  0.00     0.004 C 
ENDBRANCH   7   8
ENDBRANCH   1   7
TORSDOF 4
ENDMDL
MODEL 8
REMARK VINA RESULT:    -3.170      3.394      4.971
REMARK INTER + INTRA:          -4.122
REMARK INTER:                  -3.676
REMARK INTRA:                  -0.446
REMARK UNBOUND:                -0.211
REMARK SMILES C=CC[C@@H](C)C(=O)CC
REMARK SMILES IDX 4 1 5 2 6 3 7 4 8 5 9 6 3 7 2 8 1 9
REMARK H PARENT
REMARK Flexibility Score: inf
ROOT
ATOM      1  C   UNL     1      -8.878 -11.466  -5.086  1.00  0.00     0.057 C 
ATOM      2  C   UNL     1      -8.093 -10.150  -5.184  1.00  0.00     0.016 C 
ENDROOT
BRANCH   1   3
ATOM      3  C   UNL     1      -9.132 -11.806  -3.633  1.00  0.00     0.135 C 
ATOM      4  O   UNL     1      -9.947 -11.157  -2.992  1.00  0.00    -0.299 OA
BRANCH   3   5
ATOM      5  C   UNL     1      -8.404 -12.938  -2.958  1.00  0.00     0.072 C 
ATOM      6  C   UNL     1      -8.198 -14.100  -3.924  1.00  0.00     0.012 C 
ENDBRANCH   3   5
ENDBRANCH   1   3
BRANCH   1   7
ATOM      7  C   UNL     1     -10.217 -11.392  -5.851  1.00  0.00     0.038 C 
BRANCH   7   8
ATOM      8  C   UNL     1     -10.869 -12.741  -5.998  1.00  0.00    -0.034 C 
ATOM      9  C   UNL     1     -10.459 -13.626  -6.912  1.00  0.00     0.004 C 
ENDBRANCH   7   8
ENDBRANCH   1   7
TORSDOF 4
ENDMDL
MODEL 9
REMARK VINA RESULT:    -3.169      1.794      2.945
REMARK INTER + INTRA:          -4.122
REMARK INTER:                  -3.689
REMARK INTRA:                  -0.432
REMARK UNBOUND:                -0.211
REMARK SMILES C=CC[C@@H](C)C(=O)CC
REMARK SMILES IDX 4 1 5 2 6 3 7 4 8 5 9 6 3 7 2 8 1 9
REMARK H PARENT
REMARK Flexibility Score: inf
ROOT
ATOM      1  C   UNL     1      -9.174 -15.803  -0.027  1.00  0.00     0.057 C 
ATOM      2  C   UNL     1     -10.542 -16.498  -0.021  1.00  0.00     0.016 C 
ENDROOT
BRANCH   1   3
ATOM      3  C   UNL     1      -8.321 -16.338   1.103  1.00  0.00     0.135 C 
ATOM      4  O   UNL     1      -8.817 -17.084   1.936  1.00  0.00    -0.299 OA
BRANCH   3   5
ATOM      5  C   UNL     1      -6.863 -15.975   1.220  1.00  0.00     0.072 C 
ATOM      6  C   UNL     1      -6.698 -14.602   1.863  1.00  0.00     0.012 C 
ENDBRANCH   3   5
ENDBRANCH   1   3
BRANCH   1   7
ATOM      7  C   UNL     1      -8.442 -15.991  -1.373  1.00  0.00     0.038 C 
BRANCH   7   8
ATOM      8  C   UNL     1      -8.326 -14.705  -2.148  1.00  0.00    -0.034 C 
ATOM      9  C   UNL     1      -7.585 -13.683  -1.709  1.00  0.00     0.004 C 
ENDBRANCH   7   8
ENDBRANCH   1   7
TORSDOF 4
ENDMDL
