MODEL 1
REMARK VINA RESULT:    -4.280      0.000      0.000
REMARK INTER + INTRA:          -5.974
REMARK INTER:                  -5.782
REMARK INTRA:                  -0.192
REMARK UNBOUND:                -0.192
REMARK SMILES [NH3+]CCCC[C@@H]([NH3+])C(=O)[O-]
REMARK SMILES IDX 4 1 3 2 2 3 1 4 5 8 6 9 7 10 8 14 9 15 10 16
REMARK H PARENT 1 5 1 6 1 7 7 11 7 12 7 13
REMARK Flexibility Score: inf
ROOT
ATOM      1  C   UNL     1      18.749 -49.594  67.328  1.00  0.00     0.012 C 
ENDROOT
BRANCH   1   2
ATOM      2  C   UNL     1      19.185 -50.987  67.815  1.00  0.00     0.061 C 
BRANCH   2   3
ATOM      3  C   UNL     1      19.948 -50.931  69.149  1.00  0.00     0.258 C 
BRANCH   3   4
ATOM      4  N   UNL     1      19.304 -50.039  70.114  1.00  0.00    -0.358 N 
ATOM      5  H   UNL     1      19.887 -49.954  70.977  1.00  0.00     0.344 HD
ATOM      6  H   UNL     1      19.151 -49.094  69.692  1.00  0.00     0.344 HD
ATOM      7  H   UNL     1      18.377 -50.440  70.381  1.00  0.00     0.344 HD
ENDBRANCH   3   4
ENDBRANCH   2   3
ENDBRANCH   1   2
BRANCH   1   8
ATOM      8  C   UNL     1      19.673 -49.025  66.238  1.00  0.00     0.072 C 
BRANCH   8   9
ATOM      9  C   UNL     1      20.949 -48.327  66.768  1.00  0.00     0.227 C 
BRANCH   9  10
ATOM     10  N   UNL     1      22.167 -49.070  66.416  1.00  0.00    -0.350 N 
ATOM     11  H   UNL     1      22.150 -50.017  66.856  1.00  0.00     0.345 HD
ATOM     12  H   UNL     1      22.256 -49.169  65.377  1.00  0.00     0.345 HD
ATOM     13  H   UNL     1      23.010 -48.569  66.783  1.00  0.00     0.345 HD
ENDBRANCH   9  10
BRANCH   9  14
ATOM     14  C   UNL     1      21.017 -46.925  66.220  1.00  0.00     0.099 C 
ATOM     15  O   UNL     1      22.060 -46.512  65.651  1.00  0.00    -0.544 OA
ATOM     16  O   UNL     1      19.911 -46.090  66.316  1.00  0.00    -0.544 OA
ENDBRANCH   9  14
ENDBRANCH   8   9
ENDBRANCH   1   8
TORSDOF 7
ENDMDL
MODEL 2
REMARK VINA RESULT:    -4.215      2.388      2.716
REMARK INTER + INTRA:          -5.885
REMARK INTER:                  -5.402
REMARK INTRA:                  -0.483
REMARK UNBOUND:                -0.192
REMARK SMILES [NH3+]CCCC[C@@H]([NH3+])C(=O)[O-]
REMARK SMILES IDX 4 1 3 2 2 3 1 4 5 8 6 9 7 10 8 14 9 15 10 16
REMARK H PARENT 1 5 1 6 1 7 7 11 7 12 7 13
REMARK Flexibility Score: inf
ROOT
ATOM      1  C   UNL     1      19.832 -46.975  68.133  1.00  0.00     0.012 C 
ENDROOT
BRANCH   1   2
ATOM      2  C   UNL     1      19.700 -47.617  69.525  1.00  0.00     0.061 C 
BRANCH   2   3
ATOM      3  C   UNL     1      18.723 -48.804  69.534  1.00  0.00     0.258 C 
BRANCH   3   4
ATOM      4  N   UNL     1      19.361 -50.039  69.995  1.00  0.00    -0.358 N 
ATOM      5  H   UNL     1      18.673 -50.825  69.999  1.00  0.00     0.344 HD
ATOM      6  H   UNL     1      20.175 -50.280  69.382  1.00  0.00     0.344 HD
ATOM      7  H   UNL     1      19.707 -49.898  70.971  1.00  0.00     0.344 HD
ENDBRANCH   3   4
ENDBRANCH   2   3
ENDBRANCH   1   2
BRANCH   1   8
ATOM      8  C   UNL     1      19.835 -48.010  66.995  1.00  0.00     0.072 C 
BRANCH   8   9
ATOM      9  C   UNL     1      21.164 -48.106  66.208  1.00  0.00     0.227 C 
BRANCH   9  10
ATOM     10  N   UNL     1      21.945 -46.864  66.298  1.00  0.00    -0.350 N 
ATOM     11  H   UNL     1      21.321 -46.037  66.168  1.00  0.00     0.345 HD
ATOM     12  H   UNL     1      22.428 -46.794  67.223  1.00  0.00     0.345 HD
ATOM     13  H   UNL     1      22.663 -46.837  65.536  1.00  0.00     0.345 HD
ENDBRANCH   9  10
BRANCH   9  14
ATOM     14  C   UNL     1      21.970 -49.267  66.727  1.00  0.00     0.099 C 
ATOM     15  O   UNL     1      23.163 -49.431  66.359  1.00  0.00    -0.544 OA
ATOM     16  O   UNL     1      21.408 -50.148  67.642  1.00  0.00    -0.544 OA
ENDBRANCH   9  14
ENDBRANCH   8   9
ENDBRANCH   1   8
TORSDOF 7
ENDMDL
MODEL 3
REMARK VINA RESULT:    -4.094      8.119      9.484
REMARK INTER + INTRA:          -5.723
REMARK INTER:                  -5.507
REMARK INTRA:                  -0.216
REMARK UNBOUND:                -0.192
REMARK SMILES [NH3+]CCCC[C@@H]([NH3+])C(=O)[O-]
REMARK SMILES IDX 4 1 3 2 2 3 1 4 5 8 6 9 7 10 8 14 9 15 10 16
REMARK H PARENT 1 5 1 6 1 7 7 11 7 12 7 13
REMARK Flexibility Score: inf
ROOT
ATOM      1  C   UNL     1      12.653 -49.423  73.370  1.00  0.00     0.012 C 
ENDROOT
BRANCH   1   2
ATOM      2  C   UNL     1      14.090 -49.428  73.918  1.00  0.00     0.061 C 
BRANCH   2   3
ATOM      3  C   UNL     1      15.125 -49.010  72.860  1.00  0.00     0.258 C 
BRANCH   3   4
ATOM      4  N   UNL     1      16.410 -48.646  73.461  1.00  0.00    -0.358 N 
ATOM      5  H   UNL     1      16.368 -47.678  73.851  1.00  0.00     0.344 HD
ATOM      6  H   UNL     1      16.666 -49.325  74.215  1.00  0.00     0.344 HD
ATOM      7  H   UNL     1      17.149 -48.672  72.722  1.00  0.00     0.344 HD
ENDBRANCH   3   4
ENDBRANCH   2   3
ENDBRANCH   1   2
BRANCH   1   8
ATOM      8  C   UNL     1      12.507 -48.591  72.082  1.00  0.00     0.072 C 
BRANCH   8   9
ATOM      9  C   UNL     1      11.578 -47.360  72.207  1.00  0.00     0.227 C 
BRANCH   9  10
ATOM     10  N   UNL     1      11.118 -47.157  73.588  1.00  0.00    -0.350 N 
ATOM     11  H   UNL     1      10.660 -46.223  73.680  1.00  0.00     0.345 HD
ATOM     12  H   UNL     1      10.443 -47.906  73.869  1.00  0.00     0.345 HD
ATOM     13  H   UNL     1      11.934 -47.171  74.243  1.00  0.00     0.345 HD
ENDBRANCH   9  10
BRANCH   9  14
ATOM     14  C   UNL     1      12.302 -46.135  71.714  1.00  0.00     0.099 C 
ATOM     15  O   UNL     1      11.775 -44.996  71.819  1.00  0.00    -0.544 OA
ATOM     16  O   UNL     1      13.574 -46.253  71.168  1.00  0.00    -0.544 OA
ENDBRANCH   9  14
ENDBRANCH   8   9
ENDBRANCH   1   8
TORSDOF 7
ENDMDL
MODEL 4
REMARK VINA RESULT:    -4.094      7.833      8.910
REMARK INTER + INTRA:          -5.722
REMARK INTER:                  -5.573
REMARK INTRA:                  -0.149
REMARK UNBOUND:                -0.192
REMARK SMILES [NH3+]CCCC[C@@H]([NH3+])C(=O)[O-]
REMARK SMILES IDX 4 1 3 2 2 3 1 4 5 8 6 9 7 10 8 14 9 15 10 16
REMARK H PARENT 1 5 1 6 1 7 7 11 7 12 7 13
REMARK Flexibility Score: inf
ROOT
ATOM      1  C   UNL     1      12.732 -48.021  71.224  1.00  0.00     0.012 C 
ENDROOT
BRANCH   1   2
ATOM      2  C   UNL     1      11.841 -48.192  72.467  1.00  0.00     0.061 C 
BRANCH   2   3
ATOM      3  C   UNL     1      10.870 -47.015  72.660  1.00  0.00     0.258 C 
BRANCH   3   4
ATOM      4  N   UNL     1      10.294 -46.992  74.006  1.00  0.00    -0.358 N 
ATOM      5  H   UNL     1      10.035 -46.017  74.275  1.00  0.00     0.344 HD
ATOM      6  H   UNL     1       9.452 -47.612  74.053  1.00  0.00     0.344 HD
ATOM      7  H   UNL     1      11.007 -47.343  74.685  1.00  0.00     0.344 HD
ENDBRANCH   3   4
ENDBRANCH   2   3
ENDBRANCH   1   2
BRANCH   1   8
ATOM      8  C   UNL     1      14.171 -47.602  71.573  1.00  0.00     0.072 C 
BRANCH   8   9
ATOM      9  C   UNL     1      15.177 -48.771  71.692  1.00  0.00     0.227 C 
BRANCH   9  10
ATOM     10  N   UNL     1      16.266 -48.661  70.712  1.00  0.00    -0.350 N 
ATOM     11  H   UNL     1      15.954 -49.031  69.786  1.00  0.00     0.345 HD
ATOM     12  H   UNL     1      16.571 -47.666  70.604  1.00  0.00     0.345 HD
ATOM     13  H   UNL     1      17.084 -49.237  71.019  1.00  0.00     0.345 HD
ENDBRANCH   9  10
BRANCH   9  14
ATOM     14  C   UNL     1      15.736 -48.809  73.090  1.00  0.00     0.099 C 
ATOM     15  O   UNL     1      14.998 -49.106  74.066  1.00  0.00    -0.544 OA
ATOM     16  O   UNL     1      17.083 -48.546  73.305  1.00  0.00    -0.544 OA
ENDBRANCH   9  14
ENDBRANCH   8   9
ENDBRANCH   1   8
TORSDOF 7
ENDMDL
MODEL 5
REMARK VINA RESULT:    -4.078      5.553      6.733
REMARK INTER + INTRA:          -5.700
REMARK INTER:                  -5.130
REMARK INTRA:                  -0.570
REMARK UNBOUND:                -0.192
REMARK SMILES [NH3+]CCCC[C@@H]([NH3+])C(=O)[O-]
REMARK SMILES IDX 4 1 3 2 2 3 1 4 5 8 6 9 7 10 8 14 9 15 10 16
REMARK H PARENT 1 5 1 6 1 7 7 11 7 12 7 13
REMARK Flexibility Score: inf
ROOT
ATOM      1  C   UNL     1      17.528 -46.659  70.436  1.00  0.00     0.012 C 
ENDROOT
BRANCH   1   2
ATOM      2  C   UNL     1      18.941 -47.211  70.688  1.00  0.00     0.061 C 
BRANCH   2   3
ATOM      3  C   UNL     1      19.257 -48.437  69.815  1.00  0.00     0.258 C 
BRANCH   3   4
ATOM      4  N   UNL     1      18.909 -49.693  70.483  1.00  0.00    -0.358 N 
ATOM      5  H   UNL     1      18.392 -49.502  71.371  1.00  0.00     0.344 HD
ATOM      6  H   UNL     1      18.327 -50.292  69.853  1.00  0.00     0.344 HD
ATOM      7  H   UNL     1      19.788 -50.208  70.717  1.00  0.00     0.344 HD
ENDBRANCH   3   4
ENDBRANCH   2   3
ENDBRANCH   1   2
BRANCH   1   8
ATOM      8  C   UNL     1      16.639 -46.694  71.692  1.00  0.00     0.072 C 
BRANCH   8   9
ATOM      9  C   UNL     1      15.659 -47.889  71.761  1.00  0.00     0.227 C 
BRANCH   9  10
ATOM     10  N   UNL     1      15.620 -48.640  70.498  1.00  0.00    -0.350 N 
ATOM     11  H   UNL     1      14.819 -49.311  70.504  1.00  0.00     0.345 HD
ATOM     12  H   UNL     1      15.525 -47.992  69.682  1.00  0.00     0.345 HD
ATOM     13  H   UNL     1      16.497 -49.201  70.387  1.00  0.00     0.345 HD
ENDBRANCH   9  10
BRANCH   9  14
ATOM     14  C   UNL     1      16.057 -48.798  72.895  1.00  0.00     0.099 C 
ATOM     15  O   UNL     1      17.199 -49.327  72.919  1.00  0.00    -0.544 OA
ATOM     16  O   UNL     1      15.171 -49.033  73.939  1.00  0.00    -0.544 OA
ENDBRANCH   9  14
ENDBRANCH   8   9
ENDBRANCH   1   8
TORSDOF 7
ENDMDL
MODEL 6
REMARK VINA RESULT:    -4.077      7.370      8.340
REMARK INTER + INTRA:          -5.699
REMARK INTER:                  -5.595
REMARK INTRA:                  -0.104
REMARK UNBOUND:                -0.192
REMARK SMILES [NH3+]CCCC[C@@H]([NH3+])C(=O)[O-]
REMARK SMILES IDX 4 1 3 2 2 3 1 4 5 8 6 9 7 10 8 14 9 15 10 16
REMARK H PARENT 1 5 1 6 1 7 7 11 7 12 7 13
REMARK Flexibility Score: inf
ROOT
ATOM      1  C   UNL     1      13.297 -48.219  71.943  1.00  0.00     0.012 C 
ENDROOT
BRANCH   1   2
ATOM      2  C   UNL     1      11.996 -48.436  72.734  1.00  0.00     0.061 C 
BRANCH   2   3
ATOM      3  C   UNL     1      11.022 -47.254  72.599  1.00  0.00     0.258 C 
BRANCH   3   4
ATOM      4  N   UNL     1      10.354 -46.945  73.865  1.00  0.00    -0.358 N 
ATOM      5  H   UNL     1       9.715 -47.724  74.139  1.00  0.00     0.344 HD
ATOM      6  H   UNL     1      11.060 -46.779  74.619  1.00  0.00     0.344 HD
ATOM      7  H   UNL     1       9.783 -46.077  73.744  1.00  0.00     0.344 HD
ENDBRANCH   3   4
ENDBRANCH   2   3
ENDBRANCH   1   2
BRANCH   1   8
ATOM      8  C   UNL     1      14.542 -48.739  72.684  1.00  0.00     0.072 C 
BRANCH   8   9
ATOM      9  C   UNL     1      15.854 -48.685  71.865  1.00  0.00     0.227 C 
BRANCH   9  10
ATOM     10  N   UNL     1      15.602 -48.754  70.419  1.00  0.00    -0.350 N 
ATOM     11  H   UNL     1      15.702 -47.806  69.992  1.00  0.00     0.345 HD
ATOM     12  H   UNL     1      16.267 -49.417  69.956  1.00  0.00     0.345 HD
ATOM     13  H   UNL     1      14.622 -49.076  70.241  1.00  0.00     0.345 HD
ENDBRANCH   9  10
BRANCH   9  14
ATOM     14  C   UNL     1      16.603 -47.423  72.203  1.00  0.00     0.099 C 
ATOM     15  O   UNL     1      17.538 -47.442  73.046  1.00  0.00    -0.544 OA
ATOM     16  O   UNL     1      16.284 -46.234  71.560  1.00  0.00    -0.544 OA
ENDBRANCH   9  14
ENDBRANCH   8   9
ENDBRANCH   1   8
TORSDOF 7
ENDMDL
MODEL 7
REMARK VINA RESULT:    -4.076      2.310      2.453
REMARK INTER + INTRA:          -5.697
REMARK INTER:                  -5.610
REMARK INTRA:                  -0.087
REMARK UNBOUND:                -0.192
REMARK SMILES [NH3+]CCCC[C@@H]([NH3+])C(=O)[O-]
REMARK SMILES IDX 4 1 3 2 2 3 1 4 5 8 6 9 7 10 8 14 9 15 10 16
REMARK H PARENT 1 5 1 6 1 7 7 11 7 12 7 13
REMARK Flexibility Score: inf
ROOT
ATOM      1  C   UNL     1      19.352 -48.533  69.494  1.00  0.00     0.012 C 
ENDROOT
BRANCH   1   2
ATOM      2  C   UNL     1      19.282 -47.510  70.642  1.00  0.00     0.061 C 
BRANCH   2   3
ATOM      3  C   UNL     1      18.057 -47.726  71.547  1.00  0.00     0.258 C 
BRANCH   3   4
ATOM      4  N   UNL     1      17.798 -49.146  71.793  1.00  0.00    -0.358 N 
ATOM      5  H   UNL     1      18.626 -49.720  71.517  1.00  0.00     0.344 HD
ATOM      6  H   UNL     1      17.573 -49.307  72.802  1.00  0.00     0.344 HD
ATOM      7  H   UNL     1      16.981 -49.447  71.215  1.00  0.00     0.344 HD
ENDBRANCH   3   4
ENDBRANCH   2   3
ENDBRANCH   1   2
BRANCH   1   8
ATOM      8  C   UNL     1      19.300 -47.875  68.104  1.00  0.00     0.072 C 
BRANCH   8   9
ATOM      9  C   UNL     1      20.595 -48.018  67.270  1.00  0.00     0.227 C 
BRANCH   9  10
ATOM     10  N   UNL     1      20.589 -49.237  66.449  1.00  0.00    -0.350 N 
ATOM     11  H   UNL     1      20.642 -48.988  65.436  1.00  0.00     0.345 HD
ATOM     12  H   UNL     1      21.393 -49.858  66.698  1.00  0.00     0.345 HD
ATOM     13  H   UNL     1      19.695 -49.762  66.595  1.00  0.00     0.345 HD
ENDBRANCH   9  10
BRANCH   9  14
ATOM     14  C   UNL     1      20.764 -46.802  66.396  1.00  0.00     0.099 C 
ATOM     15  O   UNL     1      21.692 -46.751  65.546  1.00  0.00    -0.544 OA
ATOM     16  O   UNL     1      19.873 -45.742  66.503  1.00  0.00    -0.544 OA
ENDBRANCH   9  14
ENDBRANCH   8   9
ENDBRANCH   1   8
TORSDOF 7
ENDMDL
MODEL 8
REMARK VINA RESULT:    -4.058      2.016      2.317
REMARK INTER + INTRA:          -5.674
REMARK INTER:                  -5.487
REMARK INTRA:                  -0.186
REMARK UNBOUND:                -0.192
REMARK SMILES [NH3+]CCCC[C@@H]([NH3+])C(=O)[O-]
REMARK SMILES IDX 4 1 3 2 2 3 1 4 5 8 6 9 7 10 8 14 9 15 10 16
REMARK H PARENT 1 5 1 6 1 7 7 11 7 12 7 13
REMARK Flexibility Score: inf
ROOT
ATOM      1  C   UNL     1      19.160 -48.777  68.995  1.00  0.00     0.012 C 
ENDROOT
BRANCH   1   2
ATOM      2  C   UNL     1      19.820 -50.165  69.040  1.00  0.00     0.061 C 
BRANCH   2   3
ATOM      3  C   UNL     1      19.451 -51.031  67.823  1.00  0.00     0.258 C 
BRANCH   3   4
ATOM      4  N   UNL     1      18.192 -51.752  68.022  1.00  0.00    -0.358 N 
ATOM      5  H   UNL     1      17.763 -51.996  67.101  1.00  0.00     0.344 HD
ATOM      6  H   UNL     1      18.353 -52.620  68.583  1.00  0.00     0.344 HD
ATOM      7  H   UNL     1      17.527 -51.135  68.542  1.00  0.00     0.344 HD
ENDBRANCH   3   4
ENDBRANCH   2   3
ENDBRANCH   1   2
BRANCH   1   8
ATOM      8  C   UNL     1      20.088 -47.692  68.419  1.00  0.00     0.072 C 
BRANCH   8   9
ATOM      9  C   UNL     1      19.950 -47.463  66.895  1.00  0.00     0.227 C 
BRANCH   9  10
ATOM     10  N   UNL     1      19.275 -46.194  66.589  1.00  0.00    -0.350 N 
ATOM     11  H   UNL     1      18.907 -45.763  67.466  1.00  0.00     0.345 HD
ATOM     12  H   UNL     1      19.931 -45.526  66.121  1.00  0.00     0.345 HD
ATOM     13  H   UNL     1      18.458 -46.367  65.958  1.00  0.00     0.345 HD
ENDBRANCH   9  10
BRANCH   9  14
ATOM     14  C   UNL     1      21.316 -47.493  66.259  1.00  0.00     0.099 C 
ATOM     15  O   UNL     1      21.687 -46.560  65.499  1.00  0.00    -0.544 OA
ATOM     16  O   UNL     1      22.187 -48.539  66.536  1.00  0.00    -0.544 OA
ENDBRANCH   9  14
ENDBRANCH   8   9
ENDBRANCH   1   8
TORSDOF 7
ENDMDL
MODEL 9
REMARK VINA RESULT:    -3.993      8.117      9.546
REMARK INTER + INTRA:          -5.585
REMARK INTER:                  -5.398
REMARK INTRA:                  -0.187
REMARK UNBOUND:                -0.192
REMARK SMILES [NH3+]CCCC[C@@H]([NH3+])C(=O)[O-]
REMARK SMILES IDX 4 1 3 2 2 3 1 4 5 8 6 9 7 10 8 14 9 15 10 16
REMARK H PARENT 1 5 1 6 1 7 7 11 7 12 7 13
REMARK Flexibility Score: inf
ROOT
ATOM      1  C   UNL     1      13.937 -47.726  71.611  1.00  0.00     0.012 C 
ENDROOT
BRANCH   1   2
ATOM      2  C   UNL     1      15.172 -48.610  71.368  1.00  0.00     0.061 C 
BRANCH   2   3
ATOM      3  C   UNL     1      15.849 -49.047  72.678  1.00  0.00     0.258 C 
BRANCH   3   4
ATOM      4  N   UNL     1      17.256 -49.404  72.477  1.00  0.00    -0.358 N 
ATOM      5  H   UNL     1      17.700 -49.657  73.388  1.00  0.00     0.344 HD
ATOM      6  H   UNL     1      17.337 -50.201  71.806  1.00  0.00     0.344 HD
ATOM      7  H   UNL     1      17.761 -48.579  72.081  1.00  0.00     0.344 HD
ENDBRANCH   3   4
ENDBRANCH   2   3
ENDBRANCH   1   2
BRANCH   1   8
ATOM      8  C   UNL     1      12.631 -48.374  71.115  1.00  0.00     0.072 C 
BRANCH   8   9
ATOM      9  C   UNL     1      11.539 -48.543  72.198  1.00  0.00     0.227 C 
BRANCH   9  10
ATOM     10  N   UNL     1      12.013 -49.346  73.334  1.00  0.00    -0.350 N 
ATOM     11  H   UNL     1      11.662 -50.327  73.251  1.00  0.00     0.345 HD
ATOM     12  H   UNL     1      13.058 -49.352  73.375  1.00  0.00     0.345 HD
ATOM     13  H   UNL     1      11.638 -48.955  74.229  1.00  0.00     0.345 HD
ENDBRANCH   9  10
BRANCH   9  14
ATOM     14  C   UNL     1      11.089 -47.186  72.671  1.00  0.00     0.099 C 
ATOM     15  O   UNL     1      10.689 -46.322  71.847  1.00  0.00    -0.544 OA
ATOM     16  O   UNL     1      11.084 -46.891  74.029  1.00  0.00    -0.544 OA
ENDBRANCH   9  14
ENDBRANCH   8   9
ENDBRANCH   1   8
TORSDOF 7
ENDMDL
