MODEL 1
REMARK VINA RESULT:    -3.921      0.000      0.000
REMARK INTER + INTRA:          -4.840
REMARK INTER:                  -4.723
REMARK INTRA:                  -0.117
REMARK UNBOUND:                -0.117
REMARK SMILES NC(=O)C[C@H]([NH3+])C(=O)[O-]
REMARK SMILES IDX 4 1 5 2 6 3 7 7 8 8 9 9 2 10 3 11 1 12
REMARK H PARENT 6 4 6 5 6 6 1 13 1 14
REMARK Flexibility Score: inf
ROOT
ATOM      1  C   UNL     1    -477.074 293.877   0.980  1.00  0.00     0.171 C 
ENDROOT
BRANCH   1   2
ATOM      2  C   UNL     1    -476.504 294.735  -0.168  1.00  0.00     0.237 C 
BRANCH   2   3
ATOM      3  N   UNL     1    -475.940 295.986   0.356  1.00  0.00    -0.350 N 
ATOM      4  H   UNL     1    -475.841 295.924   1.395  1.00  0.00     0.345 HD
ATOM      5  H   UNL     1    -475.002 296.175  -0.069  1.00  0.00     0.345 HD
ATOM      6  H   UNL     1    -476.581 296.782   0.135  1.00  0.00     0.345 HD
ENDBRANCH   2   3
BRANCH   2   7
ATOM      7  C   UNL     1    -477.561 295.032  -1.200  1.00  0.00     0.100 C 
ATOM      8  O   UNL     1    -477.966 294.129  -1.980  1.00  0.00    -0.544 OA
ATOM      9  O   UNL     1    -478.081 296.316  -1.311  1.00  0.00    -0.544 OA
ENDBRANCH   2   7
ENDBRANCH   1   2
BRANCH   1  10
ATOM     10  C   UNL     1    -476.716 292.428   0.818  1.00  0.00     0.223 C 
ATOM     11  O   UNL     1    -477.477 291.664   0.168  1.00  0.00    -0.275 OA
ATOM     12  N   UNL     1    -475.538 291.900   1.429  1.00  0.00    -0.369 N 
ATOM     13  H   UNL     1    -474.906 292.515   1.987  1.00  0.00     0.159 HD
ATOM     14  H   UNL     1    -475.301 290.889   1.327  1.00  0.00     0.159 HD
ENDBRANCH   1  10
TORSDOF 4
ENDMDL
MODEL 2
REMARK VINA RESULT:    -3.910      1.167      1.589
REMARK INTER + INTRA:          -4.827
REMARK INTER:                  -4.557
REMARK INTRA:                  -0.270
REMARK UNBOUND:                -0.117
REMARK SMILES NC(=O)C[C@H]([NH3+])C(=O)[O-]
REMARK SMILES IDX 4 1 5 2 6 3 7 7 8 8 9 9 2 10 3 11 1 12
REMARK H PARENT 6 4 6 5 6 6 1 13 1 14
REMARK Flexibility Score: inf
ROOT
ATOM      1  C   UNL     1    -477.300 294.024   0.861  1.00  0.00     0.171 C 
ENDROOT
BRANCH   1   2
ATOM      2  C   UNL     1    -476.644 294.815  -0.288  1.00  0.00     0.237 C 
BRANCH   2   3
ATOM      3  N   UNL     1    -476.033 296.050   0.220  1.00  0.00    -0.350 N 
ATOM      4  H   UNL     1    -476.487 296.327   1.120  1.00  0.00     0.345 HD
ATOM      5  H   UNL     1    -475.007 295.917   0.378  1.00  0.00     0.345 HD
ATOM      6  H   UNL     1    -476.174 296.823  -0.469  1.00  0.00     0.345 HD
ENDBRANCH   2   3
BRANCH   2   7
ATOM      7  C   UNL     1    -477.645 295.136  -1.368  1.00  0.00     0.100 C 
ATOM      8  O   UNL     1    -478.106 296.303  -1.487  1.00  0.00    -0.544 OA
ATOM      9  O   UNL     1    -478.082 294.136  -2.228  1.00  0.00    -0.544 OA
ENDBRANCH   2   7
ENDBRANCH   1   2
BRANCH   1  10
ATOM     10  C   UNL     1    -477.144 292.542   0.672  1.00  0.00     0.223 C 
ATOM     11  O   UNL     1    -476.124 291.958   1.124  1.00  0.00    -0.275 OA
ATOM     12  N   UNL     1    -478.124 291.797  -0.050  1.00  0.00    -0.369 N 
ATOM     13  H   UNL     1    -478.966 292.268  -0.448  1.00  0.00     0.159 HD
ATOM     14  H   UNL     1    -478.005 290.769  -0.193  1.00  0.00     0.159 HD
ENDBRANCH   1  10
TORSDOF 4
ENDMDL
MODEL 3
REMARK VINA RESULT:    -3.870      1.622      3.878
REMARK INTER + INTRA:          -4.779
REMARK INTER:                  -4.541
REMARK INTRA:                  -0.238
REMARK UNBOUND:                -0.117
REMARK SMILES NC(=O)C[C@H]([NH3+])C(=O)[O-]
REMARK SMILES IDX 4 1 5 2 6 3 7 7 8 8 9 9 2 10 3 11 1 12
REMARK H PARENT 6 4 6 5 6 6 1 13 1 14
REMARK Flexibility Score: inf
ROOT
ATOM      1  C   UNL     1    -477.730 294.280  -1.453  1.00  0.00     0.171 C 
ENDROOT
BRANCH   1   2
ATOM      2  C   UNL     1    -477.253 294.355   0.012  1.00  0.00     0.237 C 
BRANCH   2   3
ATOM      3  N   UNL     1    -475.985 295.090   0.103  1.00  0.00    -0.350 N 
ATOM      4  H   UNL     1    -476.063 295.846   0.821  1.00  0.00     0.345 HD
ATOM      5  H   UNL     1    -475.202 294.446   0.363  1.00  0.00     0.345 HD
ATOM      6  H   UNL     1    -475.768 295.536  -0.818  1.00  0.00     0.345 HD
ENDBRANCH   2   3
BRANCH   2   7
ATOM      7  C   UNL     1    -477.100 292.978   0.604  1.00  0.00     0.100 C 
ATOM      8  O   UNL     1    -476.155 292.724   1.398  1.00  0.00    -0.544 OA
ATOM      9  O   UNL     1    -477.994 291.971   0.260  1.00  0.00    -0.544 OA
ENDBRANCH   2   7
ENDBRANCH   1   2
BRANCH   1  10
ATOM     10  C   UNL     1    -477.197 295.424  -2.267  1.00  0.00     0.223 C 
ATOM     11  O   UNL     1    -477.646 296.586  -2.083  1.00  0.00    -0.275 OA
ATOM     12  N   UNL     1    -476.212 295.197  -3.276  1.00  0.00    -0.369 N 
ATOM     13  H   UNL     1    -475.843 294.238  -3.456  1.00  0.00     0.159 HD
ATOM     14  H   UNL     1    -475.855 295.993  -3.851  1.00  0.00     0.159 HD
ENDBRANCH   1  10
TORSDOF 4
ENDMDL
MODEL 4
REMARK VINA RESULT:    -3.594      9.663     11.174
REMARK INTER + INTRA:          -4.446
REMARK INTER:                  -4.210
REMARK INTRA:                  -0.237
REMARK UNBOUND:                -0.117
REMARK SMILES NC(=O)C[C@H]([NH3+])C(=O)[O-]
REMARK SMILES IDX 4 1 5 2 6 3 7 7 8 8 9 9 2 10 3 11 1 12
REMARK H PARENT 6 4 6 5 6 6 1 13 1 14
REMARK Flexibility Score: inf
ROOT
ATOM      1  C   UNL     1    -476.343 283.792  -1.175  1.00  0.00     0.171 C 
ENDROOT
BRANCH   1   2
ATOM      2  C   UNL     1    -475.030 283.773  -1.985  1.00  0.00     0.237 C 
BRANCH   2   3
ATOM      3  N   UNL     1    -475.278 284.174  -3.376  1.00  0.00    -0.350 N 
ATOM      4  H   UNL     1    -475.039 283.387  -4.020  1.00  0.00     0.345 HD
ATOM      5  H   UNL     1    -476.281 284.439  -3.511  1.00  0.00     0.345 HD
ATOM      6  H   UNL     1    -474.673 284.991  -3.621  1.00  0.00     0.345 HD
ENDBRANCH   2   3
BRANCH   2   7
ATOM      7  C   UNL     1    -474.386 282.412  -1.942  1.00  0.00     0.100 C 
ATOM      8  O   UNL     1    -473.762 282.031  -0.916  1.00  0.00    -0.544 OA
ATOM      9  O   UNL     1    -474.459 281.574  -3.049  1.00  0.00    -0.544 OA
ENDBRANCH   2   7
ENDBRANCH   1   2
BRANCH   1  10
ATOM     10  C   UNL     1    -476.147 284.404   0.182  1.00  0.00     0.223 C 
ATOM     11  O   UNL     1    -476.935 285.301   0.583  1.00  0.00    -0.275 OA
ATOM     12  N   UNL     1    -475.051 284.005   1.005  1.00  0.00    -0.369 N 
ATOM     13  H   UNL     1    -474.378 283.277   0.681  1.00  0.00     0.159 HD
ATOM     14  H   UNL     1    -474.910 284.445   1.942  1.00  0.00     0.159 HD
ENDBRANCH   1  10
TORSDOF 4
ENDMDL
MODEL 5
REMARK VINA RESULT:    -3.585      1.723      3.764
REMARK INTER + INTRA:          -4.436
REMARK INTER:                  -4.203
REMARK INTRA:                  -0.233
REMARK UNBOUND:                -0.117
REMARK SMILES NC(=O)C[C@H]([NH3+])C(=O)[O-]
REMARK SMILES IDX 4 1 5 2 6 3 7 7 8 8 9 9 2 10 3 11 1 12
REMARK H PARENT 6 4 6 5 6 6 1 13 1 14
REMARK Flexibility Score: inf
ROOT
ATOM      1  C   UNL     1    -478.079 294.682  -1.020  1.00  0.00     0.171 C 
ENDROOT
BRANCH   1   2
ATOM      2  C   UNL     1    -477.167 294.504   0.211  1.00  0.00     0.237 C 
BRANCH   2   3
ATOM      3  N   UNL     1    -475.833 295.060  -0.053  1.00  0.00    -0.350 N 
ATOM      4  H   UNL     1    -475.736 295.285  -1.069  1.00  0.00     0.345 HD
ATOM      5  H   UNL     1    -475.678 295.930   0.509  1.00  0.00     0.345 HD
ATOM      6  H   UNL     1    -475.101 294.356   0.198  1.00  0.00     0.345 HD
ENDBRANCH   2   3
BRANCH   2   7
ATOM      7  C   UNL     1    -477.058 293.053   0.600  1.00  0.00     0.100 C 
ATOM      8  O   UNL     1    -477.973 292.239   0.303  1.00  0.00    -0.544 OA
ATOM      9  O   UNL     1    -475.950 292.606   1.310  1.00  0.00    -0.544 OA
ENDBRANCH   2   7
ENDBRANCH   1   2
BRANCH   1  10
ATOM     10  C   UNL     1    -477.357 295.357  -2.151  1.00  0.00     0.223 C 
ATOM     11  O   UNL     1    -476.614 294.680  -2.910  1.00  0.00    -0.275 OA
ATOM     12  N   UNL     1    -477.475 296.766  -2.348  1.00  0.00    -0.369 N 
ATOM     13  H   UNL     1    -478.071 297.345  -1.717  1.00  0.00     0.159 HD
ATOM     14  H   UNL     1    -476.959 297.233  -3.127  1.00  0.00     0.159 HD
ENDBRANCH   1  10
TORSDOF 4
ENDMDL
MODEL 6
REMARK VINA RESULT:    -3.576      2.495      3.582
REMARK INTER + INTRA:          -4.425
REMARK INTER:                  -4.141
REMARK INTRA:                  -0.284
REMARK UNBOUND:                -0.117
REMARK SMILES NC(=O)C[C@H]([NH3+])C(=O)[O-]
REMARK SMILES IDX 4 1 5 2 6 3 7 7 8 8 9 9 2 10 3 11 1 12
REMARK H PARENT 6 4 6 5 6 6 1 13 1 14
REMARK Flexibility Score: inf
ROOT
ATOM      1  C   UNL     1    -477.909 296.066  -1.635  1.00  0.00     0.171 C 
ENDROOT
BRANCH   1   2
ATOM      2  C   UNL     1    -477.641 295.434  -3.016  1.00  0.00     0.237 C 
BRANCH   2   3
ATOM      3  N   UNL     1    -476.242 294.998  -3.120  1.00  0.00    -0.350 N 
ATOM      4  H   UNL     1    -475.605 295.774  -2.825  1.00  0.00     0.345 HD
ATOM      5  H   UNL     1    -476.070 294.161  -2.516  1.00  0.00     0.345 HD
ATOM      6  H   UNL     1    -476.021 294.754  -4.113  1.00  0.00     0.345 HD
ENDBRANCH   2   3
BRANCH   2   7
ATOM      7  C   UNL     1    -477.970 296.398  -4.127  1.00  0.00     0.100 C 
ATOM      8  O   UNL     1    -478.125 297.625  -3.885  1.00  0.00    -0.544 OA
ATOM      9  O   UNL     1    -478.124 295.931  -5.427  1.00  0.00    -0.544 OA
ENDBRANCH   2   7
ENDBRANCH   1   2
BRANCH   1  10
ATOM     10  C   UNL     1    -477.137 295.371  -0.550  1.00  0.00     0.223 C 
ATOM     11  O   UNL     1    -477.346 294.151  -0.317  1.00  0.00    -0.275 OA
ATOM     12  N   UNL     1    -476.197 296.093   0.246  1.00  0.00    -0.369 N 
ATOM     13  H   UNL     1    -476.026 297.109   0.080  1.00  0.00     0.159 HD
ATOM     14  H   UNL     1    -475.674 295.609   1.010  1.00  0.00     0.159 HD
ENDBRANCH   1  10
TORSDOF 4
ENDMDL
MODEL 7
REMARK VINA RESULT:    -3.363      2.227      2.978
REMARK INTER + INTRA:          -4.169
REMARK INTER:                  -4.086
REMARK INTRA:                  -0.083
REMARK UNBOUND:                -0.117
REMARK SMILES NC(=O)C[C@H]([NH3+])C(=O)[O-]
REMARK SMILES IDX 4 1 5 2 6 3 7 7 8 8 9 9 2 10 3 11 1 12
REMARK H PARENT 6 4 6 5 6 6 1 13 1 14
REMARK Flexibility Score: inf
ROOT
ATOM      1  C   UNL     1    -477.877 295.072  -1.297  1.00  0.00     0.171 C 
ENDROOT
BRANCH   1   2
ATOM      2  C   UNL     1    -477.124 295.170  -2.640  1.00  0.00     0.237 C 
BRANCH   2   3
ATOM      3  N   UNL     1    -476.989 296.572  -3.053  1.00  0.00    -0.350 N 
ATOM      4  H   UNL     1    -477.889 297.080  -2.890  1.00  0.00     0.345 HD
ATOM      5  H   UNL     1    -476.224 297.044  -2.517  1.00  0.00     0.345 HD
ATOM      6  H   UNL     1    -476.769 296.620  -4.075  1.00  0.00     0.345 HD
ENDBRANCH   2   3
BRANCH   2   7
ATOM      7  C   UNL     1    -477.823 294.376  -3.713  1.00  0.00     0.100 C 
ATOM      8  O   UNL     1    -478.122 293.166  -3.523  1.00  0.00    -0.544 OA
ATOM      9  O   UNL     1    -478.125 294.971  -4.932  1.00  0.00    -0.544 OA
ENDBRANCH   2   7
ENDBRANCH   1   2
BRANCH   1  10
ATOM     10  C   UNL     1    -476.939 294.801  -0.156  1.00  0.00     0.223 C 
ATOM     11  O   UNL     1    -477.061 293.742   0.515  1.00  0.00    -0.275 OA
ATOM     12  N   UNL     1    -475.935 295.752   0.198  1.00  0.00    -0.369 N 
ATOM     13  H   UNL     1    -475.833 296.643  -0.335  1.00  0.00     0.159 HD
ATOM     14  H   UNL     1    -475.295 295.566   1.002  1.00  0.00     0.159 HD
ENDBRANCH   1  10
TORSDOF 4
ENDMDL
MODEL 8
REMARK VINA RESULT:    -3.307      3.658      4.898
REMARK INTER + INTRA:          -4.101
REMARK INTER:                  -3.769
REMARK INTRA:                  -0.332
REMARK UNBOUND:                -0.117
REMARK SMILES NC(=O)C[C@H]([NH3+])C(=O)[O-]
REMARK SMILES IDX 4 1 5 2 6 3 7 7 8 8 9 9 2 10 3 11 1 12
REMARK H PARENT 6 4 6 5 6 6 1 13 1 14
REMARK Flexibility Score: inf
ROOT
ATOM      1  C   UNL     1    -477.897 295.879  -4.002  1.00  0.00     0.171 C 
ENDROOT
BRANCH   1   2
ATOM      2  C   UNL     1    -476.613 296.101  -4.827  1.00  0.00     0.237 C 
BRANCH   2   3
ATOM      3  N   UNL     1    -475.474 295.415  -4.202  1.00  0.00    -0.350 N 
ATOM      4  H   UNL     1    -475.774 294.477  -3.851  1.00  0.00     0.345 HD
ATOM      5  H   UNL     1    -474.694 295.293  -4.889  1.00  0.00     0.345 HD
ATOM      6  H   UNL     1    -475.129 295.973  -3.388  1.00  0.00     0.345 HD
ENDBRANCH   2   3
BRANCH   2   7
ATOM      7  C   UNL     1    -476.314 297.570  -4.981  1.00  0.00     0.100 C 
ATOM      8  O   UNL     1    -475.141 297.963  -5.221  1.00  0.00    -0.544 OA
ATOM      9  O   UNL     1    -477.332 298.505  -4.837  1.00  0.00    -0.544 OA
ENDBRANCH   2   7
ENDBRANCH   1   2
BRANCH   1  10
ATOM     10  C   UNL     1    -477.584 295.501  -2.583  1.00  0.00     0.223 C 
ATOM     11  O   UNL     1    -477.551 294.286  -2.252  1.00  0.00    -0.275 OA
ATOM     12  N   UNL     1    -477.361 296.510  -1.597  1.00  0.00    -0.369 N 
ATOM     13  H   UNL     1    -477.404 297.522  -1.851  1.00  0.00     0.159 HD
ATOM     14  H   UNL     1    -477.159 296.243  -0.608  1.00  0.00     0.159 HD
ENDBRANCH   1  10
TORSDOF 4
ENDMDL
MODEL 9
REMARK VINA RESULT:    -3.212      9.533     10.753
REMARK INTER + INTRA:          -3.986
REMARK INTER:                  -3.689
REMARK INTRA:                  -0.297
REMARK UNBOUND:                -0.117
REMARK SMILES NC(=O)C[C@H]([NH3+])C(=O)[O-]
REMARK SMILES IDX 4 1 5 2 6 3 7 7 8 8 9 9 2 10 3 11 1 12
REMARK H PARENT 6 4 6 5 6 6 1 13 1 14
REMARK Flexibility Score: inf
ROOT
ATOM      1  C   UNL     1    -475.207 284.088  -1.826  1.00  0.00     0.171 C 
ENDROOT
BRANCH   1   2
ATOM      2  C   UNL     1    -476.572 283.969  -1.117  1.00  0.00     0.237 C 
BRANCH   2   3
ATOM      3  N   UNL     1    -477.603 284.704  -1.861  1.00  0.00    -0.350 N 
ATOM      4  H   UNL     1    -477.155 285.410  -2.488  1.00  0.00     0.345 HD
ATOM      5  H   UNL     1    -478.182 284.049  -2.436  1.00  0.00     0.345 HD
ATOM      6  H   UNL     1    -478.227 285.211  -1.191  1.00  0.00     0.345 HD
ENDBRANCH   2   3
BRANCH   2   7
ATOM      7  C   UNL     1    -476.494 284.473   0.301  1.00  0.00     0.100 C 
ATOM      8  O   UNL     1    -477.153 285.486   0.657  1.00  0.00    -0.544 OA
ATOM      9  O   UNL     1    -475.674 283.832   1.221  1.00  0.00    -0.544 OA
ENDBRANCH   2   7
ENDBRANCH   1   2
BRANCH   1  10
ATOM     10  C   UNL     1    -474.497 282.766  -1.885  1.00  0.00     0.223 C 
ATOM     11  O   UNL     1    -474.542 282.079  -2.939  1.00  0.00    -0.275 OA
ATOM     12  N   UNL     1    -473.805 282.264  -0.742  1.00  0.00    -0.369 N 
ATOM     13  H   UNL     1    -473.774 282.811   0.146  1.00  0.00     0.159 HD
ATOM     14  H   UNL     1    -473.326 281.337  -0.782  1.00  0.00     0.159 HD
ENDBRANCH   1  10
TORSDOF 4
ENDMDL
