MODEL 1
REMARK VINA RESULT:    -3.279      0.000      0.000
REMARK INTER + INTRA:          -3.995
REMARK INTER:                  -3.854
REMARK INTRA:                  -0.141
REMARK UNBOUND:                -0.141
REMARK SMILES CCCCC(=O)[O-]
REMARK SMILES IDX 4 1 5 2 6 3 7 4 3 5 2 6 1 7
REMARK H PARENT
REMARK Flexibility Score: inf
ROOT
ATOM      1  C   UNL     1      99.472  91.275  85.391  1.00  0.00     0.053 C 
ENDROOT
BRANCH   1   2
ATOM      2  C   UNL     1     100.553  91.741  86.317  1.00  0.00     0.041 C 
ATOM      3  O   UNL     1     100.265  92.138  87.477  1.00  0.00    -0.550 OA
ATOM      4  O   UNL     1     101.883  91.706  85.915  1.00  0.00    -0.550 OA
ENDBRANCH   1   2
BRANCH   1   5
ATOM      5  C   UNL     1      99.624  89.792  85.007  1.00  0.00     0.006 C 
BRANCH   5   6
ATOM      6  C   UNL     1      99.680  88.839  86.213  1.00  0.00    -0.003 C 
ATOM      7  C   UNL     1     100.961  88.007  86.264  1.00  0.00     0.004 C 
ENDBRANCH   5   6
ENDBRANCH   1   5
TORSDOF 3
ENDMDL
MODEL 2
REMARK VINA RESULT:    -3.236      1.600      2.109
REMARK INTER + INTRA:          -3.945
REMARK INTER:                  -3.890
REMARK INTRA:                  -0.054
REMARK UNBOUND:                -0.141
REMARK SMILES CCCCC(=O)[O-]
REMARK SMILES IDX 4 1 5 2 6 3 7 4 3 5 2 6 1 7
REMARK H PARENT
REMARK Flexibility Score: inf
ROOT
ATOM      1  C   UNL     1      99.897  92.057  86.207  1.00  0.00     0.053 C 
ENDROOT
BRANCH   1   2
ATOM      2  C   UNL     1      99.202  92.396  87.490  1.00  0.00     0.041 C 
ATOM      3  O   UNL     1      97.951  92.533  87.515  1.00  0.00    -0.550 OA
ATOM      4  O   UNL     1      99.929  92.526  88.667  1.00  0.00    -0.550 OA
ENDBRANCH   1   2
BRANCH   1   5
ATOM      5  C   UNL     1      98.958  91.392  85.185  1.00  0.00     0.006 C 
BRANCH   5   6
ATOM      6  C   UNL     1      99.311  89.927  84.875  1.00  0.00    -0.003 C 
ATOM      7  C   UNL     1     100.348  89.342  85.831  1.00  0.00     0.004 C 
ENDBRANCH   5   6
ENDBRANCH   1   5
TORSDOF 3
ENDMDL
MODEL 3
REMARK VINA RESULT:    -3.131      2.224      3.166
REMARK INTER + INTRA:          -3.821
REMARK INTER:                  -3.689
REMARK INTRA:                  -0.133
REMARK UNBOUND:                -0.141
REMARK SMILES CCCCC(=O)[O-]
REMARK SMILES IDX 4 1 5 2 6 3 7 4 3 5 2 6 1 7
REMARK H PARENT
REMARK Flexibility Score: inf
ROOT
ATOM      1  C   UNL     1      99.631  89.513  85.216  1.00  0.00     0.053 C 
ENDROOT
BRANCH   1   2
ATOM      2  C   UNL     1      99.869  88.540  86.330  1.00  0.00     0.041 C 
ATOM      3  O   UNL     1      98.923  88.204  87.089  1.00  0.00    -0.550 OA
ATOM      4  O   UNL     1     101.127  87.977  86.510  1.00  0.00    -0.550 OA
ENDBRANCH   1   2
BRANCH   1   5
ATOM      5  C   UNL     1      99.361  90.939  85.726  1.00  0.00     0.006 C 
BRANCH   5   6
ATOM      6  C   UNL     1     100.441  91.475  86.682  1.00  0.00    -0.003 C 
ATOM      7  C   UNL     1     101.790  91.700  86.001  1.00  0.00     0.004 C 
ENDBRANCH   5   6
ENDBRANCH   1   5
TORSDOF 3
ENDMDL
MODEL 4
REMARK VINA RESULT:    -3.118      2.005      2.956
REMARK INTER + INTRA:          -3.806
REMARK INTER:                  -3.672
REMARK INTRA:                  -0.134
REMARK UNBOUND:                -0.141
REMARK SMILES CCCCC(=O)[O-]
REMARK SMILES IDX 4 1 5 2 6 3 7 4 3 5 2 6 1 7
REMARK H PARENT
REMARK Flexibility Score: inf
ROOT
ATOM      1  C   UNL     1      99.712  91.781  85.656  1.00  0.00     0.053 C 
ENDROOT
BRANCH   1   2
ATOM      2  C   UNL     1     101.013  91.132  86.016  1.00  0.00     0.041 C 
ATOM      3  O   UNL     1     102.085  91.789  85.959  1.00  0.00    -0.550 OA
ATOM      4  O   UNL     1     101.041  89.811  86.446  1.00  0.00    -0.550 OA
ENDBRANCH   1   2
BRANCH   1   5
ATOM      5  C   UNL     1      98.746  91.866  86.850  1.00  0.00     0.006 C 
BRANCH   5   6
ATOM      6  C   UNL     1      99.380  92.446  88.126  1.00  0.00    -0.003 C 
ATOM      7  C   UNL     1      99.270  91.514  89.332  1.00  0.00     0.004 C 
ENDBRANCH   5   6
ENDBRANCH   1   5
TORSDOF 3
ENDMDL
MODEL 5
REMARK VINA RESULT:    -3.112      1.221      1.417
REMARK INTER + INTRA:          -3.799
REMARK INTER:                  -3.716
REMARK INTRA:                  -0.083
REMARK UNBOUND:                -0.141
REMARK SMILES CCCCC(=O)[O-]
REMARK SMILES IDX 4 1 5 2 6 3 7 4 3 5 2 6 1 7
REMARK H PARENT
REMARK Flexibility Score: inf
ROOT
ATOM      1  C   UNL     1      98.525  90.489  85.626  1.00  0.00     0.053 C 
ENDROOT
BRANCH   1   2
ATOM      2  C   UNL     1      99.067  91.665  86.379  1.00  0.00     0.041 C 
ATOM      3  O   UNL     1      98.413  92.160  87.335  1.00  0.00    -0.550 OA
ATOM      4  O   UNL     1     100.308  92.196  86.049  1.00  0.00    -0.550 OA
ENDBRANCH   1   2
BRANCH   1   5
ATOM      5  C   UNL     1      99.637  89.566  85.097  1.00  0.00     0.006 C 
BRANCH   5   6
ATOM      6  C   UNL     1     100.277  88.677  86.176  1.00  0.00    -0.003 C 
ATOM      7  C   UNL     1      99.255  88.044  87.120  1.00  0.00     0.004 C 
ENDBRANCH   5   6
ENDBRANCH   1   5
TORSDOF 3
ENDMDL
MODEL 6
REMARK VINA RESULT:    -2.991      1.998      3.151
REMARK INTER + INTRA:          -3.656
REMARK INTER:                  -3.556
REMARK INTRA:                  -0.100
REMARK UNBOUND:                -0.141
REMARK SMILES CCCCC(=O)[O-]
REMARK SMILES IDX 4 1 5 2 6 3 7 4 3 5 2 6 1 7
REMARK H PARENT
REMARK Flexibility Score: inf
ROOT
ATOM      1  C   UNL     1      99.262  88.795  87.204  1.00  0.00     0.053 C 
ENDROOT
BRANCH   1   2
ATOM      2  C   UNL     1      99.667  89.429  88.499  1.00  0.00     0.041 C 
ATOM      3  O   UNL     1      99.343  90.620  88.749  1.00  0.00    -0.550 OA
ATOM      4  O   UNL     1     100.372  88.697  89.447  1.00  0.00    -0.550 OA
ENDBRANCH   1   2
BRANCH   1   5
ATOM      5  C   UNL     1     100.179  89.200  86.037  1.00  0.00     0.006 C 
BRANCH   5   6
ATOM      6  C   UNL     1      99.443  89.888  84.875  1.00  0.00    -0.003 C 
ATOM      7  C   UNL     1      99.052  91.333  85.180  1.00  0.00     0.004 C 
ENDBRANCH   5   6
ENDBRANCH   1   5
TORSDOF 3
ENDMDL
MODEL 7
REMARK VINA RESULT:    -2.981     12.833     13.364
REMARK INTER + INTRA:          -3.645
REMARK INTER:                  -3.620
REMARK INTRA:                  -0.025
REMARK UNBOUND:                -0.141
REMARK SMILES CCCCC(=O)[O-]
REMARK SMILES IDX 4 1 5 2 6 3 7 4 3 5 2 6 1 7
REMARK H PARENT
REMARK Flexibility Score: inf
ROOT
ATOM      1  C   UNL     1     105.457  96.989  96.660  1.00  0.00     0.053 C 
ENDROOT
BRANCH   1   2
ATOM      2  C   UNL     1     105.306  97.799  95.409  1.00  0.00     0.041 C 
ATOM      3  O   UNL     1     106.322  98.134  94.745  1.00  0.00    -0.550 OA
ATOM      4  O   UNL     1     104.042  98.156  94.955  1.00  0.00    -0.550 OA
ENDBRANCH   1   2
BRANCH   1   5
ATOM      5  C   UNL     1     104.155  96.917  97.477  1.00  0.00     0.006 C 
BRANCH   5   6
ATOM      6  C   UNL     1     103.951  95.580  98.208  1.00  0.00    -0.003 C 
ATOM      7  C   UNL     1     102.710  95.563  99.099  1.00  0.00     0.004 C 
ENDBRANCH   5   6
ENDBRANCH   1   5
TORSDOF 3
ENDMDL
MODEL 8
REMARK VINA RESULT:    -2.957      2.491      3.416
REMARK INTER + INTRA:          -3.617
REMARK INTER:                  -3.517
REMARK INTRA:                  -0.100
REMARK UNBOUND:                -0.141
REMARK SMILES CCCCC(=O)[O-]
REMARK SMILES IDX 4 1 5 2 6 3 7 4 3 5 2 6 1 7
REMARK H PARENT
REMARK Flexibility Score: inf
ROOT
ATOM      1  C   UNL     1      99.618  92.037  88.596  1.00  0.00     0.053 C 
ENDROOT
BRANCH   1   2
ATOM      2  C   UNL     1      99.269  90.767  89.311  1.00  0.00     0.041 C 
ATOM      3  O   UNL     1      98.552  90.800  90.345  1.00  0.00    -0.550 OA
ATOM      4  O   UNL     1      99.706  89.544  88.817  1.00  0.00    -0.550 OA
ENDBRANCH   1   2
BRANCH   1   5
ATOM      5  C   UNL     1      99.073  92.073  87.158  1.00  0.00     0.006 C 
BRANCH   5   6
ATOM      6  C   UNL     1     100.150  91.882  86.077  1.00  0.00    -0.003 C 
ATOM      7  C   UNL     1      99.958  90.611  85.252  1.00  0.00     0.004 C 
ENDBRANCH   5   6
ENDBRANCH   1   5
TORSDOF 3
ENDMDL
MODEL 9
REMARK VINA RESULT:    -2.832      2.307      2.849
REMARK INTER + INTRA:          -3.469
REMARK INTER:                  -3.444
REMARK INTRA:                  -0.026
REMARK UNBOUND:                -0.141
REMARK SMILES CCCCC(=O)[O-]
REMARK SMILES IDX 4 1 5 2 6 3 7 4 3 5 2 6 1 7
REMARK H PARENT
REMARK Flexibility Score: inf
ROOT
ATOM      1  C   UNL     1      99.703  89.700  88.320  1.00  0.00     0.053 C 
ENDROOT
BRANCH   1   2
ATOM      2  C   UNL     1      99.305  90.737  89.326  1.00  0.00     0.041 C 
ATOM      3  O   UNL     1      98.592  90.420  90.314  1.00  0.00    -0.550 OA
ATOM      4  O   UNL     1      99.750  92.047  89.194  1.00  0.00    -0.550 OA
ENDBRANCH   1   2
BRANCH   1   5
ATOM      5  C   UNL     1     100.013  90.306  86.941  1.00  0.00     0.006 C 
BRANCH   5   6
ATOM      6  C   UNL     1     100.265  89.260  85.842  1.00  0.00    -0.003 C 
ATOM      7  C   UNL     1     100.805  87.937  86.382  1.00  0.00     0.004 C 
ENDBRANCH   5   6
ENDBRANCH   1   5
TORSDOF 3
ENDMDL
