MODEL 1
REMARK VINA RESULT:    -2.979      0.000      0.000
REMARK INTER + INTRA:          -3.483
REMARK INTER:                  -3.415
REMARK INTRA:                  -0.068
REMARK UNBOUND:                -0.068
REMARK SMILES CC(C)[C@@H]([NH3+])C(=O)[O-]
REMARK SMILES IDX 4 1 5 2 6 6 7 7 8 8 2 9 1 10 3 11
REMARK H PARENT 5 3 5 4 5 5
REMARK Flexibility Score: inf
ROOT
ATOM      1  C   UNL     1      23.248  17.528  41.341  1.00  0.00     0.230 C 
ENDROOT
BRANCH   1   2
ATOM      2  N   UNL     1      23.136  16.755  40.094  1.00  0.00    -0.350 N 
ATOM      3  H   UNL     1      24.063  16.378  39.793  1.00  0.00     0.345 HD
ATOM      4  H   UNL     1      22.738  17.348  39.332  1.00  0.00     0.345 HD
ATOM      5  H   UNL     1      22.484  15.950  40.242  1.00  0.00     0.345 HD
ENDBRANCH   1   2
BRANCH   1   6
ATOM      6  C   UNL     1      22.628  18.895  41.178  1.00  0.00     0.099 C 
ATOM      7  O   UNL     1      21.454  19.004  40.738  1.00  0.00    -0.544 OA
ATOM      8  O   UNL     1      23.357  20.044  41.466  1.00  0.00    -0.544 OA
ENDBRANCH   1   6
BRANCH   1   9
ATOM      9  C   UNL     1      22.645  16.789  42.574  1.00  0.00     0.047 C 
ATOM     10  C   UNL     1      22.906  15.274  42.572  1.00  0.00     0.014 C 
ATOM     11  C   UNL     1      23.119  17.406  43.899  1.00  0.00     0.014 C 
ENDBRANCH   1   9
TORSDOF 3
ENDMDL
MODEL 2
REMARK VINA RESULT:    -2.958      2.268      3.146
REMARK INTER + INTRA:          -3.458
REMARK INTER:                  -3.442
REMARK INTRA:                  -0.017
REMARK UNBOUND:                -0.068
REMARK SMILES CC(C)[C@@H]([NH3+])C(=O)[O-]
REMARK SMILES IDX 4 1 5 2 6 6 7 7 8 8 2 9 1 10 3 11
REMARK H PARENT 5 3 5 4 5 5
REMARK Flexibility Score: inf
ROOT
ATOM      1  C   UNL     1      22.872  17.466  41.250  1.00  0.00     0.230 C 
ENDROOT
BRANCH   1   2
ATOM      2  N   UNL     1      23.238  16.782  40.000  1.00  0.00    -0.350 N 
ATOM      3  H   UNL     1      23.530  15.794  40.176  1.00  0.00     0.345 HD
ATOM      4  H   UNL     1      24.012  17.293  39.519  1.00  0.00     0.345 HD
ATOM      5  H   UNL     1      22.415  16.774  39.355  1.00  0.00     0.345 HD
ENDBRANCH   1   2
BRANCH   1   6
ATOM      6  C   UNL     1      22.914  16.508  42.416  1.00  0.00     0.099 C 
ATOM      7  O   UNL     1      22.878  15.266  42.210  1.00  0.00    -0.544 OA
ATOM      8  O   UNL     1      22.946  16.980  43.723  1.00  0.00    -0.544 OA
ENDBRANCH   1   6
BRANCH   1   9
ATOM      9  C   UNL     1      23.745  18.725  41.536  1.00  0.00     0.047 C 
ATOM     10  C   UNL     1      24.654  19.124  40.362  1.00  0.00     0.014 C 
ATOM     11  C   UNL     1      22.892  19.925  41.976  1.00  0.00     0.014 C 
ENDBRANCH   1   9
TORSDOF 3
ENDMDL
MODEL 3
REMARK VINA RESULT:    -2.864      2.875      3.528
REMARK INTER + INTRA:          -3.350
REMARK INTER:                  -3.284
REMARK INTRA:                  -0.065
REMARK UNBOUND:                -0.068
REMARK SMILES CC(C)[C@@H]([NH3+])C(=O)[O-]
REMARK SMILES IDX 4 1 5 2 6 6 7 7 8 8 2 9 1 10 3 11
REMARK H PARENT 5 3 5 4 5 5
REMARK Flexibility Score: inf
ROOT
ATOM      1  C   UNL     1      24.044  18.126  44.541  1.00  0.00     0.230 C 
ENDROOT
BRANCH   1   2
ATOM      2  N   UNL     1      24.482  16.851  45.131  1.00  0.00    -0.350 N 
ATOM      3  H   UNL     1      23.768  16.471  45.792  1.00  0.00     0.345 HD
ATOM      4  H   UNL     1      25.390  16.974  45.632  1.00  0.00     0.345 HD
ATOM      5  H   UNL     1      24.634  16.151  44.369  1.00  0.00     0.345 HD
ENDBRANCH   1   2
BRANCH   1   6
ATOM      6  C   UNL     1      25.221  18.884  43.975  1.00  0.00     0.099 C 
ATOM      7  O   UNL     1      25.088  19.549  42.913  1.00  0.00    -0.544 OA
ATOM      8  O   UNL     1      26.467  18.821  44.588  1.00  0.00    -0.544 OA
ENDBRANCH   1   6
BRANCH   1   9
ATOM      9  C   UNL     1      22.929  17.951  43.465  1.00  0.00     0.047 C 
ATOM     10  C   UNL     1      22.783  16.506  42.959  1.00  0.00     0.014 C 
ATOM     11  C   UNL     1      21.573  18.480  43.956  1.00  0.00     0.014 C 
ENDBRANCH   1   9
TORSDOF 3
ENDMDL
MODEL 4
REMARK VINA RESULT:    -2.830     20.875     21.586
REMARK INTER + INTRA:          -3.311
REMARK INTER:                  -3.288
REMARK INTRA:                  -0.023
REMARK UNBOUND:                -0.068
REMARK SMILES CC(C)[C@@H]([NH3+])C(=O)[O-]
REMARK SMILES IDX 4 1 5 2 6 6 7 7 8 8 2 9 1 10 3 11
REMARK H PARENT 5 3 5 4 5 5
REMARK Flexibility Score: inf
ROOT
ATOM      1  C   UNL     1      30.080  34.377  54.333  1.00  0.00     0.230 C 
ENDROOT
BRANCH   1   2
ATOM      2  N   UNL     1      31.258  35.125  53.865  1.00  0.00    -0.350 N 
ATOM      3  H   UNL     1      31.372  35.049  52.829  1.00  0.00     0.345 HD
ATOM      4  H   UNL     1      32.122  34.777  54.337  1.00  0.00     0.345 HD
ATOM      5  H   UNL     1      31.147  36.135  54.113  1.00  0.00     0.345 HD
ENDBRANCH   1   2
BRANCH   1   6
ATOM      6  C   UNL     1      29.039  34.284  53.245  1.00  0.00     0.099 C 
ATOM      7  O   UNL     1      29.359  33.856  52.104  1.00  0.00    -0.544 OA
ATOM      8  O   UNL     1      27.735  34.709  53.471  1.00  0.00    -0.544 OA
ENDBRANCH   1   6
BRANCH   1   9
ATOM      9  C   UNL     1      30.435  32.962  54.884  1.00  0.00     0.047 C 
ATOM     10  C   UNL     1      31.287  32.995  56.163  1.00  0.00     0.014 C 
ATOM     11  C   UNL     1      29.180  32.103  55.105  1.00  0.00     0.014 C 
ENDBRANCH   1   9
TORSDOF 3
ENDMDL
MODEL 5
REMARK VINA RESULT:    -2.813     18.139     18.771
REMARK INTER + INTRA:          -3.292
REMARK INTER:                  -3.226
REMARK INTRA:                  -0.066
REMARK UNBOUND:                -0.068
REMARK SMILES CC(C)[C@@H]([NH3+])C(=O)[O-]
REMARK SMILES IDX 4 1 5 2 6 6 7 7 8 8 2 9 1 10 3 11
REMARK H PARENT 5 3 5 4 5 5
REMARK Flexibility Score: inf
ROOT
ATOM      1  C   UNL     1      25.571  33.249  50.923  1.00  0.00     0.230 C 
ENDROOT
BRANCH   1   2
ATOM      2  N   UNL     1      24.677  34.385  50.648  1.00  0.00    -0.350 N 
ATOM      3  H   UNL     1      23.741  34.063  50.316  1.00  0.00     0.345 HD
ATOM      4  H   UNL     1      25.101  35.018  49.934  1.00  0.00     0.345 HD
ATOM      5  H   UNL     1      24.544  34.942  51.525  1.00  0.00     0.345 HD
ENDBRANCH   1   2
BRANCH   1   6
ATOM      6  C   UNL     1      26.718  33.222  49.942  1.00  0.00     0.099 C 
ATOM      7  O   UNL     1      27.873  32.909  50.333  1.00  0.00    -0.544 OA
ATOM      8  O   UNL     1      26.524  33.586  48.614  1.00  0.00    -0.544 OA
ENDBRANCH   1   6
BRANCH   1   9
ATOM      9  C   UNL     1      26.097  33.227  52.391  1.00  0.00     0.047 C 
ATOM     10  C   UNL     1      25.958  34.576  53.115  1.00  0.00     0.014 C 
ATOM     11  C   UNL     1      25.440  32.111  53.217  1.00  0.00     0.014 C 
ENDBRANCH   1   9
TORSDOF 3
ENDMDL
MODEL 6
REMARK VINA RESULT:    -2.735     20.746     21.708
REMARK INTER + INTRA:          -3.203
REMARK INTER:                  -3.138
REMARK INTRA:                  -0.065
REMARK UNBOUND:                -0.068
REMARK SMILES CC(C)[C@@H]([NH3+])C(=O)[O-]
REMARK SMILES IDX 4 1 5 2 6 6 7 7 8 8 2 9 1 10 3 11
REMARK H PARENT 5 3 5 4 5 5
REMARK Flexibility Score: inf
ROOT
ATOM      1  C   UNL     1      30.880  33.708  53.763  1.00  0.00     0.230 C 
ENDROOT
BRANCH   1   2
ATOM      2  N   UNL     1      31.262  35.125  53.864  1.00  0.00    -0.350 N 
ATOM      3  H   UNL     1      31.770  35.446  53.010  1.00  0.00     0.345 HD
ATOM      4  H   UNL     1      31.861  35.281  54.706  1.00  0.00     0.345 HD
ATOM      5  H   UNL     1      30.401  35.709  53.976  1.00  0.00     0.345 HD
ENDBRANCH   1   2
BRANCH   1   6
ATOM      6  C   UNL     1      30.817  33.072  55.130  1.00  0.00     0.099 C 
ATOM      7  O   UNL     1      31.199  33.718  56.142  1.00  0.00    -0.544 OA
ATOM      8  O   UNL     1      30.385  31.759  55.284  1.00  0.00    -0.544 OA
ENDBRANCH   1   6
BRANCH   1   9
ATOM      9  C   UNL     1      29.545  33.488  52.988  1.00  0.00     0.047 C 
ATOM     10  C   UNL     1      28.403  34.404  53.458  1.00  0.00     0.014 C 
ATOM     11  C   UNL     1      29.737  33.618  51.469  1.00  0.00     0.014 C 
ENDBRANCH   1   9
TORSDOF 3
ENDMDL
MODEL 7
REMARK VINA RESULT:    -2.706      8.306      8.985
REMARK INTER + INTRA:          -3.169
REMARK INTER:                  -3.102
REMARK INTRA:                  -0.067
REMARK UNBOUND:                -0.068
REMARK SMILES CC(C)[C@@H]([NH3+])C(=O)[O-]
REMARK SMILES IDX 4 1 5 2 6 6 7 7 8 8 2 9 1 10 3 11
REMARK H PARENT 5 3 5 4 5 5
REMARK Flexibility Score: inf
ROOT
ATOM      1  C   UNL     1      31.527  18.842  40.231  1.00  0.00     0.230 C 
ENDROOT
BRANCH   1   2
ATOM      2  N   UNL     1      31.906  18.547  41.622  1.00  0.00    -0.350 N 
ATOM      3  H   UNL     1      32.811  19.002  41.876  1.00  0.00     0.345 HD
ATOM      4  H   UNL     1      31.981  17.515  41.768  1.00  0.00     0.345 HD
ATOM      5  H   UNL     1      31.163  18.904  42.266  1.00  0.00     0.345 HD
ENDBRANCH   1   2
BRANCH   1   6
ATOM      6  C   UNL     1      31.108  17.582  39.513  1.00  0.00     0.099 C 
ATOM      7  O   UNL     1      30.022  17.552  38.876  1.00  0.00    -0.544 OA
ATOM      8  O   UNL     1      31.887  16.432  39.584  1.00  0.00    -0.544 OA
ENDBRANCH   1   6
BRANCH   1   9
ATOM      9  C   UNL     1      30.423  19.937  40.117  1.00  0.00     0.047 C 
ATOM     10  C   UNL     1      29.829  20.355  41.473  1.00  0.00     0.014 C 
ATOM     11  C   UNL     1      30.920  21.173  39.353  1.00  0.00     0.014 C 
ENDBRANCH   1   9
TORSDOF 3
ENDMDL
MODEL 8
REMARK VINA RESULT:    -2.695      2.020      3.384
REMARK INTER + INTRA:          -3.157
REMARK INTER:                  -3.210
REMARK INTRA:                   0.053
REMARK UNBOUND:                -0.068
REMARK SMILES CC(C)[C@@H]([NH3+])C(=O)[O-]
REMARK SMILES IDX 4 1 5 2 6 6 7 7 8 8 2 9 1 10 3 11
REMARK H PARENT 5 3 5 4 5 5
REMARK Flexibility Score: inf
ROOT
ATOM      1  C   UNL     1      22.991  18.001  39.694  1.00  0.00     0.230 C 
ENDROOT
BRANCH   1   2
ATOM      2  N   UNL     1      23.411  16.662  39.249  1.00  0.00    -0.350 N 
ATOM      3  H   UNL     1      24.141  16.261  39.881  1.00  0.00     0.345 HD
ATOM      4  H   UNL     1      23.780  16.702  38.273  1.00  0.00     0.345 HD
ATOM      5  H   UNL     1      22.584  16.022  39.249  1.00  0.00     0.345 HD
ENDBRANCH   1   2
BRANCH   1   6
ATOM      6  C   UNL     1      22.632  17.988  41.160  1.00  0.00     0.099 C 
ATOM      7  O   UNL     1      22.996  17.027  41.888  1.00  0.00    -0.544 OA
ATOM      8  O   UNL     1      21.862  19.006  41.710  1.00  0.00    -0.544 OA
ENDBRANCH   1   6
BRANCH   1   9
ATOM      9  C   UNL     1      24.050  19.105  39.391  1.00  0.00     0.047 C 
ATOM     10  C   UNL     1      23.438  20.418  38.875  1.00  0.00     0.014 C 
ATOM     11  C   UNL     1      24.951  19.381  40.604  1.00  0.00     0.014 C 
ENDBRANCH   1   9
TORSDOF 3
ENDMDL
MODEL 9
REMARK VINA RESULT:    -2.659     19.683     20.606
REMARK INTER + INTRA:          -3.115
REMARK INTER:                  -3.050
REMARK INTRA:                  -0.065
REMARK UNBOUND:                -0.068
REMARK SMILES CC(C)[C@@H]([NH3+])C(=O)[O-]
REMARK SMILES IDX 4 1 5 2 6 6 7 7 8 8 2 9 1 10 3 11
REMARK H PARENT 5 3 5 4 5 5
REMARK Flexibility Score: inf
ROOT
ATOM      1  C   UNL     1      28.510  33.782  53.280  1.00  0.00     0.230 C 
ENDROOT
BRANCH   1   2
ATOM      2  N   UNL     1      28.633  35.124  53.872  1.00  0.00    -0.350 N 
ATOM      3  H   UNL     1      27.890  35.767  53.518  1.00  0.00     0.345 HD
ATOM      4  H   UNL     1      29.573  35.529  53.663  1.00  0.00     0.345 HD
ATOM      5  H   UNL     1      28.543  35.053  54.912  1.00  0.00     0.345 HD
ENDBRANCH   1   2
BRANCH   1   6
ATOM      6  C   UNL     1      28.992  32.726  54.245  1.00  0.00     0.099 C 
ATOM      7  O   UNL     1      28.357  31.645  54.362  1.00  0.00    -0.544 OA
ATOM      8  O   UNL     1      30.107  32.951  55.045  1.00  0.00    -0.544 OA
ENDBRANCH   1   6
BRANCH   1   9
ATOM      9  C   UNL     1      27.067  33.463  52.784  1.00  0.00     0.047 C 
ATOM     10  C   UNL     1      26.042  34.557  53.127  1.00  0.00     0.014 C 
ATOM     11  C   UNL     1      27.033  33.158  51.279  1.00  0.00     0.014 C 
ENDBRANCH   1   9
TORSDOF 3
ENDMDL
