MODEL 1
REMARK VINA RESULT:    -4.120      0.000      0.000
REMARK INTER + INTRA:          -4.241
REMARK INTER:                  -4.241
REMARK INTRA:                   0.000
REMARK UNBOUND:                 0.000
REMARK SMILES Oc1ccc2[nH]ccc2c1
REMARK SMILES IDX 3 1 4 2 5 3 9 4 8 5 7 6 6 7 10 8 2 9 1 11
REMARK H PARENT 6 10 1 12
REMARK Flexibility Score: inf
ROOT
ATOM      1  C   UNL     1       5.516  -8.250  30.566  1.00  0.00     0.048 A 
ATOM      2  C   UNL     1       5.621  -8.990  29.373  1.00  0.00     0.030 A 
ATOM      3  C   UNL     1       4.441  -9.341  28.718  1.00  0.00     0.046 A 
ATOM      4  C   UNL     1       3.214  -8.985  29.208  1.00  0.00     0.003 A 
ATOM      5  C   UNL     1       2.265  -9.478  28.339  1.00  0.00     0.028 A 
ATOM      6  C   UNL     1       2.987 -10.125  27.341  1.00  0.00     0.083 A 
ATOM      7  N   UNL     1       4.317 -10.039  27.578  1.00  0.00    -0.361 N 
ATOM      8  C   UNL     1       3.074  -8.252  30.386  1.00  0.00     0.056 A 
ATOM      9  C   UNL     1       4.245  -7.880  31.073  1.00  0.00     0.116 A 
ATOM     10  H   UNL     1       5.084 -10.434  26.991  1.00  0.00     0.166 HD
ENDROOT
BRANCH   9  11
ATOM     11  O   UNL     1       4.143  -7.148  32.253  1.00  0.00    -0.508 OA
ATOM     12  H   UNL     1       4.653  -6.283  32.385  1.00  0.00     0.293 HD
ENDBRANCH   9  11
TORSDOF 1
ENDMDL
MODEL 2
REMARK VINA RESULT:    -3.793      1.208      2.038
REMARK INTER + INTRA:          -3.904
REMARK INTER:                  -3.904
REMARK INTRA:                   0.000
REMARK UNBOUND:                 0.000
REMARK SMILES Oc1ccc2[nH]ccc2c1
REMARK SMILES IDX 3 1 4 2 5 3 9 4 8 5 7 6 6 7 10 8 2 9 1 11
REMARK H PARENT 6 10 1 12
REMARK Flexibility Score: inf
ROOT
ATOM      1  C   UNL     1       4.177  -7.875  31.139  1.00  0.00     0.048 A 
ATOM      2  C   UNL     1       3.021  -8.252  30.430  1.00  0.00     0.030 A 
ATOM      3  C   UNL     1       3.185  -9.000  29.266  1.00  0.00     0.046 A 
ATOM      4  C   UNL     1       4.425  -9.363  28.814  1.00  0.00     0.003 A 
ATOM      5  C   UNL     1       4.246 -10.086  27.655  1.00  0.00     0.028 A 
ATOM      6  C   UNL     1       2.869 -10.125  27.460  1.00  0.00     0.083 A 
ATOM      7  N   UNL     1       2.225  -9.459  28.447  1.00  0.00    -0.361 N 
ATOM      8  C   UNL     1       5.590  -9.006  29.491  1.00  0.00     0.056 A 
ATOM      9  C   UNL     1       5.461  -8.250  30.672  1.00  0.00     0.116 A 
ATOM     10  H   UNL     1       1.194  -9.333  28.548  1.00  0.00     0.166 HD
ENDROOT
BRANCH   9  11
ATOM     11  O   UNL     1       6.603  -7.876  31.373  1.00  0.00    -0.508 OA
ATOM     12  H   UNL     1       6.560  -7.602  32.348  1.00  0.00     0.293 HD
ENDBRANCH   9  11
TORSDOF 1
ENDMDL
MODEL 3
REMARK VINA RESULT:    -3.604      2.464      3.608
REMARK INTER + INTRA:          -3.709
REMARK INTER:                  -3.709
REMARK INTRA:                   0.000
REMARK UNBOUND:                 0.000
REMARK SMILES Oc1ccc2[nH]ccc2c1
REMARK SMILES IDX 3 1 4 2 5 3 9 4 8 5 7 6 6 7 10 8 2 9 1 11
REMARK H PARENT 6 10 1 12
REMARK Flexibility Score: inf
ROOT
ATOM      1  C   UNL     1       4.558  -9.631  28.335  1.00  0.00     0.048 A 
ATOM      2  C   UNL     1       5.419  -9.000  29.251  1.00  0.00     0.030 A 
ATOM      3  C   UNL     1       4.844  -8.250  30.276  1.00  0.00     0.046 A 
ATOM      4  C   UNL     1       3.486  -8.123  30.399  1.00  0.00     0.003 A 
ATOM      5  C   UNL     1       3.245  -7.329  31.499  1.00  0.00     0.028 A 
ATOM      6  C   UNL     1       4.503  -7.008  31.999  1.00  0.00     0.083 A 
ATOM      7  N   UNL     1       5.477  -7.573  31.247  1.00  0.00    -0.361 N 
ATOM      8  C   UNL     1       2.605  -8.735  29.509  1.00  0.00     0.056 A 
ATOM      9  C   UNL     1       3.152  -9.500  28.461  1.00  0.00     0.116 A 
ATOM     10  H   UNL     1       6.507  -7.496  31.398  1.00  0.00     0.166 HD
ENDROOT
BRANCH   9  11
ATOM     11  O   UNL     1       2.301 -10.125  27.554  1.00  0.00    -0.508 OA
ATOM     12  H   UNL     1       1.653 -10.847  27.848  1.00  0.00     0.293 HD
ENDBRANCH   9  11
TORSDOF 1
ENDMDL
MODEL 4
REMARK VINA RESULT:    -3.384      2.596      4.025
REMARK INTER + INTRA:          -3.483
REMARK INTER:                  -3.483
REMARK INTRA:                   0.000
REMARK UNBOUND:                 0.000
REMARK SMILES Oc1ccc2[nH]ccc2c1
REMARK SMILES IDX 3 1 4 2 5 3 9 4 8 5 7 6 6 7 10 8 2 9 1 11
REMARK H PARENT 6 10 1 12
REMARK Flexibility Score: inf
ROOT
ATOM      1  C   UNL     1       2.731  -9.769  28.221  1.00  0.00     0.048 A 
ATOM      2  C   UNL     1       2.254  -9.245  29.437  1.00  0.00     0.030 A 
ATOM      3  C   UNL     1       3.157  -8.568  30.254  1.00  0.00     0.046 A 
ATOM      4  C   UNL     1       4.470  -8.410  29.898  1.00  0.00     0.003 A 
ATOM      5  C   UNL     1       5.088  -7.705  30.907  1.00  0.00     0.028 A 
ATOM      6  C   UNL     1       4.091  -7.467  31.848  1.00  0.00     0.083 A 
ATOM      7  N   UNL     1       2.913  -7.997  31.444  1.00  0.00    -0.361 N 
ATOM      8  C   UNL     1       4.974  -8.915  28.701  1.00  0.00     0.056 A 
ATOM      9  C   UNL     1       4.089  -9.605  27.851  1.00  0.00     0.116 A 
ATOM     10  H   UNL     1       2.004  -7.963  31.956  1.00  0.00     0.166 HD
ENDROOT
BRANCH   9  11
ATOM     11  O   UNL     1       4.560 -10.123  26.648  1.00  0.00    -0.508 OA
ATOM     12  H   UNL     1       5.448 -10.609  26.592  1.00  0.00     0.293 HD
ENDBRANCH   9  11
TORSDOF 1
ENDMDL
MODEL 5
REMARK VINA RESULT:    -3.262      1.876      2.453
REMARK INTER + INTRA:          -3.357
REMARK INTER:                  -3.357
REMARK INTRA:                   0.000
REMARK UNBOUND:                 0.000
REMARK SMILES Oc1ccc2[nH]ccc2c1
REMARK SMILES IDX 3 1 4 2 5 3 9 4 8 5 7 6 6 7 10 8 2 9 1 11
REMARK H PARENT 6 10 1 12
REMARK Flexibility Score: inf
ROOT
ATOM      1  C   UNL     1       5.302  -7.712  30.692  1.00  0.00     0.048 A 
ATOM      2  C   UNL     1       3.949  -8.025  30.918  1.00  0.00     0.030 A 
ATOM      3  C   UNL     1       3.308  -8.849  29.994  1.00  0.00     0.046 A 
ATOM      4  C   UNL     1       3.962  -9.345  28.898  1.00  0.00     0.003 A 
ATOM      5  C   UNL     1       3.062 -10.114  28.194  1.00  0.00     0.028 A 
ATOM      6  C   UNL     1       1.877 -10.042  28.919  1.00  0.00     0.083 A 
ATOM      7  N   UNL     1       2.032  -9.267  30.018  1.00  0.00    -0.361 N 
ATOM      8  C   UNL     1       5.302  -9.055  28.645  1.00  0.00     0.056 A 
ATOM      9  C   UNL     1       5.980  -8.225  29.559  1.00  0.00     0.116 A 
ATOM     10  H   UNL     1       1.307  -9.045  30.735  1.00  0.00     0.166 HD
ENDROOT
BRANCH   9  11
ATOM     11  O   UNL     1       7.318  -7.914  29.337  1.00  0.00    -0.508 OA
ATOM     12  H   UNL     1       7.845  -8.347  28.587  1.00  0.00     0.293 HD
ENDBRANCH   9  11
TORSDOF 1
ENDMDL
MODEL 6
REMARK VINA RESULT:    -2.366      1.089      1.346
REMARK INTER + INTRA:          -2.435
REMARK INTER:                  -2.435
REMARK INTRA:                   0.000
REMARK UNBOUND:                 0.000
REMARK SMILES Oc1ccc2[nH]ccc2c1
REMARK SMILES IDX 3 1 4 2 5 3 9 4 8 5 7 6 6 7 10 8 2 9 1 11
REMARK H PARENT 6 10 1 12
REMARK Flexibility Score: inf
ROOT
ATOM      1  C   UNL     1       4.894  -7.380  31.581  1.00  0.00     0.048 A 
ATOM      2  C   UNL     1       5.717  -8.037  30.647  1.00  0.00     0.030 A 
ATOM      3  C   UNL     1       5.099  -8.794  29.653  1.00  0.00     0.046 A 
ATOM      4  C   UNL     1       3.737  -8.903  29.576  1.00  0.00     0.003 A 
ATOM      5  C   UNL     1       3.449  -9.710  28.496  1.00  0.00     0.028 A 
ATOM      6  C   UNL     1       4.686 -10.056  27.961  1.00  0.00     0.083 A 
ATOM      7  N   UNL     1       5.691  -9.494  28.673  1.00  0.00    -0.361 N 
ATOM      8  C   UNL     1       2.893  -8.266  30.484  1.00  0.00     0.056 A 
ATOM      9  C   UNL     1       3.484  -7.493  31.501  1.00  0.00     0.116 A 
ATOM     10  H   UNL     1       6.715  -9.588  28.491  1.00  0.00     0.166 HD
ENDROOT
BRANCH   9  11
ATOM     11  O   UNL     1       2.671  -6.843  32.426  1.00  0.00    -0.508 OA
ATOM     12  H   UNL     1       1.662  -6.839  32.332  1.00  0.00     0.293 HD
ENDBRANCH   9  11
TORSDOF 1
ENDMDL
MODEL 7
REMARK VINA RESULT:    -1.189      1.951      2.804
REMARK INTER + INTRA:          -1.224
REMARK INTER:                  -1.224
REMARK INTRA:                   0.000
REMARK UNBOUND:                 0.000
REMARK SMILES Oc1ccc2[nH]ccc2c1
REMARK SMILES IDX 3 1 4 2 5 3 9 4 8 5 7 6 6 7 10 8 2 9 1 11
REMARK H PARENT 6 10 1 12
REMARK Flexibility Score: inf
ROOT
ATOM      1  C   UNL     1       5.653  -9.351  28.167  1.00  0.00     0.048 A 
ATOM      2  C   UNL     1       4.324  -9.813  28.215  1.00  0.00     0.030 A 
ATOM      3  C   UNL     1       3.513  -9.357  29.252  1.00  0.00     0.046 A 
ATOM      4  C   UNL     1       3.980  -8.490  30.202  1.00  0.00     0.003 A 
ATOM      5  C   UNL     1       2.945  -8.238  31.076  1.00  0.00     0.028 A 
ATOM      6  C   UNL     1       1.875  -8.987  30.596  1.00  0.00     0.083 A 
ATOM      7  N   UNL     1       2.228  -9.670  29.482  1.00  0.00    -0.361 N 
ATOM      8  C   UNL     1       5.290  -8.013  30.185  1.00  0.00     0.056 A 
ATOM      9  C   UNL     1       6.137  -8.453  29.150  1.00  0.00     0.116 A 
ATOM     10  H   UNL     1       1.621 -10.307  28.920  1.00  0.00     0.166 HD
ENDROOT
BRANCH   9  11
ATOM     11  O   UNL     1       7.452  -7.996  29.102  1.00  0.00    -0.508 OA
ATOM     12  H   UNL     1       7.693  -7.125  28.644  1.00  0.00     0.293 HD
ENDBRANCH   9  11
TORSDOF 1
ENDMDL
