MODEL 1
REMARK VINA RESULT:    -4.353      0.000      0.000
REMARK INTER + INTRA:          -4.934
REMARK INTER:                  -4.735
REMARK INTRA:                  -0.200
REMARK UNBOUND:                -0.200
REMARK SMILES Cc1ccc(C(C)C)c(O)c1
REMARK SMILES IDX 1 1 2 2 11 3 9 4 5 5 4 6 3 7 10 8 6 10 7 11 8 12
REMARK H PARENT 10 9
REMARK Flexibility Score: inf
ROOT
ATOM      1  C   UNL     1     161.745 179.933 181.440  1.00  0.00     0.044 C 
ATOM      2  C   UNL     1     162.998 179.478 180.752  1.00  0.00    -0.047 A 
ATOM      3  C   UNL     1     163.204 179.770 179.396  1.00  0.00     0.049 A 
ATOM      4  C   UNL     1     164.389 179.381 178.754  1.00  0.00     0.119 A 
ATOM      5  C   UNL     1     165.393 178.698 179.475  1.00  0.00    -0.004 A 
ATOM      6  C   UNL     1     165.182 178.427 180.842  1.00  0.00     0.008 A 
ATOM      7  C   UNL     1     164.000 178.819 181.473  1.00  0.00     0.004 A 
ENDROOT
BRANCH   4   8
ATOM      8  O   UNL     1     164.566 179.676 177.402  1.00  0.00    -0.508 OA
ATOM      9  H   UNL     1     165.464 179.966 177.034  1.00  0.00     0.293 HD
ENDBRANCH   4   8
BRANCH   5  10
ATOM     10  C   UNL     1     166.687 178.265 178.801  1.00  0.00     0.017 C 
ATOM     11  C   UNL     1     167.906 178.647 179.649  1.00  0.00     0.012 C 
ATOM     12  C   UNL     1     166.676 176.761 178.497  1.00  0.00     0.012 C 
ENDBRANCH   5  10
TORSDOF 2
ENDMDL
MODEL 2
REMARK VINA RESULT:    -4.225     10.392     11.717
REMARK INTER + INTRA:          -4.795
REMARK INTER:                  -4.595
REMARK INTRA:                  -0.200
REMARK UNBOUND:                -0.200
REMARK SMILES Cc1ccc(C(C)C)c(O)c1
REMARK SMILES IDX 1 1 2 2 11 3 9 4 5 5 4 6 3 7 10 8 6 10 7 11 8 12
REMARK H PARENT 10 9
REMARK Flexibility Score: inf
ROOT
ATOM      1  C   UNL     1     173.601 178.982 175.033  1.00  0.00     0.044 C 
ATOM      2  C   UNL     1     174.542 178.898 176.198  1.00  0.00    -0.047 A 
ATOM      3  C   UNL     1     175.769 178.233 176.068  1.00  0.00     0.049 A 
ATOM      4  C   UNL     1     176.671 178.181 177.141  1.00  0.00     0.119 A 
ATOM      5  C   UNL     1     176.353 178.814 178.364  1.00  0.00    -0.004 A 
ATOM      6  C   UNL     1     175.126 179.496 178.476  1.00  0.00     0.008 A 
ATOM      7  C   UNL     1     174.234 179.543 177.402  1.00  0.00     0.004 A 
ENDROOT
BRANCH   4   8
ATOM      8  O   UNL     1     177.882 177.505 176.989  1.00  0.00    -0.508 OA
ATOM      9  H   UNL     1     178.519 177.373 177.765  1.00  0.00     0.293 HD
ENDBRANCH   4   8
BRANCH   5  10
ATOM     10  C   UNL     1     177.315 178.772 179.542  1.00  0.00     0.017 C 
ATOM     11  C   UNL     1     177.359 180.123 180.267  1.00  0.00     0.012 C 
ATOM     12  C   UNL     1     176.955 177.639 180.511  1.00  0.00     0.012 C 
ENDBRANCH   5  10
TORSDOF 2
ENDMDL
MODEL 3
REMARK VINA RESULT:    -4.209      2.297      3.632
REMARK INTER + INTRA:          -4.778
REMARK INTER:                  -4.578
REMARK INTRA:                  -0.200
REMARK UNBOUND:                -0.200
REMARK SMILES Cc1ccc(C(C)C)c(O)c1
REMARK SMILES IDX 1 1 2 2 11 3 9 4 5 5 4 6 3 7 10 8 6 10 7 11 8 12
REMARK H PARENT 10 9
REMARK Flexibility Score: inf
ROOT
ATOM      1  C   UNL     1     162.516 179.438 181.668  1.00  0.00     0.044 C 
ATOM      2  C   UNL     1     162.730 179.282 180.192  1.00  0.00    -0.047 A 
ATOM      3  C   UNL     1     164.024 179.337 179.656  1.00  0.00     0.049 A 
ATOM      4  C   UNL     1     164.238 179.155 178.282  1.00  0.00     0.119 A 
ATOM      5  C   UNL     1     163.144 178.902 177.424  1.00  0.00    -0.004 A 
ATOM      6  C   UNL     1     161.850 178.829 177.976  1.00  0.00     0.008 A 
ATOM      7  C   UNL     1     161.647 179.012 179.346  1.00  0.00     0.004 A 
ENDROOT
BRANCH   4   8
ATOM      8  O   UNL     1     165.535 179.224 177.774  1.00  0.00    -0.508 OA
ATOM      9  H   UNL     1     165.905 178.507 177.161  1.00  0.00     0.293 HD
ENDBRANCH   4   8
BRANCH   5  10
ATOM     10  C   UNL     1     163.350 178.702 175.929  1.00  0.00     0.017 C 
ATOM     11  C   UNL     1     162.600 177.460 175.431  1.00  0.00     0.012 C 
ATOM     12  C   UNL     1     162.933 179.950 175.141  1.00  0.00     0.012 C 
ENDBRANCH   5  10
TORSDOF 2
ENDMDL
MODEL 4
REMARK VINA RESULT:    -4.199      2.769      4.441
REMARK INTER + INTRA:          -4.767
REMARK INTER:                  -4.583
REMARK INTRA:                  -0.183
REMARK UNBOUND:                -0.200
REMARK SMILES Cc1ccc(C(C)C)c(O)c1
REMARK SMILES IDX 1 1 2 2 11 3 9 4 5 5 4 6 3 7 10 8 6 10 7 11 8 12
REMARK H PARENT 10 9
REMARK Flexibility Score: inf
ROOT
ATOM      1  C   UNL     1     161.770 176.331 175.042  1.00  0.00     0.044 C 
ATOM      2  C   UNL     1     162.163 177.188 176.209  1.00  0.00    -0.047 A 
ATOM      3  C   UNL     1     163.251 178.065 176.105  1.00  0.00     0.049 A 
ATOM      4  C   UNL     1     163.604 178.896 177.179  1.00  0.00     0.119 A 
ATOM      5  C   UNL     1     162.853 178.864 178.375  1.00  0.00    -0.004 A 
ATOM      6  C   UNL     1     161.749 177.992 178.460  1.00  0.00     0.008 A 
ATOM      7  C   UNL     1     161.406 177.168 177.386  1.00  0.00     0.004 A 
ENDROOT
BRANCH   4   8
ATOM      8  O   UNL     1     164.697 179.754 177.053  1.00  0.00    -0.508 OA
ATOM      9  H   UNL     1     165.253 180.028 177.855  1.00  0.00     0.293 HD
ENDBRANCH   4   8
BRANCH   5  10
ATOM     10  C   UNL     1     163.215 179.756 179.554  1.00  0.00     0.017 C 
ATOM     11  C   UNL     1     161.970 180.125 180.369  1.00  0.00     0.012 C 
ATOM     12  C   UNL     1     164.279 179.097 180.440  1.00  0.00     0.012 C 
ENDBRANCH   5  10
TORSDOF 2
ENDMDL
MODEL 5
REMARK VINA RESULT:    -4.155      1.144      4.024
REMARK INTER + INTRA:          -4.719
REMARK INTER:                  -4.559
REMARK INTRA:                  -0.160
REMARK UNBOUND:                -0.200
REMARK SMILES Cc1ccc(C(C)C)c(O)c1
REMARK SMILES IDX 1 1 2 2 11 3 9 4 5 5 4 6 3 7 10 8 6 10 7 11 8 12
REMARK H PARENT 10 9
REMARK Flexibility Score: inf
ROOT
ATOM      1  C   UNL     1     167.459 176.963 180.281  1.00  0.00     0.044 C 
ATOM      2  C   UNL     1     166.175 177.703 180.047  1.00  0.00    -0.047 A 
ATOM      3  C   UNL     1     165.968 178.394 178.845  1.00  0.00     0.049 A 
ATOM      4  C   UNL     1     164.757 179.058 178.602  1.00  0.00     0.119 A 
ATOM      5  C   UNL     1     163.726 179.026 179.568  1.00  0.00    -0.004 A 
ATOM      6  C   UNL     1     163.939 178.311 180.764  1.00  0.00     0.008 A 
ATOM      7  C   UNL     1     165.148 177.653 180.997  1.00  0.00     0.004 A 
ENDROOT
BRANCH   4   8
ATOM      8  O   UNL     1     164.580 179.746 177.402  1.00  0.00    -0.508 OA
ATOM      9  H   UNL     1     163.660 179.888 177.001  1.00  0.00     0.293 HD
ENDBRANCH   4   8
BRANCH   5  10
ATOM     10  C   UNL     1     162.404 179.739 179.328  1.00  0.00     0.017 C 
ATOM     11  C   UNL     1     161.465 178.885 178.466  1.00  0.00     0.012 C 
ATOM     12  C   UNL     1     161.735 180.125 180.653  1.00  0.00     0.012 C 
ENDBRANCH   5  10
TORSDOF 2
ENDMDL
MODEL 6
REMARK VINA RESULT:    -4.152     11.709     12.521
REMARK INTER + INTRA:          -4.716
REMARK INTER:                  -4.552
REMARK INTRA:                  -0.164
REMARK UNBOUND:                -0.200
REMARK SMILES Cc1ccc(C(C)C)c(O)c1
REMARK SMILES IDX 1 1 2 2 11 3 9 4 5 5 4 6 3 7 10 8 6 10 7 11 8 12
REMARK H PARENT 10 9
REMARK Flexibility Score: inf
ROOT
ATOM      1  C   UNL     1     176.143 173.719 179.908  1.00  0.00     0.044 C 
ATOM      2  C   UNL     1     176.430 175.181 179.730  1.00  0.00    -0.047 A 
ATOM      3  C   UNL     1     176.935 175.658 178.513  1.00  0.00     0.049 A 
ATOM      4  C   UNL     1     177.172 177.027 178.325  1.00  0.00     0.119 A 
ATOM      5  C   UNL     1     176.891 177.943 179.364  1.00  0.00    -0.004 A 
ATOM      6  C   UNL     1     176.365 177.453 180.576  1.00  0.00     0.008 A 
ATOM      7  C   UNL     1     176.132 176.088 180.754  1.00  0.00     0.004 A 
ENDROOT
BRANCH   4   8
ATOM      8  O   UNL     1     177.683 177.475 177.107  1.00  0.00    -0.508 OA
ATOM      9  H   UNL     1     178.675 177.449 176.904  1.00  0.00     0.293 HD
ENDBRANCH   4   8
BRANCH   5  10
ATOM     10  C   UNL     1     177.139 179.434 179.185  1.00  0.00     0.017 C 
ATOM     11  C   UNL     1     175.971 180.103 178.450  1.00  0.00     0.012 C 
ATOM     12  C   UNL     1     177.406 180.116 180.532  1.00  0.00     0.012 C 
ENDBRANCH   5  10
TORSDOF 2
ENDMDL
MODEL 7
REMARK VINA RESULT:    -4.148      4.606      5.407
REMARK INTER + INTRA:          -4.711
REMARK INTER:                  -4.513
REMARK INTRA:                  -0.198
REMARK UNBOUND:                -0.200
REMARK SMILES Cc1ccc(C(C)C)c(O)c1
REMARK SMILES IDX 1 1 2 2 11 3 9 4 5 5 4 6 3 7 10 8 6 10 7 11 8 12
REMARK H PARENT 10 9
REMARK Flexibility Score: inf
ROOT
ATOM      1  C   UNL     1     163.472 178.848 181.385  1.00  0.00     0.044 C 
ATOM      2  C   UNL     1     163.062 177.406 181.341  1.00  0.00    -0.047 A 
ATOM      3  C   UNL     1     161.757 177.053 180.971  1.00  0.00     0.049 A 
ATOM      4  C   UNL     1     161.376 175.706 180.892  1.00  0.00     0.119 A 
ATOM      5  C   UNL     1     162.314 174.688 181.174  1.00  0.00    -0.004 A 
ATOM      6  C   UNL     1     163.628 175.054 181.525  1.00  0.00     0.008 A 
ATOM      7  C   UNL     1     163.999 176.398 181.601  1.00  0.00     0.004 A 
ENDROOT
BRANCH   4   8
ATOM      8  O   UNL     1     160.068 175.383 180.531  1.00  0.00    -0.508 OA
ATOM      9  H   UNL     1     159.622 174.531 180.852  1.00  0.00     0.293 HD
ENDBRANCH   4   8
BRANCH   5  10
ATOM     10  C   UNL     1     161.924 173.219 181.095  1.00  0.00     0.017 C 
ATOM     11  C   UNL     1     163.090 172.366 180.579  1.00  0.00     0.012 C 
ATOM     12  C   UNL     1     161.424 172.705 182.451  1.00  0.00     0.012 C 
ENDBRANCH   5  10
TORSDOF 2
ENDMDL
MODEL 8
REMARK VINA RESULT:    -4.105      3.129      4.380
REMARK INTER + INTRA:          -4.664
REMARK INTER:                  -4.464
REMARK INTRA:                  -0.200
REMARK UNBOUND:                -0.200
REMARK SMILES Cc1ccc(C(C)C)c(O)c1
REMARK SMILES IDX 1 1 2 2 11 3 9 4 5 5 4 6 3 7 10 8 6 10 7 11 8 12
REMARK H PARENT 10 9
REMARK Flexibility Score: inf
ROOT
ATOM      1  C   UNL     1     160.812 174.120 179.131  1.00  0.00     0.044 C 
ATOM      2  C   UNL     1     161.342 175.473 179.504  1.00  0.00    -0.047 A 
ATOM      3  C   UNL     1     161.820 176.341 178.512  1.00  0.00     0.049 A 
ATOM      4  C   UNL     1     162.284 177.621 178.847  1.00  0.00     0.119 A 
ATOM      5  C   UNL     1     162.262 178.054 180.192  1.00  0.00    -0.004 A 
ATOM      6  C   UNL     1     161.760 177.180 181.177  1.00  0.00     0.008 A 
ATOM      7  C   UNL     1     161.300 175.906 180.834  1.00  0.00     0.004 A 
ENDROOT
BRANCH   4   8
ATOM      8  O   UNL     1     162.764 178.462 177.842  1.00  0.00    -0.508 OA
ATOM      9  H   UNL     1     163.583 179.043 177.980  1.00  0.00     0.293 HD
ENDBRANCH   4   8
BRANCH   5  10
ATOM     10  C   UNL     1     162.760 179.438 180.580  1.00  0.00     0.017 C 
ATOM     11  C   UNL     1     161.785 180.124 181.544  1.00  0.00     0.012 C 
ATOM     12  C   UNL     1     164.171 179.372 181.177  1.00  0.00     0.012 C 
ENDBRANCH   5  10
TORSDOF 2
ENDMDL
