MODEL 1
REMARK VINA RESULT:    -2.969      0.000      0.000
REMARK INTER + INTRA:          -5.935
REMARK INTER:                  -4.704
REMARK INTRA:                  -1.231
REMARK UNBOUND:                -1.231
REMARK SMILES CCCCCCCCCCCC(=O)[O-]
REMARK SMILES IDX 7 1 8 2 9 3 10 4 11 5 12 6 13 7 14 8 6 9 5 10 4 11 3 12 2 13
REMARK SMILES IDX 1 14
REMARK H PARENT
REMARK Flexibility Score: inf
ROOT
ATOM      1  C   UNL     1     147.247 166.159 152.483  1.00  0.00     0.000 C 
ENDROOT
BRANCH   1   2
ATOM      2  C   UNL     1     147.627 165.638 153.877  1.00  0.00     0.000 C 
BRANCH   2   3
ATOM      3  C   UNL     1     146.711 166.237 154.955  1.00  0.00     0.000 C 
BRANCH   3   4
ATOM      4  C   UNL     1     146.264 165.207 156.008  1.00  0.00     0.006 C 
BRANCH   4   5
ATOM      5  C   UNL     1     145.970 163.811 155.432  1.00  0.00     0.053 C 
BRANCH   5   6
ATOM      6  C   UNL     1     146.812 162.738 156.052  1.00  0.00     0.041 C 
ATOM      7  O   UNL     1     148.049 162.686 155.819  1.00  0.00    -0.550 OA
ATOM      8  O   UNL     1     146.236 161.811 156.912  1.00  0.00    -0.550 OA
ENDBRANCH   5   6
ENDBRANCH   4   5
ENDBRANCH   3   4
ENDBRANCH   2   3
ENDBRANCH   1   2
BRANCH   1   9
ATOM      9  C   UNL     1     145.968 165.505 151.934  1.00  0.00     0.000 C 
BRANCH   9  10
ATOM     10  C   UNL     1     146.199 164.783 150.594  1.00  0.00    -0.000 C 
BRANCH  10  11
ATOM     11  C   UNL     1     146.925 163.439 150.766  1.00  0.00    -0.000 C 
BRANCH  11  12
ATOM     12  C   UNL     1     146.129 162.443 151.628  1.00  0.00    -0.000 C 
BRANCH  12  13
ATOM     13  C   UNL     1     147.034 161.607 152.547  1.00  0.00    -0.003 C 
ATOM     14  C   UNL     1     148.510 161.684 152.157  1.00  0.00     0.004 C 
ENDBRANCH  12  13
ENDBRANCH  11  12
ENDBRANCH  10  11
ENDBRANCH   9  10
ENDBRANCH   1   9
TORSDOF 10
ENDMDL
MODEL 2
REMARK VINA RESULT:    -2.873      2.442      4.884
REMARK INTER + INTRA:          -5.784
REMARK INTER:                  -4.269
REMARK INTRA:                  -1.515
REMARK UNBOUND:                -1.231
REMARK SMILES CCCCCCCCCCCC(=O)[O-]
REMARK SMILES IDX 7 1 8 2 9 3 10 4 11 5 12 6 13 7 14 8 6 9 5 10 4 11 3 12 2 13
REMARK SMILES IDX 1 14
REMARK H PARENT
REMARK Flexibility Score: inf
ROOT
ATOM      1  C   UNL     1     147.007 162.836 155.676  1.00  0.00     0.000 C 
ENDROOT
BRANCH   1   2
ATOM      2  C   UNL     1     147.412 161.936 154.499  1.00  0.00     0.000 C 
BRANCH   2   3
ATOM      3  C   UNL     1     146.560 162.239 153.257  1.00  0.00     0.000 C 
BRANCH   3   4
ATOM      4  C   UNL     1     147.149 161.650 151.963  1.00  0.00     0.006 C 
BRANCH   4   5
ATOM      5  C   UNL     1     148.272 162.499 151.343  1.00  0.00     0.053 C 
BRANCH   5   6
ATOM      6  C   UNL     1     149.622 161.861 151.475  1.00  0.00     0.041 C 
ATOM      7  O   UNL     1     150.499 162.377 152.217  1.00  0.00    -0.550 OA
ATOM      8  O   UNL     1     149.901 160.678 150.801  1.00  0.00    -0.550 OA
ENDBRANCH   5   6
ENDBRANCH   4   5
ENDBRANCH   3   4
ENDBRANCH   2   3
ENDBRANCH   1   2
BRANCH   1   9
ATOM      9  C   UNL     1     145.880 163.817 155.312  1.00  0.00     0.000 C 
BRANCH   9  10
ATOM     10  C   UNL     1     146.024 165.175 156.023  1.00  0.00    -0.000 C 
BRANCH  10  11
ATOM     11  C   UNL     1     146.973 166.131 155.283  1.00  0.00    -0.000 C 
BRANCH  11  12
ATOM     12  C   UNL     1     146.942 165.931 153.757  1.00  0.00    -0.000 C 
BRANCH  12  13
ATOM     13  C   UNL     1     148.349 165.789 153.154  1.00  0.00    -0.003 C 
ATOM     14  C   UNL     1     149.354 165.178 154.130  1.00  0.00     0.004 C 
ENDBRANCH  12  13
ENDBRANCH  11  12
ENDBRANCH  10  11
ENDBRANCH   9  10
ENDBRANCH   1   9
TORSDOF 10
ENDMDL
MODEL 3
REMARK VINA RESULT:    -2.859      1.228      1.712
REMARK INTER + INTRA:          -5.762
REMARK INTER:                  -4.325
REMARK INTRA:                  -1.437
REMARK UNBOUND:                -1.231
REMARK SMILES CCCCCCCCCCCC(=O)[O-]
REMARK SMILES IDX 7 1 8 2 9 3 10 4 11 5 12 6 13 7 14 8 6 9 5 10 4 11 3 12 2 13
REMARK SMILES IDX 1 14
REMARK H PARENT
REMARK Flexibility Score: inf
ROOT
ATOM      1  C   UNL     1     148.204 165.170 153.742  1.00  0.00     0.000 C 
ENDROOT
BRANCH   1   2
ATOM      2  C   UNL     1     148.104 164.821 155.235  1.00  0.00     0.000 C 
BRANCH   2   3
ATOM      3  C   UNL     1     146.653 164.504 155.629  1.00  0.00     0.000 C 
BRANCH   3   4
ATOM      4  C   UNL     1     146.303 163.011 155.494  1.00  0.00     0.006 C 
BRANCH   4   5
ATOM      5  C   UNL     1     147.483 162.064 155.772  1.00  0.00     0.053 C 
BRANCH   5   6
ATOM      6  C   UNL     1     147.103 160.902 156.639  1.00  0.00     0.041 C 
ATOM      7  O   UNL     1     147.502 159.741 156.356  1.00  0.00    -0.550 OA
ATOM      8  O   UNL     1     146.333 161.106 157.777  1.00  0.00    -0.550 OA
ENDBRANCH   5   6
ENDBRANCH   4   5
ENDBRANCH   3   4
ENDBRANCH   2   3
ENDBRANCH   1   2
BRANCH   1   9
ATOM      9  C   UNL     1     146.956 165.903 153.221  1.00  0.00     0.000 C 
BRANCH   9  10
ATOM     10  C   UNL     1     146.226 165.117 152.116  1.00  0.00    -0.000 C 
BRANCH  10  11
ATOM     11  C   UNL     1     147.053 163.932 151.590  1.00  0.00    -0.000 C 
BRANCH  11  12
ATOM     12  C   UNL     1     146.219 162.646 151.448  1.00  0.00    -0.000 C 
BRANCH  12  13
ATOM     13  C   UNL     1     146.893 161.432 152.106  1.00  0.00    -0.003 C 
ATOM     14  C   UNL     1     148.414 161.566 152.181  1.00  0.00     0.004 C 
ENDBRANCH  12  13
ENDBRANCH  11  12
ENDBRANCH  10  11
ENDBRANCH   9  10
ENDBRANCH   1   9
TORSDOF 10
ENDMDL
MODEL 4
REMARK VINA RESULT:    -2.854      2.233      5.098
REMARK INTER + INTRA:          -5.754
REMARK INTER:                  -4.422
REMARK INTRA:                  -1.332
REMARK UNBOUND:                -1.231
REMARK SMILES CCCCCCCCCCCC(=O)[O-]
REMARK SMILES IDX 7 1 8 2 9 3 10 4 11 5 12 6 13 7 14 8 6 9 5 10 4 11 3 12 2 13
REMARK SMILES IDX 1 14
REMARK H PARENT
REMARK Flexibility Score: inf
ROOT
ATOM      1  C   UNL     1     148.396 161.592 152.242  1.00  0.00     0.000 C 
ENDROOT
BRANCH   1   2
ATOM      2  C   UNL     1     146.924 161.367 151.864  1.00  0.00     0.000 C 
BRANCH   2   3
ATOM      3  C   UNL     1     146.074 162.600 152.208  1.00  0.00     0.000 C 
BRANCH   3   4
ATOM      4  C   UNL     1     146.310 163.782 151.251  1.00  0.00     0.006 C 
BRANCH   4   5
ATOM      5  C   UNL     1     146.068 165.161 151.889  1.00  0.00     0.053 C 
BRANCH   5   6
ATOM      6  C   UNL     1     147.329 165.956 152.049  1.00  0.00     0.041 C 
ATOM      7  O   UNL     1     148.153 165.664 152.955  1.00  0.00    -0.550 OA
ATOM      8  O   UNL     1     147.607 167.001 151.177  1.00  0.00    -0.550 OA
ENDBRANCH   5   6
ENDBRANCH   4   5
ENDBRANCH   3   4
ENDBRANCH   2   3
ENDBRANCH   1   2
BRANCH   1   9
ATOM      9  C   UNL     1     148.561 162.212 153.639  1.00  0.00     0.000 C 
BRANCH   9  10
ATOM     10  C   UNL     1     148.107 161.266 154.765  1.00  0.00    -0.000 C 
BRANCH  10  11
ATOM     11  C   UNL     1     147.234 161.972 155.814  1.00  0.00    -0.000 C 
BRANCH  11  12
ATOM     12  C   UNL     1     147.306 163.506 155.707  1.00  0.00    -0.000 C 
BRANCH  12  13
ATOM     13  C   UNL     1     145.914 164.156 155.647  1.00  0.00    -0.003 C 
ATOM     14  C   UNL     1     145.970 165.683 155.696  1.00  0.00     0.004 C 
ENDBRANCH  12  13
ENDBRANCH  11  12
ENDBRANCH  10  11
ENDBRANCH   9  10
ENDBRANCH   1   9
TORSDOF 10
ENDMDL
MODEL 5
REMARK VINA RESULT:    -2.825      1.664      4.085
REMARK INTER + INTRA:          -5.707
REMARK INTER:                  -4.368
REMARK INTRA:                  -1.340
REMARK UNBOUND:                -1.231
REMARK SMILES CCCCCCCCCCCC(=O)[O-]
REMARK SMILES IDX 7 1 8 2 9 3 10 4 11 5 12 6 13 7 14 8 6 9 5 10 4 11 3 12 2 13
REMARK SMILES IDX 1 14
REMARK H PARENT
REMARK Flexibility Score: inf
ROOT
ATOM      1  C   UNL     1     146.103 165.027 151.203  1.00  0.00     0.000 C 
ENDROOT
BRANCH   1   2
ATOM      2  C   UNL     1     146.737 163.632 151.099  1.00  0.00     0.000 C 
BRANCH   2   3
ATOM      3  C   UNL     1     145.919 162.597 151.886  1.00  0.00     0.000 C 
BRANCH   3   4
ATOM      4  C   UNL     1     146.796 161.605 152.670  1.00  0.00     0.006 C 
BRANCH   4   5
ATOM      5  C   UNL     1     148.176 161.352 152.037  1.00  0.00     0.053 C 
BRANCH   5   6
ATOM      6  C   UNL     1     149.273 161.259 153.053  1.00  0.00     0.041 C 
ATOM      7  O   UNL     1     149.915 162.289 153.392  1.00  0.00    -0.550 OA
ATOM      8  O   UNL     1     149.567 160.039 153.650  1.00  0.00    -0.550 OA
ENDBRANCH   5   6
ENDBRANCH   4   5
ENDBRANCH   3   4
ENDBRANCH   2   3
ENDBRANCH   1   2
BRANCH   1   9
ATOM      9  C   UNL     1     146.876 165.960 152.151  1.00  0.00     0.000 C 
BRANCH   9  10
ATOM     10  C   UNL     1     148.082 165.267 152.811  1.00  0.00    -0.000 C 
BRANCH  10  11
ATOM     11  C   UNL     1     147.938 165.158 154.337  1.00  0.00    -0.000 C 
BRANCH  11  12
ATOM     12  C   UNL     1     146.686 165.881 154.866  1.00  0.00    -0.000 C 
BRANCH  12  13
ATOM     13  C   UNL     1     145.879 165.016 155.847  1.00  0.00    -0.003 C 
ATOM     14  C   UNL     1     146.355 163.564 155.889  1.00  0.00     0.004 C 
ENDBRANCH  12  13
ENDBRANCH  11  12
ENDBRANCH  10  11
ENDBRANCH   9  10
ENDBRANCH   1   9
TORSDOF 10
ENDMDL
MODEL 6
REMARK VINA RESULT:    -2.820      1.991      4.026
REMARK INTER + INTRA:          -5.700
REMARK INTER:                  -4.118
REMARK INTRA:                  -1.582
REMARK UNBOUND:                -1.231
REMARK SMILES CCCCCCCCCCCC(=O)[O-]
REMARK SMILES IDX 7 1 8 2 9 3 10 4 11 5 12 6 13 7 14 8 6 9 5 10 4 11 3 12 2 13
REMARK SMILES IDX 1 14
REMARK H PARENT
REMARK Flexibility Score: inf
ROOT
ATOM      1  C   UNL     1     146.740 164.582 155.348  1.00  0.00     0.000 C 
ENDROOT
BRANCH   1   2
ATOM      2  C   UNL     1     147.251 163.299 154.675  1.00  0.00     0.000 C 
BRANCH   2   3
ATOM      3  C   UNL     1     146.157 162.663 153.804  1.00  0.00     0.000 C 
BRANCH   3   4
ATOM      4  C   UNL     1     146.720 161.885 152.601  1.00  0.00     0.006 C 
BRANCH   4   5
ATOM      5  C   UNL     1     148.181 162.229 152.261  1.00  0.00     0.053 C 
BRANCH   5   6
ATOM      6  C   UNL     1     149.069 161.023 152.230  1.00  0.00     0.041 C 
ATOM      7  O   UNL     1     149.338 160.403 153.293  1.00  0.00    -0.550 OA
ATOM      8  O   UNL     1     149.577 160.565 151.020  1.00  0.00    -0.550 OA
ENDBRANCH   5   6
ENDBRANCH   4   5
ENDBRANCH   3   4
ENDBRANCH   2   3
ENDBRANCH   1   2
BRANCH   1   9
ATOM      9  C   UNL     1     146.671 165.773 154.378  1.00  0.00     0.000 C 
BRANCH   9  10
ATOM     10  C   UNL     1     147.916 165.878 153.478  1.00  0.00    -0.000 C 
BRANCH  10  11
ATOM     11  C   UNL     1     147.560 166.166 152.010  1.00  0.00    -0.000 C 
BRANCH  11  12
ATOM     12  C   UNL     1     146.164 165.644 151.626  1.00  0.00    -0.000 C 
BRANCH  12  13
ATOM     13  C   UNL     1     146.190 164.778 150.357  1.00  0.00    -0.003 C 
ATOM     14  C   UNL     1     147.520 164.860 149.609  1.00  0.00     0.004 C 
ENDBRANCH  12  13
ENDBRANCH  11  12
ENDBRANCH  10  11
ENDBRANCH   9  10
ENDBRANCH   1   9
TORSDOF 10
ENDMDL
MODEL 7
REMARK VINA RESULT:    -2.751      2.572      3.906
REMARK INTER + INTRA:          -5.590
REMARK INTER:                  -3.920
REMARK INTRA:                  -1.670
REMARK UNBOUND:                -1.231
REMARK SMILES CCCCCCCCCCCC(=O)[O-]
REMARK SMILES IDX 7 1 8 2 9 3 10 4 11 5 12 6 13 7 14 8 6 9 5 10 4 11 3 12 2 13
REMARK SMILES IDX 1 14
REMARK H PARENT
REMARK Flexibility Score: inf
ROOT
ATOM      1  C   UNL     1     149.695 163.713 154.697  1.00  0.00     0.000 C 
ENDROOT
BRANCH   1   2
ATOM      2  C   UNL     1     148.544 163.076 155.491  1.00  0.00     0.000 C 
BRANCH   2   3
ATOM      3  C   UNL     1     147.256 163.900 155.349  1.00  0.00     0.000 C 
BRANCH   3   4
ATOM      4  C   UNL     1     147.495 165.293 154.739  1.00  0.00     0.006 C 
BRANCH   4   5
ATOM      5  C   UNL     1     146.615 165.598 153.514  1.00  0.00     0.053 C 
BRANCH   5   6
ATOM      6  C   UNL     1     147.388 166.198 152.379  1.00  0.00     0.041 C 
ATOM      7  O   UNL     1     148.575 166.581 152.551  1.00  0.00    -0.550 OA
ATOM      8  O   UNL     1     146.806 166.307 151.122  1.00  0.00    -0.550 OA
ENDBRANCH   5   6
ENDBRANCH   4   5
ENDBRANCH   3   4
ENDBRANCH   2   3
ENDBRANCH   1   2
BRANCH   1   9
ATOM      9  C   UNL     1     150.194 162.814 153.553  1.00  0.00     0.000 C 
BRANCH   9  10
ATOM     10  C   UNL     1     149.978 163.445 152.166  1.00  0.00    -0.000 C 
BRANCH  10  11
ATOM     11  C   UNL     1     148.972 162.658 151.310  1.00  0.00    -0.000 C 
BRANCH  11  12
ATOM     12  C   UNL     1     148.402 161.432 152.046  1.00  0.00    -0.000 C 
BRANCH  12  13
ATOM     13  C   UNL     1     146.889 161.546 152.292  1.00  0.00    -0.003 C 
ATOM     14  C   UNL     1     146.225 162.617 151.426  1.00  0.00     0.004 C 
ENDBRANCH  12  13
ENDBRANCH  11  12
ENDBRANCH  10  11
ENDBRANCH   9  10
ENDBRANCH   1   9
TORSDOF 10
ENDMDL
MODEL 8
REMARK VINA RESULT:    -2.728      1.564      3.511
REMARK INTER + INTRA:          -5.554
REMARK INTER:                  -3.966
REMARK INTRA:                  -1.589
REMARK UNBOUND:                -1.231
REMARK SMILES CCCCCCCCCCCC(=O)[O-]
REMARK SMILES IDX 7 1 8 2 9 3 10 4 11 5 12 6 13 7 14 8 6 9 5 10 4 11 3 12 2 13
REMARK SMILES IDX 1 14
REMARK H PARENT
REMARK Flexibility Score: inf
ROOT
ATOM      1  C   UNL     1     148.658 162.620 151.632  1.00  0.00     0.000 C 
ENDROOT
BRANCH   1   2
ATOM      2  C   UNL     1     149.677 162.368 152.753  1.00  0.00     0.000 C 
BRANCH   2   3
ATOM      3  C   UNL     1     149.741 163.563 153.716  1.00  0.00     0.000 C 
BRANCH   3   4
ATOM      4  C   UNL     1     149.132 163.259 155.097  1.00  0.00     0.006 C 
BRANCH   4   5
ATOM      5  C   UNL     1     148.660 161.805 155.266  1.00  0.00     0.053 C 
BRANCH   5   6
ATOM      6  C   UNL     1     147.361 161.698 156.007  1.00  0.00     0.041 C 
ATOM      7  O   UNL     1     147.077 160.649 156.643  1.00  0.00    -0.550 OA
ATOM      8  O   UNL     1     146.478 162.771 156.019  1.00  0.00    -0.550 OA
ENDBRANCH   5   6
ENDBRANCH   4   5
ENDBRANCH   3   4
ENDBRANCH   2   3
ENDBRANCH   1   2
BRANCH   1   9
ATOM      9  C   UNL     1     147.381 161.777 151.790  1.00  0.00     0.000 C 
BRANCH   9  10
ATOM     10  C   UNL     1     146.208 162.583 152.378  1.00  0.00    -0.000 C 
BRANCH  10  11
ATOM     11  C   UNL     1     146.364 164.097 152.159  1.00  0.00    -0.000 C 
BRANCH  11  12
ATOM     12  C   UNL     1     145.875 164.922 153.363  1.00  0.00    -0.000 C 
BRANCH  12  13
ATOM     13  C   UNL     1     146.916 165.951 153.831  1.00  0.00    -0.003 C 
ATOM     14  C   UNL     1     146.817 166.258 155.325  1.00  0.00     0.004 C 
ENDBRANCH  12  13
ENDBRANCH  11  12
ENDBRANCH  10  11
ENDBRANCH   9  10
ENDBRANCH   1   9
TORSDOF 10
ENDMDL
MODEL 9
REMARK VINA RESULT:    -2.713      7.478      9.792
REMARK INTER + INTRA:          -5.530
REMARK INTER:                  -4.264
REMARK INTRA:                  -1.266
REMARK UNBOUND:                -1.231
REMARK SMILES CCCCCCCCCCCC(=O)[O-]
REMARK SMILES IDX 7 1 8 2 9 3 10 4 11 5 12 6 13 7 14 8 6 9 5 10 4 11 3 12 2 13
REMARK SMILES IDX 1 14
REMARK H PARENT
REMARK Flexibility Score: inf
ROOT
ATOM      1  C   UNL     1     148.930 158.067 158.738  1.00  0.00     0.000 C 
ENDROOT
BRANCH   1   2
ATOM      2  C   UNL     1     147.727 158.586 157.936  1.00  0.00     0.000 C 
BRANCH   2   3
ATOM      3  C   UNL     1     146.499 158.766 158.842  1.00  0.00     0.000 C 
BRANCH   3   4
ATOM      4  C   UNL     1     146.612 159.984 159.776  1.00  0.00     0.006 C 
BRANCH   4   5
ATOM      5  C   UNL     1     146.398 159.653 161.264  1.00  0.00     0.053 C 
BRANCH   5   6
ATOM      6  C   UNL     1     147.685 159.445 162.003  1.00  0.00     0.041 C 
ATOM      7  O   UNL     1     147.774 158.549 162.883  1.00  0.00    -0.550 OA
ATOM      8  O   UNL     1     148.796 160.221 161.697  1.00  0.00    -0.550 OA
ENDBRANCH   5   6
ENDBRANCH   4   5
ENDBRANCH   3   4
ENDBRANCH   2   3
ENDBRANCH   1   2
BRANCH   1   9
ATOM      9  C   UNL     1     149.093 156.541 158.642  1.00  0.00     0.000 C 
BRANCH   9  10
ATOM     10  C   UNL     1     148.633 155.814 159.919  1.00  0.00    -0.000 C 
BRANCH  10  11
ATOM     11  C   UNL     1     147.763 154.583 159.616  1.00  0.00    -0.000 C 
BRANCH  11  12
ATOM     12  C   UNL     1     146.314 154.748 160.106  1.00  0.00    -0.000 C 
BRANCH  12  13
ATOM     13  C   UNL     1     146.165 155.887 161.127  1.00  0.00    -0.003 C 
ATOM     14  C   UNL     1     145.875 155.384 162.541  1.00  0.00     0.004 C 
ENDBRANCH  12  13
ENDBRANCH  11  12
ENDBRANCH  10  11
ENDBRANCH   9  10
ENDBRANCH   1   9
TORSDOF 10
ENDMDL
