MODEL 1
REMARK VINA RESULT:    -4.389      0.000      0.000
REMARK INTER + INTRA:          -7.472
REMARK INTER:                  -6.698
REMARK INTRA:                  -0.773
REMARK UNBOUND:                -0.773
REMARK SMILES O=C([O-])CCCCCCCCC(=O)[O-]
REMARK SMILES IDX 7 1 6 2 5 3 4 4 2 5 1 6 3 7 8 8 9 9 10 10 11 11 12 12 13 13
REMARK SMILES IDX 14 14
REMARK H PARENT
REMARK Flexibility Score: inf
ROOT
ATOM      1  C   UNL     1      86.907  75.825  73.152  1.00  0.00     0.000 C 
ENDROOT
BRANCH   1   2
ATOM      2  C   UNL     1      87.581  75.553  74.507  1.00  0.00     0.000 C 
BRANCH   2   3
ATOM      3  C   UNL     1      88.888  76.342  74.684  1.00  0.00     0.006 C 
BRANCH   3   4
ATOM      4  C   UNL     1      90.022  75.817  73.794  1.00  0.00     0.053 C 
BRANCH   4   5
ATOM      5  C   UNL     1      91.016  75.054  74.613  1.00  0.00     0.041 C 
ATOM      6  O   UNL     1      90.978  75.110  75.870  1.00  0.00    -0.550 OA
ATOM      7  O   UNL     1      91.954  74.241  73.988  1.00  0.00    -0.550 OA
ENDBRANCH   4   5
ENDBRANCH   3   4
ENDBRANCH   2   3
ENDBRANCH   1   2
BRANCH   1   8
ATOM      8  C   UNL     1      86.312  77.241  73.054  1.00  0.00     0.000 C 
BRANCH   8   9
ATOM      9  C   UNL     1      86.716  78.038  71.797  1.00  0.00     0.000 C 
BRANCH   9  10
ATOM     10  C   UNL     1      88.213  78.392  71.696  1.00  0.00     0.006 C 
BRANCH  10  11
ATOM     11  C   UNL     1      88.787  78.316  70.273  1.00  0.00     0.053 C 
BRANCH  11  12
ATOM     12  C   UNL     1      89.918  77.339  70.176  1.00  0.00     0.041 C 
ATOM     13  O   UNL     1      89.690  76.101  70.209  1.00  0.00    -0.550 OA
ATOM     14  O   UNL     1      91.227  77.796  70.083  1.00  0.00    -0.550 OA
ENDBRANCH  11  12
ENDBRANCH  10  11
ENDBRANCH   9  10
ENDBRANCH   8   9
ENDBRANCH   1   8
TORSDOF 9
ENDMDL
MODEL 2
REMARK VINA RESULT:    -4.295      2.352      3.805
REMARK INTER + INTRA:          -7.328
REMARK INTER:                  -6.587
REMARK INTRA:                  -0.741
REMARK UNBOUND:                -0.773
REMARK SMILES O=C([O-])CCCCCCCCC(=O)[O-]
REMARK SMILES IDX 7 1 6 2 5 3 4 4 2 5 1 6 3 7 8 8 9 9 10 10 11 11 12 12 13 13
REMARK SMILES IDX 14 14
REMARK H PARENT
REMARK Flexibility Score: inf
ROOT
ATOM      1  C   UNL     1      88.771  75.772  74.745  1.00  0.00     0.000 C 
ENDROOT
BRANCH   1   2
ATOM      2  C   UNL     1      87.913  76.952  75.233  1.00  0.00     0.000 C 
BRANCH   2   3
ATOM      3  C   UNL     1      86.506  76.516  75.671  1.00  0.00     0.006 C 
BRANCH   3   4
ATOM      4  C   UNL     1      85.395  77.272  74.929  1.00  0.00     0.053 C 
BRANCH   4   5
ATOM      5  C   UNL     1      85.351  76.854  73.492  1.00  0.00     0.041 C 
ATOM      6  O   UNL     1      85.193  75.642  73.189  1.00  0.00    -0.550 OA
ATOM      7  O   UNL     1      85.436  77.810  72.487  1.00  0.00    -0.550 OA
ENDBRANCH   4   5
ENDBRANCH   3   4
ENDBRANCH   2   3
ENDBRANCH   1   2
BRANCH   1   8
ATOM      8  C   UNL     1      89.530  76.084  73.442  1.00  0.00     0.000 C 
BRANCH   8   9
ATOM      9  C   UNL     1      88.655  76.156  72.175  1.00  0.00     0.000 C 
BRANCH   9  10
ATOM     10  C   UNL     1      88.812  77.444  71.342  1.00  0.00     0.006 C 
BRANCH  10  11
ATOM     11  C   UNL     1      89.473  77.235  69.970  1.00  0.00     0.053 C 
BRANCH  11  12
ATOM     12  C   UNL     1      90.967  77.195  70.068  1.00  0.00     0.041 C 
ATOM     13  O   UNL     1      91.559  76.103  70.271  1.00  0.00    -0.550 OA
ATOM     14  O   UNL     1      91.702  78.370  69.970  1.00  0.00    -0.550 OA
ENDBRANCH  11  12
ENDBRANCH  10  11
ENDBRANCH   9  10
ENDBRANCH   8   9
ENDBRANCH   1   8
TORSDOF 9
ENDMDL
MODEL 3
REMARK VINA RESULT:    -4.172     12.610     13.912
REMARK INTER + INTRA:          -7.140
REMARK INTER:                  -6.728
REMARK INTRA:                  -0.412
REMARK UNBOUND:                -0.773
REMARK SMILES O=C([O-])CCCCCCCCC(=O)[O-]
REMARK SMILES IDX 7 1 6 2 5 3 4 4 2 5 1 6 3 7 8 8 9 9 10 10 11 11 12 12 13 13
REMARK SMILES IDX 14 14
REMARK H PARENT
REMARK Flexibility Score: inf
ROOT
ATOM      1  C   UNL     1      96.674  85.988  80.026  1.00  0.00     0.000 C 
ENDROOT
BRANCH   1   2
ATOM      2  C   UNL     1      97.983  85.620  80.744  1.00  0.00     0.000 C 
BRANCH   2   3
ATOM      3  C   UNL     1      97.799  84.476  81.755  1.00  0.00     0.006 C 
BRANCH   3   4
ATOM      4  C   UNL     1      98.986  83.504  81.771  1.00  0.00     0.053 C 
BRANCH   4   5
ATOM      5  C   UNL     1     100.033  83.976  82.731  1.00  0.00     0.041 C 
ATOM      6  O   UNL     1      99.699  84.549  83.802  1.00  0.00    -0.550 OA
ATOM      7  O   UNL     1     101.376  83.740  82.467  1.00  0.00    -0.550 OA
ENDBRANCH   4   5
ENDBRANCH   3   4
ENDBRANCH   2   3
ENDBRANCH   1   2
BRANCH   1   8
ATOM      8  C   UNL     1      95.489  85.104  80.454  1.00  0.00     0.000 C 
BRANCH   8   9
ATOM      9  C   UNL     1      94.809  84.319  79.314  1.00  0.00     0.000 C 
BRANCH   9  10
ATOM     10  C   UNL     1      93.517  83.576  79.707  1.00  0.00     0.006 C 
BRANCH  10  11
ATOM     11  C   UNL     1      92.673  84.294  80.772  1.00  0.00     0.053 C 
BRANCH  11  12
ATOM     12  C   UNL     1      91.206  84.202  80.481  1.00  0.00     0.041 C 
ATOM     13  O   UNL     1      90.431  83.643  81.300  1.00  0.00    -0.550 OA
ATOM     14  O   UNL     1      90.702  84.705  79.287  1.00  0.00    -0.550 OA
ENDBRANCH  11  12
ENDBRANCH  10  11
ENDBRANCH   9  10
ENDBRANCH   8   9
ENDBRANCH   1   8
TORSDOF 9
ENDMDL
MODEL 4
REMARK VINA RESULT:    -4.109     11.891     12.994
REMARK INTER + INTRA:          -7.044
REMARK INTER:                  -6.167
REMARK INTRA:                  -0.877
REMARK UNBOUND:                -0.773
REMARK SMILES O=C([O-])CCCCCCCCC(=O)[O-]
REMARK SMILES IDX 7 1 6 2 5 3 4 4 2 5 1 6 3 7 8 8 9 9 10 10 11 11 12 12 13 13
REMARK SMILES IDX 14 14
REMARK H PARENT
REMARK Flexibility Score: inf
ROOT
ATOM      1  C   UNL     1      90.644  84.701  79.439  1.00  0.00     0.000 C 
ENDROOT
BRANCH   1   2
ATOM      2  C   UNL     1      90.301  84.069  80.799  1.00  0.00     0.000 C 
BRANCH   2   3
ATOM      3  C   UNL     1      90.145  85.117  81.913  1.00  0.00     0.006 C 
BRANCH   3   4
ATOM      4  C   UNL     1      91.135  84.906  83.066  1.00  0.00     0.053 C 
BRANCH   4   5
ATOM      5  C   UNL     1      92.246  85.905  82.988  1.00  0.00     0.041 C 
ATOM      6  O   UNL     1      93.226  85.828  83.776  1.00  0.00    -0.550 OA
ATOM      7  O   UNL     1      92.225  86.894  82.012  1.00  0.00    -0.550 OA
ENDBRANCH   4   5
ENDBRANCH   3   4
ENDBRANCH   2   3
ENDBRANCH   1   2
BRANCH   1   8
ATOM      8  C   UNL     1      92.160  84.774  79.180  1.00  0.00     0.000 C 
BRANCH   8   9
ATOM      9  C   UNL     1      93.012  83.768  79.978  1.00  0.00     0.000 C 
BRANCH   9  10
ATOM     10  C   UNL     1      94.537  83.976  79.881  1.00  0.00     0.006 C 
BRANCH  10  11
ATOM     11  C   UNL     1      95.034  85.306  80.469  1.00  0.00     0.053 C 
BRANCH  11  12
ATOM     12  C   UNL     1      96.075  85.946  79.605  1.00  0.00     0.041 C 
ATOM     13  O   UNL     1      97.285  85.931  79.953  1.00  0.00    -0.550 OA
ATOM     14  O   UNL     1      95.705  86.590  78.430  1.00  0.00    -0.550 OA
ENDBRANCH  11  12
ENDBRANCH  10  11
ENDBRANCH   9  10
ENDBRANCH   8   9
ENDBRANCH   1   8
TORSDOF 9
ENDMDL
MODEL 5
REMARK VINA RESULT:    -4.103     13.766     15.682
REMARK INTER + INTRA:          -7.035
REMARK INTER:                  -6.695
REMARK INTRA:                  -0.341
REMARK UNBOUND:                -0.773
REMARK SMILES O=C([O-])CCCCCCCCC(=O)[O-]
REMARK SMILES IDX 7 1 6 2 5 3 4 4 2 5 1 6 3 7 8 8 9 9 10 10 11 11 12 12 13 13
REMARK SMILES IDX 14 14
REMARK H PARENT
REMARK Flexibility Score: inf
ROOT
ATOM      1  C   UNL     1      97.259  85.932  80.947  1.00  0.00     0.000 C 
ENDROOT
BRANCH   1   2
ATOM      2  C   UNL     1      96.099  84.926  80.860  1.00  0.00     0.000 C 
BRANCH   2   3
ATOM      3  C   UNL     1      95.289  85.071  79.562  1.00  0.00     0.006 C 
BRANCH   3   4
ATOM      4  C   UNL     1      94.312  83.908  79.341  1.00  0.00     0.053 C 
BRANCH   4   5
ATOM      5  C   UNL     1      92.902  84.368  79.541  1.00  0.00     0.041 C 
ATOM      6  O   UNL     1      92.320  85.036  78.647  1.00  0.00    -0.550 OA
ATOM      7  O   UNL     1      92.213  84.015  80.696  1.00  0.00    -0.550 OA
ENDBRANCH   4   5
ENDBRANCH   3   4
ENDBRANCH   2   3
ENDBRANCH   1   2
BRANCH   1   8
ATOM      8  C   UNL     1      98.632  85.249  81.081  1.00  0.00     0.000 C 
BRANCH   8   9
ATOM      9  C   UNL     1      98.613  83.861  81.753  1.00  0.00     0.000 C 
BRANCH   9  10
ATOM     10  C   UNL     1      99.597  83.687  82.927  1.00  0.00     0.006 C 
BRANCH  10  11
ATOM     11  C   UNL     1     101.060  84.008  82.581  1.00  0.00     0.053 C 
BRANCH  11  12
ATOM     12  C   UNL     1     101.731  84.797  83.663  1.00  0.00     0.041 C 
ATOM     13  O   UNL     1     102.737  85.506  83.399  1.00  0.00    -0.550 OA
ATOM     14  O   UNL     1     101.266  84.721  84.970  1.00  0.00    -0.550 OA
ENDBRANCH  11  12
ENDBRANCH  10  11
ENDBRANCH   9  10
ENDBRANCH   8   9
ENDBRANCH   1   8
TORSDOF 9
ENDMDL
MODEL 6
REMARK VINA RESULT:    -4.089     13.378     14.640
REMARK INTER + INTRA:          -7.013
REMARK INTER:                  -6.620
REMARK INTRA:                  -0.394
REMARK UNBOUND:                -0.773
REMARK SMILES O=C([O-])CCCCCCCCC(=O)[O-]
REMARK SMILES IDX 7 1 6 2 5 3 4 4 2 5 1 6 3 7 8 8 9 9 10 10 11 11 12 12 13 13
REMARK SMILES IDX 14 14
REMARK H PARENT
REMARK Flexibility Score: inf
ROOT
ATOM      1  C   UNL     1      97.306  85.538  81.243  1.00  0.00     0.000 C 
ENDROOT
BRANCH   1   2
ATOM      2  C   UNL     1      98.796  85.169  81.145  1.00  0.00     0.000 C 
BRANCH   2   3
ATOM      3  C   UNL     1      99.132  83.868  81.891  1.00  0.00     0.006 C 
BRANCH   3   4
ATOM      4  C   UNL     1     100.625  83.743  82.219  1.00  0.00     0.053 C 
BRANCH   4   5
ATOM      5  C   UNL     1     100.945  84.479  83.482  1.00  0.00     0.041 C 
ATOM      6  O   UNL     1     101.490  85.613  83.435  1.00  0.00    -0.550 OA
ATOM      7  O   UNL     1     100.595  83.934  84.711  1.00  0.00    -0.550 OA
ENDBRANCH   4   5
ENDBRANCH   3   4
ENDBRANCH   2   3
ENDBRANCH   1   2
BRANCH   1   8
ATOM      8  C   UNL     1      96.779  86.236  79.976  1.00  0.00     0.000 C 
BRANCH   8   9
ATOM      9  C   UNL     1      95.480  85.644  79.393  1.00  0.00     0.000 C 
BRANCH   9  10
ATOM     10  C   UNL     1      95.034  84.303  80.009  1.00  0.00     0.006 C 
BRANCH  10  11
ATOM     11  C   UNL     1      93.798  83.679  79.343  1.00  0.00     0.053 C 
BRANCH  11  12
ATOM     12  C   UNL     1      92.537  84.391  79.723  1.00  0.00     0.041 C 
ATOM     13  O   UNL     1      92.241  84.552  80.936  1.00  0.00    -0.550 OA
ATOM     14  O   UNL     1      91.671  84.848  78.736  1.00  0.00    -0.550 OA
ENDBRANCH  11  12
ENDBRANCH  10  11
ENDBRANCH   9  10
ENDBRANCH   8   9
ENDBRANCH   1   8
TORSDOF 9
ENDMDL
MODEL 7
REMARK VINA RESULT:    -4.083      2.688      4.245
REMARK INTER + INTRA:          -7.005
REMARK INTER:                  -6.346
REMARK INTRA:                  -0.659
REMARK UNBOUND:                -0.773
REMARK SMILES O=C([O-])CCCCCCCCC(=O)[O-]
REMARK SMILES IDX 7 1 6 2 5 3 4 4 2 5 1 6 3 7 8 8 9 9 10 10 11 11 12 12 13 13
REMARK SMILES IDX 14 14
REMARK H PARENT
REMARK Flexibility Score: inf
ROOT
ATOM      1  C   UNL     1      88.014  77.160  75.296  1.00  0.00     0.000 C 
ENDROOT
BRANCH   1   2
ATOM      2  C   UNL     1      86.758  76.893  76.143  1.00  0.00     0.000 C 
BRANCH   2   3
ATOM      3  C   UNL     1      85.554  76.459  75.291  1.00  0.00     0.006 C 
BRANCH   3   4
ATOM      4  C   UNL     1      84.989  77.603  74.440  1.00  0.00     0.053 C 
BRANCH   4   5
ATOM      5  C   UNL     1      85.213  77.330  72.985  1.00  0.00     0.041 C 
ATOM      6  O   UNL     1      85.337  78.284  72.172  1.00  0.00    -0.550 OA
ATOM      7  O   UNL     1      85.333  76.021  72.534  1.00  0.00    -0.550 OA
ENDBRANCH   4   5
ENDBRANCH   3   4
ENDBRANCH   2   3
ENDBRANCH   1   2
BRANCH   1   8
ATOM      8  C   UNL     1      88.386  75.972  74.390  1.00  0.00     0.000 C 
BRANCH   8   9
ATOM      9  C   UNL     1      89.781  76.054  73.739  1.00  0.00     0.000 C 
BRANCH   9  10
ATOM     10  C   UNL     1      89.782  76.235  72.208  1.00  0.00     0.006 C 
BRANCH  10  11
ATOM     11  C   UNL     1      88.673  77.157  71.678  1.00  0.00     0.053 C 
BRANCH  11  12
ATOM     12  C   UNL     1      89.228  78.406  71.066  1.00  0.00     0.041 C 
ATOM     13  O   UNL     1      88.671  79.516  71.276  1.00  0.00    -0.550 OA
ATOM     14  O   UNL     1      90.339  78.340  70.235  1.00  0.00    -0.550 OA
ENDBRANCH  11  12
ENDBRANCH  10  11
ENDBRANCH   9  10
ENDBRANCH   8   9
ENDBRANCH   1   8
TORSDOF 9
ENDMDL
MODEL 8
REMARK VINA RESULT:    -4.060     12.462     14.044
REMARK INTER + INTRA:          -6.970
REMARK INTER:                  -6.527
REMARK INTRA:                  -0.443
REMARK UNBOUND:                -0.773
REMARK SMILES O=C([O-])CCCCCCCCC(=O)[O-]
REMARK SMILES IDX 7 1 6 2 5 3 4 4 2 5 1 6 3 7 8 8 9 9 10 10 11 11 12 12 13 13
REMARK SMILES IDX 14 14
REMARK H PARENT
REMARK Flexibility Score: inf
ROOT
ATOM      1  C   UNL     1      95.047  85.608  79.080  1.00  0.00     0.000 C 
ENDROOT
BRANCH   1   2
ATOM      2  C   UNL     1      94.904  84.395  80.016  1.00  0.00     0.000 C 
BRANCH   2   3
ATOM      3  C   UNL     1      93.577  83.647  79.811  1.00  0.00     0.006 C 
BRANCH   3   4
ATOM      4  C   UNL     1      92.479  84.541  79.222  1.00  0.00     0.053 C 
BRANCH   4   5
ATOM      5  C   UNL     1      91.217  84.407  80.015  1.00  0.00     0.041 C 
ATOM      6  O   UNL     1      91.266  84.203  81.257  1.00  0.00    -0.550 OA
ATOM      7  O   UNL     1      89.984  84.556  79.391  1.00  0.00    -0.550 OA
ENDBRANCH   4   5
ENDBRANCH   3   4
ENDBRANCH   2   3
ENDBRANCH   1   2
BRANCH   1   8
ATOM      8  C   UNL     1      96.170  86.568  79.515  1.00  0.00     0.000 C 
BRANCH   8   9
ATOM      9  C   UNL     1      96.895  86.183  80.819  1.00  0.00     0.000 C 
BRANCH   9  10
ATOM     10  C   UNL     1      98.399  85.875  80.669  1.00  0.00     0.006 C 
BRANCH  10  11
ATOM     11  C   UNL     1      99.092  85.453  81.974  1.00  0.00     0.053 C 
BRANCH  11  12
ATOM     12  C   UNL     1      99.485  84.007  81.957  1.00  0.00     0.041 C 
ATOM     13  O   UNL     1      98.601  83.111  81.918  1.00  0.00    -0.550 OA
ATOM     14  O   UNL     1     100.826  83.650  82.019  1.00  0.00    -0.550 OA
ENDBRANCH  11  12
ENDBRANCH  10  11
ENDBRANCH   9  10
ENDBRANCH   8   9
ENDBRANCH   1   8
TORSDOF 9
ENDMDL
MODEL 9
REMARK VINA RESULT:    -4.052     13.461     14.755
REMARK INTER + INTRA:          -6.957
REMARK INTER:                  -6.612
REMARK INTRA:                  -0.345
REMARK UNBOUND:                -0.773
REMARK SMILES O=C([O-])CCCCCCCCC(=O)[O-]
REMARK SMILES IDX 7 1 6 2 5 3 4 4 2 5 1 6 3 7 8 8 9 9 10 10 11 11 12 12 13 13
REMARK SMILES IDX 14 14
REMARK H PARENT
REMARK Flexibility Score: inf
ROOT
ATOM      1  C   UNL     1      97.314  84.735  82.044  1.00  0.00     0.000 C 
ENDROOT
BRANCH   1   2
ATOM      2  C   UNL     1      98.097  83.424  81.863  1.00  0.00     0.000 C 
BRANCH   2   3
ATOM      3  C   UNL     1      99.619  83.639  81.876  1.00  0.00     0.006 C 
BRANCH   3   4
ATOM      4  C   UNL     1     100.162  83.929  83.282  1.00  0.00     0.053 C 
BRANCH   4   5
ATOM      5  C   UNL     1     101.197  85.008  83.227  1.00  0.00     0.041 C 
ATOM      6  O   UNL     1     102.405  84.720  83.017  1.00  0.00    -0.550 OA
ATOM      7  O   UNL     1     100.821  86.340  83.360  1.00  0.00    -0.550 OA
ENDBRANCH   4   5
ENDBRANCH   3   4
ENDBRANCH   2   3
ENDBRANCH   1   2
BRANCH   1   8
ATOM      8  C   UNL     1      97.301  85.603  80.772  1.00  0.00     0.000 C 
BRANCH   8   9
ATOM      9  C   UNL     1      96.036  85.470  79.900  1.00  0.00     0.000 C 
BRANCH   9  10
ATOM     10  C   UNL     1      95.067  84.345  80.315  1.00  0.00     0.006 C 
BRANCH  10  11
ATOM     11  C   UNL     1      94.064  83.939  79.224  1.00  0.00     0.053 C 
BRANCH  11  12
ATOM     12  C   UNL     1      92.675  84.399  79.540  1.00  0.00     0.041 C 
ATOM     13  O   UNL     1      91.979  84.966  78.657  1.00  0.00    -0.550 OA
ATOM     14  O   UNL     1      92.161  84.233  80.821  1.00  0.00    -0.550 OA
ENDBRANCH  11  12
ENDBRANCH  10  11
ENDBRANCH   9  10
ENDBRANCH   8   9
ENDBRANCH   1   8
TORSDOF 9
ENDMDL
