MODEL 1
REMARK VINA RESULT:    -6.090      0.000      0.000
REMARK INTER + INTRA:         -12.454
REMARK INTER:                 -11.074
REMARK INTRA:                  -1.380
REMARK UNBOUND:                -1.380
REMARK SMILES CCCCCC=CCC=CCCCCCCCC(=O)[O-]
REMARK SMILES IDX 11 1 12 2 13 3 14 4 15 5 16 6 17 7 18 8 19 9 20 10 10 11
REMARK SMILES IDX 9 12 8 13 7 14 6 15 5 16 4 17 3 18 2 19 1 20
REMARK H PARENT
REMARK Flexibility Score: inf
ROOT
ATOM      1  C   UNL     1     -10.804  12.551   9.430  1.00  0.00     0.027 C 
ENDROOT
BRANCH   1   2
ATOM      2  C   UNL     1     -10.357  14.010   9.611  1.00  0.00     0.004 C 
BRANCH   2   3
ATOM      3  C   UNL     1      -9.193  14.378   8.674  1.00  0.00     0.000 C 
BRANCH   3   4
ATOM      4  C   UNL     1      -7.849  14.470   9.412  1.00  0.00     0.000 C 
BRANCH   4   5
ATOM      5  C   UNL     1      -7.984  15.092  10.814  1.00  0.00     0.000 C 
BRANCH   5   6
ATOM      6  C   UNL     1      -7.175  14.333  11.882  1.00  0.00     0.006 C 
BRANCH   6   7
ATOM      7  C   UNL     1      -7.339  12.806  11.829  1.00  0.00     0.053 C 
BRANCH   7   8
ATOM      8  C   UNL     1      -8.374  12.320  12.796  1.00  0.00     0.041 C 
ATOM      9  O   UNL     1      -8.441  12.810  13.954  1.00  0.00    -0.550 OA
ATOM     10  O   UNL     1      -9.287  11.346  12.407  1.00  0.00    -0.550 OA
ENDBRANCH   7   8
ENDBRANCH   6   7
ENDBRANCH   5   6
ENDBRANCH   4   5
ENDBRANCH   3   4
ENDBRANCH   2   3
ENDBRANCH   1   2
BRANCH   1  11
ATOM     11  C   UNL     1     -11.063  12.205   7.988  1.00  0.00    -0.031 C 
ATOM     12  C   UNL     1     -11.646  11.048   7.636  1.00  0.00    -0.027 C 
BRANCH  12  13
ATOM     13  C   UNL     1     -11.889  10.698   6.194  1.00  0.00     0.054 C 
BRANCH  13  14
ATOM     14  C   UNL     1     -11.105  11.597   5.279  1.00  0.00    -0.027 C 
ATOM     15  C   UNL     1     -10.782  11.220   4.034  1.00  0.00    -0.031 C 
BRANCH  15  16
ATOM     16  C   UNL     1      -9.992  12.132   3.135  1.00  0.00     0.027 C 
BRANCH  16  17
ATOM     17  C   UNL     1      -9.027  13.006   3.946  1.00  0.00     0.004 C 
BRANCH  17  18
ATOM     18  C   UNL     1      -7.780  13.426   3.145  1.00  0.00     0.000 C 
BRANCH  18  19
ATOM     19  C   UNL     1      -7.031  12.268   2.463  1.00  0.00    -0.003 C 
ATOM     20  C   UNL     1      -5.938  11.661   3.344  1.00  0.00     0.004 C 
ENDBRANCH  18  19
ENDBRANCH  17  18
ENDBRANCH  16  17
ENDBRANCH  15  16
ENDBRANCH  13  14
ENDBRANCH  12  13
ENDBRANCH   1  11
TORSDOF 14
ENDMDL
MODEL 2
REMARK VINA RESULT:    -6.013      3.055      6.985
REMARK INTER + INTRA:         -12.315
REMARK INTER:                 -11.101
REMARK INTRA:                  -1.213
REMARK UNBOUND:                -1.380
REMARK SMILES CCCCCC=CCC=CCCCCCCCC(=O)[O-]
REMARK SMILES IDX 11 1 12 2 13 3 14 4 15 5 16 6 17 7 18 8 19 9 20 10 10 11
REMARK SMILES IDX 9 12 8 13 7 14 6 15 5 16 4 17 3 18 2 19 1 20
REMARK H PARENT
REMARK Flexibility Score: inf
ROOT
ATOM      1  C   UNL     1      -9.641  12.050   2.999  1.00  0.00     0.027 C 
ENDROOT
BRANCH   1   2
ATOM      2  C   UNL     1      -9.068  13.241   3.783  1.00  0.00     0.004 C 
BRANCH   2   3
ATOM      3  C   UNL     1      -7.532  13.289   3.721  1.00  0.00     0.000 C 
BRANCH   3   4
ATOM      4  C   UNL     1      -6.964  12.478   2.546  1.00  0.00     0.000 C 
BRANCH   4   5
ATOM      5  C   UNL     1      -5.850  11.508   2.979  1.00  0.00     0.000 C 
BRANCH   5   6
ATOM      6  C   UNL     1      -6.329  10.047   3.052  1.00  0.00     0.006 C 
BRANCH   6   7
ATOM      7  C   UNL     1      -5.202   9.026   3.278  1.00  0.00     0.053 C 
BRANCH   7   8
ATOM      8  C   UNL     1      -4.914   8.823   4.733  1.00  0.00     0.041 C 
ATOM      9  O   UNL     1      -4.365   9.735   5.405  1.00  0.00    -0.550 OA
ATOM     10  O   UNL     1      -5.280   7.635   5.356  1.00  0.00    -0.550 OA
ENDBRANCH   7   8
ENDBRANCH   6   7
ENDBRANCH   5   6
ENDBRANCH   4   5
ENDBRANCH   3   4
ENDBRANCH   2   3
ENDBRANCH   1   2
BRANCH   1  11
ATOM     11  C   UNL     1     -10.525  11.176   3.846  1.00  0.00    -0.031 C 
ATOM     12  C   UNL     1     -10.962  11.575   5.051  1.00  0.00    -0.027 C 
BRANCH  12  13
ATOM     13  C   UNL     1     -11.833  10.693   5.903  1.00  0.00     0.054 C 
BRANCH  13  14
ATOM     14  C   UNL     1     -11.752  11.088   7.351  1.00  0.00    -0.027 C 
ATOM     15  C   UNL     1     -10.992  12.117   7.756  1.00  0.00    -0.031 C 
BRANCH  15  16
ATOM     16  C   UNL     1     -10.920  12.493   9.211  1.00  0.00     0.027 C 
BRANCH  16  17
ATOM     17  C   UNL     1     -10.527  13.966   9.382  1.00  0.00     0.004 C 
BRANCH  17  18
ATOM     18  C   UNL     1      -9.115  14.276   8.852  1.00  0.00     0.000 C 
BRANCH  18  19
ATOM     19  C   UNL     1      -8.113  14.750   9.920  1.00  0.00    -0.003 C 
ATOM     20  C   UNL     1      -7.841  13.697  10.994  1.00  0.00     0.004 C 
ENDBRANCH  18  19
ENDBRANCH  17  18
ENDBRANCH  16  17
ENDBRANCH  15  16
ENDBRANCH  13  14
ENDBRANCH  12  13
ENDBRANCH   1  11
TORSDOF 14
ENDMDL
MODEL 3
REMARK VINA RESULT:    -5.927      4.179      8.027
REMARK INTER + INTRA:         -12.158
REMARK INTER:                 -10.995
REMARK INTRA:                  -1.163
REMARK UNBOUND:                -1.380
REMARK SMILES CCCCCC=CCC=CCCCCCCCC(=O)[O-]
REMARK SMILES IDX 11 1 12 2 13 3 14 4 15 5 16 6 17 7 18 8 19 9 20 10 10 11
REMARK SMILES IDX 9 12 8 13 7 14 6 15 5 16 4 17 3 18 2 19 1 20
REMARK H PARENT
REMARK Flexibility Score: inf
ROOT
ATOM      1  C   UNL     1     -10.853  11.300   3.956  1.00  0.00     0.027 C 
ENDROOT
BRANCH   1   2
ATOM      2  C   UNL     1     -10.095  12.429   3.240  1.00  0.00     0.004 C 
BRANCH   2   3
ATOM      3  C   UNL     1      -9.274  13.286   4.220  1.00  0.00     0.000 C 
BRANCH   3   4
ATOM      4  C   UNL     1      -7.761  13.084   4.054  1.00  0.00     0.000 C 
BRANCH   4   5
ATOM      5  C   UNL     1      -7.417  12.067   2.951  1.00  0.00     0.000 C 
BRANCH   5   6
ATOM      6  C   UNL     1      -6.094  12.393   2.233  1.00  0.00     0.006 C 
BRANCH   6   7
ATOM      7  C   UNL     1      -6.232  13.416   1.095  1.00  0.00     0.053 C 
BRANCH   7   8
ATOM      8  C   UNL     1      -7.585  13.366   0.457  1.00  0.00     0.041 C 
ATOM      9  O   UNL     1      -8.405  14.306   0.632  1.00  0.00    -0.550 OA
ATOM     10  O   UNL     1      -7.932  12.295  -0.357  1.00  0.00    -0.550 OA
ENDBRANCH   7   8
ENDBRANCH   6   7
ENDBRANCH   5   6
ENDBRANCH   4   5
ENDBRANCH   3   4
ENDBRANCH   2   3
ENDBRANCH   1   2
BRANCH   1  11
ATOM     11  C   UNL     1     -10.901  11.497   5.447  1.00  0.00    -0.031 C 
ATOM     12  C   UNL     1     -11.848  10.918   6.203  1.00  0.00    -0.027 C 
BRANCH  12  13
ATOM     13  C   UNL     1     -11.902  11.129   7.691  1.00  0.00     0.054 C 
BRANCH  13  14
ATOM     14  C   UNL     1     -10.911  12.172   8.127  1.00  0.00    -0.027 C 
ATOM     15  C   UNL     1     -11.182  13.022   9.128  1.00  0.00    -0.031 C 
BRANCH  15  16
ATOM     16  C   UNL     1     -10.178  14.062   9.546  1.00  0.00     0.027 C 
BRANCH  16  17
ATOM     17  C   UNL     1      -9.179  13.490  10.560  1.00  0.00     0.004 C 
BRANCH  17  18
ATOM     18  C   UNL     1      -7.973  14.416  10.801  1.00  0.00     0.000 C 
BRANCH  18  19
ATOM     19  C   UNL     1      -8.223  15.900  10.480  1.00  0.00    -0.003 C 
ATOM     20  C   UNL     1      -7.974  16.821  11.674  1.00  0.00     0.004 C 
ENDBRANCH  18  19
ENDBRANCH  17  18
ENDBRANCH  16  17
ENDBRANCH  15  16
ENDBRANCH  13  14
ENDBRANCH  12  13
ENDBRANCH   1  11
TORSDOF 14
ENDMDL
MODEL 4
REMARK VINA RESULT:    -5.890      4.042      7.054
REMARK INTER + INTRA:         -12.089
REMARK INTER:                 -10.997
REMARK INTRA:                  -1.093
REMARK UNBOUND:                -1.380
REMARK SMILES CCCCCC=CCC=CCCCCCCCC(=O)[O-]
REMARK SMILES IDX 11 1 12 2 13 3 14 4 15 5 16 6 17 7 18 8 19 9 20 10 10 11
REMARK SMILES IDX 9 12 8 13 7 14 6 15 5 16 4 17 3 18 2 19 1 20
REMARK H PARENT
REMARK Flexibility Score: inf
ROOT
ATOM      1  C   UNL     1      -7.265  13.056   3.005  1.00  0.00     0.027 C 
ENDROOT
BRANCH   1   2
ATOM      2  C   UNL     1      -8.644  12.680   3.569  1.00  0.00     0.004 C 
BRANCH   2   3
ATOM      3  C   UNL     1      -9.351  11.619   2.708  1.00  0.00     0.000 C 
BRANCH   3   4
ATOM      4  C   UNL     1     -10.681  11.154   3.321  1.00  0.00     0.000 C 
BRANCH   4   5
ATOM      5  C   UNL     1     -11.050  11.934   4.595  1.00  0.00     0.000 C 
BRANCH   5   6
ATOM      6  C   UNL     1     -11.377  11.010   5.783  1.00  0.00     0.006 C 
BRANCH   6   7
ATOM      7  C   UNL     1     -12.747  11.276   6.428  1.00  0.00     0.053 C 
BRANCH   7   8
ATOM      8  C   UNL     1     -12.662  11.328   7.922  1.00  0.00     0.041 C 
ATOM      9  O   UNL     1     -12.156  10.369   8.563  1.00  0.00    -0.550 OA
ATOM     10  O   UNL     1     -13.114  12.450   8.606  1.00  0.00    -0.550 OA
ENDBRANCH   7   8
ENDBRANCH   6   7
ENDBRANCH   5   6
ENDBRANCH   4   5
ENDBRANCH   3   4
ENDBRANCH   2   3
ENDBRANCH   1   2
BRANCH   1  11
ATOM     11  C   UNL     1      -6.422  11.848   2.696  1.00  0.00    -0.031 C 
ATOM     12  C   UNL     1      -5.638  11.281   3.626  1.00  0.00    -0.027 C 
BRANCH  12  13
ATOM     13  C   UNL     1      -4.785  10.083   3.310  1.00  0.00     0.054 C 
BRANCH  13  14
ATOM     14  C   UNL     1      -4.739   9.130   4.472  1.00  0.00    -0.027 C 
ATOM     15  C   UNL     1      -5.524   8.043   4.518  1.00  0.00    -0.031 C 
BRANCH  15  16
ATOM     16  C   UNL     1      -5.467   7.104   5.692  1.00  0.00     0.027 C 
BRANCH  16  17
ATOM     17  C   UNL     1      -4.405   7.550   6.706  1.00  0.00     0.004 C 
BRANCH  17  18
ATOM     18  C   UNL     1      -5.008   8.270   7.927  1.00  0.00     0.000 C 
BRANCH  18  19
ATOM     19  C   UNL     1      -4.090   9.324   8.574  1.00  0.00    -0.003 C 
ATOM     20  C   UNL     1      -3.752  10.480   7.633  1.00  0.00     0.004 C 
ENDBRANCH  18  19
ENDBRANCH  17  18
ENDBRANCH  16  17
ENDBRANCH  15  16
ENDBRANCH  13  14
ENDBRANCH  12  13
ENDBRANCH   1  11
TORSDOF 14
ENDMDL
MODEL 5
REMARK VINA RESULT:    -5.872      4.449      6.906
REMARK INTER + INTRA:         -12.058
REMARK INTER:                 -11.146
REMARK INTRA:                  -0.912
REMARK UNBOUND:                -1.380
REMARK SMILES CCCCCC=CCC=CCCCCCCCC(=O)[O-]
REMARK SMILES IDX 11 1 12 2 13 3 14 4 15 5 16 6 17 7 18 8 19 9 20 10 10 11
REMARK SMILES IDX 9 12 8 13 7 14 6 15 5 16 4 17 3 18 2 19 1 20
REMARK H PARENT
REMARK Flexibility Score: inf
ROOT
ATOM      1  C   UNL     1     -10.044  11.132   2.473  1.00  0.00     0.027 C 
ENDROOT
BRANCH   1   2
ATOM      2  C   UNL     1     -10.764  12.171   3.347  1.00  0.00     0.004 C 
BRANCH   2   3
ATOM      3  C   UNL     1     -10.510  11.939   4.847  1.00  0.00     0.000 C 
BRANCH   3   4
ATOM      4  C   UNL     1     -11.587  11.056   5.497  1.00  0.00     0.000 C 
BRANCH   4   5
ATOM      5  C   UNL     1     -11.610  11.183   7.030  1.00  0.00     0.000 C 
BRANCH   5   6
ATOM      6  C   UNL     1     -12.790  10.430   7.672  1.00  0.00     0.006 C 
BRANCH   6   7
ATOM      7  C   UNL     1     -13.053   9.041   7.069  1.00  0.00     0.053 C 
BRANCH   7   8
ATOM      8  C   UNL     1     -13.653   8.101   8.068  1.00  0.00     0.041 C 
ATOM      9  O   UNL     1     -14.378   8.542   8.999  1.00  0.00    -0.550 OA
ATOM     10  O   UNL     1     -13.436   6.733   7.955  1.00  0.00    -0.550 OA
ENDBRANCH   7   8
ENDBRANCH   6   7
ENDBRANCH   5   6
ENDBRANCH   4   5
ENDBRANCH   3   4
ENDBRANCH   2   3
ENDBRANCH   1   2
BRANCH   1  11
ATOM     11  C   UNL     1      -8.563  11.086   2.737  1.00  0.00    -0.031 C 
ATOM     12  C   UNL     1      -7.744  12.063   2.319  1.00  0.00    -0.027 C 
BRANCH  12  13
ATOM     13  C   UNL     1      -6.262  12.007   2.570  1.00  0.00     0.054 C 
BRANCH  13  14
ATOM     14  C   UNL     1      -5.885  10.749   3.302  1.00  0.00    -0.027 C 
ATOM     15  C   UNL     1      -4.872  10.726   4.180  1.00  0.00    -0.031 C 
BRANCH  15  16
ATOM     16  C   UNL     1      -4.506   9.455   4.898  1.00  0.00     0.027 C 
BRANCH  16  17
ATOM     17  C   UNL     1      -3.982   9.748   6.310  1.00  0.00     0.004 C 
BRANCH  17  18
ATOM     18  C   UNL     1      -4.474   8.731   7.356  1.00  0.00     0.000 C 
BRANCH  18  19
ATOM     19  C   UNL     1      -5.152   7.479   6.771  1.00  0.00    -0.003 C 
ATOM     20  C   UNL     1      -5.932   6.679   7.814  1.00  0.00     0.004 C 
ENDBRANCH  18  19
ENDBRANCH  17  18
ENDBRANCH  16  17
ENDBRANCH  15  16
ENDBRANCH  13  14
ENDBRANCH  12  13
ENDBRANCH   1  11
TORSDOF 14
ENDMDL
MODEL 6
REMARK VINA RESULT:    -5.847      2.006      3.471
REMARK INTER + INTRA:         -12.012
REMARK INTER:                 -10.931
REMARK INTRA:                  -1.081
REMARK UNBOUND:                -1.380
REMARK SMILES CCCCCC=CCC=CCCCCCCCC(=O)[O-]
REMARK SMILES IDX 11 1 12 2 13 3 14 4 15 5 16 6 17 7 18 8 19 9 20 10 10 11
REMARK SMILES IDX 9 12 8 13 7 14 6 15 5 16 4 17 3 18 2 19 1 20
REMARK H PARENT
REMARK Flexibility Score: inf
ROOT
ATOM      1  C   UNL     1     -12.074  10.420   7.222  1.00  0.00     0.027 C 
ENDROOT
BRANCH   1   2
ATOM      2  C   UNL     1     -13.160  11.321   7.829  1.00  0.00     0.004 C 
BRANCH   2   3
ATOM      3  C   UNL     1     -12.561  12.508   8.602  1.00  0.00     0.000 C 
BRANCH   3   4
ATOM      4  C   UNL     1     -11.126  12.236   9.079  1.00  0.00     0.000 C 
BRANCH   4   5
ATOM      5  C   UNL     1     -10.236  13.491   9.024  1.00  0.00     0.000 C 
BRANCH   5   6
ATOM      6  C   UNL     1      -9.324  13.628  10.257  1.00  0.00     0.006 C 
BRANCH   6   7
ATOM      7  C   UNL     1      -8.064  14.475  10.018  1.00  0.00     0.053 C 
BRANCH   7   8
ATOM      8  C   UNL     1      -8.177  15.835  10.635  1.00  0.00     0.041 C 
ATOM      9  O   UNL     1      -7.232  16.298  11.327  1.00  0.00    -0.550 OA
ATOM     10  O   UNL     1      -9.315  16.604  10.422  1.00  0.00    -0.550 OA
ENDBRANCH   7   8
ENDBRANCH   6   7
ENDBRANCH   5   6
ENDBRANCH   4   5
ENDBRANCH   3   4
ENDBRANCH   2   3
ENDBRANCH   1   2
BRANCH   1  11
ATOM     11  C   UNL     1     -11.807  10.739   5.775  1.00  0.00    -0.031 C 
ATOM     12  C   UNL     1     -10.941  11.699   5.415  1.00  0.00    -0.027 C 
BRANCH  12  13
ATOM     13  C   UNL     1     -10.687  12.026   3.969  1.00  0.00     0.054 C 
BRANCH  13  14
ATOM     14  C   UNL     1      -9.339  12.665   3.787  1.00  0.00    -0.027 C 
ATOM     15  C   UNL     1      -8.473  12.224   2.862  1.00  0.00    -0.031 C 
BRANCH  15  16
ATOM     16  C   UNL     1      -7.126  12.874   2.699  1.00  0.00     0.027 C 
BRANCH  16  17
ATOM     17  C   UNL     1      -6.053  11.839   2.340  1.00  0.00     0.004 C 
BRANCH  17  18
ATOM     18  C   UNL     1      -5.417  11.179   3.577  1.00  0.00     0.000 C 
BRANCH  18  19
ATOM     19  C   UNL     1      -5.468   9.641   3.587  1.00  0.00    -0.003 C 
ATOM     20  C   UNL     1      -6.439   9.068   2.554  1.00  0.00     0.004 C 
ENDBRANCH  18  19
ENDBRANCH  17  18
ENDBRANCH  16  17
ENDBRANCH  15  16
ENDBRANCH  13  14
ENDBRANCH  12  13
ENDBRANCH   1  11
TORSDOF 14
ENDMDL
MODEL 7
REMARK VINA RESULT:    -5.766      4.140      7.236
REMARK INTER + INTRA:         -11.865
REMARK INTER:                 -10.682
REMARK INTRA:                  -1.183
REMARK UNBOUND:                -1.380
REMARK SMILES CCCCCC=CCC=CCCCCCCCC(=O)[O-]
REMARK SMILES IDX 11 1 12 2 13 3 14 4 15 5 16 6 17 7 18 8 19 9 20 10 10 11
REMARK SMILES IDX 9 12 8 13 7 14 6 15 5 16 4 17 3 18 2 19 1 20
REMARK H PARENT
REMARK Flexibility Score: inf
ROOT
ATOM      1  C   UNL     1      -7.269  12.567   2.708  1.00  0.00     0.027 C 
ENDROOT
BRANCH   1   2
ATOM      2  C   UNL     1      -7.795  13.541   3.773  1.00  0.00     0.004 C 
BRANCH   2   3
ATOM      3  C   UNL     1      -9.163  13.106   4.329  1.00  0.00     0.000 C 
BRANCH   3   4
ATOM      4  C   UNL     1      -9.995  12.325   3.301  1.00  0.00     0.000 C 
BRANCH   4   5
ATOM      5  C   UNL     1     -10.781  11.164   3.934  1.00  0.00     0.000 C 
BRANCH   5   6
ATOM      6  C   UNL     1     -11.385  11.531   5.302  1.00  0.00     0.006 C 
BRANCH   6   7
ATOM      7  C   UNL     1     -11.996  10.342   6.061  1.00  0.00     0.053 C 
BRANCH   7   8
ATOM      8  C   UNL     1     -11.953  10.542   7.544  1.00  0.00     0.041 C 
ATOM      9  O   UNL     1     -11.354  11.535   8.033  1.00  0.00    -0.550 OA
ATOM     10  O   UNL     1     -12.603   9.647   8.386  1.00  0.00    -0.550 OA
ENDBRANCH   7   8
ENDBRANCH   6   7
ENDBRANCH   5   6
ENDBRANCH   4   5
ENDBRANCH   3   4
ENDBRANCH   2   3
ENDBRANCH   1   2
BRANCH   1  11
ATOM     11  C   UNL     1      -6.273  11.587   3.268  1.00  0.00    -0.031 C 
ATOM     12  C   UNL     1      -6.038  10.406   2.675  1.00  0.00    -0.027 C 
BRANCH  12  13
ATOM     13  C   UNL     1      -5.053   9.423   3.245  1.00  0.00     0.054 C 
BRANCH  13  14
ATOM     14  C   UNL     1      -4.645   9.812   4.639  1.00  0.00    -0.027 C 
ATOM     15  C   UNL     1      -4.330   8.889   5.560  1.00  0.00    -0.031 C 
BRANCH  15  16
ATOM     16  C   UNL     1      -3.930   9.298   6.951  1.00  0.00     0.027 C 
BRANCH  16  17
ATOM     17  C   UNL     1      -4.356   8.244   7.982  1.00  0.00     0.004 C 
BRANCH  17  18
ATOM     18  C   UNL     1      -5.524   7.367   7.495  1.00  0.00     0.000 C 
BRANCH  18  19
ATOM     19  C   UNL     1      -5.368   5.864   7.784  1.00  0.00    -0.003 C 
ATOM     20  C   UNL     1      -4.702   5.100   6.640  1.00  0.00     0.004 C 
ENDBRANCH  18  19
ENDBRANCH  17  18
ENDBRANCH  16  17
ENDBRANCH  15  16
ENDBRANCH  13  14
ENDBRANCH  12  13
ENDBRANCH   1  11
TORSDOF 14
ENDMDL
MODEL 8
REMARK VINA RESULT:    -5.743      3.270      7.318
REMARK INTER + INTRA:         -11.823
REMARK INTER:                 -10.585
REMARK INTRA:                  -1.238
REMARK UNBOUND:                -1.380
REMARK SMILES CCCCCC=CCC=CCCCCCCCC(=O)[O-]
REMARK SMILES IDX 11 1 12 2 13 3 14 4 15 5 16 6 17 7 18 8 19 9 20 10 10 11
REMARK SMILES IDX 9 12 8 13 7 14 6 15 5 16 4 17 3 18 2 19 1 20
REMARK H PARENT
REMARK Flexibility Score: inf
ROOT
ATOM      1  C   UNL     1     -11.164  11.122   4.309  1.00  0.00     0.027 C 
ENDROOT
BRANCH   1   2
ATOM      2  C   UNL     1     -10.477  12.289   3.584  1.00  0.00     0.004 C 
BRANCH   2   3
ATOM      3  C   UNL     1      -9.374  12.934   4.441  1.00  0.00     0.000 C 
BRANCH   3   4
ATOM      4  C   UNL     1      -8.140  13.327   3.616  1.00  0.00     0.000 C 
BRANCH   4   5
ATOM      5  C   UNL     1      -8.191  12.780   2.178  1.00  0.00     0.000 C 
BRANCH   5   6
ATOM      6  C   UNL     1      -6.991  11.875   1.843  1.00  0.00     0.006 C 
BRANCH   6   7
ATOM      7  C   UNL     1      -7.069  10.471   2.463  1.00  0.00     0.053 C 
BRANCH   7   8
ATOM      8  C   UNL     1      -5.841  10.138   3.253  1.00  0.00     0.041 C 
ATOM      9  O   UNL     1      -5.349   8.980   3.203  1.00  0.00    -0.550 OA
ATOM     10  O   UNL     1      -5.221  11.117   4.021  1.00  0.00    -0.550 OA
ENDBRANCH   7   8
ENDBRANCH   6   7
ENDBRANCH   5   6
ENDBRANCH   4   5
ENDBRANCH   3   4
ENDBRANCH   2   3
ENDBRANCH   1   2
BRANCH   1  11
ATOM     11  C   UNL     1     -11.238  11.335   5.797  1.00  0.00    -0.031 C 
ATOM     12  C   UNL     1     -11.979  10.540   6.586  1.00  0.00    -0.027 C 
BRANCH  12  13
ATOM     13  C   UNL     1     -12.063  10.765   8.070  1.00  0.00     0.054 C 
BRANCH  13  14
ATOM     14  C   UNL     1     -11.803  12.205   8.416  1.00  0.00    -0.027 C 
ATOM     15  C   UNL     1     -10.750  12.568   9.162  1.00  0.00    -0.031 C 
BRANCH  15  16
ATOM     16  C   UNL     1     -10.511  14.014   9.501  1.00  0.00     0.027 C 
BRANCH  16  17
ATOM     17  C   UNL     1      -9.121  14.469   9.035  1.00  0.00     0.004 C 
BRANCH  17  18
ATOM     18  C   UNL     1      -8.228  14.951  10.194  1.00  0.00     0.000 C 
BRANCH  18  19
ATOM     19  C   UNL     1      -7.518  13.830  10.972  1.00  0.00    -0.003 C 
ATOM     20  C   UNL     1      -7.158  14.230  12.403  1.00  0.00     0.004 C 
ENDBRANCH  18  19
ENDBRANCH  17  18
ENDBRANCH  16  17
ENDBRANCH  15  16
ENDBRANCH  13  14
ENDBRANCH  12  13
ENDBRANCH   1  11
TORSDOF 14
ENDMDL
MODEL 9
REMARK VINA RESULT:    -5.690      1.774      2.918
REMARK INTER + INTRA:         -11.726
REMARK INTER:                 -10.556
REMARK INTRA:                  -1.170
REMARK UNBOUND:                -1.380
REMARK SMILES CCCCCC=CCC=CCCCCCCCC(=O)[O-]
REMARK SMILES IDX 11 1 12 2 13 3 14 4 15 5 16 6 17 7 18 8 19 9 20 10 10 11
REMARK SMILES IDX 9 12 8 13 7 14 6 15 5 16 4 17 3 18 2 19 1 20
REMARK H PARENT
REMARK Flexibility Score: inf
ROOT
ATOM      1  C   UNL     1     -12.090  11.409   7.466  1.00  0.00     0.027 C 
ENDROOT
BRANCH   1   2
ATOM      2  C   UNL     1     -10.876  12.200   7.978  1.00  0.00     0.004 C 
BRANCH   2   3
ATOM      3  C   UNL     1     -11.207  13.010   9.243  1.00  0.00     0.000 C 
BRANCH   3   4
ATOM      4  C   UNL     1     -10.425  14.330   9.319  1.00  0.00     0.000 C 
BRANCH   4   5
ATOM      5  C   UNL     1      -9.119  14.292   8.505  1.00  0.00     0.000 C 
BRANCH   5   6
ATOM      6  C   UNL     1      -7.869  14.511   9.376  1.00  0.00     0.006 C 
BRANCH   6   7
ATOM      7  C   UNL     1      -8.087  14.236  10.872  1.00  0.00     0.053 C 
BRANCH   7   8
ATOM      8  C   UNL     1      -7.746  15.426  11.715  1.00  0.00     0.041 C 
ATOM      9  O   UNL     1      -7.874  15.374  12.967  1.00  0.00    -0.550 OA
ATOM     10  O   UNL     1      -7.258  16.584  11.122  1.00  0.00    -0.550 OA
ENDBRANCH   7   8
ENDBRANCH   6   7
ENDBRANCH   5   6
ENDBRANCH   4   5
ENDBRANCH   3   4
ENDBRANCH   2   3
ENDBRANCH   1   2
BRANCH   1  11
ATOM     11  C   UNL     1     -12.002  11.112   5.994  1.00  0.00    -0.031 C 
ATOM     12  C   UNL     1     -10.948  11.501   5.259  1.00  0.00    -0.027 C 
BRANCH  12  13
ATOM     13  C   UNL     1     -10.870  11.217   3.784  1.00  0.00     0.054 C 
BRANCH  13  14
ATOM     14  C   UNL     1      -9.894  12.137   3.106  1.00  0.00    -0.027 C 
ATOM     15  C   UNL     1      -8.990  12.839   3.805  1.00  0.00    -0.031 C 
BRANCH  15  16
ATOM     16  C   UNL     1      -8.026  13.759   3.108  1.00  0.00     0.027 C 
BRANCH  16  17
ATOM     17  C   UNL     1      -8.656  14.371   1.850  1.00  0.00     0.004 C 
BRANCH  17  18
ATOM     18  C   UNL     1      -7.776  14.203   0.597  1.00  0.00     0.000 C 
BRANCH  18  19
ATOM     19  C   UNL     1      -6.376  13.622   0.863  1.00  0.00    -0.003 C 
ATOM     20  C   UNL     1      -5.253  14.466   0.261  1.00  0.00     0.004 C 
ENDBRANCH  18  19
ENDBRANCH  17  18
ENDBRANCH  16  17
ENDBRANCH  15  16
ENDBRANCH  13  14
ENDBRANCH  12  13
ENDBRANCH   1  11
TORSDOF 14
ENDMDL
