MODEL 1
REMARK VINA RESULT:    -2.042      0.000      0.000
REMARK INTER + INTRA:          -2.955
REMARK INTER:                  -3.116
REMARK INTRA:                   0.162
REMARK UNBOUND:                 0.162
REMARK SMILES O=C([O-])CCCCCCCCC(=O)[O-]
REMARK SMILES IDX 7 1 6 2 5 3 4 4 2 5 1 6 3 7 8 8 9 9 10 10 11 11 12 12 13 13
REMARK SMILES IDX 14 14
REMARK H PARENT
REMARK Flexibility Score: inf
ROOT
ATOM      1  C   UNL     1       8.589  21.022  55.951  1.00  0.00     0.000 C 
ENDROOT
BRANCH   1   2
ATOM      2  C   UNL     1       7.204  21.670  56.125  1.00  0.00     0.000 C 
BRANCH   2   3
ATOM      3  C   UNL     1       6.087  20.892  55.408  1.00  0.00     0.006 C 
BRANCH   3   4
ATOM      4  C   UNL     1       4.865  21.773  55.114  1.00  0.00     0.053 C 
BRANCH   4   5
ATOM      5  C   UNL     1       3.956  21.145  54.103  1.00  0.00     0.041 C 
ATOM      6  O   UNL     1       3.408  21.853  53.217  1.00  0.00    -0.550 OA
ATOM      7  O   UNL     1       3.737  19.774  54.122  1.00  0.00    -0.550 OA
ENDBRANCH   4   5
ENDBRANCH   3   4
ENDBRANCH   2   3
ENDBRANCH   1   2
BRANCH   1   8
ATOM      8  C   UNL     1       9.780  22.001  55.986  1.00  0.00     0.000 C 
BRANCH   8   9
ATOM      9  C   UNL     1      11.164  21.340  56.124  1.00  0.00     0.000 C 
BRANCH   9  10
ATOM     10  C   UNL     1      11.209  19.922  55.537  1.00  0.00     0.006 C 
BRANCH  10  11
ATOM     11  C   UNL     1      12.567  19.262  55.802  1.00  0.00     0.053 C 
BRANCH  11  12
ATOM     12  C   UNL     1      13.679  20.168  55.381  1.00  0.00     0.041 C 
ATOM     13  O   UNL     1      14.828  20.036  55.880  1.00  0.00    -0.550 OA
ATOM     14  O   UNL     1      13.461  21.130  54.402  1.00  0.00    -0.550 OA
ENDBRANCH  11  12
ENDBRANCH  10  11
ENDBRANCH   9  10
ENDBRANCH   8   9
ENDBRANCH   1   8
TORSDOF 9
ENDMDL
