MODEL 1
REMARK VINA RESULT:    -4.621      0.000      0.000
REMARK INTER + INTRA:          -7.493
REMARK INTER:                  -6.377
REMARK INTRA:                  -1.117
REMARK UNBOUND:                -1.117
REMARK SMILES CCCCc1cccc(O)c1CCCC
REMARK SMILES IDX 5 1 11 2 9 3 8 4 7 5 6 6 4 7 3 8 2 9 1 10 12 11 13 12 14 13
REMARK SMILES IDX 15 14 10 15
REMARK H PARENT 10 16
REMARK Flexibility Score: inf
ROOT
ATOM      1  C   UNL     1     -11.968  82.609 -10.183  1.00  0.00    -0.041 A 
ATOM      2  C   UNL     1     -13.224  83.036 -10.707  1.00  0.00    -0.003 A 
ATOM      3  C   UNL     1     -13.587  82.638 -12.023  1.00  0.00     0.119 A 
ATOM      4  C   UNL     1     -12.691  81.904 -12.804  1.00  0.00     0.046 A 
ATOM      5  C   UNL     1     -11.448  81.533 -12.303  1.00  0.00     0.004 A 
ATOM      6  C   UNL     1     -11.089  81.878 -11.003  1.00  0.00     0.004 A 
ENDROOT
BRANCH   1   7
ATOM      7  C   UNL     1     -11.500  82.949  -8.784  1.00  0.00     0.036 C 
BRANCH   7   8
ATOM      8  C   UNL     1      -9.979  82.768  -8.659  1.00  0.00     0.004 C 
BRANCH   8   9
ATOM      9  C   UNL     1      -9.215  84.093  -8.782  1.00  0.00    -0.003 C 
ATOM     10  C   UNL     1      -7.881  83.941  -9.512  1.00  0.00     0.004 C 
ENDBRANCH   8   9
ENDBRANCH   7   8
ENDBRANCH   1   7
BRANCH   2  11
ATOM     11  C   UNL     1     -14.181  83.867  -9.871  1.00  0.00     0.040 C 
BRANCH  11  12
ATOM     12  C   UNL     1     -14.047  85.357 -10.206  1.00  0.00     0.005 C 
BRANCH  12  13
ATOM     13  C   UNL     1     -13.227  86.090  -9.138  1.00  0.00    -0.003 C 
ATOM     14  C   UNL     1     -11.888  86.562  -9.700  1.00  0.00     0.004 C 
ENDBRANCH  12  13
ENDBRANCH  11  12
ENDBRANCH   2  11
BRANCH   3  15
ATOM     15  O   UNL     1     -14.828  82.944 -12.590  1.00  0.00    -0.508 OA
ATOM     16  H   UNL     1     -15.129  82.625 -13.500  1.00  0.00     0.293 HD
ENDBRANCH   3  15
TORSDOF 7
ENDMDL
MODEL 2
REMARK VINA RESULT:    -4.320      1.315      2.317
REMARK INTER + INTRA:          -7.078
REMARK INTER:                  -6.011
REMARK INTRA:                  -1.067
REMARK UNBOUND:                -1.117
REMARK SMILES CCCCc1cccc(O)c1CCCC
REMARK SMILES IDX 5 1 11 2 9 3 8 4 7 5 6 6 4 7 3 8 2 9 1 10 12 11 13 12 14 13
REMARK SMILES IDX 15 14 10 15
REMARK H PARENT 10 16
REMARK Flexibility Score: inf
ROOT
ATOM      1  C   UNL     1     -11.929  82.636 -10.136  1.00  0.00    -0.041 A 
ATOM      2  C   UNL     1     -13.187  83.031 -10.679  1.00  0.00    -0.003 A 
ATOM      3  C   UNL     1     -13.520  82.625 -12.000  1.00  0.00     0.119 A 
ATOM      4  C   UNL     1     -12.594  81.913 -12.767  1.00  0.00     0.046 A 
ATOM      5  C   UNL     1     -11.351  81.573 -12.246  1.00  0.00     0.004 A 
ATOM      6  C   UNL     1     -11.020  81.927 -10.941  1.00  0.00     0.004 A 
ENDROOT
BRANCH   1   7
ATOM      7  C   UNL     1     -11.491  82.988  -8.730  1.00  0.00     0.036 C 
BRANCH   7   8
ATOM      8  C   UNL     1     -11.647  81.780  -7.793  1.00  0.00     0.004 C 
BRANCH   8   9
ATOM      9  C   UNL     1     -12.954  81.820  -6.989  1.00  0.00    -0.003 C 
ATOM     10  C   UNL     1     -14.004  80.844  -7.517  1.00  0.00     0.004 C 
ENDBRANCH   8   9
ENDBRANCH   7   8
ENDBRANCH   1   7
BRANCH   2  11
ATOM     11  C   UNL     1     -14.177  83.839  -9.858  1.00  0.00     0.040 C 
BRANCH  11  12
ATOM     12  C   UNL     1     -14.027  85.338 -10.140  1.00  0.00     0.005 C 
BRANCH  12  13
ATOM     13  C   UNL     1     -13.689  86.108  -8.859  1.00  0.00    -0.003 C 
ATOM     14  C   UNL     1     -12.999  87.432  -9.177  1.00  0.00     0.004 C 
ENDBRANCH  12  13
ENDBRANCH  11  12
ENDBRANCH   2  11
BRANCH   3  15
ATOM     15  O   UNL     1     -14.760  82.899 -12.586  1.00  0.00    -0.508 OA
ATOM     16  H   UNL     1     -15.632  82.936 -12.077  1.00  0.00     0.293 HD
ENDBRANCH   3  15
TORSDOF 7
ENDMDL
MODEL 3
REMARK VINA RESULT:    -4.211      1.110      3.619
REMARK INTER + INTRA:          -6.928
REMARK INTER:                  -6.100
REMARK INTRA:                  -0.829
REMARK UNBOUND:                -1.117
REMARK SMILES CCCCc1cccc(O)c1CCCC
REMARK SMILES IDX 5 1 11 2 9 3 8 4 7 5 6 6 4 7 3 8 2 9 1 10 12 11 13 12 14 13
REMARK SMILES IDX 15 14 10 15
REMARK H PARENT 10 16
REMARK Flexibility Score: inf
ROOT
ATOM      1  C   UNL     1     -11.233  83.712  -9.195  1.00  0.00    -0.041 A 
ATOM      2  C   UNL     1     -12.413  83.273  -9.866  1.00  0.00    -0.003 A 
ATOM      3  C   UNL     1     -13.446  84.216 -10.122  1.00  0.00     0.119 A 
ATOM      4  C   UNL     1     -13.326  85.528  -9.656  1.00  0.00     0.046 A 
ATOM      5  C   UNL     1     -12.193  85.935  -8.960  1.00  0.00     0.004 A 
ATOM      6  C   UNL     1     -11.154  85.038  -8.734  1.00  0.00     0.004 A 
ENDROOT
BRANCH   1   7
ATOM      7  C   UNL     1     -10.063  82.798  -8.903  1.00  0.00     0.036 C 
BRANCH   7   8
ATOM      8  C   UNL     1      -8.866  83.599  -8.367  1.00  0.00     0.004 C 
BRANCH   8   9
ATOM      9  C   UNL     1      -7.741  83.743  -9.402  1.00  0.00    -0.003 C 
ATOM     10  C   UNL     1      -7.528  85.188  -9.848  1.00  0.00     0.004 C 
ENDBRANCH   8   9
ENDBRANCH   7   8
ENDBRANCH   1   7
BRANCH   2  11
ATOM     11  C   UNL     1     -12.558  81.837 -10.338  1.00  0.00     0.040 C 
BRANCH  11  12
ATOM     12  C   UNL     1     -12.052  81.680 -11.776  1.00  0.00     0.005 C 
BRANCH  12  13
ATOM     13  C   UNL     1     -13.127  81.055 -12.673  1.00  0.00    -0.003 C 
ATOM     14  C   UNL     1     -13.672  82.073 -13.670  1.00  0.00     0.004 C 
ENDBRANCH  12  13
ENDBRANCH  11  12
ENDBRANCH   2  11
BRANCH   3  15
ATOM     15  O   UNL     1     -14.602  83.896 -10.840  1.00  0.00    -0.508 OA
ATOM     16  H   UNL     1     -14.706  84.031 -11.836  1.00  0.00     0.293 HD
ENDBRANCH   3  15
TORSDOF 7
ENDMDL
MODEL 4
REMARK VINA RESULT:    -4.191      6.260      8.596
REMARK INTER + INTRA:          -6.901
REMARK INTER:                  -5.821
REMARK INTRA:                  -1.079
REMARK UNBOUND:                -1.117
REMARK SMILES CCCCc1cccc(O)c1CCCC
REMARK SMILES IDX 5 1 11 2 9 3 8 4 7 5 6 6 4 7 3 8 2 9 1 10 12 11 13 12 14 13
REMARK SMILES IDX 15 14 10 15
REMARK H PARENT 10 16
REMARK Flexibility Score: inf
ROOT
ATOM      1  C   UNL     1      -3.504  84.204  -7.779  1.00  0.00    -0.041 A 
ATOM      2  C   UNL     1      -4.468  84.022  -8.814  1.00  0.00    -0.003 A 
ATOM      3  C   UNL     1      -4.423  82.832  -9.590  1.00  0.00     0.119 A 
ATOM      4  C   UNL     1      -3.405  81.898  -9.381  1.00  0.00     0.046 A 
ATOM      5  C   UNL     1      -2.440  82.106  -8.401  1.00  0.00     0.004 A 
ATOM      6  C   UNL     1      -2.490  83.246  -7.604  1.00  0.00     0.004 A 
ENDROOT
BRANCH   1   7
ATOM      7  C   UNL     1      -3.484  85.418  -6.875  1.00  0.00     0.036 C 
BRANCH   7   8
ATOM      8  C   UNL     1      -2.098  86.082  -6.885  1.00  0.00     0.004 C 
BRANCH   8   9
ATOM      9  C   UNL     1      -1.953  87.127  -8.000  1.00  0.00    -0.003 C 
ATOM     10  C   UNL     1      -3.139  88.088  -8.069  1.00  0.00     0.004 C 
ENDBRANCH   8   9
ENDBRANCH   7   8
ENDBRANCH   1   7
BRANCH   2  11
ATOM     11  C   UNL     1      -5.551  85.056  -9.067  1.00  0.00     0.040 C 
BRANCH  11  12
ATOM     12  C   UNL     1      -5.196  85.936 -10.272  1.00  0.00     0.005 C 
BRANCH  12  13
ATOM     13  C   UNL     1      -6.138  87.142 -10.368  1.00  0.00    -0.003 C 
ATOM     14  C   UNL     1      -7.598  86.699 -10.407  1.00  0.00     0.004 C 
ENDBRANCH  12  13
ENDBRANCH  11  12
ENDBRANCH   2  11
BRANCH   3  15
ATOM     15  O   UNL     1      -5.372  82.533 -10.573  1.00  0.00    -0.508 OA
ATOM     16  H   UNL     1      -6.058  83.189 -10.916  1.00  0.00     0.293 HD
ENDBRANCH   3  15
TORSDOF 7
ENDMDL
MODEL 5
REMARK VINA RESULT:    -4.076      6.689      8.736
REMARK INTER + INTRA:          -6.741
REMARK INTER:                  -5.228
REMARK INTRA:                  -1.513
REMARK UNBOUND:                -1.117
REMARK SMILES CCCCc1cccc(O)c1CCCC
REMARK SMILES IDX 5 1 11 2 9 3 8 4 7 5 6 6 4 7 3 8 2 9 1 10 12 11 13 12 14 13
REMARK SMILES IDX 15 14 10 15
REMARK H PARENT 10 16
REMARK Flexibility Score: inf
ROOT
ATOM      1  C   UNL     1      -4.831  85.011  -9.801  1.00  0.00    -0.041 A 
ATOM      2  C   UNL     1      -3.750  85.155  -8.883  1.00  0.00    -0.003 A 
ATOM      3  C   UNL     1      -3.080  83.988  -8.424  1.00  0.00     0.119 A 
ATOM      4  C   UNL     1      -3.529  82.724  -8.817  1.00  0.00     0.046 A 
ATOM      5  C   UNL     1      -4.615  82.591  -9.676  1.00  0.00     0.004 A 
ATOM      6  C   UNL     1      -5.259  83.722 -10.167  1.00  0.00     0.004 A 
ENDROOT
BRANCH   1   7
ATOM      7  C   UNL     1      -5.589  86.189 -10.375  1.00  0.00     0.036 C 
BRANCH   7   8
ATOM      8  C   UNL     1      -7.097  86.043 -10.121  1.00  0.00     0.004 C 
BRANCH   8   9
ATOM      9  C   UNL     1      -7.564  86.815  -8.879  1.00  0.00    -0.003 C 
ATOM     10  C   UNL     1      -7.597  85.947  -7.622  1.00  0.00     0.004 C 
ENDBRANCH   8   9
ENDBRANCH   7   8
ENDBRANCH   1   7
BRANCH   2  11
ATOM     11  C   UNL     1      -3.288  86.528  -8.425  1.00  0.00     0.040 C 
BRANCH  11  12
ATOM     12  C   UNL     1      -3.980  86.930  -7.117  1.00  0.00     0.005 C 
BRANCH  12  13
ATOM     13  C   UNL     1      -4.593  88.330  -7.227  1.00  0.00    -0.003 C 
ATOM     14  C   UNL     1      -4.080  89.060  -8.466  1.00  0.00     0.004 C 
ENDBRANCH  12  13
ENDBRANCH  11  12
ENDBRANCH   2  11
BRANCH   3  15
ATOM     15  O   UNL     1      -1.963  84.037  -7.585  1.00  0.00    -0.508 OA
ATOM     16  H   UNL     1      -1.839  84.712  -6.844  1.00  0.00     0.293 HD
ENDBRANCH   3  15
TORSDOF 7
ENDMDL
MODEL 6
REMARK VINA RESULT:    -3.945      6.320      9.429
REMARK INTER + INTRA:          -6.561
REMARK INTER:                  -5.138
REMARK INTRA:                  -1.423
REMARK UNBOUND:                -1.117
REMARK SMILES CCCCc1cccc(O)c1CCCC
REMARK SMILES IDX 5 1 11 2 9 3 8 4 7 5 6 6 4 7 3 8 2 9 1 10 12 11 13 12 14 13
REMARK SMILES IDX 15 14 10 15
REMARK H PARENT 10 16
REMARK Flexibility Score: inf
ROOT
ATOM      1  C   UNL     1      -4.938  86.380  -9.467  1.00  0.00    -0.041 A 
ATOM      2  C   UNL     1      -3.733  86.106  -8.755  1.00  0.00    -0.003 A 
ATOM      3  C   UNL     1      -3.130  87.150  -8.003  1.00  0.00     0.119 A 
ATOM      4  C   UNL     1      -3.677  88.436  -8.026  1.00  0.00     0.046 A 
ATOM      5  C   UNL     1      -4.826  88.706  -8.762  1.00  0.00     0.004 A 
ATOM      6  C   UNL     1      -5.454  87.688  -9.474  1.00  0.00     0.004 A 
ENDROOT
BRANCH   1   7
ATOM      7  C   UNL     1      -5.678  85.332 -10.271  1.00  0.00     0.036 C 
BRANCH   7   8
ATOM      8  C   UNL     1      -7.140  85.225  -9.812  1.00  0.00     0.004 C 
BRANCH   8   9
ATOM      9  C   UNL     1      -7.446  83.887  -9.124  1.00  0.00    -0.003 C 
ATOM     10  C   UNL     1      -7.409  83.985  -7.599  1.00  0.00     0.004 C 
ENDBRANCH   8   9
ENDBRANCH   7   8
ENDBRANCH   1   7
BRANCH   2  11
ATOM     11  C   UNL     1      -3.117  84.718  -8.762  1.00  0.00     0.040 C 
BRANCH  11  12
ATOM     12  C   UNL     1      -3.653  83.876  -7.598  1.00  0.00     0.005 C 
BRANCH  12  13
ATOM     13  C   UNL     1      -4.084  82.485  -8.078  1.00  0.00    -0.003 C 
ATOM     14  C   UNL     1      -3.740  82.280  -9.551  1.00  0.00     0.004 C 
ENDBRANCH  12  13
ENDBRANCH  11  12
ENDBRANCH   2  11
BRANCH   3  15
ATOM     15  O   UNL     1      -1.993  86.954  -7.213  1.00  0.00    -0.508 OA
ATOM     16  H   UNL     1      -1.086  87.349  -7.417  1.00  0.00     0.293 HD
ENDBRANCH   3  15
TORSDOF 7
ENDMDL
MODEL 7
REMARK VINA RESULT:    -3.875      5.426      8.216
REMARK INTER + INTRA:          -6.464
REMARK INTER:                  -5.431
REMARK INTRA:                  -1.033
REMARK UNBOUND:                -1.117
REMARK SMILES CCCCc1cccc(O)c1CCCC
REMARK SMILES IDX 5 1 11 2 9 3 8 4 7 5 6 6 4 7 3 8 2 9 1 10 12 11 13 12 14 13
REMARK SMILES IDX 15 14 10 15
REMARK H PARENT 10 16
REMARK Flexibility Score: inf
ROOT
ATOM      1  C   UNL     1      -5.091  85.806  -9.376  1.00  0.00    -0.041 A 
ATOM      2  C   UNL     1      -5.848  84.599  -9.453  1.00  0.00    -0.003 A 
ATOM      3  C   UNL     1      -7.239  84.680  -9.736  1.00  0.00     0.119 A 
ATOM      4  C   UNL     1      -7.856  85.928  -9.862  1.00  0.00     0.046 A 
ATOM      5  C   UNL     1      -7.119  87.101  -9.737  1.00  0.00     0.004 A 
ATOM      6  C   UNL     1      -5.749  87.042  -9.500  1.00  0.00     0.004 A 
ENDROOT
BRANCH   1   7
ATOM      7  C   UNL     1      -3.601  85.829  -9.114  1.00  0.00     0.036 C 
BRANCH   7   8
ATOM      8  C   UNL     1      -3.201  87.102  -8.351  1.00  0.00     0.004 C 
BRANCH   8   9
ATOM      9  C   UNL     1      -2.034  86.867  -7.382  1.00  0.00    -0.003 C 
ATOM     10  C   UNL     1      -1.966  85.427  -6.875  1.00  0.00     0.004 C 
ENDBRANCH   8   9
ENDBRANCH   7   8
ENDBRANCH   1   7
BRANCH   2  11
ATOM     11  C   UNL     1      -5.184  83.245  -9.277  1.00  0.00     0.040 C 
BRANCH  11  12
ATOM     12  C   UNL     1      -4.910  82.958  -7.795  1.00  0.00     0.005 C 
BRANCH  12  13
ATOM     13  C   UNL     1      -3.665  82.081  -7.626  1.00  0.00    -0.003 C 
ATOM     14  C   UNL     1      -2.770  82.151  -8.861  1.00  0.00     0.004 C 
ENDBRANCH  12  13
ENDBRANCH  11  12
ENDBRANCH   2  11
BRANCH   3  15
ATOM     15  O   UNL     1      -8.044  83.549  -9.906  1.00  0.00    -0.508 OA
ATOM     16  H   UNL     1      -8.521  83.318 -10.765  1.00  0.00     0.293 HD
ENDBRANCH   3  15
TORSDOF 7
ENDMDL
MODEL 8
REMARK VINA RESULT:    -3.845     12.184     14.168
REMARK INTER + INTRA:          -6.422
REMARK INTER:                  -4.885
REMARK INTRA:                  -1.538
REMARK UNBOUND:                -1.117
REMARK SMILES CCCCc1cccc(O)c1CCCC
REMARK SMILES IDX 5 1 11 2 9 3 8 4 7 5 6 6 4 7 3 8 2 9 1 10 12 11 13 12 14 13
REMARK SMILES IDX 15 14 10 15
REMARK H PARENT 10 16
REMARK Flexibility Score: inf
ROOT
ATOM      1  C   UNL     1      -5.419  91.602 -16.905  1.00  0.00    -0.041 A 
ATOM      2  C   UNL     1      -4.018  91.425 -16.703  1.00  0.00    -0.003 A 
ATOM      3  C   UNL     1      -3.556  91.044 -15.414  1.00  0.00     0.119 A 
ATOM      4  C   UNL     1      -4.459  90.917 -14.356  1.00  0.00     0.046 A 
ATOM      5  C   UNL     1      -5.818  91.138 -14.551  1.00  0.00     0.004 A 
ATOM      6  C   UNL     1      -6.296  91.474 -15.814  1.00  0.00     0.004 A 
ENDROOT
BRANCH   1   7
ATOM      7  C   UNL     1      -6.018  91.975 -18.245  1.00  0.00     0.036 C 
BRANCH   7   8
ATOM      8  C   UNL     1      -6.730  93.335 -18.163  1.00  0.00     0.004 C 
BRANCH   8   9
ATOM      9  C   UNL     1      -5.777  94.515 -18.396  1.00  0.00    -0.003 C 
ATOM     10  C   UNL     1      -5.357  95.202 -17.097  1.00  0.00     0.004 C 
ENDBRANCH   8   9
ENDBRANCH   7   8
ENDBRANCH   1   7
BRANCH   2  11
ATOM     11  C   UNL     1      -3.033  91.602 -17.845  1.00  0.00     0.040 C 
BRANCH  11  12
ATOM     12  C   UNL     1      -2.357  92.977 -17.777  1.00  0.00     0.005 C 
BRANCH  12  13
ATOM     13  C   UNL     1      -2.310  93.635 -19.161  1.00  0.00    -0.003 C 
ATOM     14  C   UNL     1      -2.914  92.722 -20.225  1.00  0.00     0.004 C 
ENDBRANCH  12  13
ENDBRANCH  11  12
ENDBRANCH   2  11
BRANCH   3  15
ATOM     15  O   UNL     1      -2.211  90.773 -15.142  1.00  0.00    -0.508 OA
ATOM     16  H   UNL     1      -1.894  90.051 -14.511  1.00  0.00     0.293 HD
ENDBRANCH   3  15
TORSDOF 7
ENDMDL
MODEL 9
REMARK VINA RESULT:    -3.787     11.518     13.123
REMARK INTER + INTRA:          -6.343
REMARK INTER:                  -5.211
REMARK INTRA:                  -1.132
REMARK UNBOUND:                -1.117
REMARK SMILES CCCCc1cccc(O)c1CCCC
REMARK SMILES IDX 5 1 11 2 9 3 8 4 7 5 6 6 4 7 3 8 2 9 1 10 12 11 13 12 14 13
REMARK SMILES IDX 15 14 10 15
REMARK H PARENT 10 16
REMARK Flexibility Score: inf
ROOT
ATOM      1  C   UNL     1      -3.823  92.591 -16.968  1.00  0.00    -0.041 A 
ATOM      2  C   UNL     1      -5.050  92.204 -17.584  1.00  0.00    -0.003 A 
ATOM      3  C   UNL     1      -5.129  92.191 -19.004  1.00  0.00     0.119 A 
ATOM      4  C   UNL     1      -4.041  92.621 -19.768  1.00  0.00     0.046 A 
ATOM      5  C   UNL     1      -2.865  93.042 -19.158  1.00  0.00     0.004 A 
ATOM      6  C   UNL     1      -2.754  93.025 -17.771  1.00  0.00     0.004 A 
ENDROOT
BRANCH   1   7
ATOM      7  C   UNL     1      -3.624  92.607 -15.467  1.00  0.00     0.036 C 
BRANCH   7   8
ATOM      8  C   UNL     1      -3.308  91.197 -14.944  1.00  0.00     0.004 C 
BRANCH   8   9
ATOM      9  C   UNL     1      -4.249  90.762 -13.812  1.00  0.00    -0.003 C 
ATOM     10  C   UNL     1      -4.227  91.722 -12.624  1.00  0.00     0.004 C 
ENDBRANCH   8   9
ENDBRANCH   7   8
ENDBRANCH   1   7
BRANCH   2  11
ATOM     11  C   UNL     1      -6.245  91.774 -16.751  1.00  0.00     0.040 C 
BRANCH  11  12
ATOM     12  C   UNL     1      -7.091  92.986 -16.343  1.00  0.00     0.005 C 
BRANCH  12  13
ATOM     13  C   UNL     1      -7.313  93.016 -14.827  1.00  0.00    -0.003 C 
ATOM     14  C   UNL     1      -7.834  91.673 -14.320  1.00  0.00     0.004 C 
ENDBRANCH  12  13
ENDBRANCH  11  12
ENDBRANCH   2  11
BRANCH   3  15
ATOM     15  O   UNL     1      -6.263  91.753 -19.695  1.00  0.00    -0.508 OA
ATOM     16  H   UNL     1      -6.260  90.999 -20.367  1.00  0.00     0.293 HD
ENDBRANCH   3  15
TORSDOF 7
ENDMDL
