MODEL 1
REMARK VINA RESULT:    -4.388      0.000      0.000
REMARK INTER + INTRA:          -6.020
REMARK INTER:                  -6.183
REMARK INTRA:                   0.164
REMARK UNBOUND:                 0.164
REMARK SMILES CC1=CCC(=C(C)C)C(=O)CC(C)=CCC1
REMARK SMILES IDX 12 1 14 2 13 3 15 4 16 5 2 6 1 7 3 8 11 10 9 11 10 12 5 13
REMARK SMILES IDX 6 14 7 15 8 16 4 17
REMARK H PARENT
REMARK Flexibility Score: 60.00
ROOT
ATOM      1  C   UNL     1      15.311  18.922  56.006  1.00  0.00    -0.070 C 
ATOM      2  C   UNL     1      15.000  19.487  57.203  1.00  0.00    -0.027 C 
ATOM      3  C   UNL     1      16.550  19.428  55.307  1.00  0.00     0.039 C 
ENDROOT
BRANCH   2   4
ATOM      4  C   UNL     1      13.905  19.051  58.147  1.00  0.00     0.032 C 
BRANCH   4   5
ATOM      5  C   UNL     1      12.567  19.762  57.905  1.00  0.00     0.034 C 
BRANCH   5   6
ATOM      6  C   UNL     1      11.401  18.798  57.792  1.00  0.00    -0.077 C 
ATOM      7  C   UNL     1      10.905  18.120  59.046  1.00  0.00     0.039 C 
ATOM      8  C   UNL     1      10.709  18.577  56.645  1.00  0.00    -0.023 CG0
ATOM      9  G   UNL     1      11.067  19.035  55.243  1.00  0.00     0.000 G0
ENDBRANCH   5   6
ENDBRANCH   4   5
ENDBRANCH   2   4
BRANCH   1  10
ATOM     10  C   UNL     1      14.439  17.912  55.267  1.00  0.00     0.111 C 
BRANCH  10  11
ATOM     11  C   UNL     1      13.401  18.529  54.367  1.00  0.00     0.163 C 
ATOM     12  O   UNL     1      13.767  19.376  53.508  1.00  0.00    -0.294 OA
BRANCH  11  13
ATOM     13  C   UNL     1      11.962  18.144  54.441  1.00  0.00    -0.002 C 
ATOM     14  C   UNL     1      11.500  16.970  53.922  1.00  0.00    -0.069 C 
ATOM     15  C   UNL     1      10.033  16.610  53.985  1.00  0.00     0.039 C 
ATOM     16  C   UNL     1      12.438  15.946  53.324  1.00  0.00     0.039 C 
BRANCH  13  17
ATOM     17  C   UNL     1      11.058  19.063  55.246  1.00  0.00     0.066 CG0
ATOM     18  G   UNL     1      10.711  18.583  56.644  1.00  0.00     0.000 G0
ENDBRANCH  13  17
ENDBRANCH  11  13
ENDBRANCH  10  11
ENDBRANCH   1  10
TORSDOF 0
ENDMDL
MODEL 2
REMARK VINA RESULT:    -4.369      1.891      4.997
REMARK INTER + INTRA:          -5.993
REMARK INTER:                  -6.006
REMARK INTRA:                   0.013
REMARK UNBOUND:                 0.164
REMARK SMILES CC1=CCC(=C(C)C)C(=O)CC(C)=CCC1
REMARK SMILES IDX 12 1 14 2 13 3 15 4 16 5 2 6 1 7 3 8 11 10 9 11 10 12 5 13
REMARK SMILES IDX 6 14 7 15 8 16 4 17
REMARK H PARENT
REMARK Flexibility Score: 60.00
ROOT
ATOM      1  C   UNL     1      10.969  18.574  57.832  1.00  0.00    -0.070 C 
ATOM      2  C   UNL     1      10.110  18.027  56.932  1.00  0.00    -0.027 C 
ATOM      3  C   UNL     1      10.686  18.321  59.294  1.00  0.00     0.039 C 
ENDROOT
BRANCH   2   4
ATOM      4  C   UNL     1      10.266  18.019  55.429  1.00  0.00     0.032 C 
BRANCH   4   5
ATOM      5  C   UNL     1      11.287  16.990  54.924  1.00  0.00     0.034 C 
BRANCH   5   6
ATOM      6  C   UNL     1      12.268  17.577  53.926  1.00  0.00    -0.077 C 
ATOM      7  C   UNL     1      11.784  17.860  52.525  1.00  0.00     0.039 C 
ATOM      8  C   UNL     1      13.533  17.957  54.240  1.00  0.00    -0.023 CG0
ATOM      9  G   UNL     1      14.292  17.680  55.526  1.00  0.00     0.000 G0
ENDBRANCH   5   6
ENDBRANCH   4   5
ENDBRANCH   2   4
BRANCH   1  10
ATOM     10  C   UNL     1      12.114  19.520  57.483  1.00  0.00     0.111 C 
BRANCH  10  11
ATOM     11  C   UNL     1      13.486  18.916  57.632  1.00  0.00     0.163 C 
ATOM     12  O   UNL     1      13.816  18.424  58.744  1.00  0.00    -0.294 OA
BRANCH  11  13
ATOM     13  C   UNL     1      14.450  18.856  56.496  1.00  0.00    -0.002 C 
ATOM     14  C   UNL     1      15.487  19.735  56.381  1.00  0.00    -0.069 C 
ATOM     15  C   UNL     1      16.439  19.674  55.208  1.00  0.00     0.039 C 
ATOM     16  C   UNL     1      15.775  20.765  57.450  1.00  0.00     0.039 C 
BRANCH  13  17
ATOM     17  C   UNL     1      14.301  17.679  55.545  1.00  0.00     0.066 CG0
ATOM     18  G   UNL     1      13.562  17.970  54.251  1.00  0.00     0.000 G0
ENDBRANCH  13  17
ENDBRANCH  11  13
ENDBRANCH  10  11
ENDBRANCH   1  10
TORSDOF 0
ENDMDL
MODEL 3
REMARK VINA RESULT:    -4.254      3.161      5.461
REMARK INTER + INTRA:          -5.832
REMARK INTER:                  -5.987
REMARK INTRA:                   0.155
REMARK UNBOUND:                 0.164
REMARK SMILES CC1=CCC(=C(C)C)C(=O)CC(C)=CCC1
REMARK SMILES IDX 12 1 14 2 13 3 15 4 16 5 2 6 1 7 3 8 11 10 9 11 10 12 5 13
REMARK SMILES IDX 6 14 7 15 8 16 4 17
REMARK H PARENT
REMARK Flexibility Score: 60.00
ROOT
ATOM      1  C   UNL     1       6.669  18.434  59.072  1.00  0.00    -0.070 C 
ATOM      2  C   UNL     1       7.527  18.539  60.122  1.00  0.00    -0.027 C 
ATOM      3  C   UNL     1       5.257  18.923  59.287  1.00  0.00     0.039 C 
ENDROOT
BRANCH   2   4
ATOM      4  C   UNL     1       9.010  18.255  60.103  1.00  0.00     0.032 C 
BRANCH   4   5
ATOM      5  C   UNL     1       9.821  19.282  59.300  1.00  0.00     0.034 C 
BRANCH   5   6
ATOM      6  C   UNL     1      11.037  18.673  58.626  1.00  0.00    -0.077 C 
ATOM      7  C   UNL     1      12.176  18.196  59.494  1.00  0.00     0.039 C 
ATOM      8  C   UNL     1      11.126  18.439  57.292  1.00  0.00    -0.023 CG0
ATOM      9  G   UNL     1      10.186  18.919  56.201  1.00  0.00     0.000 G0
ENDBRANCH   5   6
ENDBRANCH   4   5
ENDBRANCH   2   4
BRANCH   1  10
ATOM     10  C   UNL     1       6.992  17.750  57.748  1.00  0.00     0.111 C 
BRANCH  10  11
ATOM     11  C   UNL     1       7.720  18.622  56.759  1.00  0.00     0.163 C 
ATOM     12  O   UNL     1       7.332  19.809  56.595  1.00  0.00    -0.294 OA
BRANCH  11  13
ATOM     13  C   UNL     1       8.904  18.132  55.996  1.00  0.00    -0.002 C 
ATOM     14  C   UNL     1       8.810  17.118  55.088  1.00  0.00    -0.069 C 
ATOM     15  C   UNL     1      10.027  16.619  54.343  1.00  0.00     0.039 C 
ATOM     16  C   UNL     1       7.479  16.493  54.735  1.00  0.00     0.039 C 
BRANCH  13  17
ATOM     17  C   UNL     1      10.195  18.914  56.178  1.00  0.00     0.066 CG0
ATOM     18  G   UNL     1      11.102  18.432  57.296  1.00  0.00     0.000 G0
ENDBRANCH  13  17
ENDBRANCH  11  13
ENDBRANCH  10  11
ENDBRANCH   1  10
TORSDOF 0
ENDMDL
MODEL 4
REMARK VINA RESULT:    -4.175      2.668      4.846
REMARK INTER + INTRA:          -5.720
REMARK INTER:                  -5.727
REMARK INTRA:                   0.008
REMARK UNBOUND:                 0.164
REMARK SMILES CC1=CCC(=C(C)C)C(=O)CC(C)=CCC1
REMARK SMILES IDX 12 1 14 2 13 3 15 4 16 5 2 6 1 7 3 8 11 10 9 11 10 12 5 13
REMARK SMILES IDX 6 14 7 15 8 16 4 17
REMARK H PARENT
REMARK Flexibility Score: 60.00
ROOT
ATOM      1  C   UNL     1       9.878  20.927  58.033  1.00  0.00    -0.070 C 
ATOM      2  C   UNL     1       9.089  21.876  57.463  1.00  0.00    -0.027 C 
ATOM      3  C   UNL     1       9.406  20.333  59.338  1.00  0.00     0.039 C 
ENDROOT
BRANCH   2   4
ATOM      4  C   UNL     1       9.275  22.503  56.102  1.00  0.00     0.032 C 
BRANCH   4   5
ATOM      5  C   UNL     1       8.880  21.579  54.942  1.00  0.00     0.034 C 
BRANCH   5   6
ATOM      6  C   UNL     1       9.918  21.550  53.835  1.00  0.00    -0.077 C 
ATOM      7  C   UNL     1      10.066  22.767  52.955  1.00  0.00     0.039 C 
ATOM      8  C   UNL     1      10.795  20.530  53.645  1.00  0.00    -0.023 CG0
ATOM      9  G   UNL     1      10.784  19.163  54.306  1.00  0.00     0.000 G0
ENDBRANCH   5   6
ENDBRANCH   4   5
ENDBRANCH   2   4
BRANCH   1  10
ATOM     10  C   UNL     1      11.253  20.514  57.518  1.00  0.00     0.111 C 
BRANCH  10  11
ATOM     11  C   UNL     1      11.281  19.178  56.823  1.00  0.00     0.163 C 
ATOM     12  O   UNL     1      10.814  18.172  57.421  1.00  0.00    -0.294 OA
BRANCH  11  13
ATOM     13  C   UNL     1      11.814  19.019  55.439  1.00  0.00    -0.002 C 
ATOM     14  C   UNL     1      13.101  18.637  55.200  1.00  0.00    -0.069 C 
ATOM     15  C   UNL     1      13.630  18.506  53.790  1.00  0.00     0.039 C 
ATOM     16  C   UNL     1      14.038  18.262  56.326  1.00  0.00     0.039 C 
BRANCH  13  17
ATOM     17  C   UNL     1      10.810  19.169  54.308  1.00  0.00     0.066 CG0
ATOM     18  G   UNL     1      10.770  20.532  53.642  1.00  0.00     0.000 G0
ENDBRANCH  13  17
ENDBRANCH  11  13
ENDBRANCH  10  11
ENDBRANCH   1  10
TORSDOF 0
ENDMDL
MODEL 5
REMARK VINA RESULT:    -4.152      1.777      3.000
REMARK INTER + INTRA:          -5.688
REMARK INTER:                  -5.835
REMARK INTRA:                   0.148
REMARK UNBOUND:                 0.164
REMARK SMILES CC1=CCC(=C(C)C)C(=O)CC(C)=CCC1
REMARK SMILES IDX 12 1 14 2 13 3 15 4 16 5 2 6 1 7 3 8 11 10 9 11 10 12 5 13
REMARK SMILES IDX 6 14 7 15 8 16 4 17
REMARK H PARENT
REMARK Flexibility Score: 60.00
ROOT
ATOM      1  C   UNL     1      12.971  17.874  54.652  1.00  0.00    -0.070 C 
ATOM      2  C   UNL     1      14.004  18.405  55.359  1.00  0.00    -0.027 C 
ATOM      3  C   UNL     1      13.144  17.770  53.156  1.00  0.00     0.039 C 
ENDROOT
BRANCH   2   4
ATOM      4  C   UNL     1      14.122  18.477  56.863  1.00  0.00     0.032 C 
BRANCH   4   5
ATOM      5  C   UNL     1      13.170  19.494  57.505  1.00  0.00     0.034 C 
BRANCH   5   6
ATOM      6  C   UNL     1      12.290  18.879  58.579  1.00  0.00    -0.077 C 
ATOM      7  C   UNL     1      12.953  18.125  59.706  1.00  0.00     0.039 C 
ATOM      8  C   UNL     1      10.944  19.047  58.644  1.00  0.00    -0.023 CG0
ATOM      9  G   UNL     1      10.034  19.653  57.591  1.00  0.00     0.000 G0
ENDBRANCH   5   6
ENDBRANCH   4   5
ENDBRANCH   2   4
BRANCH   1  10
ATOM     10  C   UNL     1      11.616  17.495  55.241  1.00  0.00     0.111 C 
BRANCH  10  11
ATOM     11  C   UNL     1      10.630  18.631  55.311  1.00  0.00     0.163 C 
ATOM     12  O   UNL     1      10.631  19.495  54.394  1.00  0.00    -0.294 OA
BRANCH  11  13
ATOM     13  C   UNL     1       9.634  18.745  56.416  1.00  0.00    -0.002 C 
ATOM     14  C   UNL     1       8.498  17.991  56.446  1.00  0.00    -0.069 C 
ATOM     15  C   UNL     1       7.489  18.140  57.561  1.00  0.00     0.039 C 
ATOM     16  C   UNL     1       8.227  16.925  55.408  1.00  0.00     0.039 C 
BRANCH  13  17
ATOM     17  C   UNL     1      10.017  19.647  57.579  1.00  0.00     0.066 CG0
ATOM     18  G   UNL     1      10.936  19.026  58.615  1.00  0.00     0.000 G0
ENDBRANCH  13  17
ENDBRANCH  11  13
ENDBRANCH  10  11
ENDBRANCH   1  10
TORSDOF 0
ENDMDL
MODEL 6
REMARK VINA RESULT:    -4.140      2.695      4.935
REMARK INTER + INTRA:          -5.671
REMARK INTER:                  -5.568
REMARK INTRA:                  -0.104
REMARK UNBOUND:                 0.164
REMARK SMILES CC1=CCC(=C(C)C)C(=O)CC(C)=CCC1
REMARK SMILES IDX 12 1 14 2 13 3 15 4 16 5 2 6 1 7 3 8 11 10 9 11 10 12 5 13
REMARK SMILES IDX 6 14 7 15 8 16 4 17
REMARK H PARENT
REMARK Flexibility Score: 60.00
ROOT
ATOM      1  C   UNL     1      12.272  18.867  57.179  1.00  0.00    -0.070 C 
ATOM      2  C   UNL     1      12.311  18.239  55.975  1.00  0.00    -0.027 C 
ATOM      3  C   UNL     1      13.428  19.779  57.517  1.00  0.00     0.039 C 
ENDROOT
BRANCH   2   4
ATOM      4  C   UNL     1      11.213  17.403  55.359  1.00  0.00     0.032 C 
BRANCH   4   5
ATOM      5  C   UNL     1      10.024  18.231  54.852  1.00  0.00     0.034 C 
BRANCH   5   6
ATOM      6  C   UNL     1       8.689  17.554  55.103  1.00  0.00    -0.077 C 
ATOM      7  C   UNL     1       8.344  16.324  54.299  1.00  0.00     0.039 C 
ATOM      8  C   UNL     1       7.820  17.930  56.077  1.00  0.00    -0.023 CG0
ATOM      9  G   UNL     1       7.872  19.182  56.933  1.00  0.00     0.000 G0
ENDBRANCH   5   6
ENDBRANCH   4   5
ENDBRANCH   2   4
BRANCH   1  10
ATOM     10  C   UNL     1      11.219  18.625  58.255  1.00  0.00     0.111 C 
BRANCH  10  11
ATOM     11  C   UNL     1      10.051  19.575  58.207  1.00  0.00     0.163 C 
ATOM     12  O   UNL     1      10.276  20.811  58.106  1.00  0.00    -0.294 OA
BRANCH  11  13
ATOM     13  C   UNL     1       8.639  19.094  58.244  1.00  0.00    -0.002 C 
ATOM     14  C   UNL     1       8.041  18.697  59.404  1.00  0.00    -0.069 C 
ATOM     15  C   UNL     1       6.617  18.189  59.416  1.00  0.00     0.039 C 
ATOM     16  C   UNL     1       8.746  18.809  60.737  1.00  0.00     0.039 C 
BRANCH  13  17
ATOM     17  C   UNL     1       7.856  19.201  56.946  1.00  0.00     0.066 CG0
ATOM     18  G   UNL     1       7.827  17.946  56.092  1.00  0.00     0.000 G0
ENDBRANCH  13  17
ENDBRANCH  11  13
ENDBRANCH  10  11
ENDBRANCH   1  10
TORSDOF 0
ENDMDL
MODEL 7
REMARK VINA RESULT:    -4.082      2.004      4.372
REMARK INTER + INTRA:          -5.589
REMARK INTER:                  -5.510
REMARK INTRA:                  -0.079
REMARK UNBOUND:                 0.164
REMARK SMILES CC1=CCC(=C(C)C)C(=O)CC(C)=CCC1
REMARK SMILES IDX 12 1 14 2 13 3 15 4 16 5 2 6 1 7 3 8 11 10 9 11 10 12 5 13
REMARK SMILES IDX 6 14 7 15 8 16 4 17
REMARK H PARENT
REMARK Flexibility Score: 60.00
ROOT
ATOM      1  C   UNL     1      11.831  18.477  52.801  1.00  0.00    -0.070 C 
ATOM      2  C   UNL     1      13.125  18.066  52.869  1.00  0.00    -0.027 C 
ATOM      3  C   UNL     1      10.957  17.825  51.757  1.00  0.00     0.039 C 
ENDROOT
BRANCH   2   4
ATOM      4  C   UNL     1      14.141  18.462  53.914  1.00  0.00     0.032 C 
BRANCH   4   5
ATOM      5  C   UNL     1      13.924  17.778  55.271  1.00  0.00     0.034 C 
BRANCH   5   6
ATOM      6  C   UNL     1      14.041  18.739  56.439  1.00  0.00    -0.077 C 
ATOM      7  C   UNL     1      15.410  19.251  56.814  1.00  0.00     0.039 C 
ATOM      8  C   UNL     1      12.976  19.248  57.112  1.00  0.00    -0.023 CG0
ATOM      9  G   UNL     1      11.524  18.816  57.012  1.00  0.00     0.000 G0
ENDBRANCH   5   6
ENDBRANCH   4   5
ENDBRANCH   2   4
BRANCH   1  10
ATOM     10  C   UNL     1      11.238  19.626  53.610  1.00  0.00     0.111 C 
BRANCH  10  11
ATOM     11  C   UNL     1      10.379  19.192  54.769  1.00  0.00     0.163 C 
ATOM     12  O   UNL     1       9.449  18.367  54.560  1.00  0.00    -0.294 OA
BRANCH  11  13
ATOM     13  C   UNL     1      10.617  19.683  56.157  1.00  0.00    -0.002 C 
ATOM     14  C   UNL     1       9.977  20.780  56.654  1.00  0.00    -0.069 C 
ATOM     15  C   UNL     1      10.251  21.278  58.055  1.00  0.00     0.039 C 
ATOM     16  C   UNL     1       8.917  21.508  55.859  1.00  0.00     0.039 C 
BRANCH  13  17
ATOM     17  C   UNL     1      11.506  18.818  57.036  1.00  0.00     0.066 CG0
ATOM     18  G   UNL     1      12.965  19.232  57.102  1.00  0.00     0.000 G0
ENDBRANCH  13  17
ENDBRANCH  11  13
ENDBRANCH  10  11
ENDBRANCH   1  10
TORSDOF 0
ENDMDL
MODEL 8
REMARK VINA RESULT:    -4.051      7.478      9.782
REMARK INTER + INTRA:          -5.544
REMARK INTER:                  -5.452
REMARK INTRA:                  -0.092
REMARK UNBOUND:                 0.164
REMARK SMILES CC1=CCC(=C(C)C)C(=O)CC(C)=CCC1
REMARK SMILES IDX 12 1 14 2 13 3 15 4 16 5 2 6 1 7 3 8 11 10 9 11 10 12 5 13
REMARK SMILES IDX 6 14 7 15 8 16 4 17
REMARK H PARENT
REMARK Flexibility Score: 60.00
ROOT
ATOM      1  C   UNL     1       4.780  22.936  51.293  1.00  0.00    -0.070 C 
ATOM      2  C   UNL     1       5.812  22.214  50.781  1.00  0.00    -0.027 C 
ATOM      3  C   UNL     1       3.384  22.498  50.920  1.00  0.00     0.039 C 
ENDROOT
BRANCH   2   4
ATOM      4  C   UNL     1       7.275  22.369  51.124  1.00  0.00     0.032 C 
BRANCH   4   5
ATOM      5  C   UNL     1       7.644  21.804  52.503  1.00  0.00     0.034 C 
BRANCH   5   6
ATOM      6  C   UNL     1       8.651  22.667  53.241  1.00  0.00    -0.077 C 
ATOM      7  C   UNL     1      10.076  22.694  52.744  1.00  0.00     0.039 C 
ATOM      8  C   UNL     1       8.330  23.497  54.267  1.00  0.00    -0.023 CG0
ATOM      9  G   UNL     1       7.015  23.572  55.022  1.00  0.00     0.000 G0
ENDBRANCH   5   6
ENDBRANCH   4   5
ENDBRANCH   2   4
BRANCH   1  10
ATOM     10  C   UNL     1       4.931  24.218  52.105  1.00  0.00     0.111 C 
BRANCH  10  11
ATOM     11  C   UNL     1       4.929  24.013  53.597  1.00  0.00     0.163 C 
ATOM     12  O   UNL     1       4.011  23.320  54.113  1.00  0.00    -0.294 OA
BRANCH  11  13
ATOM     13  C   UNL     1       5.995  24.577  54.474  1.00  0.00    -0.002 C 
ATOM     14  C   UNL     1       5.993  25.884  54.864  1.00  0.00    -0.069 C 
ATOM     15  C   UNL     1       7.097  26.443  55.732  1.00  0.00     0.039 C 
ATOM     16  C   UNL     1       4.858  26.816  54.505  1.00  0.00     0.039 C 
BRANCH  13  17
ATOM     17  C   UNL     1       7.009  23.588  55.025  1.00  0.00     0.066 CG0
ATOM     18  G   UNL     1       8.320  23.499  54.265  1.00  0.00     0.000 G0
ENDBRANCH  13  17
ENDBRANCH  11  13
ENDBRANCH  10  11
ENDBRANCH   1  10
TORSDOF 0
ENDMDL
MODEL 9
REMARK VINA RESULT:    -3.873      7.017      8.663
REMARK INTER + INTRA:          -5.295
REMARK INTER:                  -5.370
REMARK INTRA:                   0.076
REMARK UNBOUND:                 0.164
REMARK SMILES CC1=CCC(=C(C)C)C(=O)CC(C)=CCC1
REMARK SMILES IDX 12 1 14 2 13 3 15 4 16 5 2 6 1 7 3 8 11 10 9 11 10 12 5 13
REMARK SMILES IDX 6 14 7 15 8 16 4 17
REMARK H PARENT
REMARK Flexibility Score: 60.00
ROOT
ATOM      1  C   UNL     1       5.695  25.743  54.546  1.00  0.00    -0.070 C 
ATOM      2  C   UNL     1       6.821  25.976  55.272  1.00  0.00    -0.027 C 
ATOM      3  C   UNL     1       4.895  26.948  54.113  1.00  0.00     0.039 C 
ENDROOT
BRANCH   2   4
ATOM      4  C   UNL     1       7.851  24.953  55.689  1.00  0.00     0.032 C 
BRANCH   4   5
ATOM      5  C   UNL     1       8.491  24.211  54.508  1.00  0.00     0.034 C 
BRANCH   5   6
ATOM      6  C   UNL     1       8.561  22.710  54.726  1.00  0.00    -0.077 C 
ATOM      7  C   UNL     1       9.265  22.194  55.956  1.00  0.00     0.039 C 
ATOM      8  C   UNL     1       7.942  21.800  53.930  1.00  0.00    -0.023 CG0
ATOM      9  G   UNL     1       7.277  22.043  52.587  1.00  0.00     0.000 G0
ENDBRANCH   5   6
ENDBRANCH   4   5
ENDBRANCH   2   4
BRANCH   1  10
ATOM     10  C   UNL     1       5.121  24.362  54.248  1.00  0.00     0.111 C 
BRANCH  10  11
ATOM     11  C   UNL     1       5.464  23.828  52.882  1.00  0.00     0.163 C 
ATOM     12  O   UNL     1       5.504  24.628  51.910  1.00  0.00    -0.294 OA
BRANCH  11  13
ATOM     13  C   UNL     1       5.786  22.390  52.654  1.00  0.00    -0.002 C 
ATOM     14  C   UNL     1       4.819  21.465  52.391  1.00  0.00    -0.069 C 
ATOM     15  C   UNL     1       5.164  20.008  52.188  1.00  0.00     0.039 C 
ATOM     16  C   UNL     1       3.369  21.862  52.221  1.00  0.00     0.039 C 
BRANCH  13  17
ATOM     17  C   UNL     1       7.262  22.031  52.594  1.00  0.00     0.066 CG0
ATOM     18  G   UNL     1       7.936  21.797  53.933  1.00  0.00     0.000 G0
ENDBRANCH  13  17
ENDBRANCH  11  13
ENDBRANCH  10  11
ENDBRANCH   1  10
TORSDOF 0
ENDMDL
