MODEL 1
REMARK VINA RESULT:    -4.958      0.000      0.000
REMARK INTER + INTRA:         -11.810
REMARK INTER:                  -9.596
REMARK INTRA:                  -2.213
REMARK UNBOUND:                -2.213
REMARK SMILES CCCCCCCCCCCCCCCCCC(=O)[O-]
REMARK SMILES IDX 10 1 11 2 12 3 13 4 14 5 15 6 16 7 17 8 18 9 19 10 20 11
REMARK SMILES IDX 9 12 8 13 7 14 6 15 5 16 4 17 3 18 2 19 1 20
REMARK H PARENT
REMARK Flexibility Score: inf
ROOT
ATOM      1  C   UNL     1       7.420 -13.047  -1.248  1.00  0.00     0.000 C 
ENDROOT
BRANCH   1   2
ATOM      2  C   UNL     1       7.746 -13.787  -2.560  1.00  0.00     0.000 C 
BRANCH   2   3
ATOM      3  C   UNL     1       7.212 -13.079  -3.824  1.00  0.00     0.000 C 
BRANCH   3   4
ATOM      4  C   UNL     1       5.685 -13.204  -3.967  1.00  0.00     0.000 C 
BRANCH   4   5
ATOM      5  C   UNL     1       5.207 -13.003  -5.413  1.00  0.00     0.000 C 
BRANCH   5   6
ATOM      6  C   UNL     1       4.120 -11.919  -5.526  1.00  0.00     0.000 C 
BRANCH   6   7
ATOM      7  C   UNL     1       4.562 -10.720  -6.387  1.00  0.00     0.006 C 
BRANCH   7   8
ATOM      8  C   UNL     1       4.405  -9.353  -5.700  1.00  0.00     0.053 C 
BRANCH   8   9
ATOM      9  C   UNL     1       4.422  -8.224  -6.684  1.00  0.00     0.041 C 
ATOM     10  O   UNL     1       5.512  -7.824  -7.170  1.00  0.00    -0.550 OA
ATOM     11  O   UNL     1       3.237  -7.590  -7.036  1.00  0.00    -0.550 OA
ENDBRANCH   8   9
ENDBRANCH   7   8
ENDBRANCH   6   7
ENDBRANCH   5   6
ENDBRANCH   4   5
ENDBRANCH   3   4
ENDBRANCH   2   3
ENDBRANCH   1   2
BRANCH   1  12
ATOM     12  C   UNL     1       8.644 -12.645  -0.405  1.00  0.00     0.000 C 
BRANCH  12  13
ATOM     13  C   UNL     1       8.782 -11.134  -0.139  1.00  0.00    -0.000 C 
BRANCH  13  14
ATOM     14  C   UNL     1       7.432 -10.401  -0.137  1.00  0.00    -0.000 C 
BRANCH  14  15
ATOM     15  C   UNL     1       7.221  -9.639  -1.454  1.00  0.00    -0.000 C 
BRANCH  15  16
ATOM     16  C   UNL     1       5.797  -9.792  -2.011  1.00  0.00    -0.000 C 
BRANCH  16  17
ATOM     17  C   UNL     1       4.814 -10.362  -0.972  1.00  0.00    -0.000 C 
BRANCH  17  18
ATOM     18  C   UNL     1       3.961 -11.510  -1.535  1.00  0.00    -0.000 C 
BRANCH  18  19
ATOM     19  C   UNL     1       3.544 -12.522  -0.456  1.00  0.00    -0.003 C 
ATOM     20  C   UNL     1       3.789 -13.954  -0.923  1.00  0.00     0.004 C 
ENDBRANCH  18  19
ENDBRANCH  17  18
ENDBRANCH  16  17
ENDBRANCH  15  16
ENDBRANCH  14  15
ENDBRANCH  13  14
ENDBRANCH  12  13
ENDBRANCH   1  12
TORSDOF 16
ENDMDL
MODEL 2
REMARK VINA RESULT:    -4.953      1.926      4.396
REMARK INTER + INTRA:         -11.799
REMARK INTER:                  -9.166
REMARK INTRA:                  -2.632
REMARK UNBOUND:                -2.213
REMARK SMILES CCCCCCCCCCCCCCCCCC(=O)[O-]
REMARK SMILES IDX 10 1 11 2 12 3 13 4 14 5 15 6 16 7 17 8 18 9 19 10 20 11
REMARK SMILES IDX 9 12 8 13 7 14 6 15 5 16 4 17 3 18 2 19 1 20
REMARK H PARENT
REMARK Flexibility Score: inf
ROOT
ATOM      1  C   UNL     1       7.739 -13.810  -1.955  1.00  0.00     0.000 C 
ENDROOT
BRANCH   1   2
ATOM      2  C   UNL     1       7.587 -12.704  -0.893  1.00  0.00     0.000 C 
BRANCH   2   3
ATOM      3  C   UNL     1       8.905 -12.348  -0.172  1.00  0.00     0.000 C 
BRANCH   3   4
ATOM      4  C   UNL     1       8.967 -10.866   0.239  1.00  0.00     0.000 C 
BRANCH   4   5
ATOM      5  C   UNL     1       7.583 -10.283   0.566  1.00  0.00     0.000 C 
BRANCH   5   6
ATOM      6  C   UNL     1       7.340  -8.927  -0.118  1.00  0.00     0.000 C 
BRANCH   6   7
ATOM      7  C   UNL     1       6.358  -9.024  -1.301  1.00  0.00     0.006 C 
BRANCH   7   8
ATOM      8  C   UNL     1       5.313  -7.896  -1.353  1.00  0.00     0.053 C 
BRANCH   8   9
ATOM      9  C   UNL     1       5.009  -7.475  -2.758  1.00  0.00     0.041 C 
ATOM     10  O   UNL     1       5.473  -6.396  -3.211  1.00  0.00    -0.550 OA
ATOM     11  O   UNL     1       4.184  -8.258  -3.555  1.00  0.00    -0.550 OA
ENDBRANCH   8   9
ENDBRANCH   7   8
ENDBRANCH   6   7
ENDBRANCH   5   6
ENDBRANCH   4   5
ENDBRANCH   3   4
ENDBRANCH   2   3
ENDBRANCH   1   2
BRANCH   1  12
ATOM     12  C   UNL     1       7.256 -13.429  -3.367  1.00  0.00     0.000 C 
BRANCH  12  13
ATOM     13  C   UNL     1       6.846 -11.954  -3.537  1.00  0.00    -0.000 C 
BRANCH  13  14
ATOM     14  C   UNL     1       5.491 -11.786  -4.240  1.00  0.00    -0.000 C 
BRANCH  14  15
ATOM     15  C   UNL     1       5.118 -13.057  -5.018  1.00  0.00    -0.000 C 
BRANCH  15  16
ATOM     16  C   UNL     1       3.729 -13.599  -4.644  1.00  0.00    -0.000 C 
BRANCH  16  17
ATOM     17  C   UNL     1       3.294 -13.183  -3.227  1.00  0.00    -0.000 C 
BRANCH  17  18
ATOM     18  C   UNL     1       3.817 -14.142  -2.145  1.00  0.00    -0.000 C 
BRANCH  18  19
ATOM     19  C   UNL     1       3.856 -13.497  -0.751  1.00  0.00    -0.003 C 
ATOM     20  C   UNL     1       4.007 -11.982  -0.852  1.00  0.00     0.004 C 
ENDBRANCH  18  19
ENDBRANCH  17  18
ENDBRANCH  16  17
ENDBRANCH  15  16
ENDBRANCH  14  15
ENDBRANCH  13  14
ENDBRANCH  12  13
ENDBRANCH   1  12
TORSDOF 16
ENDMDL
MODEL 3
REMARK VINA RESULT:    -4.912      1.143      2.154
REMARK INTER + INTRA:         -11.719
REMARK INTER:                  -8.779
REMARK INTRA:                  -2.940
REMARK UNBOUND:                -2.213
REMARK SMILES CCCCCCCCCCCCCCCCCC(=O)[O-]
REMARK SMILES IDX 10 1 11 2 12 3 13 4 14 5 15 6 16 7 17 8 18 9 19 10 20 11
REMARK SMILES IDX 9 12 8 13 7 14 6 15 5 16 4 17 3 18 2 19 1 20
REMARK H PARENT
REMARK Flexibility Score: inf
ROOT
ATOM      1  C   UNL     1       8.353 -11.124  -0.803  1.00  0.00     0.000 C 
ENDROOT
BRANCH   1   2
ATOM      2  C   UNL     1       8.296 -12.642  -0.544  1.00  0.00     0.000 C 
BRANCH   2   3
ATOM      3  C   UNL     1       7.727 -13.454  -1.728  1.00  0.00     0.000 C 
BRANCH   3   4
ATOM      4  C   UNL     1       7.307 -12.558  -2.907  1.00  0.00     0.000 C 
BRANCH   4   5
ATOM      5  C   UNL     1       6.989 -13.362  -4.178  1.00  0.00     0.000 C 
BRANCH   5   6
ATOM      6  C   UNL     1       5.537 -13.167  -4.648  1.00  0.00     0.000 C 
BRANCH   6   7
ATOM      7  C   UNL     1       5.328 -11.835  -5.393  1.00  0.00     0.006 C 
BRANCH   7   8
ATOM      8  C   UNL     1       3.880 -11.581  -5.846  1.00  0.00     0.053 C 
BRANCH   8   9
ATOM      9  C   UNL     1       3.770 -10.378  -6.731  1.00  0.00     0.041 C 
ATOM     10  O   UNL     1       4.701  -9.531  -6.768  1.00  0.00    -0.550 OA
ATOM     11  O   UNL     1       2.623 -10.173  -7.487  1.00  0.00    -0.550 OA
ENDBRANCH   8   9
ENDBRANCH   7   8
ENDBRANCH   6   7
ENDBRANCH   5   6
ENDBRANCH   4   5
ENDBRANCH   3   4
ENDBRANCH   2   3
ENDBRANCH   1   2
BRANCH   1  12
ATOM     12  C   UNL     1       7.687 -10.252   0.278  1.00  0.00     0.000 C 
BRANCH  12  13
ATOM     13  C   UNL     1       6.348  -9.613  -0.137  1.00  0.00    -0.000 C 
BRANCH  13  14
ATOM     14  C   UNL     1       6.368  -9.058  -1.569  1.00  0.00    -0.000 C 
BRANCH  14  15
ATOM     15  C   UNL     1       5.291  -9.731  -2.432  1.00  0.00    -0.000 C 
BRANCH  15  16
ATOM     16  C   UNL     1       4.040 -10.122  -1.628  1.00  0.00    -0.000 C 
BRANCH  16  17
ATOM     17  C   UNL     1       3.589 -11.567  -1.902  1.00  0.00    -0.000 C 
BRANCH  17  18
ATOM     18  C   UNL     1       4.204 -12.574  -0.916  1.00  0.00    -0.000 C 
BRANCH  18  19
ATOM     19  C   UNL     1       4.138 -14.021  -1.429  1.00  0.00    -0.003 C 
ATOM     20  C   UNL     1       2.909 -14.235  -2.308  1.00  0.00     0.004 C 
ENDBRANCH  18  19
ENDBRANCH  17  18
ENDBRANCH  16  17
ENDBRANCH  15  16
ENDBRANCH  14  15
ENDBRANCH  13  14
ENDBRANCH  12  13
ENDBRANCH   1  12
TORSDOF 16
ENDMDL
MODEL 4
REMARK VINA RESULT:    -4.871      0.943      1.656
REMARK INTER + INTRA:         -11.641
REMARK INTER:                  -9.584
REMARK INTRA:                  -2.057
REMARK UNBOUND:                -2.213
REMARK SMILES CCCCCCCCCCCCCCCCCC(=O)[O-]
REMARK SMILES IDX 10 1 11 2 12 3 13 4 14 5 15 6 16 7 17 8 18 9 19 10 20 11
REMARK SMILES IDX 9 12 8 13 7 14 6 15 5 16 4 17 3 18 2 19 1 20
REMARK H PARENT
REMARK Flexibility Score: inf
ROOT
ATOM      1  C   UNL     1       7.590 -12.365  -2.551  1.00  0.00     0.000 C 
ENDROOT
BRANCH   1   2
ATOM      2  C   UNL     1       7.132 -13.370  -3.625  1.00  0.00     0.000 C 
BRANCH   2   3
ATOM      3  C   UNL     1       6.317 -12.730  -4.770  1.00  0.00     0.000 C 
BRANCH   3   4
ATOM      4  C   UNL     1       4.820 -13.076  -4.690  1.00  0.00     0.000 C 
BRANCH   4   5
ATOM      5  C   UNL     1       3.976 -12.294  -5.709  1.00  0.00     0.000 C 
BRANCH   5   6
ATOM      6  C   UNL     1       4.769 -11.159  -6.380  1.00  0.00     0.000 C 
BRANCH   6   7
ATOM      7  C   UNL     1       3.937  -9.874  -6.553  1.00  0.00     0.006 C 
BRANCH   7   8
ATOM      8  C   UNL     1       4.061  -9.219  -7.939  1.00  0.00     0.053 C 
BRANCH   8   9
ATOM      9  C   UNL     1       4.822  -7.930  -7.887  1.00  0.00     0.041 C 
ATOM     10  O   UNL     1       5.024  -7.270  -8.940  1.00  0.00    -0.550 OA
ATOM     11  O   UNL     1       5.338  -7.475  -6.680  1.00  0.00    -0.550 OA
ENDBRANCH   8   9
ENDBRANCH   7   8
ENDBRANCH   6   7
ENDBRANCH   5   6
ENDBRANCH   4   5
ENDBRANCH   3   4
ENDBRANCH   2   3
ENDBRANCH   1   2
BRANCH   1  12
ATOM     12  C   UNL     1       7.566 -12.899  -1.106  1.00  0.00     0.000 C 
BRANCH  12  13
ATOM     13  C   UNL     1       8.788 -12.514  -0.251  1.00  0.00    -0.000 C 
BRANCH  13  14
ATOM     14  C   UNL     1       8.971 -10.995  -0.118  1.00  0.00    -0.000 C 
BRANCH  14  15
ATOM     15  C   UNL     1       7.676 -10.328   0.369  1.00  0.00    -0.000 C 
BRANCH  15  16
ATOM     16  C   UNL     1       7.294  -9.091  -0.459  1.00  0.00    -0.000 C 
BRANCH  16  17
ATOM     17  C   UNL     1       6.030  -9.315  -1.308  1.00  0.00    -0.000 C 
BRANCH  17  18
ATOM     18  C   UNL     1       5.032 -10.274  -0.638  1.00  0.00    -0.000 C 
BRANCH  18  19
ATOM     19  C   UNL     1       4.234 -11.103  -1.656  1.00  0.00    -0.003 C 
ATOM     20  C   UNL     1       3.910 -12.488  -1.103  1.00  0.00     0.004 C 
ENDBRANCH  18  19
ENDBRANCH  17  18
ENDBRANCH  16  17
ENDBRANCH  15  16
ENDBRANCH  14  15
ENDBRANCH  13  14
ENDBRANCH  12  13
ENDBRANCH   1  12
TORSDOF 16
ENDMDL
MODEL 5
REMARK VINA RESULT:    -4.674      3.687      7.838
REMARK INTER + INTRA:         -11.260
REMARK INTER:                  -9.639
REMARK INTRA:                  -1.620
REMARK UNBOUND:                -2.213
REMARK SMILES CCCCCCCCCCCCCCCCCC(=O)[O-]
REMARK SMILES IDX 10 1 11 2 12 3 13 4 14 5 15 6 16 7 17 8 18 9 19 10 20 11
REMARK SMILES IDX 9 12 8 13 7 14 6 15 5 16 4 17 3 18 2 19 1 20
REMARK H PARENT
REMARK Flexibility Score: inf
ROOT
ATOM      1  C   UNL     1       1.614 -11.814  -6.684  1.00  0.00     0.000 C 
ENDROOT
BRANCH   1   2
ATOM      2  C   UNL     1       2.709 -10.903  -6.094  1.00  0.00     0.000 C 
BRANCH   2   3
ATOM      3  C   UNL     1       4.067 -11.610  -5.896  1.00  0.00     0.000 C 
BRANCH   3   4
ATOM      4  C   UNL     1       3.914 -13.017  -5.291  1.00  0.00     0.000 C 
BRANCH   4   5
ATOM      5  C   UNL     1       4.882 -13.268  -4.124  1.00  0.00     0.000 C 
BRANCH   5   6
ATOM      6  C   UNL     1       6.356 -13.236  -4.567  1.00  0.00     0.000 C 
BRANCH   6   7
ATOM      7  C   UNL     1       7.296 -12.706  -3.467  1.00  0.00     0.006 C 
BRANCH   7   8
ATOM      8  C   UNL     1       7.066 -13.329  -2.080  1.00  0.00     0.053 C 
BRANCH   8   9
ATOM      9  C   UNL     1       7.562 -12.445  -0.977  1.00  0.00     0.041 C 
ATOM     10  O   UNL     1       8.598 -12.757  -0.333  1.00  0.00    -0.550 OA
ATOM     11  O   UNL     1       6.860 -11.297  -0.637  1.00  0.00    -0.550 OA
ENDBRANCH   8   9
ENDBRANCH   7   8
ENDBRANCH   6   7
ENDBRANCH   5   6
ENDBRANCH   4   5
ENDBRANCH   3   4
ENDBRANCH   2   3
ENDBRANCH   1   2
BRANCH   1  12
ATOM     12  C   UNL     1       0.179 -11.267  -6.567  1.00  0.00     0.000 C 
BRANCH  12  13
ATOM     13  C   UNL     1       0.079  -9.742  -6.371  1.00  0.00    -0.000 C 
BRANCH  13  14
ATOM     14  C   UNL     1      -0.840  -9.066  -7.399  1.00  0.00    -0.000 C 
BRANCH  14  15
ATOM     15  C   UNL     1      -0.021  -8.433  -8.534  1.00  0.00    -0.000 C 
BRANCH  15  16
ATOM     16  C   UNL     1       1.437  -8.156  -8.133  1.00  0.00    -0.000 C 
BRANCH  16  17
ATOM     17  C   UNL     1       2.447  -8.759  -9.125  1.00  0.00    -0.000 C 
BRANCH  17  18
ATOM     18  C   UNL     1       3.898  -8.366  -8.801  1.00  0.00    -0.000 C 
BRANCH  18  19
ATOM     19  C   UNL     1       4.053  -7.787  -7.387  1.00  0.00    -0.003 C 
ATOM     20  C   UNL     1       4.706  -6.408  -7.427  1.00  0.00     0.004 C 
ENDBRANCH  18  19
ENDBRANCH  17  18
ENDBRANCH  16  17
ENDBRANCH  15  16
ENDBRANCH  14  15
ENDBRANCH  13  14
ENDBRANCH  12  13
ENDBRANCH   1  12
TORSDOF 16
ENDMDL
MODEL 6
REMARK VINA RESULT:    -4.626      1.702      3.483
REMARK INTER + INTRA:         -11.165
REMARK INTER:                  -9.248
REMARK INTRA:                  -1.918
REMARK UNBOUND:                -2.213
REMARK SMILES CCCCCCCCCCCCCCCCCC(=O)[O-]
REMARK SMILES IDX 10 1 11 2 12 3 13 4 14 5 15 6 16 7 17 8 18 9 19 10 20 11
REMARK SMILES IDX 9 12 8 13 7 14 6 15 5 16 4 17 3 18 2 19 1 20
REMARK H PARENT
REMARK Flexibility Score: inf
ROOT
ATOM      1  C   UNL     1       6.252 -12.399  -4.290  1.00  0.00     0.000 C 
ENDROOT
BRANCH   1   2
ATOM      2  C   UNL     1       5.044 -13.069  -4.973  1.00  0.00     0.000 C 
BRANCH   2   3
ATOM      3  C   UNL     1       4.141 -12.085  -5.747  1.00  0.00     0.000 C 
BRANCH   3   4
ATOM      4  C   UNL     1       3.831 -10.812  -4.938  1.00  0.00     0.000 C 
BRANCH   4   5
ATOM      5  C   UNL     1       4.396  -9.542  -5.593  1.00  0.00     0.000 C 
BRANCH   5   6
ATOM      6  C   UNL     1       4.618  -9.710  -7.106  1.00  0.00     0.000 C 
BRANCH   6   7
ATOM      7  C   UNL     1       3.841  -8.674  -7.940  1.00  0.00     0.006 C 
BRANCH   7   8
ATOM      8  C   UNL     1       2.426  -9.117  -8.347  1.00  0.00     0.053 C 
BRANCH   8   9
ATOM      9  C   UNL     1       1.365  -8.331  -7.638  1.00  0.00     0.041 C 
ATOM     10  O   UNL     1       1.684  -7.462  -6.786  1.00  0.00    -0.550 OA
ATOM     11  O   UNL     1       0.024  -8.586  -7.895  1.00  0.00    -0.550 OA
ENDBRANCH   8   9
ENDBRANCH   7   8
ENDBRANCH   6   7
ENDBRANCH   5   6
ENDBRANCH   4   5
ENDBRANCH   3   4
ENDBRANCH   2   3
ENDBRANCH   1   2
BRANCH   1  12
ATOM     12  C   UNL     1       7.199 -13.361  -3.549  1.00  0.00     0.000 C 
BRANCH  12  13
ATOM     13  C   UNL     1       7.009 -13.412  -2.021  1.00  0.00    -0.000 C 
BRANCH  13  14
ATOM     14  C   UNL     1       8.339 -13.412  -1.253  1.00  0.00    -0.000 C 
BRANCH  14  15
ATOM     15  C   UNL     1       8.381 -12.267  -0.230  1.00  0.00    -0.000 C 
BRANCH  15  16
ATOM     16  C   UNL     1       8.502 -10.884  -0.889  1.00  0.00    -0.000 C 
BRANCH  16  17
ATOM     17  C   UNL     1       7.707  -9.800  -0.139  1.00  0.00    -0.000 C 
BRANCH  17  18
ATOM     18  C   UNL     1       6.191 -10.054  -0.169  1.00  0.00    -0.000 C 
BRANCH  18  19
ATOM     19  C   UNL     1       5.615 -10.029  -1.593  1.00  0.00    -0.003 C 
ATOM     20  C   UNL     1       5.467  -8.597  -2.100  1.00  0.00     0.004 C 
ENDBRANCH  18  19
ENDBRANCH  17  18
ENDBRANCH  16  17
ENDBRANCH  15  16
ENDBRANCH  14  15
ENDBRANCH  13  14
ENDBRANCH  12  13
ENDBRANCH   1  12
TORSDOF 16
ENDMDL
MODEL 7
REMARK VINA RESULT:    -4.620      1.402      3.384
REMARK INTER + INTRA:         -11.154
REMARK INTER:                  -8.341
REMARK INTRA:                  -2.813
REMARK UNBOUND:                -2.213
REMARK SMILES CCCCCCCCCCCCCCCCCC(=O)[O-]
REMARK SMILES IDX 10 1 11 2 12 3 13 4 14 5 15 6 16 7 17 8 18 9 19 10 20 11
REMARK SMILES IDX 9 12 8 13 7 14 6 15 5 16 4 17 3 18 2 19 1 20
REMARK H PARENT
REMARK Flexibility Score: inf
ROOT
ATOM      1  C   UNL     1       6.773 -10.434  -0.532  1.00  0.00     0.000 C 
ENDROOT
BRANCH   1   2
ATOM      2  C   UNL     1       5.283 -10.424  -0.924  1.00  0.00     0.000 C 
BRANCH   2   3
ATOM      3  C   UNL     1       5.022  -9.933  -2.365  1.00  0.00     0.000 C 
BRANCH   3   4
ATOM      4  C   UNL     1       3.523  -9.906  -2.713  1.00  0.00     0.000 C 
BRANCH   4   5
ATOM      5  C   UNL     1       3.268  -9.813  -4.226  1.00  0.00     0.000 C 
BRANCH   5   6
ATOM      6  C   UNL     1       4.548 -10.036  -5.052  1.00  0.00     0.000 C 
BRANCH   6   7
ATOM      7  C   UNL     1       4.253 -10.394  -6.520  1.00  0.00     0.006 C 
BRANCH   7   8
ATOM      8  C   UNL     1       4.505  -9.250  -7.517  1.00  0.00     0.053 C 
BRANCH   8   9
ATOM      9  C   UNL     1       3.394  -8.246  -7.513  1.00  0.00     0.041 C 
ATOM     10  O   UNL     1       2.312  -8.497  -8.105  1.00  0.00    -0.550 OA
ATOM     11  O   UNL     1       3.567  -7.019  -6.887  1.00  0.00    -0.550 OA
ENDBRANCH   8   9
ENDBRANCH   7   8
ENDBRANCH   6   7
ENDBRANCH   5   6
ENDBRANCH   4   5
ENDBRANCH   3   4
ENDBRANCH   2   3
ENDBRANCH   1   2
BRANCH   1  12
ATOM     12  C   UNL     1       7.679 -11.293  -1.433  1.00  0.00     0.000 C 
BRANCH  12  13
ATOM     13  C   UNL     1       7.685 -12.798  -1.102  1.00  0.00    -0.000 C 
BRANCH  13  14
ATOM     14  C   UNL     1       7.543 -13.686  -2.348  1.00  0.00    -0.000 C 
BRANCH  14  15
ATOM     15  C   UNL     1       7.160 -12.847  -3.576  1.00  0.00    -0.000 C 
BRANCH  15  16
ATOM     16  C   UNL     1       5.812 -13.265  -4.187  1.00  0.00    -0.000 C 
BRANCH  16  17
ATOM     17  C   UNL     1       4.745 -13.561  -3.118  1.00  0.00    -0.000 C 
BRANCH  17  18
ATOM     18  C   UNL     1       3.315 -13.482  -3.675  1.00  0.00    -0.000 C 
BRANCH  18  19
ATOM     19  C   UNL     1       3.264 -13.647  -5.202  1.00  0.00    -0.003 C 
ATOM     20  C   UNL     1       1.838 -13.491  -5.722  1.00  0.00     0.004 C 
ENDBRANCH  18  19
ENDBRANCH  17  18
ENDBRANCH  16  17
ENDBRANCH  15  16
ENDBRANCH  14  15
ENDBRANCH  13  14
ENDBRANCH  12  13
ENDBRANCH   1  12
TORSDOF 16
ENDMDL
MODEL 8
REMARK VINA RESULT:    -4.583      2.319      4.354
REMARK INTER + INTRA:         -11.082
REMARK INTER:                  -8.583
REMARK INTRA:                  -2.499
REMARK UNBOUND:                -2.213
REMARK SMILES CCCCCCCCCCCCCCCCCC(=O)[O-]
REMARK SMILES IDX 10 1 11 2 12 3 13 4 14 5 15 6 16 7 17 8 18 9 19 10 20 11
REMARK SMILES IDX 9 12 8 13 7 14 6 15 5 16 4 17 3 18 2 19 1 20
REMARK H PARENT
REMARK Flexibility Score: inf
ROOT
ATOM      1  C   UNL     1       3.794  -9.800  -2.826  1.00  0.00     0.000 C 
ENDROOT
BRANCH   1   2
ATOM      2  C   UNL     1       3.304  -9.824  -4.287  1.00  0.00     0.000 C 
BRANCH   2   3
ATOM      3  C   UNL     1       4.442  -9.722  -5.327  1.00  0.00     0.000 C 
BRANCH   3   4
ATOM      4  C   UNL     1       4.067 -10.370  -6.672  1.00  0.00     0.000 C 
BRANCH   4   5
ATOM      5  C   UNL     1       4.239  -9.409  -7.860  1.00  0.00     0.000 C 
BRANCH   5   6
ATOM      6  C   UNL     1       2.904  -9.095  -8.558  1.00  0.00     0.000 C 
BRANCH   6   7
ATOM      7  C   UNL     1       1.964  -8.239  -7.689  1.00  0.00     0.006 C 
BRANCH   7   8
ATOM      8  C   UNL     1       0.496  -8.696  -7.700  1.00  0.00     0.053 C 
BRANCH   8   9
ATOM      9  C   UNL     1       0.207  -9.690  -6.618  1.00  0.00     0.041 C 
ATOM     10  O   UNL     1      -0.227  -9.304  -5.501  1.00  0.00    -0.550 OA
ATOM     11  O   UNL     1       0.452 -11.041  -6.831  1.00  0.00    -0.550 OA
ENDBRANCH   8   9
ENDBRANCH   7   8
ENDBRANCH   6   7
ENDBRANCH   5   6
ENDBRANCH   4   5
ENDBRANCH   3   4
ENDBRANCH   2   3
ENDBRANCH   1   2
BRANCH   1  12
ATOM     12  C   UNL     1       5.324  -9.857  -2.651  1.00  0.00     0.000 C 
BRANCH  12  13
ATOM     13  C   UNL     1       5.809 -10.692  -1.451  1.00  0.00    -0.000 C 
BRANCH  13  14
ATOM     14  C   UNL     1       7.310 -11.016  -1.516  1.00  0.00    -0.000 C 
BRANCH  14  15
ATOM     15  C   UNL     1       7.563 -12.499  -1.206  1.00  0.00    -0.000 C 
BRANCH  15  16
ATOM     16  C   UNL     1       6.848 -13.443  -2.187  1.00  0.00    -0.000 C 
BRANCH  16  17
ATOM     17  C   UNL     1       7.220 -13.164  -3.653  1.00  0.00    -0.000 C 
BRANCH  17  18
ATOM     18  C   UNL     1       5.989 -13.099  -4.572  1.00  0.00    -0.000 C 
BRANCH  18  19
ATOM     19  C   UNL     1       4.677 -13.388  -3.826  1.00  0.00    -0.003 C 
ATOM     20  C   UNL     1       3.510 -13.517  -4.800  1.00  0.00     0.004 C 
ENDBRANCH  18  19
ENDBRANCH  17  18
ENDBRANCH  16  17
ENDBRANCH  15  16
ENDBRANCH  14  15
ENDBRANCH  13  14
ENDBRANCH  12  13
ENDBRANCH   1  12
TORSDOF 16
ENDMDL
MODEL 9
REMARK VINA RESULT:    -4.561      3.476      6.925
REMARK INTER + INTRA:         -11.041
REMARK INTER:                  -8.972
REMARK INTRA:                  -2.069
REMARK UNBOUND:                -2.213
REMARK SMILES CCCCCCCCCCCCCCCCCC(=O)[O-]
REMARK SMILES IDX 10 1 11 2 12 3 13 4 14 5 15 6 16 7 17 8 18 9 19 10 20 11
REMARK SMILES IDX 9 12 8 13 7 14 6 15 5 16 4 17 3 18 2 19 1 20
REMARK H PARENT
REMARK Flexibility Score: inf
ROOT
ATOM      1  C   UNL     1       3.663  -9.254  -5.003  1.00  0.00     0.000 C 
ENDROOT
BRANCH   1   2
ATOM      2  C   UNL     1       3.706 -10.792  -4.914  1.00  0.00     0.000 C 
BRANCH   2   3
ATOM      3  C   UNL     1       4.419 -11.465  -6.108  1.00  0.00     0.000 C 
BRANCH   3   4
ATOM      4  C   UNL     1       4.934 -12.874  -5.765  1.00  0.00     0.000 C 
BRANCH   4   5
ATOM      5  C   UNL     1       5.260 -13.038  -4.272  1.00  0.00     0.000 C 
BRANCH   5   6
ATOM      6  C   UNL     1       6.750 -12.800  -3.967  1.00  0.00     0.000 C 
BRANCH   6   7
ATOM      7  C   UNL     1       7.202 -13.467  -2.654  1.00  0.00     0.006 C 
BRANCH   7   8
ATOM      8  C   UNL     1       6.825 -12.687  -1.383  1.00  0.00     0.053 C 
BRANCH   8   9
ATOM      9  C   UNL     1       8.002 -11.973  -0.791  1.00  0.00     0.041 C 
ATOM     10  O   UNL     1       8.099 -10.722  -0.890  1.00  0.00    -0.550 OA
ATOM     11  O   UNL     1       9.008 -12.694  -0.162  1.00  0.00    -0.550 OA
ENDBRANCH   8   9
ENDBRANCH   7   8
ENDBRANCH   6   7
ENDBRANCH   5   6
ENDBRANCH   4   5
ENDBRANCH   3   4
ENDBRANCH   2   3
ENDBRANCH   1   2
BRANCH   1  12
ATOM     12  C   UNL     1       4.623  -8.634  -6.036  1.00  0.00     0.000 C 
BRANCH  12  13
ATOM     13  C   UNL     1       3.944  -7.778  -7.122  1.00  0.00    -0.000 C 
BRANCH  13  14
ATOM     14  C   UNL     1       3.747  -8.536  -8.444  1.00  0.00    -0.000 C 
BRANCH  14  15
ATOM     15  C   UNL     1       2.315  -9.078  -8.556  1.00  0.00    -0.000 C 
BRANCH  15  16
ATOM     16  C   UNL     1       1.295  -8.237  -7.772  1.00  0.00    -0.000 C 
BRANCH  16  17
ATOM     17  C   UNL     1       0.020  -9.026  -7.425  1.00  0.00    -0.000 C 
BRANCH  17  18
ATOM     18  C   UNL     1       0.214  -9.959  -6.218  1.00  0.00    -0.000 C 
BRANCH  18  19
ATOM     19  C   UNL     1      -0.249 -11.396  -6.501  1.00  0.00    -0.003 C 
ATOM     20  C   UNL     1       0.926 -12.281  -6.907  1.00  0.00     0.004 C 
ENDBRANCH  18  19
ENDBRANCH  17  18
ENDBRANCH  16  17
ENDBRANCH  15  16
ENDBRANCH  14  15
ENDBRANCH  13  14
ENDBRANCH  12  13
ENDBRANCH   1  12
TORSDOF 16
ENDMDL
