MODEL 1
REMARK VINA RESULT:    -6.969      0.000      0.000
REMARK INTER + INTRA:          -8.626
REMARK INTER:                  -8.394
REMARK INTRA:                  -0.231
REMARK UNBOUND:                -0.231
REMARK SMILES O=c1c(O)c(-c2ccc(O)c(O)c2)oc2cc(O)cc(O)c12
REMARK SMILES IDX 5 1 3 2 2 3 1 4 22 5 20 6 19 7 17 8 16 9 15 10 14 11 6 12
REMARK SMILES IDX 7 13 8 14 9 15 13 16 11 17 10 18 12 20 4 22 21 24 18 26
REMARK H PARENT 10 19 12 21 4 23 21 25 18 27
REMARK Flexibility Score: inf
ROOT
ATOM      1  C   UNL     1     166.842 172.345 192.162  1.00  0.00     0.180 A 
ATOM      2  C   UNL     1     168.167 172.484 191.705  1.00  0.00     0.208 A 
ATOM      3  C   UNL     1     168.653 171.577 190.750  1.00  0.00     0.238 A 
ATOM      4  O   UNL     1     169.841 171.685 190.341  1.00  0.00    -0.285 OA
ATOM      5  C   UNL     1     167.806 170.564 190.257  1.00  0.00     0.111 A 
ATOM      6  C   UNL     1     168.217 169.613 189.290  1.00  0.00     0.134 A 
ATOM      7  C   UNL     1     167.311 168.641 188.842  1.00  0.00     0.093 A 
ATOM      8  C   UNL     1     166.006 168.601 189.338  1.00  0.00     0.123 A 
ATOM      9  C   UNL     1     165.594 169.536 190.292  1.00  0.00     0.094 A 
ATOM     10  C   UNL     1     166.483 170.513 190.752  1.00  0.00     0.146 A 
ATOM     11  O   UNL     1     166.067 171.387 191.663  1.00  0.00    -0.452 OA
ENDROOT
BRANCH   1  12
ATOM     12  C   UNL     1     166.263 173.249 193.182  1.00  0.00     0.025 A 
ATOM     13  C   UNL     1     165.211 174.105 192.827  1.00  0.00     0.016 A 
ATOM     14  C   UNL     1     164.637 174.952 193.777  1.00  0.00     0.051 A 
ATOM     15  C   UNL     1     165.090 174.951 195.101  1.00  0.00     0.157 A 
ATOM     16  C   UNL     1     166.706 173.229 194.515  1.00  0.00     0.062 A 
ATOM     17  C   UNL     1     166.134 174.073 195.477  1.00  0.00     0.158 A 
BRANCH  15  18
ATOM     18  O   UNL     1     164.479 175.826 196.000  1.00  0.00    -0.504 OA
ATOM     19  H   UNL     1     164.748 175.919 196.970  1.00  0.00     0.293 HD
ENDBRANCH  15  18
BRANCH  17  20
ATOM     20  O   UNL     1     166.625 174.000 196.782  1.00  0.00    -0.504 OA
ATOM     21  H   UNL     1     167.485 174.433 197.086  1.00  0.00     0.293 HD
ENDBRANCH  17  20
ENDBRANCH   1  12
BRANCH   2  22
ATOM     22  O   UNL     1     168.970 173.526 192.174  1.00  0.00    -0.502 OA
ATOM     23  H   UNL     1     169.892 173.368 192.563  1.00  0.00     0.293 HD
ENDBRANCH   2  22
BRANCH   6  24
ATOM     24  O   UNL     1     169.514 169.628 188.775  1.00  0.00    -0.507 OA
ATOM     25  H   UNL     1     170.028 168.772 188.602  1.00  0.00     0.293 HD
ENDBRANCH   6  24
BRANCH   8  26
ATOM     26  O   UNL     1     165.125 167.625 188.875  1.00  0.00    -0.508 OA
ATOM     27  H   UNL     1     165.007 166.745 189.362  1.00  0.00     0.293 HD
ENDBRANCH   8  26
TORSDOF 6
ENDMDL
MODEL 2
REMARK VINA RESULT:    -6.532      1.543      7.150
REMARK INTER + INTRA:          -8.100
REMARK INTER:                  -7.902
REMARK INTRA:                  -0.197
REMARK UNBOUND:                -0.231
REMARK SMILES O=c1c(O)c(-c2ccc(O)c(O)c2)oc2cc(O)cc(O)c12
REMARK SMILES IDX 5 1 3 2 2 3 1 4 22 5 20 6 19 7 17 8 16 9 15 10 14 11 6 12
REMARK SMILES IDX 7 13 8 14 9 15 13 16 11 17 10 18 12 20 4 22 21 24 18 26
REMARK H PARENT 10 19 12 21 4 23 21 25 18 27
REMARK Flexibility Score: inf
ROOT
ATOM      1  C   UNL     1     165.970 171.805 191.310  1.00  0.00     0.180 A 
ATOM      2  C   UNL     1     165.106 172.777 190.770  1.00  0.00     0.208 A 
ATOM      3  C   UNL     1     164.671 173.829 191.591  1.00  0.00     0.238 A 
ATOM      4  O   UNL     1     163.889 174.700 191.120  1.00  0.00    -0.285 OA
ATOM      5  C   UNL     1     165.120 173.903 192.925  1.00  0.00     0.111 A 
ATOM      6  C   UNL     1     164.733 174.934 193.816  1.00  0.00     0.134 A 
ATOM      7  C   UNL     1     165.231 174.943 195.128  1.00  0.00     0.093 A 
ATOM      8  C   UNL     1     166.107 173.947 195.564  1.00  0.00     0.123 A 
ATOM      9  C   UNL     1     166.492 172.926 194.689  1.00  0.00     0.094 A 
ATOM     10  C   UNL     1     166.006 172.899 193.378  1.00  0.00     0.146 A 
ATOM     11  O   UNL     1     166.385 171.915 192.569  1.00  0.00    -0.452 OA
ENDROOT
BRANCH   1  12
ATOM     12  C   UNL     1     166.457 170.654 190.514  1.00  0.00     0.025 A 
ATOM     13  C   UNL     1     167.831 170.512 190.277  1.00  0.00     0.016 A 
ATOM     14  C   UNL     1     168.313 169.425 189.546  1.00  0.00     0.051 A 
ATOM     15  C   UNL     1     167.437 168.452 189.051  1.00  0.00     0.157 A 
ATOM     16  C   UNL     1     165.575 169.669 190.039  1.00  0.00     0.062 A 
ATOM     17  C   UNL     1     166.050 168.572 189.306  1.00  0.00     0.158 A 
BRANCH  15  18
ATOM     18  O   UNL     1     167.982 167.394 188.322  1.00  0.00    -0.504 OA
ATOM     19  H   UNL     1     167.918 167.308 187.317  1.00  0.00     0.293 HD
ENDBRANCH  15  18
BRANCH  17  20
ATOM     20  O   UNL     1     165.118 167.632 188.864  1.00  0.00    -0.504 OA
ATOM     21  H   UNL     1     164.271 167.867 188.369  1.00  0.00     0.293 HD
ENDBRANCH  17  20
ENDBRANCH   1  12
BRANCH   2  22
ATOM     22  O   UNL     1     164.715 172.707 189.430  1.00  0.00    -0.502 OA
ATOM     23  H   UNL     1     165.353 172.438 188.691  1.00  0.00     0.293 HD
ENDBRANCH   2  22
BRANCH   6  24
ATOM     24  O   UNL     1     163.860 175.944 193.410  1.00  0.00    -0.507 OA
ATOM     25  H   UNL     1     163.900 176.340 192.478  1.00  0.00     0.293 HD
ENDBRANCH   6  24
BRANCH   8  26
ATOM     26  O   UNL     1     166.588 173.979 196.871  1.00  0.00    -0.508 OA
ATOM     27  H   UNL     1     166.413 174.769 197.480  1.00  0.00     0.293 HD
ENDBRANCH   8  26
TORSDOF 6
ENDMDL
MODEL 3
REMARK VINA RESULT:    -6.349      1.701      2.494
REMARK INTER + INTRA:          -7.879
REMARK INTER:                  -7.565
REMARK INTRA:                  -0.314
REMARK UNBOUND:                -0.231
REMARK SMILES O=c1c(O)c(-c2ccc(O)c(O)c2)oc2cc(O)cc(O)c12
REMARK SMILES IDX 5 1 3 2 2 3 1 4 22 5 20 6 19 7 17 8 16 9 15 10 14 11 6 12
REMARK SMILES IDX 7 13 8 14 9 15 13 16 11 17 10 18 12 20 4 22 21 24 18 26
REMARK H PARENT 10 19 12 21 4 23 21 25 18 27
REMARK Flexibility Score: inf
ROOT
ATOM      1  C   UNL     1     166.099 173.684 192.598  1.00  0.00     0.180 A 
ATOM      2  C   UNL     1     166.899 174.490 191.766  1.00  0.00     0.208 A 
ATOM      3  C   UNL     1     167.598 173.887 190.708  1.00  0.00     0.238 A 
ATOM      4  O   UNL     1     168.327 174.598 189.963  1.00  0.00    -0.285 OA
ATOM      5  C   UNL     1     167.469 172.501 190.487  1.00  0.00     0.111 A 
ATOM      6  C   UNL     1     168.136 171.818 189.440  1.00  0.00     0.134 A 
ATOM      7  C   UNL     1     167.948 170.437 189.281  1.00  0.00     0.093 A 
ATOM      8  C   UNL     1     167.110 169.728 190.144  1.00  0.00     0.123 A 
ATOM      9  C   UNL     1     166.450 170.396 191.179  1.00  0.00     0.094 A 
ATOM     10  C   UNL     1     166.624 171.772 191.356  1.00  0.00     0.146 A 
ATOM     11  O   UNL     1     165.989 172.382 192.351  1.00  0.00    -0.452 OA
ENDROOT
BRANCH   1  12
ATOM     12  C   UNL     1     165.347 174.241 193.746  1.00  0.00     0.025 A 
ATOM     13  C   UNL     1     166.002 174.435 194.970  1.00  0.00     0.016 A 
ATOM     14  C   UNL     1     165.317 174.976 196.060  1.00  0.00     0.051 A 
ATOM     15  C   UNL     1     163.973 175.348 195.946  1.00  0.00     0.157 A 
ATOM     16  C   UNL     1     164.004 174.633 193.621  1.00  0.00     0.062 A 
ATOM     17  C   UNL     1     163.309 175.180 194.708  1.00  0.00     0.158 A 
BRANCH  15  18
ATOM     18  O   UNL     1     163.345 175.876 197.075  1.00  0.00    -0.504 OA
ATOM     19  H   UNL     1     163.022 175.319 197.854  1.00  0.00     0.293 HD
ENDBRANCH  15  18
BRANCH  17  20
ATOM     20  O   UNL     1     161.976 175.547 194.512  1.00  0.00    -0.504 OA
ATOM     21  H   UNL     1     161.357 175.838 195.254  1.00  0.00     0.293 HD
ENDBRANCH  17  20
ENDBRANCH   1  12
BRANCH   2  22
ATOM     22  O   UNL     1     166.972 175.869 191.976  1.00  0.00    -0.502 OA
ATOM     23  H   UNL     1     166.161 176.424 192.223  1.00  0.00     0.293 HD
ENDBRANCH   2  22
BRANCH   6  24
ATOM     24  O   UNL     1     168.979 172.499 188.562  1.00  0.00    -0.507 OA
ATOM     25  H   UNL     1     169.809 172.982 188.885  1.00  0.00     0.293 HD
ENDBRANCH   6  24
BRANCH   8  26
ATOM     26  O   UNL     1     166.940 168.356 189.963  1.00  0.00    -0.508 OA
ATOM     27  H   UNL     1     167.714 167.710 190.057  1.00  0.00     0.293 HD
ENDBRANCH   8  26
TORSDOF 6
ENDMDL
MODEL 4
REMARK VINA RESULT:    -6.301      5.470      8.839
REMARK INTER + INTRA:          -7.821
REMARK INTER:                  -8.054
REMARK INTRA:                   0.233
REMARK UNBOUND:                -0.231
REMARK SMILES O=c1c(O)c(-c2ccc(O)c(O)c2)oc2cc(O)cc(O)c12
REMARK SMILES IDX 5 1 3 2 2 3 1 4 22 5 20 6 19 7 17 8 16 9 15 10 14 11 6 12
REMARK SMILES IDX 7 13 8 14 9 15 13 16 11 17 10 18 12 20 4 22 21 24 18 26
REMARK H PARENT 10 19 12 21 4 23 21 25 18 27
REMARK Flexibility Score: inf
ROOT
ATOM      1  C   UNL     1     168.536 166.719 185.810  1.00  0.00     0.180 A 
ATOM      2  C   UNL     1     169.691 167.255 185.210  1.00  0.00     0.208 A 
ATOM      3  C   UNL     1     170.184 166.662 184.036  1.00  0.00     0.238 A 
ATOM      4  O   UNL     1     171.225 167.127 183.497  1.00  0.00    -0.285 OA
ATOM      5  C   UNL     1     169.505 165.562 183.474  1.00  0.00     0.111 A 
ATOM      6  C   UNL     1     169.932 164.910 182.291  1.00  0.00     0.134 A 
ATOM      7  C   UNL     1     169.196 163.827 181.789  1.00  0.00     0.093 A 
ATOM      8  C   UNL     1     168.044 163.385 182.442  1.00  0.00     0.123 A 
ATOM      9  C   UNL     1     167.617 164.023 183.611  1.00  0.00     0.094 A 
ATOM     10  C   UNL     1     168.338 165.104 184.128  1.00  0.00     0.146 A 
ATOM     11  O   UNL     1     167.913 165.690 185.243  1.00  0.00    -0.452 OA
ENDROOT
BRANCH   1  12
ATOM     12  C   UNL     1     167.967 167.275 187.059  1.00  0.00     0.025 A 
ATOM     13  C   UNL     1     168.827 167.789 188.040  1.00  0.00     0.016 A 
ATOM     14  C   UNL     1     168.310 168.335 189.216  1.00  0.00     0.051 A 
ATOM     15  C   UNL     1     166.929 168.394 189.430  1.00  0.00     0.157 A 
ATOM     16  C   UNL     1     166.578 167.352 187.260  1.00  0.00     0.062 A 
ATOM     17  C   UNL     1     166.050 167.902 188.436  1.00  0.00     0.158 A 
BRANCH  15  18
ATOM     18  O   UNL     1     166.478 168.946 190.630  1.00  0.00    -0.504 OA
ATOM     19  H   UNL     1     166.961 168.850 191.513  1.00  0.00     0.293 HD
ENDBRANCH  15  18
BRANCH  17  20
ATOM     20  O   UNL     1     164.661 167.945 188.569  1.00  0.00    -0.504 OA
ATOM     21  H   UNL     1     164.019 167.527 187.912  1.00  0.00     0.293 HD
ENDBRANCH  17  20
ENDBRANCH   1  12
BRANCH   2  22
ATOM     22  O   UNL     1     170.318 168.375 185.761  1.00  0.00    -0.502 OA
ATOM     23  H   UNL     1     170.563 168.434 186.742  1.00  0.00     0.293 HD
ENDBRANCH   2  22
BRANCH   6  24
ATOM     24  O   UNL     1     171.078 165.330 181.615  1.00  0.00    -0.507 OA
ATOM     25  H   UNL     1     172.008 165.128 181.964  1.00  0.00     0.293 HD
ENDBRANCH   6  24
BRANCH   8  26
ATOM     26  O   UNL     1     167.330 162.307 181.922  1.00  0.00    -0.508 OA
ATOM     27  H   UNL     1     166.326 162.347 181.797  1.00  0.00     0.293 HD
ENDBRANCH   8  26
TORSDOF 6
ENDMDL
MODEL 5
REMARK VINA RESULT:    -6.288      4.812     10.304
REMARK INTER + INTRA:          -7.805
REMARK INTER:                  -7.787
REMARK INTRA:                  -0.018
REMARK UNBOUND:                -0.231
REMARK SMILES O=c1c(O)c(-c2ccc(O)c(O)c2)oc2cc(O)cc(O)c12
REMARK SMILES IDX 5 1 3 2 2 3 1 4 22 5 20 6 19 7 17 8 16 9 15 10 14 11 6 12
REMARK SMILES IDX 7 13 8 14 9 15 13 16 11 17 10 18 12 20 4 22 21 24 18 26
REMARK H PARENT 10 19 12 21 4 23 21 25 18 27
REMARK Flexibility Score: inf
ROOT
ATOM      1  C   UNL     1     168.095 166.266 186.070  1.00  0.00     0.180 A 
ATOM      2  C   UNL     1     169.339 166.826 186.417  1.00  0.00     0.208 A 
ATOM      3  C   UNL     1     169.393 167.769 187.456  1.00  0.00     0.238 A 
ATOM      4  O   UNL     1     170.501 168.285 187.767  1.00  0.00    -0.285 OA
ATOM      5  C   UNL     1     168.211 168.120 188.139  1.00  0.00     0.111 A 
ATOM      6  C   UNL     1     168.180 169.059 189.200  1.00  0.00     0.134 A 
ATOM      7  C   UNL     1     166.965 169.348 189.838  1.00  0.00     0.093 A 
ATOM      8  C   UNL     1     165.784 168.719 189.438  1.00  0.00     0.123 A 
ATOM      9  C   UNL     1     165.808 167.792 188.391  1.00  0.00     0.094 A 
ATOM     10  C   UNL     1     167.009 167.491 187.743  1.00  0.00     0.146 A 
ATOM     11  O   UNL     1     167.003 166.610 186.748  1.00  0.00    -0.452 OA
ENDROOT
BRANCH   1  12
ATOM     12  C   UNL     1     167.952 165.280 184.974  1.00  0.00     0.025 A 
ATOM     13  C   UNL     1     167.206 164.114 185.189  1.00  0.00     0.016 A 
ATOM     14  C   UNL     1     167.043 163.180 184.163  1.00  0.00     0.051 A 
ATOM     15  C   UNL     1     167.608 163.399 182.902  1.00  0.00     0.157 A 
ATOM     16  C   UNL     1     168.503 165.515 183.703  1.00  0.00     0.062 A 
ATOM     17  C   UNL     1     168.343 164.585 182.666  1.00  0.00     0.158 A 
BRANCH  15  18
ATOM     18  O   UNL     1     167.415 162.424 181.922  1.00  0.00    -0.504 OA
ATOM     19  H   UNL     1     167.363 161.433 182.114  1.00  0.00     0.293 HD
ENDBRANCH  15  18
BRANCH  17  20
ATOM     20  O   UNL     1     168.918 164.883 181.430  1.00  0.00    -0.504 OA
ATOM     21  H   UNL     1     169.814 164.532 181.125  1.00  0.00     0.293 HD
ENDBRANCH  17  20
ENDBRANCH   1  12
BRANCH   2  22
ATOM     22  O   UNL     1     170.503 166.425 185.756  1.00  0.00    -0.502 OA
ATOM     23  H   UNL     1     171.354 166.974 185.773  1.00  0.00     0.293 HD
ENDBRANCH   2  22
BRANCH   6  24
ATOM     24  O   UNL     1     169.344 169.703 189.623  1.00  0.00    -0.507 OA
ATOM     25  H   UNL     1     169.658 169.658 190.586  1.00  0.00     0.293 HD
ENDBRANCH   6  24
BRANCH   8  26
ATOM     26  O   UNL     1     164.589 169.024 190.089  1.00  0.00    -0.508 OA
ATOM     27  H   UNL     1     163.798 168.392 190.067  1.00  0.00     0.293 HD
ENDBRANCH   8  26
TORSDOF 6
ENDMDL
MODEL 6
REMARK VINA RESULT:    -6.268      3.988      6.465
REMARK INTER + INTRA:          -7.782
REMARK INTER:                  -7.455
REMARK INTRA:                  -0.327
REMARK UNBOUND:                -0.231
REMARK SMILES O=c1c(O)c(-c2ccc(O)c(O)c2)oc2cc(O)cc(O)c12
REMARK SMILES IDX 5 1 3 2 2 3 1 4 22 5 20 6 19 7 17 8 16 9 15 10 14 11 6 12
REMARK SMILES IDX 7 13 8 14 9 15 13 16 11 17 10 18 12 20 4 22 21 24 18 26
REMARK H PARENT 10 19 12 21 4 23 21 25 18 27
REMARK Flexibility Score: inf
ROOT
ATOM      1  C   UNL     1     164.558 176.207 191.581  1.00  0.00     0.180 A 
ATOM      2  C   UNL     1     165.300 175.408 190.690  1.00  0.00     0.208 A 
ATOM      3  C   UNL     1     166.204 174.469 191.214  1.00  0.00     0.238 A 
ATOM      4  O   UNL     1     166.883 173.756 190.425  1.00  0.00    -0.285 OA
ATOM      5  C   UNL     1     166.335 174.332 192.610  1.00  0.00     0.111 A 
ATOM      6  C   UNL     1     167.219 173.407 193.218  1.00  0.00     0.134 A 
ATOM      7  C   UNL     1     167.285 173.324 194.617  1.00  0.00     0.093 A 
ATOM      8  C   UNL     1     166.486 174.142 195.417  1.00  0.00     0.123 A 
ATOM      9  C   UNL     1     165.612 175.058 194.824  1.00  0.00     0.094 A 
ATOM     10  C   UNL     1     165.532 175.157 193.431  1.00  0.00     0.146 A 
ATOM     11  O   UNL     1     164.696 176.039 192.893  1.00  0.00    -0.452 OA
ENDROOT
BRANCH   1  12
ATOM     12  C   UNL     1     163.600 177.232 191.107  1.00  0.00     0.025 A 
ATOM     13  C   UNL     1     162.232 176.930 191.063  1.00  0.00     0.016 A 
ATOM     14  C   UNL     1     161.310 177.888 190.638  1.00  0.00     0.051 A 
ATOM     15  C   UNL     1     161.732 179.169 190.264  1.00  0.00     0.157 A 
ATOM     16  C   UNL     1     164.026 178.523 190.753  1.00  0.00     0.062 A 
ATOM     17  C   UNL     1     163.107 179.493 190.328  1.00  0.00     0.158 A 
BRANCH  15  18
ATOM     18  O   UNL     1     160.760 180.078 189.842  1.00  0.00    -0.504 OA
ATOM     19  H   UNL     1     160.167 180.602 190.469  1.00  0.00     0.293 HD
ENDBRANCH  15  18
BRANCH  17  20
ATOM     20  O   UNL     1     163.601 180.755 189.991  1.00  0.00    -0.504 OA
ATOM     21  H   UNL     1     163.482 181.578 190.563  1.00  0.00     0.293 HD
ENDBRANCH  17  20
ENDBRANCH   1  12
BRANCH   2  22
ATOM     22  O   UNL     1     165.117 175.530 189.311  1.00  0.00    -0.502 OA
ATOM     23  H   UNL     1     164.891 174.739 188.721  1.00  0.00     0.293 HD
ENDBRANCH   2  22
BRANCH   6  24
ATOM     24  O   UNL     1     168.029 172.574 192.445  1.00  0.00    -0.507 OA
ATOM     25  H   UNL     1     168.780 172.030 192.855  1.00  0.00     0.293 HD
ENDBRANCH   6  24
BRANCH   8  26
ATOM     26  O   UNL     1     166.570 174.039 196.805  1.00  0.00    -0.508 OA
ATOM     27  H   UNL     1     167.406 174.310 197.306  1.00  0.00     0.293 HD
ENDBRANCH   8  26
TORSDOF 6
ENDMDL
MODEL 7
REMARK VINA RESULT:    -6.208      4.926      8.365
REMARK INTER + INTRA:          -7.709
REMARK INTER:                  -7.393
REMARK INTRA:                  -0.316
REMARK UNBOUND:                -0.231
REMARK SMILES O=c1c(O)c(-c2ccc(O)c(O)c2)oc2cc(O)cc(O)c12
REMARK SMILES IDX 5 1 3 2 2 3 1 4 22 5 20 6 19 7 17 8 16 9 15 10 14 11 6 12
REMARK SMILES IDX 7 13 8 14 9 15 13 16 11 17 10 18 12 20 4 22 21 24 18 26
REMARK H PARENT 10 19 12 21 4 23 21 25 18 27
REMARK Flexibility Score: inf
ROOT
ATOM      1  C   UNL     1     162.139 175.232 192.191  1.00  0.00     0.180 A 
ATOM      2  C   UNL     1     161.324 175.564 193.291  1.00  0.00     0.208 A 
ATOM      3  C   UNL     1     161.909 175.655 194.564  1.00  0.00     0.238 A 
ATOM      4  O   UNL     1     161.186 175.940 195.558  1.00  0.00    -0.285 OA
ATOM      5  C   UNL     1     163.292 175.434 194.713  1.00  0.00     0.111 A 
ATOM      6  C   UNL     1     163.960 175.511 195.961  1.00  0.00     0.134 A 
ATOM      7  C   UNL     1     165.343 175.286 196.025  1.00  0.00     0.093 A 
ATOM      8  C   UNL     1     166.070 174.989 194.871  1.00  0.00     0.123 A 
ATOM      9  C   UNL     1     165.418 174.911 193.637  1.00  0.00     0.094 A 
ATOM     10  C   UNL     1     164.040 175.130 193.552  1.00  0.00     0.146 A 
ATOM     11  O   UNL     1     163.444 175.045 192.367  1.00  0.00    -0.452 OA
ENDROOT
BRANCH   1  12
ATOM     12  C   UNL     1     161.594 175.097 190.821  1.00  0.00     0.025 A 
ATOM     13  C   UNL     1     161.469 176.236 190.013  1.00  0.00     0.016 A 
ATOM     14  C   UNL     1     160.975 176.129 188.712  1.00  0.00     0.051 A 
ATOM     15  C   UNL     1     160.614 174.884 188.185  1.00  0.00     0.157 A 
ATOM     16  C   UNL     1     161.253 173.842 190.289  1.00  0.00     0.062 A 
ATOM     17  C   UNL     1     160.760 173.724 188.982  1.00  0.00     0.158 A 
BRANCH  15  18
ATOM     18  O   UNL     1     160.121 174.846 186.880  1.00  0.00    -0.504 OA
ATOM     19  H   UNL     1     160.529 174.294 186.138  1.00  0.00     0.293 HD
ENDBRANCH  15  18
BRANCH  17  20
ATOM     20  O   UNL     1     160.440 172.446 188.520  1.00  0.00    -0.504 OA
ATOM     21  H   UNL     1     160.126 172.249 187.581  1.00  0.00     0.293 HD
ENDBRANCH  17  20
ENDBRANCH   1  12
BRANCH   2  22
ATOM     22  O   UNL     1     159.964 175.826 193.109  1.00  0.00    -0.502 OA
ATOM     23  H   UNL     1     159.625 176.478 192.412  1.00  0.00     0.293 HD
ENDBRANCH   2  22
BRANCH   6  24
ATOM     24  O   UNL     1     163.260 175.807 197.131  1.00  0.00    -0.507 OA
ATOM     25  H   UNL     1     163.625 175.568 198.046  1.00  0.00     0.293 HD
ENDBRANCH   6  24
BRANCH   8  26
ATOM     26  O   UNL     1     167.444 174.771 194.962  1.00  0.00    -0.508 OA
ATOM     27  H   UNL     1     168.058 174.926 194.173  1.00  0.00     0.293 HD
ENDBRANCH   8  26
TORSDOF 6
ENDMDL
MODEL 8
REMARK VINA RESULT:    -6.201      3.461      8.989
REMARK INTER + INTRA:          -7.700
REMARK INTER:                  -7.530
REMARK INTRA:                  -0.170
REMARK UNBOUND:                -0.231
REMARK SMILES O=c1c(O)c(-c2ccc(O)c(O)c2)oc2cc(O)cc(O)c12
REMARK SMILES IDX 5 1 3 2 2 3 1 4 22 5 20 6 19 7 17 8 16 9 15 10 14 11 6 12
REMARK SMILES IDX 7 13 8 14 9 15 13 16 11 17 10 18 12 20 4 22 21 24 18 26
REMARK H PARENT 10 19 12 21 4 23 21 25 18 27
REMARK Flexibility Score: inf
ROOT
ATOM      1  C   UNL     1     167.355 167.937 187.682  1.00  0.00     0.180 A 
ATOM      2  C   UNL     1     166.194 168.018 188.475  1.00  0.00     0.208 A 
ATOM      3  C   UNL     1     166.166 168.925 189.546  1.00  0.00     0.238 A 
ATOM      4  O   UNL     1     165.135 168.997 190.270  1.00  0.00    -0.285 OA
ATOM      5  C   UNL     1     167.284 169.745 189.794  1.00  0.00     0.111 A 
ATOM      6  C   UNL     1     167.335 170.688 190.850  1.00  0.00     0.134 A 
ATOM      7  C   UNL     1     168.482 171.476 191.025  1.00  0.00     0.093 A 
ATOM      8  C   UNL     1     169.576 171.341 190.167  1.00  0.00     0.123 A 
ATOM      9  C   UNL     1     169.533 170.412 189.124  1.00  0.00     0.094 A 
ATOM     10  C   UNL     1     168.399 169.617 188.933  1.00  0.00     0.146 A 
ATOM     11  O   UNL     1     168.386 168.739 187.936  1.00  0.00    -0.452 OA
ENDROOT
BRANCH   1  12
ATOM     12  C   UNL     1     167.469 166.993 186.547  1.00  0.00     0.025 A 
ATOM     13  C   UNL     1     167.697 167.490 185.257  1.00  0.00     0.016 A 
ATOM     14  C   UNL     1     167.827 166.616 184.175  1.00  0.00     0.051 A 
ATOM     15  C   UNL     1     167.749 165.231 184.363  1.00  0.00     0.157 A 
ATOM     16  C   UNL     1     167.412 165.603 186.744  1.00  0.00     0.062 A 
ATOM     17  C   UNL     1     167.545 164.717 185.665  1.00  0.00     0.158 A 
BRANCH  15  18
ATOM     18  O   UNL     1     167.880 164.413 183.240  1.00  0.00    -0.504 OA
ATOM     19  H   UNL     1     168.762 164.052 182.904  1.00  0.00     0.293 HD
ENDBRANCH  15  18
BRANCH  17  20
ATOM     20  O   UNL     1     167.476 163.349 185.933  1.00  0.00    -0.504 OA
ATOM     21  H   UNL     1     166.974 162.952 186.714  1.00  0.00     0.293 HD
ENDBRANCH  17  20
ENDBRANCH   1  12
BRANCH   2  22
ATOM     22  O   UNL     1     165.081 167.227 188.179  1.00  0.00    -0.502 OA
ATOM     23  H   UNL     1     165.145 166.225 188.048  1.00  0.00     0.293 HD
ENDBRANCH   2  22
BRANCH   6  24
ATOM     24  O   UNL     1     166.258 170.847 191.722  1.00  0.00    -0.507 OA
ATOM     25  H   UNL     1     166.375 171.240 192.649  1.00  0.00     0.293 HD
ENDBRANCH   6  24
BRANCH   8  26
ATOM     26  O   UNL     1     170.704 172.137 190.363  1.00  0.00    -0.508 OA
ATOM     27  H   UNL     1     170.838 172.665 191.216  1.00  0.00     0.293 HD
ENDBRANCH   8  26
TORSDOF 6
ENDMDL
MODEL 9
REMARK VINA RESULT:    -6.186      1.981      6.910
REMARK INTER + INTRA:          -7.683
REMARK INTER:                  -7.489
REMARK INTRA:                  -0.194
REMARK UNBOUND:                -0.231
REMARK SMILES O=c1c(O)c(-c2ccc(O)c(O)c2)oc2cc(O)cc(O)c12
REMARK SMILES IDX 5 1 3 2 2 3 1 4 22 5 20 6 19 7 17 8 16 9 15 10 14 11 6 12
REMARK SMILES IDX 7 13 8 14 9 15 13 16 11 17 10 18 12 20 4 22 21 24 18 26
REMARK H PARENT 10 19 12 21 4 23 21 25 18 27
REMARK Flexibility Score: inf
ROOT
ATOM      1  C   UNL     1     166.266 173.383 193.066  1.00  0.00     0.180 A 
ATOM      2  C   UNL     1     166.529 173.641 194.425  1.00  0.00     0.208 A 
ATOM      3  C   UNL     1     165.565 174.322 195.185  1.00  0.00     0.238 A 
ATOM      4  O   UNL     1     165.795 174.569 196.400  1.00  0.00    -0.285 OA
ATOM      5  C   UNL     1     164.352 174.714 194.582  1.00  0.00     0.111 A 
ATOM      6  C   UNL     1     163.327 175.400 195.279  1.00  0.00     0.134 A 
ATOM      7  C   UNL     1     162.144 175.747 194.611  1.00  0.00     0.093 A 
ATOM      8  C   UNL     1     161.965 175.422 193.265  1.00  0.00     0.123 A 
ATOM      9  C   UNL     1     162.973 174.746 192.571  1.00  0.00     0.094 A 
ATOM     10  C   UNL     1     164.160 174.392 193.219  1.00  0.00     0.146 A 
ATOM     11  O   UNL     1     165.104 173.753 192.535  1.00  0.00    -0.452 OA
ENDROOT
BRANCH   1  12
ATOM     12  C   UNL     1     167.240 172.687 192.194  1.00  0.00     0.025 A 
ATOM     13  C   UNL     1     166.891 171.461 191.611  1.00  0.00     0.016 A 
ATOM     14  C   UNL     1     167.788 170.798 190.771  1.00  0.00     0.051 A 
ATOM     15  C   UNL     1     169.040 171.352 190.483  1.00  0.00     0.157 A 
ATOM     16  C   UNL     1     168.488 173.258 191.890  1.00  0.00     0.062 A 
ATOM     17  C   UNL     1     169.393 172.601 191.045  1.00  0.00     0.158 A 
BRANCH  15  18
ATOM     18  O   UNL     1     169.892 170.635 189.641  1.00  0.00    -0.504 OA
ATOM     19  H   UNL     1     170.842 170.909 189.432  1.00  0.00     0.293 HD
ENDBRANCH  15  18
BRANCH  17  20
ATOM     20  O   UNL     1     170.614 173.226 190.788  1.00  0.00    -0.504 OA
ATOM     21  H   UNL     1     170.704 174.177 190.462  1.00  0.00     0.293 HD
ENDBRANCH  17  20
ENDBRANCH   1  12
BRANCH   2  22
ATOM     22  O   UNL     1     167.718 173.200 195.010  1.00  0.00    -0.502 OA
ATOM     23  H   UNL     1     168.461 172.769 194.473  1.00  0.00     0.293 HD
ENDBRANCH   2  22
BRANCH   6  24
ATOM     24  O   UNL     1     163.476 175.737 196.625  1.00  0.00    -0.507 OA
ATOM     25  H   UNL     1     164.351 176.092 196.992  1.00  0.00     0.293 HD
ENDBRANCH   6  24
BRANCH   8  26
ATOM     26  O   UNL     1     160.779 175.779 192.624  1.00  0.00    -0.508 OA
ATOM     27  H   UNL     1     160.723 176.598 192.033  1.00  0.00     0.293 HD
ENDBRANCH   8  26
TORSDOF 6
ENDMDL
