MODEL 1
REMARK VINA RESULT:    -4.140      0.000      0.000
REMARK INTER + INTRA:          -5.048
REMARK INTER:                  -4.988
REMARK INTRA:                  -0.061
REMARK UNBOUND:                -0.061
REMARK SMILES OCCc1ccc(O)c(O)c1
REMARK SMILES IDX 3 1 4 2 5 3 6 4 7 5 11 6 9 7 8 8 10 10 2 12 1 13
REMARK H PARENT 8 9 10 11 1 14
REMARK Flexibility Score: inf
ROOT
ATOM      1  C   UNL     1      40.446  12.366   3.118  1.00  0.00     0.064 C 
ENDROOT
BRANCH   1   2
ATOM      2  C   UNL     1      40.316  12.253   4.614  1.00  0.00    -0.042 A 
ATOM      3  C   UNL     1      39.188  11.643   5.183  1.00  0.00     0.008 A 
ATOM      4  C   UNL     1      39.082  11.511   6.570  1.00  0.00     0.050 A 
ATOM      5  C   UNL     1      40.108  11.977   7.403  1.00  0.00     0.157 A 
ATOM      6  C   UNL     1      41.349  12.707   5.451  1.00  0.00     0.054 A 
ATOM      7  C   UNL     1      41.244  12.575   6.842  1.00  0.00     0.157 A 
BRANCH   5   8
ATOM      8  O   UNL     1      40.006  11.848   8.787  1.00  0.00    -0.504 OA
ATOM      9  H   UNL     1      40.805  11.597   9.356  1.00  0.00     0.293 HD
ENDBRANCH   5   8
BRANCH   7  10
ATOM     10  O   UNL     1      42.265  13.032   7.674  1.00  0.00    -0.504 OA
ATOM     11  H   UNL     1      42.823  12.392   8.228  1.00  0.00     0.293 HD
ENDBRANCH   7  10
ENDBRANCH   1   2
BRANCH   1  12
ATOM     12  C   UNL     1      39.113  12.780   2.490  1.00  0.00     0.161 C 
BRANCH  12  13
ATOM     13  O   UNL     1      39.319  13.255   1.187  1.00  0.00    -0.396 OA
ATOM     14  H   UNL     1      40.226  12.955   0.916  1.00  0.00     0.210 HD
ENDBRANCH  12  13
ENDBRANCH   1  12
TORSDOF 5
ENDMDL
MODEL 2
REMARK VINA RESULT:    -4.051     10.488     12.029
REMARK INTER + INTRA:          -4.941
REMARK INTER:                  -4.856
REMARK INTRA:                  -0.085
REMARK UNBOUND:                -0.061
REMARK SMILES OCCc1ccc(O)c(O)c1
REMARK SMILES IDX 3 1 4 2 5 3 6 4 7 5 11 6 9 7 8 8 10 10 2 12 1 13
REMARK H PARENT 8 9 10 11 1 14
REMARK Flexibility Score: inf
ROOT
ATOM      1  C   UNL     1      48.653  11.193  -2.498  1.00  0.00     0.064 C 
ENDROOT
BRANCH   1   2
ATOM      2  C   UNL     1      48.364  12.637  -2.814  1.00  0.00    -0.042 A 
ATOM      3  C   UNL     1      49.235  13.371  -3.632  1.00  0.00     0.008 A 
ATOM      4  C   UNL     1      48.950  14.702  -3.950  1.00  0.00     0.050 A 
ATOM      5  C   UNL     1      47.786  15.310  -3.462  1.00  0.00     0.157 A 
ATOM      6  C   UNL     1      47.191  13.244  -2.337  1.00  0.00     0.054 A 
ATOM      7  C   UNL     1      46.904  14.579  -2.655  1.00  0.00     0.157 A 
BRANCH   5   8
ATOM      8  O   UNL     1      47.498  16.637  -3.776  1.00  0.00    -0.504 OA
ATOM      9  H   UNL     1      47.924  17.097  -4.571  1.00  0.00     0.293 HD
ENDBRANCH   5   8
BRANCH   7  10
ATOM     10  O   UNL     1      45.743  15.185  -2.176  1.00  0.00    -0.504 OA
ATOM     11  H   UNL     1      45.743  16.145  -1.850  1.00  0.00     0.293 HD
ENDBRANCH   7  10
ENDBRANCH   1   2
BRANCH   1  12
ATOM     12  C   UNL     1      48.306  10.879  -1.041  1.00  0.00     0.161 C 
BRANCH  12  13
ATOM     13  O   UNL     1      49.467  10.887  -0.255  1.00  0.00    -0.396 OA
ATOM     14  H   UNL     1      49.366  10.154   0.407  1.00  0.00     0.210 HD
ENDBRANCH  12  13
ENDBRANCH   1  12
TORSDOF 5
ENDMDL
MODEL 3
REMARK VINA RESULT:    -4.049     12.816     14.624
REMARK INTER + INTRA:          -4.938
REMARK INTER:                  -4.842
REMARK INTRA:                  -0.096
REMARK UNBOUND:                -0.061
REMARK SMILES OCCc1ccc(O)c(O)c1
REMARK SMILES IDX 3 1 4 2 5 3 6 4 7 5 11 6 9 7 8 8 10 10 2 12 1 13
REMARK H PARENT 8 9 10 11 1 14
REMARK Flexibility Score: inf
ROOT
ATOM      1  C   UNL     1      51.997  15.701  -5.748  1.00  0.00     0.064 C 
ENDROOT
BRANCH   1   2
ATOM      2  C   UNL     1      50.789  15.168  -5.022  1.00  0.00    -0.042 A 
ATOM      3  C   UNL     1      50.716  13.812  -4.672  1.00  0.00     0.008 A 
ATOM      4  C   UNL     1      49.609  13.324  -3.971  1.00  0.00     0.050 A 
ATOM      5  C   UNL     1      48.569  14.188  -3.605  1.00  0.00     0.157 A 
ATOM      6  C   UNL     1      49.752  16.035  -4.641  1.00  0.00     0.054 A 
ATOM      7  C   UNL     1      48.642  15.547  -3.939  1.00  0.00     0.157 A 
BRANCH   5   8
ATOM      8  O   UNL     1      47.464  13.705  -2.906  1.00  0.00    -0.504 OA
ATOM      9  H   UNL     1      47.194  12.730  -2.950  1.00  0.00     0.293 HD
ENDBRANCH   5   8
BRANCH   7  10
ATOM     10  O   UNL     1      47.608  16.405  -3.567  1.00  0.00    -0.504 OA
ATOM     11  H   UNL     1      46.930  16.142  -2.860  1.00  0.00     0.293 HD
ENDBRANCH   7  10
ENDBRANCH   1   2
BRANCH   1  12
ATOM     12  C   UNL     1      52.959  14.566  -6.101  1.00  0.00     0.161 C 
BRANCH  12  13
ATOM     13  O   UNL     1      54.173  14.731  -5.419  1.00  0.00    -0.396 OA
ATOM     14  H   UNL     1      54.771  13.999  -5.722  1.00  0.00     0.210 HD
ENDBRANCH  12  13
ENDBRANCH   1  12
TORSDOF 5
ENDMDL
MODEL 4
REMARK VINA RESULT:    -4.024      9.384     11.395
REMARK INTER + INTRA:          -4.908
REMARK INTER:                  -4.817
REMARK INTRA:                  -0.091
REMARK UNBOUND:                -0.061
REMARK SMILES OCCc1ccc(O)c(O)c1
REMARK SMILES IDX 3 1 4 2 5 3 6 4 7 5 11 6 9 7 8 8 10 10 2 12 1 13
REMARK H PARENT 8 9 10 11 1 14
REMARK Flexibility Score: inf
ROOT
ATOM      1  C   UNL     1      43.662  19.814  -4.570  1.00  0.00     0.064 C 
ENDROOT
BRANCH   1   2
ATOM      2  C   UNL     1      42.855  19.766  -3.299  1.00  0.00    -0.042 A 
ATOM      3  C   UNL     1      42.306  20.941  -2.764  1.00  0.00     0.008 A 
ATOM      4  C   UNL     1      41.532  20.891  -1.602  1.00  0.00     0.050 A 
ATOM      5  C   UNL     1      41.288  19.665  -0.968  1.00  0.00     0.157 A 
ATOM      6  C   UNL     1      42.598  18.537  -2.670  1.00  0.00     0.054 A 
ATOM      7  C   UNL     1      41.821  18.486  -1.504  1.00  0.00     0.157 A 
BRANCH   5   8
ATOM      8  O   UNL     1      40.516  19.612   0.191  1.00  0.00    -0.504 OA
ATOM      9  H   UNL     1      40.716  20.202   0.989  1.00  0.00     0.293 HD
ENDBRANCH   5   8
BRANCH   7  10
ATOM     10  O   UNL     1      41.572  17.267  -0.874  1.00  0.00    -0.504 OA
ATOM     11  H   UNL     1      42.274  16.537  -0.837  1.00  0.00     0.293 HD
ENDBRANCH   7  10
ENDBRANCH   1   2
BRANCH   1  12
ATOM     12  C   UNL     1      43.298  21.051  -5.394  1.00  0.00     0.161 C 
BRANCH  12  13
ATOM     13  O   UNL     1      44.458  21.753  -5.752  1.00  0.00    -0.396 OA
ATOM     14  H   UNL     1      44.356  22.002  -6.707  1.00  0.00     0.210 HD
ENDBRANCH  12  13
ENDBRANCH   1  12
TORSDOF 5
ENDMDL
MODEL 5
REMARK VINA RESULT:    -3.967      8.504     10.135
REMARK INTER + INTRA:          -4.839
REMARK INTER:                  -4.761
REMARK INTRA:                  -0.078
REMARK UNBOUND:                -0.061
REMARK SMILES OCCc1ccc(O)c(O)c1
REMARK SMILES IDX 3 1 4 2 5 3 6 4 7 5 11 6 9 7 8 8 10 10 2 12 1 13
REMARK H PARENT 8 9 10 11 1 14
REMARK Flexibility Score: inf
ROOT
ATOM      1  C   UNL     1      41.549  20.562  -1.966  1.00  0.00     0.064 C 
ENDROOT
BRANCH   1   2
ATOM      2  C   UNL     1      41.938  19.115  -2.119  1.00  0.00    -0.042 A 
ATOM      3  C   UNL     1      43.102  18.764  -2.818  1.00  0.00     0.008 A 
ATOM      4  C   UNL     1      43.478  17.423  -2.933  1.00  0.00     0.050 A 
ATOM      5  C   UNL     1      42.701  16.419  -2.342  1.00  0.00     0.157 A 
ATOM      6  C   UNL     1      41.167  18.107  -1.515  1.00  0.00     0.054 A 
ATOM      7  C   UNL     1      41.544  16.762  -1.630  1.00  0.00     0.157 A 
BRANCH   5   8
ATOM      8  O   UNL     1      43.073  15.081  -2.455  1.00  0.00    -0.504 OA
ATOM      9  H   UNL     1      44.017  14.812  -2.704  1.00  0.00     0.293 HD
ENDBRANCH   5   8
BRANCH   7  10
ATOM     10  O   UNL     1      40.776  15.760  -1.038  1.00  0.00    -0.504 OA
ATOM     11  H   UNL     1      40.626  14.868  -1.494  1.00  0.00     0.293 HD
ENDBRANCH   7  10
ENDBRANCH   1   2
BRANCH   1  12
ATOM     12  C   UNL     1      41.424  20.934  -0.487  1.00  0.00     0.161 C 
BRANCH  12  13
ATOM     13  O   UNL     1      40.081  21.164  -0.158  1.00  0.00    -0.396 OA
ATOM     14  H   UNL     1      39.767  20.360   0.333  1.00  0.00     0.210 HD
ENDBRANCH  12  13
ENDBRANCH   1  12
TORSDOF 5
ENDMDL
MODEL 6
REMARK VINA RESULT:    -3.966     10.067     10.631
REMARK INTER + INTRA:          -4.838
REMARK INTER:                  -4.734
REMARK INTRA:                  -0.104
REMARK UNBOUND:                -0.061
REMARK SMILES OCCc1ccc(O)c(O)c1
REMARK SMILES IDX 3 1 4 2 5 3 6 4 7 5 11 6 9 7 8 8 10 10 2 12 1 13
REMARK H PARENT 8 9 10 11 1 14
REMARK Flexibility Score: inf
ROOT
ATOM      1  C   UNL     1      43.402  18.519  -3.457  1.00  0.00     0.064 C 
ENDROOT
BRANCH   1   2
ATOM      2  C   UNL     1      42.442  19.169  -2.496  1.00  0.00    -0.042 A 
ATOM      3  C   UNL     1      42.860  20.242  -1.694  1.00  0.00     0.008 A 
ATOM      4  C   UNL     1      41.960  20.866  -0.825  1.00  0.00     0.050 A 
ATOM      5  C   UNL     1      40.630  20.430  -0.755  1.00  0.00     0.157 A 
ATOM      6  C   UNL     1      41.104  18.744  -2.434  1.00  0.00     0.054 A 
ATOM      7  C   UNL     1      40.201  19.368  -1.562  1.00  0.00     0.157 A 
BRANCH   5   8
ATOM      8  O   UNL     1      39.730  21.049   0.110  1.00  0.00    -0.504 OA
ATOM      9  H   UNL     1      38.731  21.012  -0.049  1.00  0.00     0.293 HD
ENDBRANCH   5   8
BRANCH   7  10
ATOM     10  O   UNL     1      38.875  18.942  -1.495  1.00  0.00    -0.504 OA
ATOM     11  H   UNL     1      38.106  19.601  -1.527  1.00  0.00     0.293 HD
ENDBRANCH   7  10
ENDBRANCH   1   2
BRANCH   1  12
ATOM     12  C   UNL     1      43.588  17.039  -3.114  1.00  0.00     0.161 C 
BRANCH  12  13
ATOM     13  O   UNL     1      44.481  16.900  -2.042  1.00  0.00    -0.396 OA
ATOM     14  H   UNL     1      44.239  17.597  -1.378  1.00  0.00     0.210 HD
ENDBRANCH  12  13
ENDBRANCH   1  12
TORSDOF 5
ENDMDL
MODEL 7
REMARK VINA RESULT:    -3.889     10.719     12.760
REMARK INTER + INTRA:          -4.745
REMARK INTER:                  -4.655
REMARK INTRA:                  -0.090
REMARK UNBOUND:                -0.061
REMARK SMILES OCCc1ccc(O)c(O)c1
REMARK SMILES IDX 3 1 4 2 5 3 6 4 7 5 11 6 9 7 8 8 10 10 2 12 1 13
REMARK H PARENT 8 9 10 11 1 14
REMARK Flexibility Score: inf
ROOT
ATOM      1  C   UNL     1      46.007  16.530  -4.026  1.00  0.00     0.064 C 
ENDROOT
BRANCH   1   2
ATOM      2  C   UNL     1      47.334  15.820  -4.077  1.00  0.00    -0.042 A 
ATOM      3  C   UNL     1      48.421  16.398  -4.750  1.00  0.00     0.008 A 
ATOM      4  C   UNL     1      49.661  15.754  -4.771  1.00  0.00     0.050 A 
ATOM      5  C   UNL     1      49.831  14.530  -4.111  1.00  0.00     0.157 A 
ATOM      6  C   UNL     1      47.511  14.599  -3.405  1.00  0.00     0.054 A 
ATOM      7  C   UNL     1      48.754  13.952  -3.425  1.00  0.00     0.157 A 
BRANCH   5   8
ATOM      8  O   UNL     1      51.066  13.884  -4.130  1.00  0.00    -0.504 OA
ATOM      9  H   UNL     1      51.838  14.199  -3.556  1.00  0.00     0.293 HD
ENDBRANCH   5   8
BRANCH   7  10
ATOM     10  O   UNL     1      48.929  12.737  -2.765  1.00  0.00    -0.504 OA
ATOM     11  H   UNL     1      49.389  12.686  -1.863  1.00  0.00     0.293 HD
ENDBRANCH   7  10
ENDBRANCH   1   2
BRANCH   1  12
ATOM     12  C   UNL     1      45.023  15.769  -3.135  1.00  0.00     0.161 C 
BRANCH  12  13
ATOM     13  O   UNL     1      44.589  16.590  -2.084  1.00  0.00    -0.396 OA
ATOM     14  H   UNL     1      43.642  16.349  -1.908  1.00  0.00     0.210 HD
ENDBRANCH  12  13
ENDBRANCH   1  12
TORSDOF 5
ENDMDL
MODEL 8
REMARK VINA RESULT:    -3.707      8.782     10.464
REMARK INTER + INTRA:          -4.526
REMARK INTER:                  -4.462
REMARK INTRA:                  -0.064
REMARK UNBOUND:                -0.061
REMARK SMILES OCCc1ccc(O)c(O)c1
REMARK SMILES IDX 3 1 4 2 5 3 6 4 7 5 11 6 9 7 8 8 10 10 2 12 1 13
REMARK H PARENT 8 9 10 11 1 14
REMARK Flexibility Score: inf
ROOT
ATOM      1  C   UNL     1      44.732  17.101  -4.241  1.00  0.00     0.064 C 
ENDROOT
BRANCH   1   2
ATOM      2  C   UNL     1      43.636  17.576  -3.323  1.00  0.00    -0.042 A 
ATOM      3  C   UNL     1      43.321  18.941  -3.244  1.00  0.00     0.008 A 
ATOM      4  C   UNL     1      42.284  19.378  -2.415  1.00  0.00     0.050 A 
ATOM      5  C   UNL     1      41.544  18.455  -1.665  1.00  0.00     0.157 A 
ATOM      6  C   UNL     1      42.884  16.651  -2.580  1.00  0.00     0.054 A 
ATOM      7  C   UNL     1      41.844  17.088  -1.749  1.00  0.00     0.157 A 
BRANCH   5   8
ATOM      8  O   UNL     1      40.509  18.886  -0.837  1.00  0.00    -0.504 OA
ATOM      9  H   UNL     1      40.654  19.603  -0.137  1.00  0.00     0.293 HD
ENDBRANCH   5   8
BRANCH   7  10
ATOM     10  O   UNL     1      41.101  16.172  -1.005  1.00  0.00    -0.504 OA
ATOM     11  H   UNL     1      41.055  15.194  -1.264  1.00  0.00     0.293 HD
ENDBRANCH   7  10
ENDBRANCH   1   2
BRANCH   1  12
ATOM     12  C   UNL     1      45.622  16.078  -3.534  1.00  0.00     0.161 C 
BRANCH  12  13
ATOM     13  O   UNL     1      46.956  16.509  -3.543  1.00  0.00    -0.396 OA
ATOM     14  H   UNL     1      47.122  16.901  -4.440  1.00  0.00     0.210 HD
ENDBRANCH  12  13
ENDBRANCH   1  12
TORSDOF 5
ENDMDL
MODEL 9
REMARK VINA RESULT:    -3.705      9.799     11.790
REMARK INTER + INTRA:          -4.524
REMARK INTER:                  -4.444
REMARK INTRA:                  -0.080
REMARK UNBOUND:                -0.061
REMARK SMILES OCCc1ccc(O)c(O)c1
REMARK SMILES IDX 3 1 4 2 5 3 6 4 7 5 11 6 9 7 8 8 10 10 2 12 1 13
REMARK H PARENT 8 9 10 11 1 14
REMARK Flexibility Score: inf
ROOT
ATOM      1  C   UNL     1      43.487  21.007  -4.896  1.00  0.00     0.064 C 
ENDROOT
BRANCH   1   2
ATOM      2  C   UNL     1      42.928  20.333  -3.671  1.00  0.00    -0.042 A 
ATOM      3  C   UNL     1      43.095  18.952  -3.484  1.00  0.00     0.008 A 
ATOM      4  C   UNL     1      42.602  18.332  -2.333  1.00  0.00     0.050 A 
ATOM      5  C   UNL     1      41.947  19.086  -1.350  1.00  0.00     0.157 A 
ATOM      6  C   UNL     1      42.283  21.089  -2.678  1.00  0.00     0.054 A 
ATOM      7  C   UNL     1      41.789  20.468  -1.523  1.00  0.00     0.157 A 
BRANCH   5   8
ATOM      8  O   UNL     1      41.455  18.472  -0.201  1.00  0.00    -0.504 OA
ATOM      9  H   UNL     1      41.701  18.803   0.724  1.00  0.00     0.293 HD
ENDBRANCH   5   8
BRANCH   7  10
ATOM     10  O   UNL     1      41.142  21.216  -0.540  1.00  0.00    -0.504 OA
ATOM     11  H   UNL     1      40.818  20.791   0.321  1.00  0.00     0.293 HD
ENDBRANCH   7  10
ENDBRANCH   1   2
BRANCH   1  12
ATOM     12  C   UNL     1      42.410  21.147  -5.974  1.00  0.00     0.161 C 
BRANCH  12  13
ATOM     13  O   UNL     1      41.903  22.454  -5.986  1.00  0.00    -0.396 OA
ATOM     14  H   UNL     1      42.372  22.946  -5.262  1.00  0.00     0.210 HD
ENDBRANCH  12  13
ENDBRANCH   1  12
TORSDOF 5
ENDMDL
