MODEL 1
REMARK VINA RESULT:    -3.913      0.000      0.000
REMARK INTER + INTRA:          -5.780
REMARK INTER:                  -5.286
REMARK INTRA:                  -0.494
REMARK UNBOUND:                -0.494
REMARK SMILES C[C@@H](O)[C@@H](O)[C@@H](O)[C@H](O)C=O
REMARK SMILES IDX 4 1 2 2 1 3 3 4 6 6 8 7 10 8 11 9 9 10 7 12 5 14
REMARK H PARENT 3 5 9 11 7 13 5 15
REMARK Flexibility Score: inf
ROOT
ATOM      1  C   UNL     1      -1.662 -51.441   6.260  1.00  0.00     0.174 C 
ENDROOT
BRANCH   1   2
ATOM      2  C   UNL     1      -2.720 -51.505   7.400  1.00  0.00     0.142 C 
ATOM      3  C   UNL     1      -2.072 -51.780   8.764  1.00  0.00     0.041 C 
BRANCH   2   4
ATOM      4  O   UNL     1      -3.475 -50.321   7.467  1.00  0.00    -0.391 OA
ATOM      5  H   UNL     1      -4.361 -50.507   7.057  1.00  0.00     0.211 HD
ENDBRANCH   2   4
ENDBRANCH   1   2
BRANCH   1   6
ATOM      6  C   UNL     1      -2.201 -52.026   4.917  1.00  0.00     0.181 C 
BRANCH   6   7
ATOM      7  C   UNL     1      -1.192 -51.874   3.744  1.00  0.00     0.209 C 
BRANCH   7   8
ATOM      8  C   UNL     1      -1.861 -51.344   2.508  1.00  0.00     0.258 C 
ATOM      9  O   UNL     1      -1.197 -50.984   1.549  1.00  0.00    -0.300 OA
ENDBRANCH   7   8
BRANCH   7  10
ATOM     10  O   UNL     1      -0.179 -50.970   4.100  1.00  0.00    -0.383 OA
ATOM     11  H   UNL     1       0.688 -51.443   3.996  1.00  0.00     0.211 HD
ENDBRANCH   7  10
ENDBRANCH   6   7
BRANCH   6  12
ATOM     12  O   UNL     1      -3.421 -51.418   4.570  1.00  0.00    -0.387 OA
ATOM     13  H   UNL     1      -3.496 -50.578   5.095  1.00  0.00     0.211 HD
ENDBRANCH   6  12
ENDBRANCH   1   6
BRANCH   1  14
ATOM     14  O   UNL     1      -0.488 -52.108   6.654  1.00  0.00    -0.388 OA
ATOM     15  H   UNL     1       0.280 -51.615   6.264  1.00  0.00     0.211 HD
ENDBRANCH   1  14
TORSDOF 8
ENDMDL
MODEL 2
REMARK VINA RESULT:    -3.500      1.373      4.954
REMARK INTER + INTRA:          -5.222
REMARK INTER:                  -4.582
REMARK INTRA:                  -0.640
REMARK UNBOUND:                -0.494
REMARK SMILES C[C@@H](O)[C@@H](O)[C@@H](O)[C@H](O)C=O
REMARK SMILES IDX 4 1 2 2 1 3 3 4 6 6 8 7 10 8 11 9 9 10 7 12 5 14
REMARK H PARENT 3 5 9 11 7 13 5 15
REMARK Flexibility Score: inf
ROOT
ATOM      1  C   UNL     1      -2.690 -51.385   2.685  1.00  0.00     0.174 C 
ENDROOT
BRANCH   1   2
ATOM      2  C   UNL     1      -2.157 -51.553   1.233  1.00  0.00     0.142 C 
ATOM      3  C   UNL     1      -3.105 -50.925   0.201  1.00  0.00     0.041 C 
BRANCH   2   4
ATOM      4  O   UNL     1      -0.872 -51.001   1.089  1.00  0.00    -0.391 OA
ATOM      5  H   UNL     1      -0.435 -51.456   0.322  1.00  0.00     0.211 HD
ENDBRANCH   2   4
ENDBRANCH   1   2
BRANCH   1   6
ATOM      6  C   UNL     1      -1.762 -52.066   3.740  1.00  0.00     0.181 C 
BRANCH   6   7
ATOM      7  C   UNL     1      -2.400 -52.125   5.156  1.00  0.00     0.209 C 
BRANCH   7   8
ATOM      8  C   UNL     1      -1.374 -51.905   6.231  1.00  0.00     0.258 C 
ATOM      9  O   UNL     1      -1.258 -50.812   6.764  1.00  0.00    -0.300 OA
ENDBRANCH   7   8
BRANCH   7  10
ATOM     10  O   UNL     1      -3.373 -51.121   5.285  1.00  0.00    -0.383 OA
ATOM     11  H   UNL     1      -4.079 -51.308   4.613  1.00  0.00     0.211 HD
ENDBRANCH   7  10
ENDBRANCH   6   7
BRANCH   6  12
ATOM     12  O   UNL     1      -0.525 -51.401   3.808  1.00  0.00    -0.387 OA
ATOM     13  H   UNL     1      -0.089 -51.490   2.920  1.00  0.00     0.211 HD
ENDBRANCH   6  12
ENDBRANCH   1   6
BRANCH   1  14
ATOM     14  O   UNL     1      -4.000 -51.891   2.780  1.00  0.00    -0.388 OA
ATOM     15  H   UNL     1      -4.592 -51.280   2.268  1.00  0.00     0.211 HD
ENDBRANCH   1  14
TORSDOF 8
ENDMDL
MODEL 3
REMARK VINA RESULT:    -3.485      1.065      2.438
REMARK INTER + INTRA:          -5.202
REMARK INTER:                  -4.744
REMARK INTRA:                  -0.457
REMARK UNBOUND:                -0.494
REMARK SMILES C[C@@H](O)[C@@H](O)[C@@H](O)[C@H](O)C=O
REMARK SMILES IDX 4 1 2 2 1 3 3 4 6 6 8 7 10 8 11 9 9 10 7 12 5 14
REMARK H PARENT 3 5 9 11 7 13 5 15
REMARK Flexibility Score: inf
ROOT
ATOM      1  C   UNL     1      -2.262 -51.751   5.154  1.00  0.00     0.174 C 
ENDROOT
BRANCH   1   2
ATOM      2  C   UNL     1      -1.553 -51.262   6.450  1.00  0.00     0.142 C 
ATOM      3  C   UNL     1      -2.524 -51.177   7.636  1.00  0.00     0.041 C 
BRANCH   2   4
ATOM      4  O   UNL     1      -0.469 -52.092   6.788  1.00  0.00    -0.391 OA
ATOM      5  H   UNL     1      -0.812 -53.023   6.843  1.00  0.00     0.211 HD
ENDBRANCH   2   4
ENDBRANCH   1   2
BRANCH   1   6
ATOM      6  C   UNL     1      -1.564 -51.224   3.861  1.00  0.00     0.181 C 
BRANCH   6   7
ATOM      7  C   UNL     1      -1.958 -52.031   2.592  1.00  0.00     0.209 C 
BRANCH   7   8
ATOM      8  C   UNL     1      -3.076 -51.365   1.841  1.00  0.00     0.258 C 
ATOM      9  O   UNL     1      -4.236 -51.687   2.043  1.00  0.00    -0.300 OA
ENDBRANCH   7   8
BRANCH   7  10
ATOM     10  O   UNL     1      -0.858 -52.122   1.724  1.00  0.00    -0.383 OA
ATOM     11  H   UNL     1      -0.915 -53.002   1.267  1.00  0.00     0.211 HD
ENDBRANCH   7  10
ENDBRANCH   6   7
BRANCH   6  12
ATOM     12  O   UNL     1      -0.167 -51.241   4.015  1.00  0.00    -0.387 OA
ATOM     13  H   UNL     1       0.230 -50.858   3.189  1.00  0.00     0.211 HD
ENDBRANCH   6  12
ENDBRANCH   1   6
BRANCH   1  14
ATOM     14  O   UNL     1      -3.617 -51.371   5.174  1.00  0.00    -0.388 OA
ATOM     15  H   UNL     1      -4.068 -51.915   5.871  1.00  0.00     0.211 HD
ENDBRANCH   1  14
TORSDOF 8
ENDMDL
MODEL 4
REMARK VINA RESULT:    -3.421      1.067      4.902
REMARK INTER + INTRA:          -5.115
REMARK INTER:                  -4.597
REMARK INTRA:                  -0.518
REMARK UNBOUND:                -0.494
REMARK SMILES C[C@@H](O)[C@@H](O)[C@@H](O)[C@H](O)C=O
REMARK SMILES IDX 4 1 2 2 1 3 3 4 6 6 8 7 10 8 11 9 9 10 7 12 5 14
REMARK H PARENT 3 5 9 11 7 13 5 15
REMARK Flexibility Score: inf
ROOT
ATOM      1  C   UNL     1      -2.557 -51.269   4.994  1.00  0.00     0.174 C 
ENDROOT
BRANCH   1   2
ATOM      2  C   UNL     1      -1.831 -51.806   3.726  1.00  0.00     0.142 C 
ATOM      3  C   UNL     1      -2.403 -51.196   2.439  1.00  0.00     0.041 C 
BRANCH   2   4
ATOM      4  O   UNL     1      -0.447 -51.565   3.786  1.00  0.00    -0.391 OA
ATOM      5  H   UNL     1       0.013 -52.379   3.450  1.00  0.00     0.211 HD
ENDBRANCH   2   4
ENDBRANCH   1   2
BRANCH   1   6
ATOM      6  C   UNL     1      -1.984 -51.882   6.310  1.00  0.00     0.181 C 
BRANCH   6   7
ATOM      7  C   UNL     1      -2.974 -51.782   7.504  1.00  0.00     0.209 C 
BRANCH   7   8
ATOM      8  C   UNL     1      -2.305 -52.125   8.804  1.00  0.00     0.258 C 
ATOM      9  O   UNL     1      -2.879 -51.936   9.866  1.00  0.00    -0.300 OA
ENDBRANCH   7   8
BRANCH   7  10
ATOM     10  O   UNL     1      -3.463 -50.470   7.610  1.00  0.00    -0.383 OA
ATOM     11  H   UNL     1      -3.142 -49.970   6.815  1.00  0.00     0.211 HD
ENDBRANCH   7  10
ENDBRANCH   6   7
BRANCH   6  12
ATOM     12  O   UNL     1      -0.769 -51.261   6.653  1.00  0.00    -0.387 OA
ATOM     13  H   UNL     1      -0.181 -51.955   7.051  1.00  0.00     0.211 HD
ENDBRANCH   6  12
ENDBRANCH   1   6
BRANCH   1  14
ATOM     14  O   UNL     1      -3.939 -51.512   4.896  1.00  0.00    -0.388 OA
ATOM     15  H   UNL     1      -4.311 -50.861   4.246  1.00  0.00     0.211 HD
ENDBRANCH   1  14
TORSDOF 8
ENDMDL
MODEL 5
REMARK VINA RESULT:    -3.113      1.467      2.281
REMARK INTER + INTRA:          -4.699
REMARK INTER:                  -4.174
REMARK INTRA:                  -0.525
REMARK UNBOUND:                -0.494
REMARK SMILES C[C@@H](O)[C@@H](O)[C@@H](O)[C@H](O)C=O
REMARK SMILES IDX 4 1 2 2 1 3 3 4 6 6 8 7 10 8 11 9 9 10 7 12 5 14
REMARK H PARENT 3 5 9 11 7 13 5 15
REMARK Flexibility Score: inf
ROOT
ATOM      1  C   UNL     1      -3.058 -51.947   6.796  1.00  0.00     0.174 C 
ENDROOT
BRANCH   1   2
ATOM      2  C   UNL     1      -2.911 -51.364   8.232  1.00  0.00     0.142 C 
ATOM      3  C   UNL     1      -4.163 -51.622   9.084  1.00  0.00     0.041 C 
BRANCH   2   4
ATOM      4  O   UNL     1      -1.781 -51.886   8.886  1.00  0.00    -0.391 OA
ATOM      5  H   UNL     1      -1.340 -52.520   8.261  1.00  0.00     0.211 HD
ENDBRANCH   2   4
ENDBRANCH   1   2
BRANCH   1   6
ATOM      6  C   UNL     1      -2.096 -51.261   5.776  1.00  0.00     0.181 C 
BRANCH   6   7
ATOM      7  C   UNL     1      -1.846 -52.124   4.508  1.00  0.00     0.209 C 
BRANCH   7   8
ATOM      8  C   UNL     1      -2.706 -51.678   3.360  1.00  0.00     0.258 C 
ATOM      9  O   UNL     1      -3.923 -51.759   3.429  1.00  0.00    -0.300 OA
ENDBRANCH   7   8
BRANCH   7  10
ATOM     10  O   UNL     1      -0.506 -52.005   4.106  1.00  0.00    -0.383 OA
ATOM     11  H   UNL     1      -0.341 -51.047   3.909  1.00  0.00     0.211 HD
ENDBRANCH   7  10
ENDBRANCH   6   7
BRANCH   6  12
ATOM     12  O   UNL     1      -0.867 -50.956   6.388  1.00  0.00    -0.387 OA
ATOM     13  H   UNL     1      -0.452 -50.215   5.873  1.00  0.00     0.211 HD
ENDBRANCH   6  12
ENDBRANCH   1   6
BRANCH   1  14
ATOM     14  O   UNL     1      -4.393 -51.838   6.366  1.00  0.00    -0.388 OA
ATOM     15  H   UNL     1      -4.513 -52.467   5.607  1.00  0.00     0.211 HD
ENDBRANCH   1  14
TORSDOF 8
ENDMDL
MODEL 6
REMARK VINA RESULT:    -2.869      1.505      2.280
REMARK INTER + INTRA:          -4.370
REMARK INTER:                  -3.992
REMARK INTRA:                  -0.378
REMARK UNBOUND:                -0.494
REMARK SMILES C[C@@H](O)[C@@H](O)[C@@H](O)[C@H](O)C=O
REMARK SMILES IDX 4 1 2 2 1 3 3 4 6 6 8 7 10 8 11 9 9 10 7 12 5 14
REMARK H PARENT 3 5 9 11 7 13 5 15
REMARK Flexibility Score: inf
ROOT
ATOM      1  C   UNL     1      -1.833 -51.580   4.180  1.00  0.00     0.174 C 
ENDROOT
BRANCH   1   2
ATOM      2  C   UNL     1      -2.337 -51.950   5.605  1.00  0.00     0.142 C 
ATOM      3  C   UNL     1      -1.345 -51.511   6.693  1.00  0.00     0.041 C 
BRANCH   2   4
ATOM      4  O   UNL     1      -3.599 -51.389   5.865  1.00  0.00    -0.391 OA
ATOM      5  H   UNL     1      -4.239 -52.138   5.994  1.00  0.00     0.211 HD
ENDBRANCH   2   4
ENDBRANCH   1   2
BRANCH   1   6
ATOM      6  C   UNL     1      -2.772 -52.125   3.058  1.00  0.00     0.181 C 
BRANCH   6   7
ATOM      7  C   UNL     1      -2.302 -51.728   1.631  1.00  0.00     0.209 C 
BRANCH   7   8
ATOM      8  C   UNL     1      -3.247 -50.750   0.993  1.00  0.00     0.258 C 
ATOM      9  O   UNL     1      -4.293 -51.134   0.492  1.00  0.00    -0.300 OA
ENDBRANCH   7   8
BRANCH   7  10
ATOM     10  O   UNL     1      -1.039 -51.118   1.696  1.00  0.00    -0.383 OA
ATOM     11  H   UNL     1      -0.397 -51.803   2.019  1.00  0.00     0.211 HD
ENDBRANCH   7  10
ENDBRANCH   6   7
BRANCH   6  12
ATOM     12  O   UNL     1      -4.090 -51.678   3.261  1.00  0.00    -0.387 OA
ATOM     13  H   UNL     1      -4.549 -51.689   2.380  1.00  0.00     0.211 HD
ENDBRANCH   6  12
ENDBRANCH   1   6
BRANCH   1  14
ATOM     14  O   UNL     1      -0.519 -52.051   3.996  1.00  0.00    -0.388 OA
ATOM     15  H   UNL     1      -0.179 -51.660   3.149  1.00  0.00     0.211 HD
ENDBRANCH   1  14
TORSDOF 8
ENDMDL
MODEL 7
REMARK VINA RESULT:    -2.299      3.242      4.040
REMARK INTER + INTRA:          -3.599
REMARK INTER:                  -2.938
REMARK INTRA:                  -0.661
REMARK UNBOUND:                -0.494
REMARK SMILES C[C@@H](O)[C@@H](O)[C@@H](O)[C@H](O)C=O
REMARK SMILES IDX 4 1 2 2 1 3 3 4 6 6 8 7 10 8 11 9 9 10 7 12 5 14
REMARK H PARENT 3 5 9 11 7 13 5 15
REMARK Flexibility Score: inf
ROOT
ATOM      1  C   UNL     1      -3.723 -51.510   2.754  1.00  0.00     0.174 C 
ENDROOT
BRANCH   1   2
ATOM      2  C   UNL     1      -5.133 -52.124   2.997  1.00  0.00     0.142 C 
ATOM      3  C   UNL     1      -5.678 -51.769   4.388  1.00  0.00     0.041 C 
BRANCH   2   4
ATOM      4  O   UNL     1      -6.049 -51.712   2.014  1.00  0.00    -0.391 OA
ATOM      5  H   UNL     1      -5.536 -51.533   1.182  1.00  0.00     0.211 HD
ENDBRANCH   2   4
ENDBRANCH   1   2
BRANCH   1   6
ATOM      6  C   UNL     1      -3.035 -52.090   1.478  1.00  0.00     0.181 C 
BRANCH   6   7
ATOM      7  C   UNL     1      -1.487 -51.966   1.518  1.00  0.00     0.209 C 
BRANCH   7   8
ATOM      8  C   UNL     1      -0.887 -52.125   0.150  1.00  0.00     0.258 C 
ATOM      9  O   UNL     1      -1.035 -51.258  -0.697  1.00  0.00    -0.300 OA
ENDBRANCH   7   8
BRANCH   7  10
ATOM     10  O   UNL     1      -1.121 -50.698   1.998  1.00  0.00    -0.383 OA
ATOM     11  H   UNL     1      -0.348 -50.825   2.608  1.00  0.00     0.211 HD
ENDBRANCH   7  10
ENDBRANCH   6   7
BRANCH   6  12
ATOM     12  O   UNL     1      -3.529 -51.457   0.324  1.00  0.00    -0.387 OA
ATOM     13  H   UNL     1      -2.892 -51.645  -0.415  1.00  0.00     0.211 HD
ENDBRANCH   6  12
ENDBRANCH   1   6
BRANCH   1  14
ATOM     14  O   UNL     1      -2.910 -51.707   3.886  1.00  0.00    -0.388 OA
ATOM     15  H   UNL     1      -3.512 -51.831   4.666  1.00  0.00     0.211 HD
ENDBRANCH   1  14
TORSDOF 8
ENDMDL
MODEL 8
REMARK VINA RESULT:    -2.245      2.057      4.824
REMARK INTER + INTRA:          -3.526
REMARK INTER:                  -3.035
REMARK INTRA:                  -0.491
REMARK UNBOUND:                -0.494
REMARK SMILES C[C@@H](O)[C@@H](O)[C@@H](O)[C@H](O)C=O
REMARK SMILES IDX 4 1 2 2 1 3 3 4 6 6 8 7 10 8 11 9 9 10 7 12 5 14
REMARK H PARENT 3 5 9 11 7 13 5 15
REMARK Flexibility Score: inf
ROOT
ATOM      1  C   UNL     1      -4.214 -51.544   4.178  1.00  0.00     0.174 C 
ENDROOT
BRANCH   1   2
ATOM      2  C   UNL     1      -4.288 -52.084   2.720  1.00  0.00     0.142 C 
ATOM      3  C   UNL     1      -5.705 -51.970   2.140  1.00  0.00     0.041 C 
BRANCH   2   4
ATOM      4  O   UNL     1      -3.381 -51.416   1.878  1.00  0.00    -0.391 OA
ATOM      5  H   UNL     1      -3.131 -50.564   2.322  1.00  0.00     0.211 HD
ENDBRANCH   2   4
ENDBRANCH   1   2
BRANCH   1   6
ATOM      6  C   UNL     1      -2.997 -52.125   4.964  1.00  0.00     0.181 C 
BRANCH   6   7
ATOM      7  C   UNL     1      -3.163 -52.008   6.505  1.00  0.00     0.209 C 
BRANCH   7   8
ATOM      8  C   UNL     1      -1.842 -52.124   7.212  1.00  0.00     0.258 C 
ATOM      9  O   UNL     1      -1.654 -51.551   8.273  1.00  0.00    -0.300 OA
ENDBRANCH   7   8
BRANCH   7  10
ATOM     10  O   UNL     1      -3.712 -50.758   6.833  1.00  0.00    -0.383 OA
ATOM     11  H   UNL     1      -3.007 -50.076   6.679  1.00  0.00     0.211 HD
ENDBRANCH   7  10
ENDBRANCH   6   7
BRANCH   6  12
ATOM     12  O   UNL     1      -1.807 -51.487   4.569  1.00  0.00    -0.387 OA
ATOM     13  H   UNL     1      -1.257 -51.350   5.385  1.00  0.00     0.211 HD
ENDBRANCH   6  12
ENDBRANCH   1   6
BRANCH   1  14
ATOM     14  O   UNL     1      -5.417 -51.819   4.855  1.00  0.00    -0.388 OA
ATOM     15  H   UNL     1      -6.147 -51.365   4.359  1.00  0.00     0.211 HD
ENDBRANCH   1  14
TORSDOF 8
ENDMDL
