MODEL 1
REMARK VINA RESULT:    -2.342      0.000      0.000
REMARK INTER + INTRA:          -7.586
REMARK INTER:                  -5.902
REMARK INTRA:                  -1.683
REMARK UNBOUND:                -1.683
REMARK SMILES CCCCCCCCCCCCCCCCCCCCCCCCCCCC(=O)[O-]
REMARK SMILES IDX 15 1 16 2 17 3 18 4 19 5 20 6 21 7 22 8 23 9 24 10 25 11
REMARK SMILES IDX 26 12 27 13 28 14 29 15 30 16 14 17 13 18 12 19 11 20 10 21
REMARK SMILES IDX 9 22 8 23 7 24 6 25 5 26 4 27 3 28 2 29 1 30
REMARK H PARENT
REMARK Flexibility Score: inf
ROOT
ATOM      1  C   UNL     1       0.627  -3.671 -11.909  1.00  0.00     0.000 C 
ENDROOT
BRANCH   1   2
ATOM      2  C   UNL     1      -0.651  -3.687 -11.055  1.00  0.00     0.000 C 
BRANCH   2   3
ATOM      3  C   UNL     1      -1.888  -4.159 -11.839  1.00  0.00     0.000 C 
BRANCH   3   4
ATOM      4  C   UNL     1      -1.966  -5.689 -12.025  1.00  0.00     0.000 C 
BRANCH   4   5
ATOM      5  C   UNL     1      -1.354  -6.452 -10.839  1.00  0.00     0.000 C 
BRANCH   5   6
ATOM      6  C   UNL     1      -0.442  -7.588 -11.325  1.00  0.00     0.000 C 
BRANCH   6   7
ATOM      7  C   UNL     1       0.454  -8.155 -10.208  1.00  0.00     0.000 C 
BRANCH   7   8
ATOM      8  C   UNL     1       0.866  -9.632 -10.387  1.00  0.00     0.000 C 
BRANCH   8   9
ATOM      9  C   UNL     1      -0.224 -10.659 -10.039  1.00  0.00     0.000 C 
BRANCH   9  10
ATOM     10  C   UNL     1       0.237 -12.111 -10.234  1.00  0.00     0.000 C 
BRANCH  10  11
ATOM     11  C   UNL     1      -0.052 -12.588 -11.662  1.00  0.00     0.000 C 
BRANCH  11  12
ATOM     12  C   UNL     1      -1.445 -12.139 -12.125  1.00  0.00     0.006 C 
BRANCH  12  13
ATOM     13  C   UNL     1      -2.561 -12.692 -11.229  1.00  0.00     0.053 C 
BRANCH  13  14
ATOM     14  C   UNL     1      -3.843 -11.938 -11.408  1.00  0.00     0.041 C 
ATOM     15  O   UNL     1      -4.768 -12.416 -12.116  1.00  0.00    -0.550 OA
ATOM     16  O   UNL     1      -4.034 -10.727 -10.755  1.00  0.00    -0.550 OA
ENDBRANCH  13  14
ENDBRANCH  12  13
ENDBRANCH  11  12
ENDBRANCH  10  11
ENDBRANCH   9  10
ENDBRANCH   8   9
ENDBRANCH   7   8
ENDBRANCH   6   7
ENDBRANCH   5   6
ENDBRANCH   4   5
ENDBRANCH   3   4
ENDBRANCH   2   3
ENDBRANCH   1   2
BRANCH   1  17
ATOM     17  C   UNL     1       1.919  -3.702 -11.071  1.00  0.00     0.000 C 
BRANCH  17  18
ATOM     18  C   UNL     1       2.016  -2.644  -9.955  1.00  0.00     0.000 C 
BRANCH  18  19
ATOM     19  C   UNL     1       2.735  -1.359 -10.399  1.00  0.00     0.000 C 
BRANCH  19  20
ATOM     20  C   UNL     1       3.164  -1.390 -11.877  1.00  0.00     0.000 C 
BRANCH  20  21
ATOM     21  C   UNL     1       4.647  -1.732 -12.125  1.00  0.00     0.000 C 
BRANCH  21  22
ATOM     22  C   UNL     1       5.526  -1.802 -10.860  1.00  0.00    -0.000 C 
BRANCH  22  23
ATOM     23  C   UNL     1       6.536  -0.649 -10.699  1.00  0.00    -0.000 C 
BRANCH  23  24
ATOM     24  C   UNL     1       7.976  -0.985 -11.126  1.00  0.00    -0.000 C 
BRANCH  24  25
ATOM     25  C   UNL     1       8.063  -2.258 -11.985  1.00  0.00    -0.000 C 
BRANCH  25  26
ATOM     26  C   UNL     1       9.060  -3.279 -11.406  1.00  0.00    -0.000 C 
BRANCH  26  27
ATOM     27  C   UNL     1       8.869  -4.699 -11.970  1.00  0.00    -0.000 C 
BRANCH  27  28
ATOM     28  C   UNL     1       7.456  -5.246 -11.698  1.00  0.00    -0.000 C 
BRANCH  28  29
ATOM     29  C   UNL     1       7.336  -6.740 -12.040  1.00  0.00    -0.003 C 
ATOM     30  C   UNL     1       8.406  -7.580 -11.344  1.00  0.00     0.004 C 
ENDBRANCH  28  29
ENDBRANCH  27  28
ENDBRANCH  26  27
ENDBRANCH  25  26
ENDBRANCH  24  25
ENDBRANCH  23  24
ENDBRANCH  22  23
ENDBRANCH  21  22
ENDBRANCH  20  21
ENDBRANCH  19  20
ENDBRANCH  18  19
ENDBRANCH  17  18
ENDBRANCH   1  17
TORSDOF 26
ENDMDL
MODEL 2
REMARK VINA RESULT:    -1.140      8.160     12.890
REMARK INTER + INTRA:          -4.557
REMARK INTER:                  -2.642
REMARK INTRA:                  -1.916
REMARK UNBOUND:                -1.683
REMARK SMILES CCCCCCCCCCCCCCCCCCCCCCCCCCCC(=O)[O-]
REMARK SMILES IDX 15 1 16 2 17 3 18 4 19 5 20 6 21 7 22 8 23 9 24 10 25 11
REMARK SMILES IDX 26 12 27 13 28 14 29 15 30 16 14 17 13 18 12 19 11 20 10 21
REMARK SMILES IDX 9 22 8 23 7 24 6 25 5 26 4 27 3 28 2 29 1 30
REMARK H PARENT
REMARK Flexibility Score: inf
ROOT
ATOM      1  C   UNL     1      -4.390   0.735 -11.412  1.00  0.00     0.000 C 
ENDROOT
BRANCH   1   2
ATOM      2  C   UNL     1      -5.313   0.793 -10.184  1.00  0.00     0.000 C 
BRANCH   2   3
ATOM      3  C   UNL     1      -6.749   0.332 -10.494  1.00  0.00     0.000 C 
BRANCH   3   4
ATOM      4  C   UNL     1      -7.596   1.380 -11.246  1.00  0.00     0.000 C 
BRANCH   4   5
ATOM      5  C   UNL     1      -9.035   0.898 -11.492  1.00  0.00     0.000 C 
BRANCH   5   6
ATOM      6  C   UNL     1     -10.052   1.992 -11.138  1.00  0.00     0.000 C 
BRANCH   6   7
ATOM      7  C   UNL     1      -9.484   3.414 -11.298  1.00  0.00     0.000 C 
BRANCH   7   8
ATOM      8  C   UNL     1     -10.488   4.555 -11.029  1.00  0.00     0.000 C 
BRANCH   8   9
ATOM      9  C   UNL     1      -9.857   5.889 -10.594  1.00  0.00     0.000 C 
BRANCH   9  10
ATOM     10  C   UNL     1      -8.522   6.177 -11.295  1.00  0.00     0.000 C 
BRANCH  10  11
ATOM     11  C   UNL     1      -7.385   6.301 -10.275  1.00  0.00     0.000 C 
BRANCH  11  12
ATOM     12  C   UNL     1      -7.867   5.946  -8.862  1.00  0.00     0.006 C 
BRANCH  12  13
ATOM     13  C   UNL     1      -7.460   4.525  -8.448  1.00  0.00     0.053 C 
BRANCH  13  14
ATOM     14  C   UNL     1      -8.576   3.807  -7.753  1.00  0.00     0.041 C 
ATOM     15  O   UNL     1      -9.462   4.454  -7.137  1.00  0.00    -0.550 OA
ATOM     16  O   UNL     1      -8.662   2.422  -7.826  1.00  0.00    -0.550 OA
ENDBRANCH  13  14
ENDBRANCH  12  13
ENDBRANCH  11  12
ENDBRANCH  10  11
ENDBRANCH   9  10
ENDBRANCH   8   9
ENDBRANCH   7   8
ENDBRANCH   6   7
ENDBRANCH   5   6
ENDBRANCH   4   5
ENDBRANCH   3   4
ENDBRANCH   2   3
ENDBRANCH   1   2
BRANCH   1  17
ATOM     17  C   UNL     1      -4.409  -0.632 -12.122  1.00  0.00     0.000 C 
BRANCH  17  18
ATOM     18  C   UNL     1      -4.108  -1.852 -11.230  1.00  0.00     0.000 C 
BRANCH  18  19
ATOM     19  C   UNL     1      -3.382  -2.983 -11.976  1.00  0.00     0.000 C 
BRANCH  19  20
ATOM     20  C   UNL     1      -2.462  -3.814 -11.063  1.00  0.00     0.000 C 
BRANCH  20  21
ATOM     21  C   UNL     1      -1.228  -4.428 -11.754  1.00  0.00     0.000 C 
BRANCH  21  22
ATOM     22  C   UNL     1      -1.355  -5.919 -12.122  1.00  0.00    -0.000 C 
BRANCH  22  23
ATOM     23  C   UNL     1      -0.544  -6.884 -11.236  1.00  0.00    -0.000 C 
BRANCH  23  24
ATOM     24  C   UNL     1      -0.684  -8.373 -11.601  1.00  0.00    -0.000 C 
BRANCH  24  25
ATOM     25  C   UNL     1       0.673  -9.091 -11.712  1.00  0.00    -0.000 C 
BRANCH  25  26
ATOM     26  C   UNL     1       0.824 -10.205 -10.660  1.00  0.00    -0.000 C 
BRANCH  26  27
ATOM     27  C   UNL     1       0.446 -11.599 -11.195  1.00  0.00    -0.000 C 
BRANCH  27  28
ATOM     28  C   UNL     1      -0.572 -12.311 -10.286  1.00  0.00    -0.000 C 
BRANCH  28  29
ATOM     29  C   UNL     1      -1.477 -11.318  -9.538  1.00  0.00    -0.003 C 
ATOM     30  C   UNL     1      -2.670 -10.873 -10.383  1.00  0.00     0.004 C 
ENDBRANCH  28  29
ENDBRANCH  27  28
ENDBRANCH  26  27
ENDBRANCH  25  26
ENDBRANCH  24  25
ENDBRANCH  23  24
ENDBRANCH  22  23
ENDBRANCH  21  22
ENDBRANCH  20  21
ENDBRANCH  19  20
ENDBRANCH  18  19
ENDBRANCH  17  18
ENDBRANCH   1  17
TORSDOF 26
ENDMDL
MODEL 3
REMARK VINA RESULT:    -1.038      7.886     12.659
REMARK INTER + INTRA:          -4.300
REMARK INTER:                  -2.911
REMARK INTRA:                  -1.388
REMARK UNBOUND:                -1.683
REMARK SMILES CCCCCCCCCCCCCCCCCCCCCCCCCCCC(=O)[O-]
REMARK SMILES IDX 15 1 16 2 17 3 18 4 19 5 20 6 21 7 22 8 23 9 24 10 25 11
REMARK SMILES IDX 26 12 27 13 28 14 29 15 30 16 14 17 13 18 12 19 11 20 10 21
REMARK SMILES IDX 9 22 8 23 7 24 6 25 5 26 4 27 3 28 2 29 1 30
REMARK H PARENT
REMARK Flexibility Score: inf
ROOT
ATOM      1  C   UNL     1      -2.732  -2.740 -12.057  1.00  0.00     0.000 C 
ENDROOT
BRANCH   1   2
ATOM      2  C   UNL     1      -4.216  -2.373 -11.900  1.00  0.00     0.000 C 
BRANCH   2   3
ATOM      3  C   UNL     1      -4.488  -0.875 -12.125  1.00  0.00     0.000 C 
BRANCH   3   4
ATOM      4  C   UNL     1      -4.520  -0.042 -10.826  1.00  0.00     0.000 C 
BRANCH   4   5
ATOM      5  C   UNL     1      -5.795  -0.292 -10.005  1.00  0.00     0.000 C 
BRANCH   5   6
ATOM      6  C   UNL     1      -6.671   0.968  -9.946  1.00  0.00     0.000 C 
BRANCH   6   7
ATOM      7  C   UNL     1      -8.170   0.650  -9.795  1.00  0.00     0.000 C 
BRANCH   7   8
ATOM      8  C   UNL     1      -9.122   1.832 -10.073  1.00  0.00     0.000 C 
BRANCH   8   9
ATOM      9  C   UNL     1      -8.693   3.173  -9.453  1.00  0.00     0.000 C 
BRANCH   9  10
ATOM     10  C   UNL     1      -9.188   3.351  -8.010  1.00  0.00     0.000 C 
BRANCH  10  11
ATOM     11  C   UNL     1     -10.120   4.563  -7.899  1.00  0.00     0.000 C 
BRANCH  11  12
ATOM     12  C   UNL     1      -9.329   5.877  -7.959  1.00  0.00     0.006 C 
BRANCH  12  13
ATOM     13  C   UNL     1      -9.695   6.720  -9.188  1.00  0.00     0.053 C 
BRANCH  13  14
ATOM     14  C   UNL     1      -8.696   6.556 -10.293  1.00  0.00     0.041 C 
ATOM     15  O   UNL     1      -7.508   6.940 -10.138  1.00  0.00    -0.550 OA
ATOM     16  O   UNL     1      -9.069   5.934 -11.478  1.00  0.00    -0.550 OA
ENDBRANCH  13  14
ENDBRANCH  12  13
ENDBRANCH  11  12
ENDBRANCH  10  11
ENDBRANCH   9  10
ENDBRANCH   8   9
ENDBRANCH   7   8
ENDBRANCH   6   7
ENDBRANCH   5   6
ENDBRANCH   4   5
ENDBRANCH   3   4
ENDBRANCH   2   3
ENDBRANCH   1   2
BRANCH   1  17
ATOM     17  C   UNL     1      -2.439  -4.226 -11.780  1.00  0.00     0.000 C 
BRANCH  17  18
ATOM     18  C   UNL     1      -0.997  -4.686 -12.066  1.00  0.00     0.000 C 
BRANCH  18  19
ATOM     19  C   UNL     1      -0.184  -4.960 -10.789  1.00  0.00     0.000 C 
BRANCH  19  20
ATOM     20  C   UNL     1       0.828  -6.107 -10.954  1.00  0.00     0.000 C 
BRANCH  20  21
ATOM     21  C   UNL     1       0.548  -7.070 -12.125  1.00  0.00     0.000 C 
BRANCH  21  22
ATOM     22  C   UNL     1      -0.756  -7.885 -12.008  1.00  0.00    -0.000 C 
BRANCH  22  23
ATOM     23  C   UNL     1      -0.565  -9.406 -11.853  1.00  0.00    -0.000 C 
BRANCH  23  24
ATOM     24  C   UNL     1       0.693  -9.827 -11.074  1.00  0.00    -0.000 C 
BRANCH  24  25
ATOM     25  C   UNL     1       1.414 -11.030 -11.707  1.00  0.00    -0.000 C 
BRANCH  25  26
ATOM     26  C   UNL     1       1.401 -12.262 -10.784  1.00  0.00    -0.000 C 
BRANCH  26  27
ATOM     27  C   UNL     1       0.049 -13.001 -10.778  1.00  0.00    -0.000 C 
BRANCH  27  28
ATOM     28  C   UNL     1      -0.572 -13.060  -9.370  1.00  0.00    -0.000 C 
BRANCH  28  29
ATOM     29  C   UNL     1      -1.800 -12.144  -9.239  1.00  0.00    -0.003 C 
ATOM     30  C   UNL     1      -2.495 -11.911 -10.581  1.00  0.00     0.004 C 
ENDBRANCH  28  29
ENDBRANCH  27  28
ENDBRANCH  26  27
ENDBRANCH  25  26
ENDBRANCH  24  25
ENDBRANCH  23  24
ENDBRANCH  22  23
ENDBRANCH  21  22
ENDBRANCH  20  21
ENDBRANCH  19  20
ENDBRANCH  18  19
ENDBRANCH  17  18
ENDBRANCH   1  17
TORSDOF 26
ENDMDL
MODEL 4
REMARK VINA RESULT:    -1.014      7.989     12.215
REMARK INTER + INTRA:          -4.240
REMARK INTER:                  -2.843
REMARK INTRA:                  -1.396
REMARK UNBOUND:                -1.683
REMARK SMILES CCCCCCCCCCCCCCCCCCCCCCCCCCCC(=O)[O-]
REMARK SMILES IDX 15 1 16 2 17 3 18 4 19 5 20 6 21 7 22 8 23 9 24 10 25 11
REMARK SMILES IDX 26 12 27 13 28 14 29 15 30 16 14 17 13 18 12 19 11 20 10 21
REMARK SMILES IDX 9 22 8 23 7 24 6 25 5 26 4 27 3 28 2 29 1 30
REMARK H PARENT
REMARK Flexibility Score: inf
ROOT
ATOM      1  C   UNL     1      -6.598  -0.073  -9.453  1.00  0.00     0.000 C 
ENDROOT
BRANCH   1   2
ATOM      2  C   UNL     1      -5.134   0.339  -9.676  1.00  0.00     0.000 C 
BRANCH   2   3
ATOM      3  C   UNL     1      -4.863   0.825 -11.111  1.00  0.00     0.000 C 
BRANCH   3   4
ATOM      4  C   UNL     1      -4.625  -0.314 -12.125  1.00  0.00     0.000 C 
BRANCH   4   5
ATOM      5  C   UNL     1      -4.364  -1.662 -11.435  1.00  0.00     0.000 C 
BRANCH   5   6
ATOM      6  C   UNL     1      -3.222  -2.423 -12.123  1.00  0.00     0.000 C 
BRANCH   6   7
ATOM      7  C   UNL     1      -3.080  -3.873 -11.623  1.00  0.00     0.000 C 
BRANCH   7   8
ATOM      8  C   UNL     1      -1.889  -4.126 -10.676  1.00  0.00     0.000 C 
BRANCH   8   9
ATOM      9  C   UNL     1      -0.762  -4.993 -11.264  1.00  0.00     0.000 C 
BRANCH   9  10
ATOM     10  C   UNL     1      -1.285  -6.230 -12.007  1.00  0.00     0.000 C 
BRANCH  10  11
ATOM     11  C   UNL     1      -0.384  -7.443 -11.749  1.00  0.00     0.000 C 
BRANCH  11  12
ATOM     12  C   UNL     1      -1.126  -8.526 -10.953  1.00  0.00     0.006 C 
BRANCH  12  13
ATOM     13  C   UNL     1      -1.701  -9.623 -11.859  1.00  0.00     0.053 C 
BRANCH  13  14
ATOM     14  C   UNL     1      -2.149 -10.816 -11.072  1.00  0.00     0.041 C 
ATOM     15  O   UNL     1      -2.810 -10.667 -10.011  1.00  0.00    -0.550 OA
ATOM     16  O   UNL     1      -1.876 -12.097 -11.537  1.00  0.00    -0.550 OA
ENDBRANCH  13  14
ENDBRANCH  12  13
ENDBRANCH  11  12
ENDBRANCH  10  11
ENDBRANCH   9  10
ENDBRANCH   8   9
ENDBRANCH   7   8
ENDBRANCH   6   7
ENDBRANCH   5   6
ENDBRANCH   4   5
ENDBRANCH   3   4
ENDBRANCH   2   3
ENDBRANCH   1   2
BRANCH   1  17
ATOM     17  C   UNL     1      -7.603   1.046  -9.784  1.00  0.00     0.000 C 
BRANCH  17  18
ATOM     18  C   UNL     1      -8.061   1.117 -11.254  1.00  0.00     0.000 C 
BRANCH  18  19
ATOM     19  C   UNL     1      -9.585   0.982 -11.419  1.00  0.00     0.000 C 
BRANCH  19  20
ATOM     20  C   UNL     1     -10.334   2.308 -11.199  1.00  0.00     0.000 C 
BRANCH  20  21
ATOM     21  C   UNL     1      -9.846   3.491 -12.060  1.00  0.00     0.000 C 
BRANCH  21  22
ATOM     22  C   UNL     1      -9.392   4.735 -11.270  1.00  0.00    -0.000 C 
BRANCH  22  23
ATOM     23  C   UNL     1      -8.354   5.622 -11.986  1.00  0.00    -0.000 C 
BRANCH  23  24
ATOM     24  C   UNL     1      -7.707   6.704 -11.103  1.00  0.00    -0.000 C 
BRANCH  24  25
ATOM     25  C   UNL     1      -8.186   6.648  -9.641  1.00  0.00    -0.000 C 
BRANCH  25  26
ATOM     26  C   UNL     1      -7.110   6.070  -8.703  1.00  0.00    -0.000 C 
BRANCH  26  27
ATOM     27  C   UNL     1      -7.214   4.543  -8.530  1.00  0.00    -0.000 C 
BRANCH  27  28
ATOM     28  C   UNL     1      -8.172   4.153  -7.390  1.00  0.00    -0.000 C 
BRANCH  28  29
ATOM     29  C   UNL     1      -9.547   4.828  -7.531  1.00  0.00    -0.003 C 
ATOM     30  C   UNL     1     -10.542   3.956  -8.296  1.00  0.00     0.004 C 
ENDBRANCH  28  29
ENDBRANCH  27  28
ENDBRANCH  26  27
ENDBRANCH  25  26
ENDBRANCH  24  25
ENDBRANCH  23  24
ENDBRANCH  22  23
ENDBRANCH  21  22
ENDBRANCH  20  21
ENDBRANCH  19  20
ENDBRANCH  18  19
ENDBRANCH  17  18
ENDBRANCH   1  17
TORSDOF 26
ENDMDL
MODEL 5
REMARK VINA RESULT:    -1.000      8.205     11.736
REMARK INTER + INTRA:          -4.204
REMARK INTER:                  -3.133
REMARK INTRA:                  -1.072
REMARK UNBOUND:                -1.683
REMARK SMILES CCCCCCCCCCCCCCCCCCCCCCCCCCCC(=O)[O-]
REMARK SMILES IDX 15 1 16 2 17 3 18 4 19 5 20 6 21 7 22 8 23 9 24 10 25 11
REMARK SMILES IDX 26 12 27 13 28 14 29 15 30 16 14 17 13 18 12 19 11 20 10 21
REMARK SMILES IDX 9 22 8 23 7 24 6 25 5 26 4 27 3 28 2 29 1 30
REMARK H PARENT
REMARK Flexibility Score: inf
ROOT
ATOM      1  C   UNL     1      -3.830  -2.709 -12.106  1.00  0.00     0.000 C 
ENDROOT
BRANCH   1   2
ATOM      2  C   UNL     1      -3.873  -1.174 -12.070  1.00  0.00     0.000 C 
BRANCH   2   3
ATOM      3  C   UNL     1      -5.306  -0.618 -11.979  1.00  0.00     0.000 C 
BRANCH   3   4
ATOM      4  C   UNL     1      -5.480   0.498 -10.928  1.00  0.00     0.000 C 
BRANCH   4   5
ATOM      5  C   UNL     1      -6.914   1.048 -10.894  1.00  0.00     0.000 C 
BRANCH   5   6
ATOM      6  C   UNL     1      -7.634   0.637  -9.602  1.00  0.00     0.000 C 
BRANCH   6   7
ATOM      7  C   UNL     1      -9.104   0.240  -9.834  1.00  0.00     0.000 C 
BRANCH   7   8
ATOM      8  C   UNL     1     -10.134   1.356  -9.563  1.00  0.00     0.000 C 
BRANCH   8   9
ATOM      9  C   UNL     1     -10.045   2.568 -10.506  1.00  0.00     0.000 C 
BRANCH   9  10
ATOM     10  C   UNL     1     -10.882   3.762 -10.026  1.00  0.00     0.000 C 
BRANCH  10  11
ATOM     11  C   UNL     1     -10.586   4.080  -8.556  1.00  0.00     0.000 C 
BRANCH  11  12
ATOM     12  C   UNL     1      -9.268   4.854  -8.410  1.00  0.00     0.006 C 
BRANCH  12  13
ATOM     13  C   UNL     1      -9.204   6.073  -9.340  1.00  0.00     0.053 C 
BRANCH  13  14
ATOM     14  C   UNL     1      -7.810   6.608  -9.460  1.00  0.00     0.041 C 
ATOM     15  O   UNL     1      -7.176   6.969  -8.435  1.00  0.00    -0.550 OA
ATOM     16  O   UNL     1      -7.193   6.664 -10.704  1.00  0.00    -0.550 OA
ENDBRANCH  13  14
ENDBRANCH  12  13
ENDBRANCH  11  12
ENDBRANCH  10  11
ENDBRANCH   9  10
ENDBRANCH   8   9
ENDBRANCH   7   8
ENDBRANCH   6   7
ENDBRANCH   5   6
ENDBRANCH   4   5
ENDBRANCH   3   4
ENDBRANCH   2   3
ENDBRANCH   1   2
BRANCH   1  17
ATOM     17  C   UNL     1      -2.399  -3.278 -12.125  1.00  0.00     0.000 C 
BRANCH  17  18
ATOM     18  C   UNL     1      -2.274  -4.780 -11.801  1.00  0.00     0.000 C 
BRANCH  18  19
ATOM     19  C   UNL     1      -1.076  -5.106 -10.893  1.00  0.00     0.000 C 
BRANCH  19  20
ATOM     20  C   UNL     1      -0.225  -6.277 -11.416  1.00  0.00     0.000 C 
BRANCH  20  21
ATOM     21  C   UNL     1       0.982  -6.658 -10.536  1.00  0.00     0.000 C 
BRANCH  21  22
ATOM     22  C   UNL     1       2.063  -7.506 -11.236  1.00  0.00    -0.000 C 
BRANCH  22  23
ATOM     23  C   UNL     1       3.042  -6.715 -12.125  1.00  0.00    -0.000 C 
BRANCH  23  24
ATOM     24  C   UNL     1       4.516  -7.140 -12.004  1.00  0.00    -0.000 C 
BRANCH  24  25
ATOM     25  C   UNL     1       4.694  -8.666 -11.929  1.00  0.00    -0.000 C 
BRANCH  25  26
ATOM     26  C   UNL     1       6.175  -9.070 -11.807  1.00  0.00    -0.000 C 
BRANCH  26  27
ATOM     27  C   UNL     1       6.424 -10.559 -12.112  1.00  0.00    -0.000 C 
BRANCH  27  28
ATOM     28  C   UNL     1       6.416 -11.421 -10.836  1.00  0.00    -0.000 C 
BRANCH  28  29
ATOM     29  C   UNL     1       7.821 -11.573 -10.230  1.00  0.00    -0.003 C 
ATOM     30  C   UNL     1       7.782 -11.727  -8.710  1.00  0.00     0.004 C 
ENDBRANCH  28  29
ENDBRANCH  27  28
ENDBRANCH  26  27
ENDBRANCH  25  26
ENDBRANCH  24  25
ENDBRANCH  23  24
ENDBRANCH  22  23
ENDBRANCH  21  22
ENDBRANCH  20  21
ENDBRANCH  19  20
ENDBRANCH  18  19
ENDBRANCH  17  18
ENDBRANCH   1  17
TORSDOF 26
ENDMDL
MODEL 6
REMARK VINA RESULT:    -0.811      7.681     12.433
REMARK INTER + INTRA:          -3.726
REMARK INTER:                  -2.368
REMARK INTRA:                  -1.358
REMARK UNBOUND:                -1.683
REMARK SMILES CCCCCCCCCCCCCCCCCCCCCCCCCCCC(=O)[O-]
REMARK SMILES IDX 15 1 16 2 17 3 18 4 19 5 20 6 21 7 22 8 23 9 24 10 25 11
REMARK SMILES IDX 26 12 27 13 28 14 29 15 30 16 14 17 13 18 12 19 11 20 10 21
REMARK SMILES IDX 9 22 8 23 7 24 6 25 5 26 4 27 3 28 2 29 1 30
REMARK H PARENT
REMARK Flexibility Score: inf
ROOT
ATOM      1  C   UNL     1      -3.630  -2.839 -11.829  1.00  0.00     0.000 C 
ENDROOT
BRANCH   1   2
ATOM      2  C   UNL     1      -3.601  -1.329 -12.110  1.00  0.00     0.000 C 
BRANCH   2   3
ATOM      3  C   UNL     1      -5.004  -0.696 -12.117  1.00  0.00     0.000 C 
BRANCH   3   4
ATOM      4  C   UNL     1      -5.360   0.052 -10.815  1.00  0.00     0.000 C 
BRANCH   4   5
ATOM      5  C   UNL     1      -6.672   0.844 -10.939  1.00  0.00     0.000 C 
BRANCH   5   6
ATOM      6  C   UNL     1      -7.312   1.072  -9.562  1.00  0.00     0.000 C 
BRANCH   6   7
ATOM      7  C   UNL     1      -8.682   0.384  -9.416  1.00  0.00     0.000 C 
BRANCH   7   8
ATOM      8  C   UNL     1      -9.903   1.302  -9.637  1.00  0.00     0.000 C 
BRANCH   8   9
ATOM      9  C   UNL     1      -9.899   2.084 -10.962  1.00  0.00     0.000 C 
BRANCH   9  10
ATOM     10  C   UNL     1     -10.770   3.348 -10.913  1.00  0.00     0.000 C 
BRANCH  10  11
ATOM     11  C   UNL     1     -10.089   4.509 -11.646  1.00  0.00     0.000 C 
BRANCH  11  12
ATOM     12  C   UNL     1      -8.615   4.635 -11.236  1.00  0.00     0.006 C 
BRANCH  12  13
ATOM     13  C   UNL     1      -8.279   6.030 -10.692  1.00  0.00     0.053 C 
BRANCH  13  14
ATOM     14  C   UNL     1      -7.784   5.972  -9.279  1.00  0.00     0.041 C 
ATOM     15  O   UNL     1      -8.123   5.023  -8.525  1.00  0.00    -0.550 OA
ATOM     16  O   UNL     1      -6.908   6.943  -8.810  1.00  0.00    -0.550 OA
ENDBRANCH  13  14
ENDBRANCH  12  13
ENDBRANCH  11  12
ENDBRANCH  10  11
ENDBRANCH   9  10
ENDBRANCH   8   9
ENDBRANCH   7   8
ENDBRANCH   6   7
ENDBRANCH   5   6
ENDBRANCH   4   5
ENDBRANCH   3   4
ENDBRANCH   2   3
ENDBRANCH   1   2
BRANCH   1  17
ATOM     17  C   UNL     1      -2.285  -3.537 -12.107  1.00  0.00     0.000 C 
BRANCH  17  18
ATOM     18  C   UNL     1      -2.168  -4.987 -11.600  1.00  0.00     0.000 C 
BRANCH  18  19
ATOM     19  C   UNL     1      -0.984  -5.199 -10.642  1.00  0.00     0.000 C 
BRANCH  19  20
ATOM     20  C   UNL     1       0.198  -5.934 -11.299  1.00  0.00     0.000 C 
BRANCH  20  21
ATOM     21  C   UNL     1       1.381  -6.250 -10.362  1.00  0.00     0.000 C 
BRANCH  21  22
ATOM     22  C   UNL     1       1.870  -7.712 -10.392  1.00  0.00    -0.000 C 
BRANCH  22  23
ATOM     23  C   UNL     1       1.900  -8.364 -11.789  1.00  0.00    -0.000 C 
BRANCH  23  24
ATOM     24  C   UNL     1       0.676  -9.234 -12.125  1.00  0.00    -0.000 C 
BRANCH  24  25
ATOM     25  C   UNL     1      -0.240  -9.470 -10.911  1.00  0.00    -0.000 C 
BRANCH  25  26
ATOM     26  C   UNL     1       0.057 -10.811 -10.216  1.00  0.00    -0.000 C 
BRANCH  26  27
ATOM     27  C   UNL     1      -0.817 -11.969 -10.734  1.00  0.00    -0.000 C 
BRANCH  27  28
ATOM     28  C   UNL     1      -1.935 -11.477 -11.672  1.00  0.00    -0.000 C 
BRANCH  28  29
ATOM     29  C   UNL     1      -3.258 -11.243 -10.924  1.00  0.00    -0.003 C 
ATOM     30  C   UNL     1      -3.798  -9.828 -11.134  1.00  0.00     0.004 C 
ENDBRANCH  28  29
ENDBRANCH  27  28
ENDBRANCH  26  27
ENDBRANCH  25  26
ENDBRANCH  24  25
ENDBRANCH  23  24
ENDBRANCH  22  23
ENDBRANCH  21  22
ENDBRANCH  20  21
ENDBRANCH  19  20
ENDBRANCH  18  19
ENDBRANCH  17  18
ENDBRANCH   1  17
TORSDOF 26
ENDMDL
MODEL 7
REMARK VINA RESULT:    -0.370      6.328      9.691
REMARK INTER + INTRA:          -2.617
REMARK INTER:                  -1.148
REMARK INTRA:                  -1.468
REMARK UNBOUND:                -1.683
REMARK SMILES CCCCCCCCCCCCCCCCCCCCCCCCCCCC(=O)[O-]
REMARK SMILES IDX 15 1 16 2 17 3 18 4 19 5 20 6 21 7 22 8 23 9 24 10 25 11
REMARK SMILES IDX 26 12 27 13 28 14 29 15 30 16 14 17 13 18 12 19 11 20 10 21
REMARK SMILES IDX 9 22 8 23 7 24 6 25 5 26 4 27 3 28 2 29 1 30
REMARK H PARENT
REMARK Flexibility Score: inf
ROOT
ATOM      1  C   UNL     1      -1.299  -6.730 -10.286  1.00  0.00     0.000 C 
ENDROOT
BRANCH   1   2
ATOM      2  C   UNL     1      -1.289  -6.310 -11.764  1.00  0.00     0.000 C 
BRANCH   2   3
ATOM      3  C   UNL     1      -1.353  -4.784 -11.951  1.00  0.00     0.000 C 
BRANCH   3   4
ATOM      4  C   UNL     1      -2.789  -4.220 -12.015  1.00  0.00     0.000 C 
BRANCH   4   5
ATOM      5  C   UNL     1      -2.855  -2.746 -11.583  1.00  0.00     0.000 C 
BRANCH   5   6
ATOM      6  C   UNL     1      -4.129  -2.072 -12.111  1.00  0.00     0.000 C 
BRANCH   6   7
ATOM      7  C   UNL     1      -4.403  -0.708 -11.452  1.00  0.00     0.000 C 
BRANCH   7   8
ATOM      8  C   UNL     1      -5.717  -0.024 -11.884  1.00  0.00     0.000 C 
BRANCH   8   9
ATOM      9  C   UNL     1      -6.452   0.739 -10.769  1.00  0.00     0.000 C 
BRANCH   9  10
ATOM     10  C   UNL     1      -7.877   1.152 -11.165  1.00  0.00     0.000 C 
BRANCH  10  11
ATOM     11  C   UNL     1      -8.805   1.151  -9.945  1.00  0.00     0.000 C 
BRANCH  11  12
ATOM     12  C   UNL     1      -8.852   2.535  -9.284  1.00  0.00     0.006 C 
BRANCH  12  13
ATOM     13  C   UNL     1      -8.137   3.605 -10.121  1.00  0.00     0.053 C 
BRANCH  13  14
ATOM     14  C   UNL     1      -8.801   4.942  -9.999  1.00  0.00     0.041 C 
ATOM     15  O   UNL     1      -9.487   5.401 -10.949  1.00  0.00    -0.550 OA
ATOM     16  O   UNL     1      -8.699   5.662  -8.814  1.00  0.00    -0.550 OA
ENDBRANCH  13  14
ENDBRANCH  12  13
ENDBRANCH  11  12
ENDBRANCH  10  11
ENDBRANCH   9  10
ENDBRANCH   8   9
ENDBRANCH   7   8
ENDBRANCH   6   7
ENDBRANCH   5   6
ENDBRANCH   4   5
ENDBRANCH   3   4
ENDBRANCH   2   3
ENDBRANCH   1   2
BRANCH   1  17
ATOM     17  C   UNL     1      -0.544  -8.046 -10.021  1.00  0.00     0.000 C 
BRANCH  17  18
ATOM     18  C   UNL     1       0.791  -8.212 -10.774  1.00  0.00     0.000 C 
BRANCH  18  19
ATOM     19  C   UNL     1       1.973  -7.526 -10.069  1.00  0.00     0.000 C 
BRANCH  19  20
ATOM     20  C   UNL     1       2.798  -6.631 -11.009  1.00  0.00     0.000 C 
BRANCH  20  21
ATOM     21  C   UNL     1       2.052  -5.406 -11.576  1.00  0.00     0.000 C 
BRANCH  21  22
ATOM     22  C   UNL     1       2.852  -4.089 -11.571  1.00  0.00    -0.000 C 
BRANCH  22  23
ATOM     23  C   UNL     1       2.334  -3.011 -10.598  1.00  0.00    -0.000 C 
BRANCH  23  24
ATOM     24  C   UNL     1       2.909  -1.602 -10.826  1.00  0.00    -0.000 C 
BRANCH  24  25
ATOM     25  C   UNL     1       3.807  -1.517 -12.073  1.00  0.00    -0.000 C 
BRANCH  25  26
ATOM     26  C   UNL     1       5.125  -0.775 -11.786  1.00  0.00    -0.000 C 
BRANCH  26  27
ATOM     27  C   UNL     1       6.375  -1.608 -12.125  1.00  0.00    -0.000 C 
BRANCH  27  28
ATOM     28  C   UNL     1       7.358  -1.687 -10.942  1.00  0.00    -0.000 C 
BRANCH  28  29
ATOM     29  C   UNL     1       8.110  -3.027 -10.901  1.00  0.00    -0.003 C 
ATOM     30  C   UNL     1       7.524  -4.049 -11.875  1.00  0.00     0.004 C 
ENDBRANCH  28  29
ENDBRANCH  27  28
ENDBRANCH  26  27
ENDBRANCH  25  26
ENDBRANCH  24  25
ENDBRANCH  23  24
ENDBRANCH  22  23
ENDBRANCH  21  22
ENDBRANCH  20  21
ENDBRANCH  19  20
ENDBRANCH  18  19
ENDBRANCH  17  18
ENDBRANCH   1  17
TORSDOF 26
ENDMDL
