MODEL 1
REMARK VINA RESULT:    -3.455      0.000      0.000
REMARK INTER + INTRA:          -3.455
REMARK INTER:                  -3.455
REMARK INTRA:                   0.000
REMARK UNBOUND:                 0.000
REMARK SMILES CC1=CC(=O)[C@@H]2C[C@H]1C2(C)C
REMARK SMILES IDX 1 1 2 2 3 3 4 4 5 5 6 6 7 7 8 8 9 9 10 10 11 11
REMARK H PARENT
REMARK Flexibility Score: inf
ROOT
ATOM      1  C   UNL     1      58.138   4.773  47.013  1.00  0.00     0.040 C 
ATOM      2  C   UNL     1      58.945   3.515  46.947  1.00  0.00    -0.066 C 
ATOM      3  C   UNL     1      60.170   3.426  47.536  1.00  0.00     0.047 C 
ATOM      4  C   UNL     1      60.866   2.104  47.426  1.00  0.00     0.159 C 
ATOM      5  O   UNL     1      61.983   1.886  47.961  1.00  0.00    -0.295 OA
ATOM      6  C   UNL     1      60.121   1.038  46.620  1.00  0.00     0.067 C 
ATOM      7  C   UNL     1      59.645   1.785  45.355  1.00  0.00     0.021 C 
ATOM      8  C   UNL     1      58.441   2.264  46.197  1.00  0.00     0.022 C 
ATOM      9  C   UNL     1      58.640   1.007  47.092  1.00  0.00    -0.019 C 
ATOM     10  C   UNL     1      57.875  -0.229  46.551  1.00  0.00     0.012 C 
ATOM     11  C   UNL     1      58.346   1.135  48.613  1.00  0.00     0.012 C 
ENDROOT
TORSDOF 0
ENDMDL
MODEL 2
REMARK VINA RESULT:    -3.425     14.811     16.213
REMARK INTER + INTRA:          -3.425
REMARK INTER:                  -3.425
REMARK INTRA:                   0.000
REMARK UNBOUND:                 0.000
REMARK SMILES CC1=CC(=O)[C@@H]2C[C@H]1C2(C)C
REMARK SMILES IDX 1 1 2 2 3 3 4 4 5 5 6 6 7 7 8 8 9 9 10 10 11 11
REMARK H PARENT
REMARK Flexibility Score: inf
ROOT
ATOM      1  C   UNL     1      60.428   3.067  31.720  1.00  0.00     0.040 C 
ATOM      2  C   UNL     1      60.582   4.554  31.780  1.00  0.00    -0.066 C 
ATOM      3  C   UNL     1      61.690   5.173  31.284  1.00  0.00     0.047 C 
ATOM      4  C   UNL     1      61.712   6.668  31.375  1.00  0.00     0.159 C 
ATOM      5  O   UNL     1      62.661   7.356  30.918  1.00  0.00    -0.295 OA
ATOM      6  C   UNL     1      60.498   7.300  32.060  1.00  0.00     0.067 C 
ATOM      7  C   UNL     1      60.287   6.437  33.323  1.00  0.00     0.021 C 
ATOM      8  C   UNL     1      59.506   5.458  32.418  1.00  0.00     0.022 C 
ATOM      9  C   UNL     1      59.209   6.658  31.472  1.00  0.00    -0.019 C 
ATOM     10  C   UNL     1      57.928   7.429  31.882  1.00  0.00     0.012 C 
ATOM     11  C   UNL     1      59.149   6.390  29.942  1.00  0.00     0.012 C 
ENDROOT
TORSDOF 0
ENDMDL
MODEL 3
REMARK VINA RESULT:    -3.397     14.968     16.193
REMARK INTER + INTRA:          -3.397
REMARK INTER:                  -3.397
REMARK INTRA:                   0.000
REMARK UNBOUND:                 0.000
REMARK SMILES CC1=CC(=O)[C@@H]2C[C@H]1C2(C)C
REMARK SMILES IDX 1 1 2 2 3 3 4 4 5 5 6 6 7 7 8 8 9 9 10 10 11 11
REMARK H PARENT
REMARK Flexibility Score: inf
ROOT
ATOM      1  C   UNL     1      62.593   7.745  30.991  1.00  0.00     0.040 C 
ATOM      2  C   UNL     1      61.400   7.011  31.515  1.00  0.00    -0.066 C 
ATOM      3  C   UNL     1      60.513   7.611  32.358  1.00  0.00     0.047 C 
ATOM      4  C   UNL     1      59.342   6.782  32.789  1.00  0.00     0.159 C 
ATOM      5  O   UNL     1      58.435   7.235  33.534  1.00  0.00    -0.295 OA
ATOM      6  C   UNL     1      59.326   5.347  32.259  1.00  0.00     0.067 C 
ATOM      7  C   UNL     1      60.769   4.847  32.481  1.00  0.00     0.021 C 
ATOM      8  C   UNL     1      61.123   5.539  31.145  1.00  0.00     0.022 C 
ATOM      9  C   UNL     1      59.630   5.380  30.735  1.00  0.00    -0.019 C 
ATOM     10  C   UNL     1      59.349   4.018  30.048  1.00  0.00     0.012 C 
ATOM     11  C   UNL     1      58.981   6.502  29.875  1.00  0.00     0.012 C 
ENDROOT
TORSDOF 0
ENDMDL
MODEL 4
REMARK VINA RESULT:    -3.348     14.421     15.969
REMARK INTER + INTRA:          -3.348
REMARK INTER:                  -3.348
REMARK INTRA:                   0.000
REMARK UNBOUND:                 0.000
REMARK SMILES CC1=CC(=O)[C@@H]2C[C@H]1C2(C)C
REMARK SMILES IDX 1 1 2 2 3 3 4 4 5 5 6 6 7 7 8 8 9 9 10 10 11 11
REMARK H PARENT
REMARK Flexibility Score: inf
ROOT
ATOM      1  C   UNL     1      59.333   4.485  29.948  1.00  0.00     0.040 C 
ATOM      2  C   UNL     1      59.981   5.181  31.103  1.00  0.00    -0.066 C 
ATOM      3  C   UNL     1      60.132   4.563  32.309  1.00  0.00     0.047 C 
ATOM      4  C   UNL     1      60.824   5.354  33.377  1.00  0.00     0.159 C 
ATOM      5  O   UNL     1      61.057   4.880  34.519  1.00  0.00    -0.295 OA
ATOM      6  C   UNL     1      61.228   6.775  32.981  1.00  0.00     0.067 C 
ATOM      7  C   UNL     1      59.979   7.338  32.270  1.00  0.00     0.021 C 
ATOM      8  C   UNL     1      60.493   6.632  30.995  1.00  0.00     0.022 C 
ATOM      9  C   UNL     1      61.927   6.722  31.594  1.00  0.00    -0.019 C 
ATOM     10  C   UNL     1      62.633   8.056  31.238  1.00  0.00     0.012 C 
ATOM     11  C   UNL     1      62.916   5.557  31.308  1.00  0.00     0.012 C 
ENDROOT
TORSDOF 0
ENDMDL
MODEL 5
REMARK VINA RESULT:    -3.341     17.418     18.956
REMARK INTER + INTRA:          -3.341
REMARK INTER:                  -3.341
REMARK INTRA:                   0.000
REMARK UNBOUND:                 0.000
REMARK SMILES CC1=CC(=O)[C@@H]2C[C@H]1C2(C)C
REMARK SMILES IDX 1 1 2 2 3 3 4 4 5 5 6 6 7 7 8 8 9 9 10 10 11 11
REMARK H PARENT
REMARK Flexibility Score: inf
ROOT
ATOM      1  C   UNL     1      77.215  11.475  49.846  1.00  0.00     0.040 C 
ATOM      2  C   UNL     1      76.642  10.848  48.616  1.00  0.00    -0.066 C 
ATOM      3  C   UNL     1      75.686   9.880  48.692  1.00  0.00     0.047 C 
ATOM      4  C   UNL     1      75.170   9.352  47.388  1.00  0.00     0.159 C 
ATOM      5  O   UNL     1      74.260   8.485  47.326  1.00  0.00    -0.295 OA
ATOM      6  C   UNL     1      75.825   9.943  46.138  1.00  0.00     0.067 C 
ATOM      7  C   UNL     1      77.335   9.916  46.455  1.00  0.00     0.021 C 
ATOM      8  C   UNL     1      77.114  11.250  47.203  1.00  0.00     0.022 C 
ATOM      9  C   UNL     1      75.876  11.489  46.290  1.00  0.00    -0.019 C 
ATOM     10  C   UNL     1      76.249  12.200  44.964  1.00  0.00     0.012 C 
ATOM     11  C   UNL     1      74.643  12.213  46.901  1.00  0.00     0.012 C 
ENDROOT
TORSDOF 0
ENDMDL
MODEL 6
REMARK VINA RESULT:    -3.329     17.705     19.216
REMARK INTER + INTRA:          -3.329
REMARK INTER:                  -3.329
REMARK INTRA:                   0.000
REMARK UNBOUND:                 0.000
REMARK SMILES CC1=CC(=O)[C@@H]2C[C@H]1C2(C)C
REMARK SMILES IDX 1 1 2 2 3 3 4 4 5 5 6 6 7 7 8 8 9 9 10 10 11 11
REMARK H PARENT
REMARK Flexibility Score: inf
ROOT
ATOM      1  C   UNL     1      76.251  12.587  45.248  1.00  0.00     0.040 C 
ATOM      2  C   UNL     1      76.256  11.402  46.160  1.00  0.00    -0.066 C 
ATOM      3  C   UNL     1      76.807  10.216  45.779  1.00  0.00     0.047 C 
ATOM      4  C   UNL     1      76.778   9.114  46.794  1.00  0.00     0.159 C 
ATOM      5  O   UNL     1      77.289   7.985  46.575  1.00  0.00    -0.295 OA
ATOM      6  C   UNL     1      76.085   9.458  48.114  1.00  0.00     0.067 C 
ATOM      7  C   UNL     1      74.783  10.166  47.683  1.00  0.00     0.021 C 
ATOM      8  C   UNL     1      75.625  11.457  47.568  1.00  0.00     0.022 C 
ATOM      9  C   UNL     1      76.609  10.838  48.602  1.00  0.00    -0.019 C 
ATOM     10  C   UNL     1      76.195  11.141  50.065  1.00  0.00     0.012 C 
ATOM     11  C   UNL     1      78.125  11.149  48.450  1.00  0.00     0.012 C 
ENDROOT
TORSDOF 0
ENDMDL
MODEL 7
REMARK VINA RESULT:    -3.302     14.608     16.007
REMARK INTER + INTRA:          -3.302
REMARK INTER:                  -3.302
REMARK INTRA:                   0.000
REMARK UNBOUND:                 0.000
REMARK SMILES CC1=CC(=O)[C@@H]2C[C@H]1C2(C)C
REMARK SMILES IDX 1 1 2 2 3 3 4 4 5 5 6 6 7 7 8 8 9 9 10 10 11 11
REMARK H PARENT
REMARK Flexibility Score: inf
ROOT
ATOM      1  C   UNL     1      60.157   7.681  34.505  1.00  0.00     0.040 C 
ATOM      2  C   UNL     1      60.262   6.916  33.225  1.00  0.00    -0.066 C 
ATOM      3  C   UNL     1      59.424   7.165  32.179  1.00  0.00     0.047 C 
ATOM      4  C   UNL     1      59.650   6.353  30.940  1.00  0.00     0.159 C 
ATOM      5  O   UNL     1      58.968   6.517  29.895  1.00  0.00    -0.295 OA
ATOM      6  C   UNL     1      60.769   5.314  31.033  1.00  0.00     0.067 C 
ATOM      7  C   UNL     1      60.530   4.624  32.393  1.00  0.00     0.021 C 
ATOM      8  C   UNL     1      61.308   5.799  33.028  1.00  0.00     0.022 C 
ATOM      9  C   UNL     1      62.022   5.991  31.658  1.00  0.00    -0.019 C 
ATOM     10  C   UNL     1      63.293   5.113  31.527  1.00  0.00     0.012 C 
ATOM     11  C   UNL     1      62.380   7.437  31.214  1.00  0.00     0.012 C 
ENDROOT
TORSDOF 0
ENDMDL
MODEL 8
REMARK VINA RESULT:    -3.283     14.759     16.187
REMARK INTER + INTRA:          -3.283
REMARK INTER:                  -3.283
REMARK INTRA:                   0.000
REMARK UNBOUND:                 0.000
REMARK SMILES CC1=CC(=O)[C@@H]2C[C@H]1C2(C)C
REMARK SMILES IDX 1 1 2 2 3 3 4 4 5 5 6 6 7 7 8 8 9 9 10 10 11 11
REMARK H PARENT
REMARK Flexibility Score: inf
ROOT
ATOM      1  C   UNL     1      62.739   5.837  31.380  1.00  0.00     0.040 C 
ATOM      2  C   UNL     1      61.269   5.578  31.293  1.00  0.00    -0.066 C 
ATOM      3  C   UNL     1      60.769   4.311  31.327  1.00  0.00     0.047 C 
ATOM      4  C   UNL     1      59.277   4.184  31.263  1.00  0.00     0.159 C 
ATOM      5  O   UNL     1      58.693   3.071  31.325  1.00  0.00    -0.295 OA
ATOM      6  C   UNL     1      58.514   5.503  31.119  1.00  0.00     0.067 C 
ATOM      7  C   UNL     1      59.287   6.268  30.024  1.00  0.00     0.021 C 
ATOM      8  C   UNL     1      60.249   6.726  31.144  1.00  0.00     0.022 C 
ATOM      9  C   UNL     1      59.081   6.517  32.152  1.00  0.00    -0.019 C 
ATOM     10  C   UNL     1      58.189   7.777  32.291  1.00  0.00     0.012 C 
ATOM     11  C   UNL     1      59.426   6.005  33.579  1.00  0.00     0.012 C 
ENDROOT
TORSDOF 0
ENDMDL
MODEL 9
REMARK VINA RESULT:    -3.220     14.439     15.652
REMARK INTER + INTRA:          -3.220
REMARK INTER:                  -3.220
REMARK INTRA:                   0.000
REMARK UNBOUND:                 0.000
REMARK SMILES CC1=CC(=O)[C@@H]2C[C@H]1C2(C)C
REMARK SMILES IDX 1 1 2 2 3 3 4 4 5 5 6 6 7 7 8 8 9 9 10 10 11 11
REMARK H PARENT
REMARK Flexibility Score: inf
ROOT
ATOM      1  C   UNL     1      58.396   6.650  30.792  1.00  0.00     0.040 C 
ATOM      2  C   UNL     1      59.615   6.864  31.633  1.00  0.00    -0.066 C 
ATOM      3  C   UNL     1      59.521   7.301  32.920  1.00  0.00     0.047 C 
ATOM      4  C   UNL     1      60.811   7.447  33.667  1.00  0.00     0.159 C 
ATOM      5  O   UNL     1      60.853   7.804  34.873  1.00  0.00    -0.295 OA
ATOM      6  C   UNL     1      62.073   7.129  32.862  1.00  0.00     0.067 C 
ATOM      7  C   UNL     1      61.855   7.855  31.518  1.00  0.00     0.021 C 
ATOM      8  C   UNL     1      61.035   6.620  31.082  1.00  0.00     0.022 C 
ATOM      9  C   UNL     1      61.854   5.786  32.110  1.00  0.00    -0.019 C 
ATOM     10  C   UNL     1      63.168   5.229  31.505  1.00  0.00     0.012 C 
ATOM     11  C   UNL     1      61.133   4.629  32.857  1.00  0.00     0.012 C 
ENDROOT
TORSDOF 0
ENDMDL
