MODEL 1
REMARK VINA RESULT:    -4.038      0.000      0.000
REMARK INTER + INTRA:          -6.091
REMARK INTER:                  -5.690
REMARK INTRA:                  -0.401
REMARK UNBOUND:                -0.401
REMARK SMILES CC1=CCC(=C(C)C)C(=O)CC(C)=CCC1
REMARK SMILES IDX 12 1 14 2 13 3 15 4 16 5 2 6 1 7 3 8 11 10 9 11 10 12 5 13
REMARK SMILES IDX 6 14 7 15 8 16 4 17
REMARK H PARENT
REMARK Flexibility Score: 60.00
ROOT
ATOM      1  C   UNL     1       9.547 -17.496  21.836  1.00  0.00    -0.070 C 
ATOM      2  C   UNL     1       8.434 -17.124  21.147  1.00  0.00    -0.027 C 
ATOM      3  C   UNL     1      10.501 -16.386  22.217  1.00  0.00     0.039 C 
ENDROOT
BRANCH   2   4
ATOM      4  C   UNL     1       7.478 -17.989  20.354  1.00  0.00     0.032 C 
BRANCH   4   5
ATOM      5  C   UNL     1       7.840 -18.317  18.894  1.00  0.00     0.034 C 
BRANCH   5   6
ATOM      6  C   UNL     1       9.062 -17.633  18.303  1.00  0.00    -0.077 C 
ATOM      7  C   UNL     1       8.899 -16.248  17.722  1.00  0.00     0.039 C 
ATOM      8  C   UNL     1      10.312 -18.156  18.337  1.00  0.00    -0.023 CG0
ATOM      9  G   UNL     1      10.679 -19.521  18.861  1.00  0.00     0.000 G0
ENDBRANCH   5   6
ENDBRANCH   4   5
ENDBRANCH   2   4
BRANCH   1  10
ATOM     10  C   UNL     1       9.823 -18.883  22.403  1.00  0.00     0.111 C 
BRANCH  10  11
ATOM     11  C   UNL     1      10.382 -19.907  21.439  1.00  0.00     0.163 C 
ATOM     12  O   UNL     1      10.059 -21.113  21.617  1.00  0.00    -0.294 OA
BRANCH  11  13
ATOM     13  C   UNL     1      11.262 -19.582  20.279  1.00  0.00    -0.002 C 
ATOM     14  C   UNL     1      12.607 -19.448  20.479  1.00  0.00    -0.069 C 
ATOM     15  C   UNL     1      13.561 -19.249  19.324  1.00  0.00     0.039 C 
ATOM     16  C   UNL     1      13.196 -19.439  21.874  1.00  0.00     0.039 C 
BRANCH  13  17
ATOM     17  C   UNL     1      10.701 -19.531  18.855  1.00  0.00     0.066 CG0
ATOM     18  G   UNL     1      10.333 -18.159  18.354  1.00  0.00     0.000 G0
ENDBRANCH  13  17
ENDBRANCH  11  13
ENDBRANCH  10  11
ENDBRANCH   1  10
TORSDOF 0
ENDMDL
MODEL 2
REMARK VINA RESULT:    -3.924      1.908      4.208
REMARK INTER + INTRA:          -5.931
REMARK INTER:                  -5.541
REMARK INTRA:                  -0.390
REMARK UNBOUND:                -0.401
REMARK SMILES CC1=CCC(=C(C)C)C(=O)CC(C)=CCC1
REMARK SMILES IDX 12 1 14 2 13 3 15 4 16 5 2 6 1 7 3 8 11 10 9 11 10 12 5 13
REMARK SMILES IDX 6 14 7 15 8 16 4 17
REMARK H PARENT
REMARK Flexibility Score: 60.00
ROOT
ATOM      1  C   UNL     1      10.027 -19.170  21.689  1.00  0.00    -0.070 C 
ATOM      2  C   UNL     1      11.360 -18.985  21.894  1.00  0.00    -0.027 C 
ATOM      3  C   UNL     1       9.608 -20.544  21.216  1.00  0.00     0.039 C 
ENDROOT
BRANCH   2   4
ATOM      4  C   UNL     1      12.123 -17.685  22.042  1.00  0.00     0.032 C 
BRANCH   4   5
ATOM      5  C   UNL     1      12.408 -16.865  20.771  1.00  0.00     0.034 C 
BRANCH   5   6
ATOM      6  C   UNL     1      12.263 -17.570  19.433  1.00  0.00    -0.077 C 
ATOM      7  C   UNL     1      13.346 -18.535  19.010  1.00  0.00     0.039 C 
ATOM      8  C   UNL     1      11.180 -17.450  18.627  1.00  0.00    -0.023 CG0
ATOM      9  G   UNL     1      10.007 -16.534  18.865  1.00  0.00     0.000 G0
ENDBRANCH   5   6
ENDBRANCH   4   5
ENDBRANCH   2   4
BRANCH   1  10
ATOM     10  C   UNL     1       8.922 -18.188  22.059  1.00  0.00     0.111 C 
BRANCH  10  11
ATOM     11  C   UNL     1       8.695 -17.037  21.104  1.00  0.00     0.163 C 
ATOM     12  O   UNL     1       8.418 -15.912  21.601  1.00  0.00    -0.294 OA
BRANCH  11  13
ATOM     13  C   UNL     1       8.806 -17.138  19.619  1.00  0.00    -0.002 C 
ATOM     14  C   UNL     1       7.772 -17.680  18.909  1.00  0.00    -0.069 C 
ATOM     15  C   UNL     1       7.772 -17.689  17.397  1.00  0.00     0.039 C 
ATOM     16  C   UNL     1       6.604 -18.344  19.605  1.00  0.00     0.039 C 
BRANCH  13  17
ATOM     17  C   UNL     1       9.995 -16.524  18.874  1.00  0.00     0.066 CG0
ATOM     18  G   UNL     1      11.165 -17.446  18.652  1.00  0.00     0.000 G0
ENDBRANCH  13  17
ENDBRANCH  11  13
ENDBRANCH  10  11
ENDBRANCH   1  10
TORSDOF 0
ENDMDL
MODEL 3
REMARK VINA RESULT:    -3.922      1.868      4.370
REMARK INTER + INTRA:          -5.928
REMARK INTER:                  -5.561
REMARK INTRA:                  -0.368
REMARK UNBOUND:                -0.401
REMARK SMILES CC1=CCC(=C(C)C)C(=O)CC(C)=CCC1
REMARK SMILES IDX 12 1 14 2 13 3 15 4 16 5 2 6 1 7 3 8 11 10 9 11 10 12 5 13
REMARK SMILES IDX 6 14 7 15 8 16 4 17
REMARK H PARENT
REMARK Flexibility Score: 60.00
ROOT
ATOM      1  C   UNL     1      11.227 -19.338  20.005  1.00  0.00    -0.070 C 
ATOM      2  C   UNL     1      11.279 -19.651  21.328  1.00  0.00    -0.027 C 
ATOM      3  C   UNL     1      12.449 -18.659  19.429  1.00  0.00     0.039 C 
ENDROOT
BRANCH   2   4
ATOM      4  C   UNL     1      10.143 -20.021  22.259  1.00  0.00     0.032 C 
BRANCH   4   5
ATOM      5  C   UNL     1       9.287 -18.883  22.844  1.00  0.00     0.034 C 
BRANCH   5   6
ATOM      6  C   UNL     1       9.804 -17.463  22.684  1.00  0.00    -0.077 C 
ATOM      7  C   UNL     1      10.855 -16.969  23.650  1.00  0.00     0.039 C 
ATOM      8  C   UNL     1       9.438 -16.633  21.676  1.00  0.00    -0.023 CG0
ATOM      9  G   UNL     1       8.401 -16.933  20.625  1.00  0.00     0.000 G0
ENDBRANCH   5   6
ENDBRANCH   4   5
ENDBRANCH   2   4
BRANCH   1  10
ATOM     10  C   UNL     1      10.138 -19.766  19.029  1.00  0.00     0.111 C 
BRANCH  10  11
ATOM     11  C   UNL     1       8.946 -18.842  18.901  1.00  0.00     0.163 C 
ATOM     12  O   UNL     1       7.868 -19.337  18.474  1.00  0.00    -0.294 OA
BRANCH  11  13
ATOM     13  C   UNL     1       8.954 -17.397  19.273  1.00  0.00    -0.002 C 
ATOM     14  C   UNL     1       9.362 -16.474  18.352  1.00  0.00    -0.069 C 
ATOM     15  C   UNL     1       9.268 -14.991  18.627  1.00  0.00     0.039 C 
ATOM     16  C   UNL     1       9.976 -16.897  17.035  1.00  0.00     0.039 C 
BRANCH  13  17
ATOM     17  C   UNL     1       8.388 -16.927  20.616  1.00  0.00     0.066 CG0
ATOM     18  G   UNL     1       9.413 -16.608  21.674  1.00  0.00     0.000 G0
ENDBRANCH  13  17
ENDBRANCH  11  13
ENDBRANCH  10  11
ENDBRANCH   1  10
TORSDOF 0
ENDMDL
MODEL 4
REMARK VINA RESULT:    -3.813      9.606     11.590
REMARK INTER + INTRA:          -5.775
REMARK INTER:                  -5.692
REMARK INTRA:                  -0.083
REMARK UNBOUND:                -0.401
REMARK SMILES CC1=CCC(=C(C)C)C(=O)CC(C)=CCC1
REMARK SMILES IDX 12 1 14 2 13 3 15 4 16 5 2 6 1 7 3 8 11 10 9 11 10 12 5 13
REMARK SMILES IDX 6 14 7 15 8 16 4 17
REMARK H PARENT
REMARK Flexibility Score: 60.00
ROOT
ATOM      1  C   UNL     1       4.557 -25.251  24.054  1.00  0.00    -0.070 C 
ATOM      2  C   UNL     1       5.451 -24.692  24.914  1.00  0.00    -0.027 C 
ATOM      3  C   UNL     1       4.830 -25.051  22.580  1.00  0.00     0.039 C 
ENDROOT
BRANCH   2   4
ATOM      4  C   UNL     1       5.302 -24.429  26.397  1.00  0.00     0.032 C 
BRANCH   4   5
ATOM      5  C   UNL     1       4.604 -23.129  26.835  1.00  0.00     0.034 C 
BRANCH   5   6
ATOM      6  C   UNL     1       3.197 -23.244  27.400  1.00  0.00    -0.077 C 
ATOM      7  C   UNL     1       3.035 -23.414  28.892  1.00  0.00     0.039 C 
ATOM      8  C   UNL     1       2.070 -23.122  26.656  1.00  0.00    -0.023 CG0
ATOM      9  G   UNL     1       2.020 -22.961  25.159  1.00  0.00     0.000 G0
ENDBRANCH   5   6
ENDBRANCH   4   5
ENDBRANCH   2   4
BRANCH   1  10
ATOM     10  C   UNL     1       3.423 -26.195  24.435  1.00  0.00     0.111 C 
BRANCH  10  11
ATOM     11  C   UNL     1       2.110 -25.550  24.823  1.00  0.00     0.163 C 
ATOM     12  O   UNL     1       1.356 -26.188  25.606  1.00  0.00    -0.294 OA
BRANCH  11  13
ATOM     13  C   UNL     1       1.664 -24.201  24.366  1.00  0.00    -0.002 C 
ATOM     14  C   UNL     1       0.835 -24.105  23.285  1.00  0.00    -0.069 C 
ATOM     15  C   UNL     1       0.248 -22.779  22.856  1.00  0.00     0.039 C 
ATOM     16  C   UNL     1       0.510 -25.314  22.434  1.00  0.00     0.039 C 
BRANCH  13  17
ATOM     17  C   UNL     1       2.011 -22.944  25.168  1.00  0.00     0.066 CG0
ATOM     18  G   UNL     1       2.051 -23.121  26.664  1.00  0.00     0.000 G0
ENDBRANCH  13  17
ENDBRANCH  11  13
ENDBRANCH  10  11
ENDBRANCH   1  10
TORSDOF 0
ENDMDL
MODEL 5
REMARK VINA RESULT:    -3.753      6.114      8.391
REMARK INTER + INTRA:          -5.690
REMARK INTER:                  -5.552
REMARK INTRA:                  -0.137
REMARK UNBOUND:                -0.401
REMARK SMILES CC1=CCC(=C(C)C)C(=O)CC(C)=CCC1
REMARK SMILES IDX 12 1 14 2 13 3 15 4 16 5 2 6 1 7 3 8 11 10 9 11 10 12 5 13
REMARK SMILES IDX 6 14 7 15 8 16 4 17
REMARK H PARENT
REMARK Flexibility Score: 60.00
ROOT
ATOM      1  C   UNL     1       8.301 -15.593  22.635  1.00  0.00    -0.070 C 
ATOM      2  C   UNL     1       7.270 -16.345  23.107  1.00  0.00    -0.027 C 
ATOM      3  C   UNL     1       8.941 -16.065  21.349  1.00  0.00     0.039 C 
ENDROOT
BRANCH   2   4
ATOM      4  C   UNL     1       6.649 -16.342  24.488  1.00  0.00     0.032 C 
BRANCH   4   5
ATOM      5  C   UNL     1       5.712 -15.178  24.857  1.00  0.00     0.034 C 
BRANCH   5   6
ATOM      6  C   UNL     1       6.137 -14.270  26.000  1.00  0.00    -0.077 C 
ATOM      7  C   UNL     1       6.360 -14.887  27.361  1.00  0.00     0.039 C 
ATOM      8  C   UNL     1       6.409 -12.949  25.857  1.00  0.00    -0.023 CG0
ATOM      9  G   UNL     1       6.239 -12.151  24.591  1.00  0.00     0.000 G0
ENDBRANCH   5   6
ENDBRANCH   4   5
ENDBRANCH   2   4
BRANCH   1  10
ATOM     10  C   UNL     1       8.742 -14.241  23.183  1.00  0.00     0.111 C 
BRANCH  10  11
ATOM     11  C   UNL     1       7.912 -13.044  22.774  1.00  0.00     0.163 C 
ATOM     12  O   UNL     1       7.548 -12.971  21.569  1.00  0.00    -0.294 OA
BRANCH  11  13
ATOM     13  C   UNL     1       7.474 -11.963  23.704  1.00  0.00    -0.002 C 
ATOM     14  C   UNL     1       8.124 -10.762  23.684  1.00  0.00    -0.069 C 
ATOM     15  C   UNL     1       7.643  -9.590  24.508  1.00  0.00     0.039 C 
ATOM     16  C   UNL     1       9.388 -10.566  22.875  1.00  0.00     0.039 C 
BRANCH  13  17
ATOM     17  C   UNL     1       6.228 -12.134  24.579  1.00  0.00     0.066 CG0
ATOM     18  G   UNL     1       6.425 -12.947  25.832  1.00  0.00     0.000 G0
ENDBRANCH  13  17
ENDBRANCH  11  13
ENDBRANCH  10  11
ENDBRANCH   1  10
TORSDOF 0
ENDMDL
MODEL 6
REMARK VINA RESULT:    -3.720      6.909      8.968
REMARK INTER + INTRA:          -5.644
REMARK INTER:                  -5.631
REMARK INTRA:                  -0.013
REMARK UNBOUND:                -0.401
REMARK SMILES CC1=CCC(=C(C)C)C(=O)CC(C)=CCC1
REMARK SMILES IDX 12 1 14 2 13 3 15 4 16 5 2 6 1 7 3 8 11 10 9 11 10 12 5 13
REMARK SMILES IDX 6 14 7 15 8 16 4 17
REMARK H PARENT
REMARK Flexibility Score: 60.00
ROOT
ATOM      1  C   UNL     1       6.500 -16.469  25.070  1.00  0.00    -0.070 C 
ATOM      2  C   UNL     1       6.205 -17.203  26.177  1.00  0.00    -0.027 C 
ATOM      3  C   UNL     1       7.606 -17.005  24.188  1.00  0.00     0.039 C 
ENDROOT
BRANCH   2   4
ATOM      4  C   UNL     1       5.411 -16.794  27.400  1.00  0.00     0.032 C 
BRANCH   4   5
ATOM      5  C   UNL     1       6.102 -15.899  28.445  1.00  0.00     0.034 C 
BRANCH   5   6
ATOM      6  C   UNL     1       5.808 -14.409  28.398  1.00  0.00    -0.077 C 
ATOM      7  C   UNL     1       4.617 -13.889  29.168  1.00  0.00     0.039 C 
ATOM      8  C   UNL     1       6.596 -13.500  27.772  1.00  0.00    -0.023 CG0
ATOM      9  G   UNL     1       7.815 -13.818  26.946  1.00  0.00     0.000 G0
ENDBRANCH   5   6
ENDBRANCH   4   5
ENDBRANCH   2   4
BRANCH   1  10
ATOM     10  C   UNL     1       5.710 -15.273  24.554  1.00  0.00     0.111 C 
BRANCH  10  11
ATOM     11  C   UNL     1       6.337 -13.911  24.762  1.00  0.00     0.163 C 
ATOM     12  O   UNL     1       5.685 -12.904  24.374  1.00  0.00    -0.294 OA
BRANCH  11  13
ATOM     13  C   UNL     1       7.657 -13.680  25.418  1.00  0.00    -0.002 C 
ATOM     14  C   UNL     1       8.702 -13.219  24.669  1.00  0.00    -0.069 C 
ATOM     15  C   UNL     1      10.022 -12.844  25.302  1.00  0.00     0.039 C 
ATOM     16  C   UNL     1       8.602 -13.113  23.162  1.00  0.00     0.039 C 
BRANCH  13  17
ATOM     17  C   UNL     1       7.818 -13.823  26.934  1.00  0.00     0.066 CG0
ATOM     18  G   UNL     1       6.596 -13.486  27.748  1.00  0.00     0.000 G0
ENDBRANCH  13  17
ENDBRANCH  11  13
ENDBRANCH  10  11
ENDBRANCH   1  10
TORSDOF 0
ENDMDL
MODEL 7
REMARK VINA RESULT:    -3.712      5.058      7.161
REMARK INTER + INTRA:          -5.632
REMARK INTER:                  -5.332
REMARK INTRA:                  -0.300
REMARK UNBOUND:                -0.401
REMARK SMILES CC1=CCC(=C(C)C)C(=O)CC(C)=CCC1
REMARK SMILES IDX 12 1 14 2 13 3 15 4 16 5 2 6 1 7 3 8 11 10 9 11 10 12 5 13
REMARK SMILES IDX 6 14 7 15 8 16 4 17
REMARK H PARENT
REMARK Flexibility Score: 60.00
ROOT
ATOM      1  C   UNL     1       8.836 -13.593  24.023  1.00  0.00    -0.070 C 
ATOM      2  C   UNL     1       9.412 -14.172  22.935  1.00  0.00    -0.027 C 
ATOM      3  C   UNL     1       9.755 -13.291  25.186  1.00  0.00     0.039 C 
ENDROOT
BRANCH   2   4
ATOM      4  C   UNL     1       8.745 -14.882  21.775  1.00  0.00     0.032 C 
BRANCH   4   5
ATOM      5  C   UNL     1       8.014 -16.206  22.062  1.00  0.00     0.034 C 
BRANCH   5   6
ATOM      6  C   UNL     1       8.527 -17.056  23.213  1.00  0.00    -0.077 C 
ATOM      7  C   UNL     1       9.896 -17.682  23.088  1.00  0.00     0.039 C 
ATOM      8  C   UNL     1       7.864 -17.224  24.384  1.00  0.00    -0.023 CG0
ATOM      9  G   UNL     1       6.489 -16.695  24.697  1.00  0.00     0.000 G0
ENDBRANCH   5   6
ENDBRANCH   4   5
ENDBRANCH   2   4
BRANCH   1  10
ATOM     10  C   UNL     1       7.407 -13.068  24.104  1.00  0.00     0.111 C 
BRANCH  10  11
ATOM     11  C   UNL     1       6.320 -14.100  24.308  1.00  0.00     0.163 C 
ATOM     12  O   UNL     1       5.267 -13.981  23.625  1.00  0.00    -0.294 OA
BRANCH  11  13
ATOM     13  C   UNL     1       6.423 -15.262  25.239  1.00  0.00    -0.002 C 
ATOM     14  C   UNL     1       6.349 -15.045  26.586  1.00  0.00    -0.069 C 
ATOM     15  C   UNL     1       6.315 -16.192  27.569  1.00  0.00     0.039 C 
ATOM     16  C   UNL     1       6.350 -13.643  27.157  1.00  0.00     0.039 C 
BRANCH  13  17
ATOM     17  C   UNL     1       6.474 -16.696  24.706  1.00  0.00     0.066 CG0
ATOM     18  G   UNL     1       7.851 -17.220  24.391  1.00  0.00     0.000 G0
ENDBRANCH  13  17
ENDBRANCH  11  13
ENDBRANCH  10  11
ENDBRANCH   1  10
TORSDOF 0
ENDMDL
MODEL 8
REMARK VINA RESULT:    -3.625      1.517      2.424
REMARK INTER + INTRA:          -5.509
REMARK INTER:                  -5.160
REMARK INTRA:                  -0.349
REMARK UNBOUND:                -0.401
REMARK SMILES CC1=CCC(=C(C)C)C(=O)CC(C)=CCC1
REMARK SMILES IDX 12 1 14 2 13 3 15 4 16 5 2 6 1 7 3 8 11 10 9 11 10 12 5 13
REMARK SMILES IDX 6 14 7 15 8 16 4 17
REMARK H PARENT
REMARK Flexibility Score: 60.00
ROOT
ATOM      1  C   UNL     1       8.836 -16.475  20.599  1.00  0.00    -0.070 C 
ATOM      2  C   UNL     1       9.066 -15.674  19.523  1.00  0.00    -0.027 C 
ATOM      3  C   UNL     1       9.359 -15.976  21.928  1.00  0.00     0.039 C 
ENDROOT
BRANCH   2   4
ATOM      4  C   UNL     1       8.973 -16.017  18.051  1.00  0.00     0.032 C 
BRANCH   4   5
ATOM      5  C   UNL     1       9.937 -17.080  17.494  1.00  0.00     0.034 C 
BRANCH   5   6
ATOM      6  C   UNL     1      11.335 -17.140  18.086  1.00  0.00    -0.077 C 
ATOM      7  C   UNL     1      12.255 -15.961  17.874  1.00  0.00     0.039 C 
ATOM      8  C   UNL     1      11.785 -18.155  18.865  1.00  0.00    -0.023 CG0
ATOM      9  G   UNL     1      11.029 -19.418  19.183  1.00  0.00     0.000 G0
ENDBRANCH   5   6
ENDBRANCH   4   5
ENDBRANCH   2   4
BRANCH   1  10
ATOM     10  C   UNL     1       7.960 -17.721  20.614  1.00  0.00     0.111 C 
BRANCH  10  11
ATOM     11  C   UNL     1       8.619 -19.014  20.187  1.00  0.00     0.163 C 
ATOM     12  O   UNL     1       7.900 -19.871  19.605  1.00  0.00    -0.294 OA
BRANCH  11  13
ATOM     13  C   UNL     1      10.064 -19.330  20.383  1.00  0.00    -0.002 C 
ATOM     14  C   UNL     1      10.513 -19.653  21.632  1.00  0.00    -0.069 C 
ATOM     15  C   UNL     1      11.935 -20.108  21.867  1.00  0.00     0.039 C 
ATOM     16  C   UNL     1       9.619 -19.520  22.846  1.00  0.00     0.039 C 
BRANCH  13  17
ATOM     17  C   UNL     1      11.018 -19.427  19.188  1.00  0.00     0.066 CG0
ATOM     18  G   UNL     1      11.771 -18.165  18.857  1.00  0.00     0.000 G0
ENDBRANCH  13  17
ENDBRANCH  11  13
ENDBRANCH  10  11
ENDBRANCH   1  10
TORSDOF 0
ENDMDL
MODEL 9
REMARK VINA RESULT:    -3.563      4.139      5.856
REMARK INTER + INTRA:          -5.422
REMARK INTER:                  -5.285
REMARK INTRA:                  -0.137
REMARK UNBOUND:                -0.401
REMARK SMILES CC1=CCC(=C(C)C)C(=O)CC(C)=CCC1
REMARK SMILES IDX 12 1 14 2 13 3 15 4 16 5 2 6 1 7 3 8 11 10 9 11 10 12 5 13
REMARK SMILES IDX 6 14 7 15 8 16 4 17
REMARK H PARENT
REMARK Flexibility Score: 60.00
ROOT
ATOM      1  C   UNL     1       7.018 -14.599  24.558  1.00  0.00    -0.070 C 
ATOM      2  C   UNL     1       6.949 -15.899  24.163  1.00  0.00    -0.027 C 
ATOM      3  C   UNL     1       6.270 -14.243  25.823  1.00  0.00     0.039 C 
ENDROOT
BRANCH   2   4
ATOM      4  C   UNL     1       7.293 -16.500  22.817  1.00  0.00     0.032 C 
BRANCH   4   5
ATOM      5  C   UNL     1       8.743 -16.959  22.578  1.00  0.00     0.034 C 
BRANCH   5   6
ATOM      6  C   UNL     1       9.490 -16.344  21.406  1.00  0.00    -0.077 C 
ATOM      7  C   UNL     1       9.056 -16.712  20.007  1.00  0.00     0.039 C 
ATOM      8  C   UNL     1      10.474 -15.421  21.536  1.00  0.00    -0.023 CG0
ATOM      9  G   UNL     1      11.055 -14.934  22.838  1.00  0.00     0.000 G0
ENDBRANCH   5   6
ENDBRANCH   4   5
ENDBRANCH   2   4
BRANCH   1  10
ATOM     10  C   UNL     1       7.911 -13.527  23.946  1.00  0.00     0.111 C 
BRANCH  10  11
ATOM     11  C   UNL     1       9.373 -13.566  24.333  1.00  0.00     0.163 C 
ATOM     12  O   UNL     1       9.650 -13.599  25.563  1.00  0.00    -0.294 OA
BRANCH  11  13
ATOM     13  C   UNL     1      10.504 -13.597  23.360  1.00  0.00    -0.002 C 
ATOM     14  C   UNL     1      11.128 -12.429  23.026  1.00  0.00    -0.069 C 
ATOM     15  C   UNL     1      12.359 -12.415  22.149  1.00  0.00     0.039 C 
ATOM     16  C   UNL     1      10.584 -11.091  23.476  1.00  0.00     0.039 C 
BRANCH  13  17
ATOM     17  C   UNL     1      11.057 -14.927  22.839  1.00  0.00     0.066 CG0
ATOM     18  G   UNL     1      10.465 -15.409  21.540  1.00  0.00     0.000 G0
ENDBRANCH  13  17
ENDBRANCH  11  13
ENDBRANCH  10  11
ENDBRANCH   1  10
TORSDOF 0
ENDMDL
