MODEL 1
REMARK VINA RESULT:    -4.531      0.000      0.000
REMARK INTER + INTRA:         -10.181
REMARK INTER:                  -8.239
REMARK INTRA:                  -1.942
REMARK UNBOUND:                -1.942
REMARK SMILES CCCCCCCCCCCCCCCC(=O)[O-]
REMARK SMILES IDX 9 1 10 2 11 3 12 4 13 5 14 6 15 7 16 8 17 9 18 10 8 11 7 12
REMARK SMILES IDX 6 13 5 14 4 15 3 16 2 17 1 18
REMARK H PARENT
REMARK Flexibility Score: inf
ROOT
ATOM      1  C   UNL     1      13.472 -31.800  20.553  1.00  0.00     0.000 C 
ENDROOT
BRANCH   1   2
ATOM      2  C   UNL     1      14.438 -32.896  21.038  1.00  0.00     0.000 C 
BRANCH   2   3
ATOM      3  C   UNL     1      14.746 -34.006  20.010  1.00  0.00     0.000 C 
BRANCH   3   4
ATOM      4  C   UNL     1      16.233 -34.378  19.861  1.00  0.00     0.000 C 
BRANCH   4   5
ATOM      5  C   UNL     1      16.470 -35.892  19.778  1.00  0.00     0.000 C 
BRANCH   5   6
ATOM      6  C   UNL     1      17.602 -36.320  20.725  1.00  0.00     0.006 C 
BRANCH   6   7
ATOM      7  C   UNL     1      18.095 -35.164  21.604  1.00  0.00     0.053 C 
BRANCH   7   8
ATOM      8  C   UNL     1      17.682 -35.339  23.033  1.00  0.00     0.041 C 
ATOM      9  O   UNL     1      18.357 -36.074  23.802  1.00  0.00    -0.550 OA
ATOM     10  O   UNL     1      16.535 -34.718  23.506  1.00  0.00    -0.550 OA
ENDBRANCH   7   8
ENDBRANCH   6   7
ENDBRANCH   5   6
ENDBRANCH   4   5
ENDBRANCH   3   4
ENDBRANCH   2   3
ENDBRANCH   1   2
BRANCH   1  11
ATOM     11  C   UNL     1      12.811 -31.018  21.703  1.00  0.00     0.000 C 
BRANCH  11  12
ATOM     12  C   UNL     1      13.325 -31.489  23.074  1.00  0.00    -0.000 C 
BRANCH  12  13
ATOM     13  C   UNL     1      13.762 -30.307  23.954  1.00  0.00    -0.000 C 
BRANCH  13  14
ATOM     14  C   UNL     1      14.013 -29.044  23.118  1.00  0.00    -0.000 C 
BRANCH  14  15
ATOM     15  C   UNL     1      15.516 -28.707  23.010  1.00  0.00    -0.000 C 
BRANCH  15  16
ATOM     16  C   UNL     1      16.219 -29.375  21.814  1.00  0.00    -0.000 C 
BRANCH  16  17
ATOM     17  C   UNL     1      17.066 -30.592  22.212  1.00  0.00    -0.003 C 
ATOM     18  C   UNL     1      17.795 -31.179  21.007  1.00  0.00     0.004 C 
ENDBRANCH  16  17
ENDBRANCH  15  16
ENDBRANCH  14  15
ENDBRANCH  13  14
ENDBRANCH  12  13
ENDBRANCH  11  12
ENDBRANCH   1  11
TORSDOF 14
ENDMDL
MODEL 2
REMARK VINA RESULT:    -4.529      1.801      3.915
REMARK INTER + INTRA:         -10.177
REMARK INTER:                  -7.568
REMARK INTRA:                  -2.609
REMARK UNBOUND:                -1.942
REMARK SMILES CCCCCCCCCCCCCCCC(=O)[O-]
REMARK SMILES IDX 9 1 10 2 11 3 12 4 13 5 14 6 15 7 16 8 17 9 18 10 8 11 7 12
REMARK SMILES IDX 6 13 5 14 4 15 3 16 2 17 1 18
REMARK H PARENT
REMARK Flexibility Score: inf
ROOT
ATOM      1  C   UNL     1      16.413 -32.303  24.038  1.00  0.00     0.000 C 
ENDROOT
BRANCH   1   2
ATOM      2  C   UNL     1      17.720 -31.598  23.636  1.00  0.00     0.000 C 
BRANCH   2   3
ATOM      3  C   UNL     1      17.579 -30.521  22.538  1.00  0.00     0.000 C 
BRANCH   3   4
ATOM      4  C   UNL     1      17.842 -31.004  21.100  1.00  0.00     0.000 C 
BRANCH   4   5
ATOM      5  C   UNL     1      18.969 -32.042  21.010  1.00  0.00     0.000 C 
BRANCH   5   6
ATOM      6  C   UNL     1      18.513 -33.276  20.215  1.00  0.00     0.006 C 
BRANCH   6   7
ATOM      7  C   UNL     1      18.760 -34.584  20.975  1.00  0.00     0.053 C 
BRANCH   7   8
ATOM      8  C   UNL     1      17.842 -35.675  20.514  1.00  0.00     0.041 C 
ATOM      9  O   UNL     1      17.688 -36.711  21.212  1.00  0.00    -0.550 OA
ATOM     10  O   UNL     1      17.184 -35.560  19.297  1.00  0.00    -0.550 OA
ENDBRANCH   7   8
ENDBRANCH   6   7
ENDBRANCH   5   6
ENDBRANCH   4   5
ENDBRANCH   3   4
ENDBRANCH   2   3
ENDBRANCH   1   2
BRANCH   1  11
ATOM     11  C   UNL     1      16.260 -33.704  23.417  1.00  0.00     0.000 C 
BRANCH  11  12
ATOM     12  C   UNL     1      14.950 -33.826  22.620  1.00  0.00    -0.000 C 
BRANCH  12  13
ATOM     13  C   UNL     1      15.084 -33.225  21.212  1.00  0.00    -0.000 C 
BRANCH  13  14
ATOM     14  C   UNL     1      13.825 -32.442  20.811  1.00  0.00    -0.000 C 
BRANCH  14  15
ATOM     15  C   UNL     1      13.897 -30.963  21.246  1.00  0.00    -0.000 C 
BRANCH  15  16
ATOM     16  C   UNL     1      12.874 -30.582  22.332  1.00  0.00    -0.000 C 
BRANCH  16  17
ATOM     17  C   UNL     1      13.522 -30.021  23.605  1.00  0.00    -0.003 C 
ATOM     18  C   UNL     1      14.347 -28.773  23.304  1.00  0.00     0.004 C 
ENDBRANCH  16  17
ENDBRANCH  15  16
ENDBRANCH  14  15
ENDBRANCH  13  14
ENDBRANCH  12  13
ENDBRANCH  11  12
ENDBRANCH   1  11
TORSDOF 14
ENDMDL
MODEL 3
REMARK VINA RESULT:    -4.471      2.622      5.002
REMARK INTER + INTRA:         -10.073
REMARK INTER:                  -7.901
REMARK INTRA:                  -2.171
REMARK UNBOUND:                -1.942
REMARK SMILES CCCCCCCCCCCCCCCC(=O)[O-]
REMARK SMILES IDX 9 1 10 2 11 3 12 4 13 5 14 6 15 7 16 8 17 9 18 10 8 11 7 12
REMARK SMILES IDX 6 13 5 14 4 15 3 16 2 17 1 18
REMARK H PARENT
REMARK Flexibility Score: inf
ROOT
ATOM      1  C   UNL     1      16.758 -34.941  19.357  1.00  0.00     0.000 C 
ENDROOT
BRANCH   1   2
ATOM      2  C   UNL     1      17.983 -34.039  19.587  1.00  0.00     0.000 C 
BRANCH   2   3
ATOM      3  C   UNL     1      18.520 -34.012  21.035  1.00  0.00     0.000 C 
BRANCH   3   4
ATOM      4  C   UNL     1      18.510 -32.632  21.719  1.00  0.00     0.000 C 
BRANCH   4   5
ATOM      5  C   UNL     1      18.117 -31.492  20.769  1.00  0.00     0.000 C 
BRANCH   5   6
ATOM      6  C   UNL     1      17.193 -30.487  21.475  1.00  0.00     0.006 C 
BRANCH   6   7
ATOM      7  C   UNL     1      17.833 -29.894  22.737  1.00  0.00     0.053 C 
BRANCH   7   8
ATOM      8  C   UNL     1      19.033 -29.060  22.408  1.00  0.00     0.041 C 
ATOM      9  O   UNL     1      20.155 -29.338  22.908  1.00  0.00    -0.550 OA
ATOM     10  O   UNL     1      18.906 -27.956  21.576  1.00  0.00    -0.550 OA
ENDBRANCH   7   8
ENDBRANCH   6   7
ENDBRANCH   5   6
ENDBRANCH   4   5
ENDBRANCH   3   4
ENDBRANCH   2   3
ENDBRANCH   1   2
BRANCH   1  11
ATOM     11  C   UNL     1      15.681 -34.797  20.447  1.00  0.00     0.000 C 
BRANCH  11  12
ATOM     12  C   UNL     1      14.633 -33.737  20.069  1.00  0.00    -0.000 C 
BRANCH  12  13
ATOM     13  C   UNL     1      14.287 -32.829  21.260  1.00  0.00    -0.000 C 
BRANCH  13  14
ATOM     14  C   UNL     1      15.044 -33.251  22.529  1.00  0.00    -0.000 C 
BRANCH  14  15
ATOM     15  C   UNL     1      14.388 -32.692  23.810  1.00  0.00    -0.000 C 
BRANCH  15  16
ATOM     16  C   UNL     1      13.441 -31.503  23.558  1.00  0.00    -0.000 C 
BRANCH  16  17
ATOM     17  C   UNL     1      14.126 -30.139  23.720  1.00  0.00    -0.003 C 
ATOM     18  C   UNL     1      13.103 -29.024  23.916  1.00  0.00     0.004 C 
ENDBRANCH  16  17
ENDBRANCH  15  16
ENDBRANCH  14  15
ENDBRANCH  13  14
ENDBRANCH  12  13
ENDBRANCH  11  12
ENDBRANCH   1  11
TORSDOF 14
ENDMDL
MODEL 4
REMARK VINA RESULT:    -4.463      1.907      3.213
REMARK INTER + INTRA:         -10.058
REMARK INTER:                  -7.654
REMARK INTRA:                  -2.403
REMARK UNBOUND:                -1.942
REMARK SMILES CCCCCCCCCCCCCCCC(=O)[O-]
REMARK SMILES IDX 9 1 10 2 11 3 12 4 13 5 14 6 15 7 16 8 17 9 18 10 8 11 7 12
REMARK SMILES IDX 6 13 5 14 4 15 3 16 2 17 1 18
REMARK H PARENT
REMARK Flexibility Score: inf
ROOT
ATOM      1  C   UNL     1      16.898 -32.024  24.138  1.00  0.00     0.000 C 
ENDROOT
BRANCH   1   2
ATOM      2  C   UNL     1      17.836 -31.983  22.919  1.00  0.00     0.000 C 
BRANCH   2   3
ATOM      3  C   UNL     1      17.137 -31.803  21.554  1.00  0.00     0.000 C 
BRANCH   3   4
ATOM      4  C   UNL     1      17.040 -33.072  20.688  1.00  0.00     0.000 C 
BRANCH   4   5
ATOM      5  C   UNL     1      15.619 -33.649  20.622  1.00  0.00     0.000 C 
BRANCH   5   6
ATOM      6  C   UNL     1      15.657 -35.176  20.453  1.00  0.00     0.006 C 
BRANCH   6   7
ATOM      7  C   UNL     1      16.785 -35.631  19.518  1.00  0.00     0.053 C 
BRANCH   7   8
ATOM      8  C   UNL     1      17.603 -36.727  20.131  1.00  0.00     0.041 C 
ATOM      9  O   UNL     1      17.926 -37.734  19.447  1.00  0.00    -0.550 OA
ATOM     10  O   UNL     1      17.978 -36.651  21.465  1.00  0.00    -0.550 OA
ENDBRANCH   7   8
ENDBRANCH   6   7
ENDBRANCH   5   6
ENDBRANCH   4   5
ENDBRANCH   3   4
ENDBRANCH   2   3
ENDBRANCH   1   2
BRANCH   1  11
ATOM     11  C   UNL     1      16.216 -33.390  24.337  1.00  0.00     0.000 C 
BRANCH  11  12
ATOM     12  C   UNL     1      14.689 -33.286  24.180  1.00  0.00    -0.000 C 
BRANCH  12  13
ATOM     13  C   UNL     1      14.227 -31.824  24.075  1.00  0.00    -0.000 C 
BRANCH  13  14
ATOM     14  C   UNL     1      13.367 -31.593  22.824  1.00  0.00    -0.000 C 
BRANCH  14  15
ATOM     15  C   UNL     1      13.605 -30.199  22.204  1.00  0.00    -0.000 C 
BRANCH  15  16
ATOM     16  C   UNL     1      14.643 -29.350  22.960  1.00  0.00    -0.000 C 
BRANCH  16  17
ATOM     17  C   UNL     1      15.513 -28.491  22.033  1.00  0.00    -0.003 C 
ATOM     18  C   UNL     1      16.900 -28.263  22.625  1.00  0.00     0.004 C 
ENDBRANCH  16  17
ENDBRANCH  15  16
ENDBRANCH  14  15
ENDBRANCH  13  14
ENDBRANCH  12  13
ENDBRANCH  11  12
ENDBRANCH   1  11
TORSDOF 14
ENDMDL
MODEL 5
REMARK VINA RESULT:    -4.449      2.762      5.827
REMARK INTER + INTRA:         -10.032
REMARK INTER:                  -7.828
REMARK INTRA:                  -2.204
REMARK UNBOUND:                -1.942
REMARK SMILES CCCCCCCCCCCCCCCC(=O)[O-]
REMARK SMILES IDX 9 1 10 2 11 3 12 4 13 5 14 6 15 7 16 8 17 9 18 10 8 11 7 12
REMARK SMILES IDX 6 13 5 14 4 15 3 16 2 17 1 18
REMARK H PARENT
REMARK Flexibility Score: inf
ROOT
ATOM      1  C   UNL     1      14.623 -33.396  21.233  1.00  0.00     0.000 C 
ENDROOT
BRANCH   1   2
ATOM      2  C   UNL     1      15.323 -33.998  22.465  1.00  0.00     0.000 C 
BRANCH   2   3
ATOM      3  C   UNL     1      15.322 -33.107  23.726  1.00  0.00     0.000 C 
BRANCH   3   4
ATOM      4  C   UNL     1      13.933 -32.673  24.228  1.00  0.00     0.000 C 
BRANCH   4   5
ATOM      5  C   UNL     1      13.591 -31.219  23.872  1.00  0.00     0.000 C 
BRANCH   5   6
ATOM      6  C   UNL     1      14.859 -30.435  23.502  1.00  0.00     0.006 C 
BRANCH   6   7
ATOM      7  C   UNL     1      14.554 -29.207  22.635  1.00  0.00     0.053 C 
BRANCH   7   8
ATOM      8  C   UNL     1      15.702 -28.245  22.614  1.00  0.00     0.041 C 
ATOM      9  O   UNL     1      16.645 -28.402  21.794  1.00  0.00    -0.550 OA
ATOM     10  O   UNL     1      15.746 -27.196  23.521  1.00  0.00    -0.550 OA
ENDBRANCH   7   8
ENDBRANCH   6   7
ENDBRANCH   5   6
ENDBRANCH   4   5
ENDBRANCH   3   4
ENDBRANCH   2   3
ENDBRANCH   1   2
BRANCH   1  11
ATOM     11  C   UNL     1      15.082 -34.023  19.904  1.00  0.00     0.000 C 
BRANCH  11  12
ATOM     12  C   UNL     1      15.855 -35.332  20.135  1.00  0.00    -0.000 C 
BRANCH  12  13
ATOM     13  C   UNL     1      17.223 -35.317  19.432  1.00  0.00    -0.000 C 
BRANCH  13  14
ATOM     14  C   UNL     1      18.377 -35.371  20.443  1.00  0.00    -0.000 C 
BRANCH  14  15
ATOM     15  C   UNL     1      18.599 -34.014  21.146  1.00  0.00    -0.000 C 
BRANCH  15  16
ATOM     16  C   UNL     1      18.513 -32.801  20.201  1.00  0.00    -0.000 C 
BRANCH  16  17
ATOM     17  C   UNL     1      17.935 -31.549  20.875  1.00  0.00    -0.003 C 
ATOM     18  C   UNL     1      18.327 -31.480  22.348  1.00  0.00     0.004 C 
ENDBRANCH  16  17
ENDBRANCH  15  16
ENDBRANCH  14  15
ENDBRANCH  13  14
ENDBRANCH  12  13
ENDBRANCH  11  12
ENDBRANCH   1  11
TORSDOF 14
ENDMDL
MODEL 6
REMARK VINA RESULT:    -4.414      3.005      5.599
REMARK INTER + INTRA:          -9.968
REMARK INTER:                  -7.690
REMARK INTRA:                  -2.278
REMARK UNBOUND:                -1.942
REMARK SMILES CCCCCCCCCCCCCCCC(=O)[O-]
REMARK SMILES IDX 9 1 10 2 11 3 12 4 13 5 14 6 15 7 16 8 17 9 18 10 8 11 7 12
REMARK SMILES IDX 6 13 5 14 4 15 3 16 2 17 1 18
REMARK H PARENT
REMARK Flexibility Score: inf
ROOT
ATOM      1  C   UNL     1      17.642 -31.798  24.087  1.00  0.00     0.000 C 
ENDROOT
BRANCH   1   2
ATOM      2  C   UNL     1      16.538 -32.829  24.380  1.00  0.00     0.000 C 
BRANCH   2   3
ATOM      3  C   UNL     1      16.168 -33.754  23.200  1.00  0.00     0.000 C 
BRANCH   3   4
ATOM      4  C   UNL     1      14.731 -33.605  22.667  1.00  0.00     0.000 C 
BRANCH   4   5
ATOM      5  C   UNL     1      14.677 -33.171  21.195  1.00  0.00     0.000 C 
BRANCH   5   6
ATOM      6  C   UNL     1      13.709 -31.992  21.010  1.00  0.00     0.006 C 
BRANCH   6   7
ATOM      7  C   UNL     1      13.677 -31.066  22.232  1.00  0.00     0.053 C 
BRANCH   7   8
ATOM      8  C   UNL     1      12.351 -30.382  22.373  1.00  0.00     0.041 C 
ATOM      9  O   UNL     1      12.176 -29.519  23.273  1.00  0.00    -0.550 OA
ATOM     10  O   UNL     1      11.301 -30.722  21.532  1.00  0.00    -0.550 OA
ENDBRANCH   7   8
ENDBRANCH   6   7
ENDBRANCH   5   6
ENDBRANCH   4   5
ENDBRANCH   3   4
ENDBRANCH   2   3
ENDBRANCH   1   2
BRANCH   1  11
ATOM     11  C   UNL     1      17.126 -30.539  23.367  1.00  0.00     0.000 C 
BRANCH  11  12
ATOM     12  C   UNL     1      17.402 -30.602  21.855  1.00  0.00    -0.000 C 
BRANCH  12  13
ATOM     13  C   UNL     1      18.908 -30.677  21.555  1.00  0.00    -0.000 C 
BRANCH  13  14
ATOM     14  C   UNL     1      19.287 -32.019  20.911  1.00  0.00    -0.000 C 
BRANCH  14  15
ATOM     15  C   UNL     1      18.085 -32.690  20.213  1.00  0.00    -0.000 C 
BRANCH  15  16
ATOM     16  C   UNL     1      18.197 -34.223  20.115  1.00  0.00    -0.000 C 
BRANCH  16  17
ATOM     17  C   UNL     1      17.132 -34.850  19.205  1.00  0.00    -0.003 C 
ATOM     18  C   UNL     1      16.693 -36.216  19.724  1.00  0.00     0.004 C 
ENDBRANCH  16  17
ENDBRANCH  15  16
ENDBRANCH  14  15
ENDBRANCH  13  14
ENDBRANCH  12  13
ENDBRANCH  11  12
ENDBRANCH   1  11
TORSDOF 14
ENDMDL
MODEL 7
REMARK VINA RESULT:    -4.394      2.786      5.839
REMARK INTER + INTRA:          -9.933
REMARK INTER:                  -7.990
REMARK INTRA:                  -1.942
REMARK UNBOUND:                -1.942
REMARK SMILES CCCCCCCCCCCCCCCC(=O)[O-]
REMARK SMILES IDX 9 1 10 2 11 3 12 4 13 5 14 6 15 7 16 8 17 9 18 10 8 11 7 12
REMARK SMILES IDX 6 13 5 14 4 15 3 16 2 17 1 18
REMARK H PARENT
REMARK Flexibility Score: inf
ROOT
ATOM      1  C   UNL     1      16.432 -34.722  19.688  1.00  0.00     0.000 C 
ENDROOT
BRANCH   1   2
ATOM      2  C   UNL     1      14.970 -34.264  19.836  1.00  0.00     0.000 C 
BRANCH   2   3
ATOM      3  C   UNL     1      14.709 -33.244  20.965  1.00  0.00     0.000 C 
BRANCH   3   4
ATOM      4  C   UNL     1      15.272 -33.627  22.347  1.00  0.00     0.000 C 
BRANCH   4   5
ATOM      5  C   UNL     1      14.659 -32.811  23.494  1.00  0.00     0.000 C 
BRANCH   5   6
ATOM      6  C   UNL     1      14.668 -31.311  23.162  1.00  0.00     0.006 C 
BRANCH   6   7
ATOM      7  C   UNL     1      13.576 -30.540  23.915  1.00  0.00     0.053 C 
BRANCH   7   8
ATOM      8  C   UNL     1      12.541 -29.993  22.980  1.00  0.00     0.041 C 
ATOM      9  O   UNL     1      12.017 -28.870  23.204  1.00  0.00    -0.550 OA
ATOM     10  O   UNL     1      12.133 -30.737  21.882  1.00  0.00    -0.550 OA
ENDBRANCH   7   8
ENDBRANCH   6   7
ENDBRANCH   5   6
ENDBRANCH   4   5
ENDBRANCH   3   4
ENDBRANCH   2   3
ENDBRANCH   1   2
BRANCH   1  11
ATOM     11  C   UNL     1      16.602 -36.250  19.757  1.00  0.00     0.000 C 
BRANCH  11  12
ATOM     12  C   UNL     1      17.850 -36.643  20.566  1.00  0.00    -0.000 C 
BRANCH  12  13
ATOM     13  C   UNL     1      17.988 -35.797  21.843  1.00  0.00    -0.000 C 
BRANCH  13  14
ATOM     14  C   UNL     1      19.371 -35.136  21.934  1.00  0.00    -0.000 C 
BRANCH  14  15
ATOM     15  C   UNL     1      19.274 -33.602  22.079  1.00  0.00    -0.000 C 
BRANCH  15  16
ATOM     16  C   UNL     1      18.979 -32.869  20.757  1.00  0.00    -0.000 C 
BRANCH  16  17
ATOM     17  C   UNL     1      18.130 -31.603  20.942  1.00  0.00    -0.003 C 
ATOM     18  C   UNL     1      18.170 -31.115  22.387  1.00  0.00     0.004 C 
ENDBRANCH  16  17
ENDBRANCH  15  16
ENDBRANCH  14  15
ENDBRANCH  13  14
ENDBRANCH  12  13
ENDBRANCH  11  12
ENDBRANCH   1  11
TORSDOF 14
ENDMDL
MODEL 8
REMARK VINA RESULT:    -4.369      1.566      3.613
REMARK INTER + INTRA:          -9.887
REMARK INTER:                  -7.772
REMARK INTRA:                  -2.115
REMARK UNBOUND:                -1.942
REMARK SMILES CCCCCCCCCCCCCCCC(=O)[O-]
REMARK SMILES IDX 9 1 10 2 11 3 12 4 13 5 14 6 15 7 16 8 17 9 18 10 8 11 7 12
REMARK SMILES IDX 6 13 5 14 4 15 3 16 2 17 1 18
REMARK H PARENT
REMARK Flexibility Score: inf
ROOT
ATOM      1  C   UNL     1      18.702 -32.918  20.504  1.00  0.00     0.000 C 
ENDROOT
BRANCH   1   2
ATOM      2  C   UNL     1      18.007 -33.724  19.392  1.00  0.00     0.000 C 
BRANCH   2   3
ATOM      3  C   UNL     1      17.747 -35.211  19.719  1.00  0.00     0.000 C 
BRANCH   3   4
ATOM      4  C   UNL     1      16.349 -35.530  20.282  1.00  0.00     0.000 C 
BRANCH   4   5
ATOM      5  C   UNL     1      15.370 -34.353  20.165  1.00  0.00     0.000 C 
BRANCH   5   6
ATOM      6  C   UNL     1      14.981 -33.826  21.555  1.00  0.00     0.006 C 
BRANCH   6   7
ATOM      7  C   UNL     1      15.958 -34.283  22.646  1.00  0.00     0.053 C 
BRANCH   7   8
ATOM      8  C   UNL     1      15.574 -33.748  23.991  1.00  0.00     0.041 C 
ATOM      9  O   UNL     1      14.392 -33.373  24.211  1.00  0.00    -0.550 OA
ATOM     10  O   UNL     1      16.529 -33.633  24.992  1.00  0.00    -0.550 OA
ENDBRANCH   7   8
ENDBRANCH   6   7
ENDBRANCH   5   6
ENDBRANCH   4   5
ENDBRANCH   3   4
ENDBRANCH   2   3
ENDBRANCH   1   2
BRANCH   1  11
ATOM     11  C   UNL     1      17.954 -31.626  20.878  1.00  0.00     0.000 C 
BRANCH  11  12
ATOM     12  C   UNL     1      18.246 -31.206  22.329  1.00  0.00    -0.000 C 
BRANCH  12  13
ATOM     13  C   UNL     1      17.000 -30.623  23.014  1.00  0.00    -0.000 C 
BRANCH  13  14
ATOM     14  C   UNL     1      16.748 -29.170  22.585  1.00  0.00    -0.000 C 
BRANCH  14  15
ATOM     15  C   UNL     1      15.321 -28.966  22.033  1.00  0.00    -0.000 C 
BRANCH  15  16
ATOM     16  C   UNL     1      14.598 -30.277  21.674  1.00  0.00    -0.000 C 
BRANCH  16  17
ATOM     17  C   UNL     1      13.271 -30.462  22.424  1.00  0.00    -0.003 C 
ATOM     18  C   UNL     1      13.374 -29.968  23.864  1.00  0.00     0.004 C 
ENDBRANCH  16  17
ENDBRANCH  15  16
ENDBRANCH  14  15
ENDBRANCH  13  14
ENDBRANCH  12  13
ENDBRANCH  11  12
ENDBRANCH   1  11
TORSDOF 14
ENDMDL
MODEL 9
REMARK VINA RESULT:    -4.358      2.993      5.912
REMARK INTER + INTRA:          -9.866
REMARK INTER:                  -7.668
REMARK INTRA:                  -2.198
REMARK UNBOUND:                -1.942
REMARK SMILES CCCCCCCCCCCCCCCC(=O)[O-]
REMARK SMILES IDX 9 1 10 2 11 3 12 4 13 5 14 6 15 7 16 8 17 9 18 10 8 11 7 12
REMARK SMILES IDX 6 13 5 14 4 15 3 16 2 17 1 18
REMARK H PARENT
REMARK Flexibility Score: inf
ROOT
ATOM      1  C   UNL     1      15.967 -35.213  20.073  1.00  0.00     0.000 C 
ENDROOT
BRANCH   1   2
ATOM      2  C   UNL     1      15.002 -34.361  20.916  1.00  0.00     0.000 C 
BRANCH   2   3
ATOM      3  C   UNL     1      14.258 -33.249  20.146  1.00  0.00     0.000 C 
BRANCH   3   4
ATOM      4  C   UNL     1      13.904 -31.997  20.969  1.00  0.00     0.000 C 
BRANCH   4   5
ATOM      5  C   UNL     1      15.097 -31.439  21.760  1.00  0.00     0.000 C 
BRANCH   5   6
ATOM      6  C   UNL     1      14.677 -31.073  23.192  1.00  0.00     0.006 C 
BRANCH   6   7
ATOM      7  C   UNL     1      13.167 -30.835  23.315  1.00  0.00     0.053 C 
BRANCH   7   8
ATOM      8  C   UNL     1      12.842 -29.376  23.404  1.00  0.00     0.041 C 
ATOM      9  O   UNL     1      11.668 -28.974  23.190  1.00  0.00    -0.550 OA
ATOM     10  O   UNL     1      13.842 -28.457  23.690  1.00  0.00    -0.550 OA
ENDBRANCH   7   8
ENDBRANCH   6   7
ENDBRANCH   5   6
ENDBRANCH   4   5
ENDBRANCH   3   4
ENDBRANCH   2   3
ENDBRANCH   1   2
BRANCH   1  11
ATOM     11  C   UNL     1      16.938 -34.374  19.222  1.00  0.00     0.000 C 
BRANCH  11  12
ATOM     12  C   UNL     1      18.314 -34.248  19.897  1.00  0.00    -0.000 C 
BRANCH  12  13
ATOM     13  C   UNL     1      18.469 -32.903  20.626  1.00  0.00    -0.000 C 
BRANCH  13  14
ATOM     14  C   UNL     1      18.253 -33.054  22.139  1.00  0.00    -0.000 C 
BRANCH  14  15
ATOM     15  C   UNL     1      18.674 -34.448  22.650  1.00  0.00    -0.000 C 
BRANCH  15  16
ATOM     16  C   UNL     1      17.572 -35.183  23.435  1.00  0.00    -0.000 C 
BRANCH  16  17
ATOM     17  C   UNL     1      16.578 -34.233  24.118  1.00  0.00    -0.003 C 
ATOM     18  C   UNL     1      16.905 -34.058  25.598  1.00  0.00     0.004 C 
ENDBRANCH  16  17
ENDBRANCH  15  16
ENDBRANCH  14  15
ENDBRANCH  13  14
ENDBRANCH  12  13
ENDBRANCH  11  12
ENDBRANCH   1  11
TORSDOF 14
ENDMDL
