MODEL 1
REMARK VINA RESULT:    -5.570      0.000      0.000
REMARK INTER + INTRA:          -6.576
REMARK INTER:                  -6.547
REMARK INTRA:                  -0.029
REMARK UNBOUND:                -0.029
REMARK SMILES COc1cc2ccc(=O)oc2c(OC)c1OC
REMARK SMILES IDX 3 1 15 2 12 3 11 4 5 5 4 6 6 7 7 8 8 9 9 10 10 11 2 12 1 13
REMARK SMILES IDX 16 14 17 15 13 16 14 17
REMARK H PARENT
REMARK Flexibility Score: inf
ROOT
ATOM      1  C   UNL     1       9.618   9.285  13.692  1.00  0.00     0.165 A 
ATOM      2  C   UNL     1      10.318  10.036  14.651  1.00  0.00     0.207 A 
ATOM      3  C   UNL     1      11.575  10.599  14.332  1.00  0.00     0.208 A 
ATOM      4  C   UNL     1      12.073  10.491  13.029  1.00  0.00     0.184 A 
ATOM      5  C   UNL     1      11.354   9.765  12.056  1.00  0.00     0.025 A 
ATOM      6  C   UNL     1      10.141   9.152  12.392  1.00  0.00     0.062 A 
ATOM      7  C   UNL     1      11.887   9.666  10.767  1.00  0.00     0.020 A 
ATOM      8  C   UNL     1      13.104  10.283  10.479  1.00  0.00     0.094 A 
ATOM      9  C   UNL     1      13.763  10.983  11.493  1.00  0.00     0.336 A 
ATOM     10  O   UNL     1      14.865  11.544  11.256  1.00  0.00    -0.246 OA
ATOM     11  O   UNL     1      13.235  11.059  12.712  1.00  0.00    -0.419 OA
ENDROOT
BRANCH   1  12
ATOM     12  O   UNL     1       8.394   8.705  14.065  1.00  0.00    -0.493 OA
ATOM     13  C   UNL     1       7.184   9.428  14.262  1.00  0.00     0.278 C 
ENDBRANCH   1  12
BRANCH   2  14
ATOM     14  O   UNL     1       9.733  10.217  15.909  1.00  0.00    -0.490 OA
ATOM     15  C   UNL     1       9.998   9.345  17.003  1.00  0.00     0.278 C 
ENDBRANCH   2  14
BRANCH   3  16
ATOM     16  O   UNL     1      12.351  11.259  15.292  1.00  0.00    -0.490 OA
ATOM     17  C   UNL     1      12.248  12.661  15.524  1.00  0.00     0.278 C 
ENDBRANCH   3  16
TORSDOF 3
ENDMDL
MODEL 2
REMARK VINA RESULT:    -5.143      1.377      4.766
REMARK INTER + INTRA:          -6.074
REMARK INTER:                  -5.789
REMARK INTRA:                  -0.285
REMARK UNBOUND:                -0.029
REMARK SMILES COc1cc2ccc(=O)oc2c(OC)c1OC
REMARK SMILES IDX 3 1 15 2 12 3 11 4 5 5 4 6 6 7 7 8 8 9 9 10 10 11 2 12 1 13
REMARK SMILES IDX 16 14 17 15 13 16 14 17
REMARK H PARENT
REMARK Flexibility Score: inf
ROOT
ATOM      1  C   UNL     1      12.747   9.924  11.287  1.00  0.00     0.165 A 
ATOM      2  C   UNL     1      13.027  10.417  12.572  1.00  0.00     0.207 A 
ATOM      3  C   UNL     1      12.026  10.407  13.570  1.00  0.00     0.208 A 
ATOM      4  C   UNL     1      10.786   9.815  13.303  1.00  0.00     0.184 A 
ATOM      5  C   UNL     1      10.515   9.290  12.022  1.00  0.00     0.025 A 
ATOM      6  C   UNL     1      11.485   9.361  11.015  1.00  0.00     0.062 A 
ATOM      7  C   UNL     1       9.261   8.718  11.786  1.00  0.00     0.020 A 
ATOM      8  C   UNL     1       8.321   8.680  12.814  1.00  0.00     0.094 A 
ATOM      9  C   UNL     1       8.657   9.222  14.058  1.00  0.00     0.336 A 
ATOM     10  O   UNL     1       7.820   9.201  14.999  1.00  0.00    -0.246 OA
ATOM     11  O   UNL     1       9.856   9.763  14.255  1.00  0.00    -0.419 OA
ENDROOT
BRANCH   1  12
ATOM     12  O   UNL     1      13.756   9.995  10.313  1.00  0.00    -0.493 OA
ATOM     13  C   UNL     1      14.599   8.910   9.943  1.00  0.00     0.278 C 
ENDBRANCH   1  12
BRANCH   2  14
ATOM     14  O   UNL     1      14.315  10.896  12.833  1.00  0.00    -0.490 OA
ATOM     15  C   UNL     1      15.289  10.124  13.526  1.00  0.00     0.278 C 
ENDBRANCH   2  14
BRANCH   3  16
ATOM     16  O   UNL     1      12.233  10.987  14.827  1.00  0.00    -0.490 OA
ATOM     17  C   UNL     1      12.043  12.377  15.067  1.00  0.00     0.278 C 
ENDBRANCH   3  16
TORSDOF 3
ENDMDL
MODEL 3
REMARK VINA RESULT:    -5.129      1.213      1.333
REMARK INTER + INTRA:          -6.058
REMARK INTER:                  -5.879
REMARK INTRA:                  -0.178
REMARK UNBOUND:                -0.029
REMARK SMILES COc1cc2ccc(=O)oc2c(OC)c1OC
REMARK SMILES IDX 3 1 15 2 12 3 11 4 5 5 4 6 6 7 7 8 8 9 9 10 10 11 2 12 1 13
REMARK SMILES IDX 16 14 17 15 13 16 14 17
REMARK H PARENT
REMARK Flexibility Score: inf
ROOT
ATOM      1  C   UNL     1      10.280   9.426  12.737  1.00  0.00     0.165 A 
ATOM      2  C   UNL     1      10.714  10.122  13.877  1.00  0.00     0.207 A 
ATOM      3  C   UNL     1      12.049  10.577  13.966  1.00  0.00     0.208 A 
ATOM      4  C   UNL     1      12.910  10.419  12.874  1.00  0.00     0.184 A 
ATOM      5  C   UNL     1      12.465   9.749  11.715  1.00  0.00     0.025 A 
ATOM      6  C   UNL     1      11.162   9.240  11.656  1.00  0.00     0.062 A 
ATOM      7  C   UNL     1      13.356   9.597  10.648  1.00  0.00     0.020 A 
ATOM      8  C   UNL     1      14.648  10.108  10.756  1.00  0.00     0.094 A 
ATOM      9  C   UNL     1      15.022  10.758  11.935  1.00  0.00     0.336 A 
ATOM     10  O   UNL     1      16.185  11.224  12.054  1.00  0.00    -0.246 OA
ATOM     11  O   UNL     1      14.155  10.887  12.936  1.00  0.00    -0.419 OA
ENDROOT
BRANCH   1  12
ATOM     12  O   UNL     1       8.959   8.951  12.710  1.00  0.00    -0.493 OA
ATOM     13  C   UNL     1       8.377   8.244  11.620  1.00  0.00     0.278 C 
ENDBRANCH   1  12
BRANCH   2  14
ATOM     14  O   UNL     1       9.790  10.359  14.901  1.00  0.00    -0.490 OA
ATOM     15  C   UNL     1       9.724   9.548  16.069  1.00  0.00     0.278 C 
ENDBRANCH   2  14
BRANCH   3  16
ATOM     16  O   UNL     1      12.547  11.177  15.128  1.00  0.00    -0.490 OA
ATOM     17  C   UNL     1      12.260  12.529  15.472  1.00  0.00     0.278 C 
ENDBRANCH   3  16
TORSDOF 3
ENDMDL
MODEL 4
REMARK VINA RESULT:    -4.798      1.965      4.925
REMARK INTER + INTRA:          -5.668
REMARK INTER:                  -5.481
REMARK INTRA:                  -0.188
REMARK UNBOUND:                -0.029
REMARK SMILES COc1cc2ccc(=O)oc2c(OC)c1OC
REMARK SMILES IDX 3 1 15 2 12 3 11 4 5 5 4 6 6 7 7 8 8 9 9 10 10 11 2 12 1 13
REMARK SMILES IDX 16 14 17 15 13 16 14 17
REMARK H PARENT
REMARK Flexibility Score: inf
ROOT
ATOM      1  C   UNL     1      12.259  10.815  13.716  1.00  0.00     0.165 A 
ATOM      2  C   UNL     1      12.916  10.626  12.489  1.00  0.00     0.207 A 
ATOM      3  C   UNL     1      12.326   9.828  11.483  1.00  0.00     0.208 A 
ATOM      4  C   UNL     1      11.040   9.309  11.674  1.00  0.00     0.184 A 
ATOM      5  C   UNL     1      10.365   9.527  12.893  1.00  0.00     0.025 A 
ATOM      6  C   UNL     1      10.979  10.262  13.914  1.00  0.00     0.062 A 
ATOM      7  C   UNL     1       9.087   8.983  13.056  1.00  0.00     0.020 A 
ATOM      8  C   UNL     1       8.518   8.248  12.017  1.00  0.00     0.094 A 
ATOM      9  C   UNL     1       9.246   8.070  10.837  1.00  0.00     0.336 A 
ATOM     10  O   UNL     1       8.752   7.406   9.888  1.00  0.00    -0.246 OA
ATOM     11  O   UNL     1      10.461   8.596  10.710  1.00  0.00    -0.419 OA
ENDROOT
BRANCH   1  12
ATOM     12  O   UNL     1      12.902  11.577  14.705  1.00  0.00    -0.493 OA
ATOM     13  C   UNL     1      12.255  12.540  15.530  1.00  0.00     0.278 C 
ENDBRANCH   1  12
BRANCH   2  14
ATOM     14  O   UNL     1      14.151  11.255  12.294  1.00  0.00    -0.490 OA
ATOM     15  C   UNL     1      15.386  10.615  12.592  1.00  0.00     0.278 C 
ENDBRANCH   2  14
BRANCH   3  16
ATOM     16  O   UNL     1      12.998   9.528  10.292  1.00  0.00    -0.490 OA
ATOM     17  C   UNL     1      13.911   8.440  10.184  1.00  0.00     0.278 C 
ENDBRANCH   3  16
TORSDOF 3
ENDMDL
MODEL 5
REMARK VINA RESULT:    -4.581      1.702      3.452
REMARK INTER + INTRA:          -5.414
REMARK INTER:                  -5.315
REMARK INTRA:                  -0.099
REMARK UNBOUND:                -0.029
REMARK SMILES COc1cc2ccc(=O)oc2c(OC)c1OC
REMARK SMILES IDX 3 1 15 2 12 3 11 4 5 5 4 6 6 7 7 8 8 9 9 10 10 11 2 12 1 13
REMARK SMILES IDX 16 14 17 15 13 16 14 17
REMARK H PARENT
REMARK Flexibility Score: inf
ROOT
ATOM      1  C   UNL     1      10.926   9.865  14.352  1.00  0.00     0.165 A 
ATOM      2  C   UNL     1      10.626   9.750  12.985  1.00  0.00     0.207 A 
ATOM      3  C   UNL     1      11.656   9.847  12.022  1.00  0.00     0.208 A 
ATOM      4  C   UNL     1      12.987   9.958  12.438  1.00  0.00     0.184 A 
ATOM      5  C   UNL     1      13.292  10.039  13.813  1.00  0.00     0.025 A 
ATOM      6  C   UNL     1      12.264  10.010  14.763  1.00  0.00     0.062 A 
ATOM      7  C   UNL     1      14.632  10.163  14.194  1.00  0.00     0.020 A 
ATOM      8  C   UNL     1      15.623  10.200  13.214  1.00  0.00     0.094 A 
ATOM      9  C   UNL     1      15.247  10.117  11.870  1.00  0.00     0.336 A 
ATOM     10  O   UNL     1      16.126  10.153  10.969  1.00  0.00    -0.246 OA
ATOM     11  O   UNL     1      13.965  10.003  11.535  1.00  0.00    -0.419 OA
ENDROOT
BRANCH   1  12
ATOM     12  O   UNL     1       9.866   9.809  15.272  1.00  0.00    -0.493 OA
ATOM     13  C   UNL     1      10.000   9.420  16.635  1.00  0.00     0.278 C 
ENDBRANCH   1  12
BRANCH   2  14
ATOM     14  O   UNL     1       9.296   9.526  12.613  1.00  0.00    -0.490 OA
ATOM     15  C   UNL     1       8.827   8.248  12.199  1.00  0.00     0.278 C 
ENDBRANCH   2  14
BRANCH   3  16
ATOM     16  O   UNL     1      11.383   9.847  10.649  1.00  0.00    -0.490 OA
ATOM     17  C   UNL     1      11.360   8.651   9.875  1.00  0.00     0.278 C 
ENDBRANCH   3  16
TORSDOF 3
ENDMDL
MODEL 6
REMARK VINA RESULT:    -4.560      3.131      5.126
REMARK INTER + INTRA:          -5.389
REMARK INTER:                  -5.099
REMARK INTRA:                  -0.289
REMARK UNBOUND:                -0.029
REMARK SMILES COc1cc2ccc(=O)oc2c(OC)c1OC
REMARK SMILES IDX 3 1 15 2 12 3 11 4 5 5 4 6 6 7 7 8 8 9 9 10 10 11 2 12 1 13
REMARK SMILES IDX 16 14 17 15 13 16 14 17
REMARK H PARENT
REMARK Flexibility Score: inf
ROOT
ATOM      1  C   UNL     1      13.855  10.366  13.725  1.00  0.00     0.165 A 
ATOM      2  C   UNL     1      13.994  10.866  12.420  1.00  0.00     0.207 A 
ATOM      3  C   UNL     1      14.658  10.102  11.434  1.00  0.00     0.208 A 
ATOM      4  C   UNL     1      15.091   8.806  11.735  1.00  0.00     0.184 A 
ATOM      5  C   UNL     1      14.922   8.290  13.037  1.00  0.00     0.025 A 
ATOM      6  C   UNL     1      14.323   9.074  14.030  1.00  0.00     0.062 A 
ATOM      7  C   UNL     1      15.378   6.996  13.308  1.00  0.00     0.020 A 
ATOM      8  C   UNL     1      15.980   6.255  12.292  1.00  0.00     0.094 A 
ATOM      9  C   UNL     1      16.116   6.831  11.025  1.00  0.00     0.336 A 
ATOM     10  O   UNL     1      16.660   6.180  10.095  1.00  0.00    -0.246 OA
ATOM     11  O   UNL     1      15.677   8.065  10.796  1.00  0.00    -0.419 OA
ENDROOT
BRANCH   1  12
ATOM     12  O   UNL     1      13.229  11.177  14.685  1.00  0.00    -0.493 OA
ATOM     13  C   UNL     1      11.886  11.014  15.127  1.00  0.00     0.278 C 
ENDBRANCH   1  12
BRANCH   2  14
ATOM     14  O   UNL     1      13.447  12.120  12.128  1.00  0.00    -0.490 OA
ATOM     15  C   UNL     1      12.205  12.270  11.450  1.00  0.00     0.278 C 
ENDBRANCH   2  14
BRANCH   3  16
ATOM     16  O   UNL     1      14.911  10.610  10.154  1.00  0.00    -0.490 OA
ATOM     17  C   UNL     1      16.020  11.460   9.875  1.00  0.00     0.278 C 
ENDBRANCH   3  16
TORSDOF 3
ENDMDL
MODEL 7
REMARK VINA RESULT:    -4.556      1.624      4.406
REMARK INTER + INTRA:          -5.383
REMARK INTER:                  -5.222
REMARK INTRA:                  -0.161
REMARK UNBOUND:                -0.029
REMARK SMILES COc1cc2ccc(=O)oc2c(OC)c1OC
REMARK SMILES IDX 3 1 15 2 12 3 11 4 5 5 4 6 6 7 7 8 8 9 9 10 10 11 2 12 1 13
REMARK SMILES IDX 16 14 17 15 13 16 14 17
REMARK H PARENT
REMARK Flexibility Score: inf
ROOT
ATOM      1  C   UNL     1      13.199  10.433  12.885  1.00  0.00     0.165 A 
ATOM      2  C   UNL     1      12.182  10.525  13.849  1.00  0.00     0.207 A 
ATOM      3  C   UNL     1      10.884  10.046  13.561  1.00  0.00     0.208 A 
ATOM      4  C   UNL     1      10.640   9.390  12.349  1.00  0.00     0.184 A 
ATOM      5  C   UNL     1      11.670   9.266  11.393  1.00  0.00     0.025 A 
ATOM      6  C   UNL     1      12.937   9.801  11.654  1.00  0.00     0.062 A 
ATOM      7  C   UNL     1      11.389   8.616  10.187  1.00  0.00     0.020 A 
ATOM      8  C   UNL     1      10.109   8.110   9.964  1.00  0.00     0.094 A 
ATOM      9  C   UNL     1       9.136   8.270  10.955  1.00  0.00     0.336 A 
ATOM     10  O   UNL     1       7.974   7.824  10.772  1.00  0.00    -0.246 OA
ATOM     11  O   UNL     1       9.430   8.896  12.092  1.00  0.00    -0.419 OA
ENDROOT
BRANCH   1  12
ATOM     12  O   UNL     1      14.461  10.963  13.196  1.00  0.00    -0.493 OA
ATOM     13  C   UNL     1      15.660  10.659  12.492  1.00  0.00     0.278 C 
ENDBRANCH   1  12
BRANCH   2  14
ATOM     14  O   UNL     1      12.495  11.086  15.092  1.00  0.00    -0.490 OA
ATOM     15  C   UNL     1      12.221  12.449  15.402  1.00  0.00     0.278 C 
ENDBRANCH   2  14
BRANCH   3  16
ATOM     16  O   UNL     1       9.819  10.219  14.453  1.00  0.00    -0.490 OA
ATOM     17  C   UNL     1       9.691   9.450  15.645  1.00  0.00     0.278 C 
ENDBRANCH   3  16
TORSDOF 3
ENDMDL
MODEL 8
REMARK VINA RESULT:    -4.439      2.268      5.500
REMARK INTER + INTRA:          -5.246
REMARK INTER:                  -5.005
REMARK INTRA:                  -0.241
REMARK UNBOUND:                -0.029
REMARK SMILES COc1cc2ccc(=O)oc2c(OC)c1OC
REMARK SMILES IDX 3 1 15 2 12 3 11 4 5 5 4 6 6 7 7 8 8 9 9 10 10 11 2 12 1 13
REMARK SMILES IDX 16 14 17 15 13 16 14 17
REMARK H PARENT
REMARK Flexibility Score: inf
ROOT
ATOM      1  C   UNL     1      14.569   9.496  12.132  1.00  0.00     0.165 A 
ATOM      2  C   UNL     1      14.421  10.813  11.668  1.00  0.00     0.207 A 
ATOM      3  C   UNL     1      13.383  11.630  12.170  1.00  0.00     0.208 A 
ATOM      4  C   UNL     1      12.565  11.156  13.202  1.00  0.00     0.184 A 
ATOM      5  C   UNL     1      12.734   9.844  13.692  1.00  0.00     0.025 A 
ATOM      6  C   UNL     1      13.721   9.014  13.146  1.00  0.00     0.062 A 
ATOM      7  C   UNL     1      11.891   9.398  14.715  1.00  0.00     0.020 A 
ATOM      8  C   UNL     1      10.915  10.255  15.220  1.00  0.00     0.094 A 
ATOM      9  C   UNL     1      10.801  11.541  14.685  1.00  0.00     0.336 A 
ATOM     10  O   UNL     1       9.924  12.329  15.125  1.00  0.00    -0.246 OA
ATOM     11  O   UNL     1      11.615  11.939  13.711  1.00  0.00    -0.419 OA
ENDROOT
BRANCH   1  12
ATOM     12  O   UNL     1      15.585   8.704  11.572  1.00  0.00    -0.493 OA
ATOM     13  C   UNL     1      15.625   7.282  11.630  1.00  0.00     0.278 C 
ENDBRANCH   1  12
BRANCH   2  14
ATOM     14  O   UNL     1      15.330  11.288  10.717  1.00  0.00    -0.490 OA
ATOM     15  C   UNL     1      16.495  12.022  11.078  1.00  0.00     0.278 C 
ENDBRANCH   2  14
BRANCH   3  16
ATOM     16  O   UNL     1      13.136  12.908  11.656  1.00  0.00    -0.490 OA
ATOM     17  C   UNL     1      12.324  13.125  10.506  1.00  0.00     0.278 C 
ENDBRANCH   3  16
TORSDOF 3
ENDMDL
