MODEL 1
REMARK VINA RESULT:    -8.425      0.000      0.000
REMARK INTER + INTRA:          -9.173
REMARK INTER:                  -9.164
REMARK INTRA:                  -0.009
REMARK UNBOUND:                -0.009
REMARK SMILES C[C@H]1[C@@H](C)CC[C@@]2(C(=O)[O-])CC[C@@]3(C)C(=CC[C@@H]4[C@@]5(C)CC[C@@H](O)C(C)(C)[C@@H]5CC[C@@]43C)[C@@H]12
REMARK SMILES IDX 7 1 6 2 11 3 33 4 5 5 12 6 15 7 2 8 3 9 13 10 16 11 1 12
REMARK SMILES IDX 4 13 14 14 31 15 17 16 18 17 30 18 32 19 19 20 29 21 28 22
REMARK SMILES IDX 21 23 20 24 25 25 22 26 23 27 26 28 27 29 8 30 9 31 10 32
REMARK SMILES IDX 24 33
REMARK H PARENT 24 34
REMARK Flexibility Score: inf
ROOT
ATOM      1  C   UNL     1       1.600 -22.867  -2.131  1.00  0.00     0.017 C 
ATOM      2  C   UNL     1       2.532 -22.924  -0.882  1.00  0.00     0.014 C 
ATOM      3  C   UNL     1       0.172 -22.538  -1.636  1.00  0.00     0.014 C 
ATOM      4  C   UNL     1       2.084 -21.772  -3.170  1.00  0.00     0.030 C 
ATOM      5  C   UNL     1       4.000 -22.761  -1.263  1.00  0.00     0.004 C 
ATOM      6  C   UNL     1      -0.825 -22.507  -2.794  1.00  0.00     0.013 C 
ATOM      7  C   UNL     1       0.975 -21.151  -4.050  1.00  0.00    -0.063 C 
ATOM      8  C   UNL     1       3.044 -20.693  -2.550  1.00  0.00    -0.003 C 
ATOM      9  C   UNL     1       4.291 -21.369  -1.877  1.00  0.00    -0.011 C 
ATOM     10  C   UNL     1      -0.544 -21.365  -3.833  1.00  0.00    -0.006 C 
ATOM     11  C   UNL     1       1.371 -20.414  -5.111  1.00  0.00    -0.027 C 
ATOM     12  C   UNL     1       2.313 -19.647  -1.683  1.00  0.00     0.008 C 
ATOM     13  C   UNL     1       5.029 -20.466  -0.875  1.00  0.00     0.008 C 
ATOM     14  C   UNL     1      -1.116 -20.070  -3.172  1.00  0.00     0.017 C 
ATOM     15  C   UNL     1      -1.233 -21.687  -5.267  1.00  0.00    -0.020 C 
ATOM     16  C   UNL     1       0.401 -19.731  -6.025  1.00  0.00     0.032 C 
ATOM     17  C   UNL     1      -0.750 -20.686  -6.428  1.00  0.00     0.006 C 
ATOM     18  C   UNL     1      -2.788 -21.670  -5.149  1.00  0.00     0.008 C 
ATOM     19  C   UNL     1      -0.836 -23.138  -5.724  1.00  0.00     0.012 C 
ATOM     20  C   UNL     1      -1.899 -20.011  -7.301  1.00  0.00    -0.025 C 
ATOM     21  C   UNL     1      -3.533 -21.880  -6.481  1.00  0.00     0.005 C 
ATOM     22  C   UNL     1      -2.894 -21.160  -7.707  1.00  0.00     0.003 C 
ATOM     23  C   UNL     1      -1.248 -19.423  -8.599  1.00  0.00     0.010 C 
ATOM     24  C   UNL     1      -2.625 -18.859  -6.531  1.00  0.00     0.012 C 
ATOM     25  C   UNL     1      -3.913 -20.830  -8.873  1.00  0.00    -0.006 C 
ATOM     26  C   UNL     1      -2.249 -19.059  -9.703  1.00  0.00     0.033 C 
ATOM     27  C   UNL     1      -3.128 -20.257 -10.095  1.00  0.00     0.120 C 
ATOM     28  C   UNL     1      -4.622 -22.137  -9.320  1.00  0.00     0.014 C 
ATOM     29  C   UNL     1      -5.038 -19.832  -8.477  1.00  0.00     0.014 C 
ENDROOT
BRANCH   1  30
ATOM     30  C   UNL     1       1.596 -24.272  -2.752  1.00  0.00     0.048 C 
ATOM     31  O   UNL     1       0.750 -25.124  -2.370  1.00  0.00    -0.550 OA
ATOM     32  O   UNL     1       2.525 -24.653  -3.715  1.00  0.00    -0.550 OA
ENDBRANCH   1  30
BRANCH  27  33
ATOM     33  O   UNL     1      -2.322 -21.257 -10.672  1.00  0.00    -0.393 OA
ATOM     34  H   UNL     1      -1.418 -20.864 -10.799  1.00  0.00     0.210 HD
ENDBRANCH  27  33
TORSDOF 2
ENDMDL
MODEL 2
REMARK VINA RESULT:    -7.194     12.687     15.217
REMARK INTER + INTRA:          -7.833
REMARK INTER:                  -7.510
REMARK INTRA:                  -0.323
REMARK UNBOUND:                -0.009
REMARK SMILES C[C@H]1[C@@H](C)CC[C@@]2(C(=O)[O-])CC[C@@]3(C)C(=CC[C@@H]4[C@@]5(C)CC[C@@H](O)C(C)(C)[C@@H]5CC[C@@]43C)[C@@H]12
REMARK SMILES IDX 7 1 6 2 11 3 33 4 5 5 12 6 15 7 2 8 3 9 13 10 16 11 1 12
REMARK SMILES IDX 4 13 14 14 31 15 17 16 18 17 30 18 32 19 19 20 29 21 28 22
REMARK SMILES IDX 21 23 20 24 25 25 22 26 23 27 26 28 27 29 8 30 9 31 10 32
REMARK SMILES IDX 24 33
REMARK H PARENT 24 34
REMARK Flexibility Score: inf
ROOT
ATOM      1  C   UNL     1      11.977 -15.080  -9.147  1.00  0.00     0.017 C 
ATOM      2  C   UNL     1      12.747 -15.461 -10.448  1.00  0.00     0.014 C 
ATOM      3  C   UNL     1      13.007 -15.006  -7.995  1.00  0.00     0.014 C 
ATOM      4  C   UNL     1      11.227 -13.691  -9.299  1.00  0.00     0.030 C 
ATOM      5  C   UNL     1      11.956 -15.100 -11.701  1.00  0.00     0.004 C 
ATOM      6  C   UNL     1      12.331 -14.682  -6.664  1.00  0.00     0.013 C 
ATOM      7  C   UNL     1      11.019 -12.899  -7.988  1.00  0.00    -0.063 C 
ATOM      8  C   UNL     1      11.782 -12.799 -10.467  1.00  0.00    -0.003 C 
ATOM      9  C   UNL     1      11.742 -13.571 -11.834  1.00  0.00    -0.011 C 
ATOM     10  C   UNL     1      11.667 -13.261  -6.628  1.00  0.00    -0.006 C 
ATOM     11  C   UNL     1      10.170 -11.848  -8.031  1.00  0.00    -0.027 C 
ATOM     12  C   UNL     1      13.125 -12.116 -10.135  1.00  0.00     0.008 C 
ATOM     13  C   UNL     1      12.657 -12.976 -12.917  1.00  0.00     0.008 C 
ATOM     14  C   UNL     1      12.850 -12.270  -6.386  1.00  0.00     0.017 C 
ATOM     15  C   UNL     1      10.531 -13.168  -5.471  1.00  0.00    -0.020 C 
ATOM     16  C   UNL     1       9.903 -10.978  -6.842  1.00  0.00     0.032 C 
ATOM     17  C   UNL     1       9.645 -11.831  -5.576  1.00  0.00     0.006 C 
ATOM     18  C   UNL     1      11.174 -13.284  -4.056  1.00  0.00     0.008 C 
ATOM     19  C   UNL     1       9.541 -14.381  -5.611  1.00  0.00     0.012 C 
ATOM     20  C   UNL     1       9.473 -10.992  -4.232  1.00  0.00    -0.025 C 
ATOM     21  C   UNL     1      10.184 -13.119  -2.887  1.00  0.00     0.005 C 
ATOM     22  C   UNL     1       9.099 -12.020  -3.101  1.00  0.00     0.003 C 
ATOM     23  C   UNL     1       8.280  -9.995  -4.426  1.00  0.00     0.010 C 
ATOM     24  C   UNL     1      10.761 -10.179  -3.876  1.00  0.00     0.012 C 
ATOM     25  C   UNL     1       8.516 -11.409  -1.761  1.00  0.00    -0.006 C 
ATOM     26  C   UNL     1       7.757  -9.371  -3.125  1.00  0.00     0.033 C 
ATOM     27  C   UNL     1       7.340 -10.443  -2.105  1.00  0.00     0.120 C 
ATOM     28  C   UNL     1       7.959 -12.557  -0.875  1.00  0.00     0.014 C 
ATOM     29  C   UNL     1       9.561 -10.652  -0.894  1.00  0.00     0.014 C 
ENDROOT
BRANCH   1  30
ATOM     30  C   UNL     1      10.994 -16.223  -8.857  1.00  0.00     0.048 C 
ATOM     31  O   UNL     1       9.758 -15.986  -8.792  1.00  0.00    -0.550 OA
ATOM     32  O   UNL     1      11.425 -17.527  -8.633  1.00  0.00    -0.550 OA
ENDBRANCH   1  30
BRANCH  27  33
ATOM     33  O   UNL     1       6.243 -11.165  -2.611  1.00  0.00    -0.393 OA
ATOM     34  H   UNL     1       6.287 -12.075  -2.215  1.00  0.00     0.210 HD
ENDBRANCH  27  33
TORSDOF 2
ENDMDL
MODEL 3
REMARK VINA RESULT:    -5.909      1.903      2.474
REMARK INTER + INTRA:          -6.436
REMARK INTER:                  -6.136
REMARK INTRA:                  -0.300
REMARK UNBOUND:                -0.009
REMARK SMILES C[C@H]1[C@@H](C)CC[C@@]2(C(=O)[O-])CC[C@@]3(C)C(=CC[C@@H]4[C@@]5(C)CC[C@@H](O)C(C)(C)[C@@H]5CC[C@@]43C)[C@@H]12
REMARK SMILES IDX 7 1 6 2 11 3 33 4 5 5 12 6 15 7 2 8 3 9 13 10 16 11 1 12
REMARK SMILES IDX 4 13 14 14 31 15 17 16 18 17 30 18 32 19 19 20 29 21 28 22
REMARK SMILES IDX 21 23 20 24 25 25 22 26 23 27 26 28 27 29 8 30 9 31 10 32
REMARK SMILES IDX 24 33
REMARK H PARENT 24 34
REMARK Flexibility Score: inf
ROOT
ATOM      1  C   UNL     1       0.100 -23.428  -3.229  1.00  0.00     0.017 C 
ATOM      2  C   UNL     1       1.279 -23.824  -2.289  1.00  0.00     0.014 C 
ATOM      3  C   UNL     1      -0.608 -22.203  -2.604  1.00  0.00     0.014 C 
ATOM      4  C   UNL     1       0.612 -23.078  -4.689  1.00  0.00     0.030 C 
ATOM      5  C   UNL     1       2.317 -24.677  -3.011  1.00  0.00     0.004 C 
ATOM      6  C   UNL     1      -1.812 -21.770  -3.439  1.00  0.00     0.013 C 
ATOM      7  C   UNL     1      -0.261 -22.074  -5.477  1.00  0.00    -0.063 C 
ATOM      8  C   UNL     1       2.144 -22.735  -4.756  1.00  0.00    -0.003 C 
ATOM      9  C   UNL     1       3.008 -23.904  -4.161  1.00  0.00    -0.011 C 
ATOM     10  C   UNL     1      -1.430 -21.258  -4.872  1.00  0.00    -0.006 C 
ATOM     11  C   UNL     1      -0.010 -21.946  -6.800  1.00  0.00    -0.027 C 
ATOM     12  C   UNL     1       2.483 -21.327  -4.224  1.00  0.00     0.008 C 
ATOM     13  C   UNL     1       4.437 -23.490  -3.771  1.00  0.00     0.008 C 
ATOM     14  C   UNL     1      -0.926 -19.795  -4.655  1.00  0.00     0.017 C 
ATOM     15  C   UNL     1      -2.696 -21.335  -5.885  1.00  0.00    -0.020 C 
ATOM     16  C   UNL     1      -0.759 -20.987  -7.673  1.00  0.00     0.032 C 
ATOM     17  C   UNL     1      -2.283 -21.077  -7.417  1.00  0.00     0.006 C 
ATOM     18  C   UNL     1      -3.813 -20.338  -5.450  1.00  0.00     0.008 C 
ATOM     19  C   UNL     1      -3.331 -22.772  -5.821  1.00  0.00     0.012 C 
ATOM     20  C   UNL     1      -3.155 -20.007  -8.212  1.00  0.00    -0.025 C 
ATOM     21  C   UNL     1      -5.023 -20.276  -6.402  1.00  0.00     0.005 C 
ATOM     22  C   UNL     1      -4.664 -20.342  -7.917  1.00  0.00     0.003 C 
ATOM     23  C   UNL     1      -2.884 -20.194  -9.744  1.00  0.00     0.010 C 
ATOM     24  C   UNL     1      -2.797 -18.538  -7.809  1.00  0.00     0.012 C 
ATOM     25  C   UNL     1      -5.734 -19.668  -8.871  1.00  0.00    -0.006 C 
ATOM     26  C   UNL     1      -3.899 -19.494 -10.658  1.00  0.00     0.033 C 
ATOM     27  C   UNL     1      -5.340 -19.936 -10.357  1.00  0.00     0.120 C 
ATOM     28  C   UNL     1      -7.125 -20.308  -8.614  1.00  0.00     0.014 C 
ATOM     29  C   UNL     1      -5.907 -18.138  -8.658  1.00  0.00     0.014 C 
ENDROOT
BRANCH   1  30
ATOM     30  C   UNL     1      -0.879 -24.610  -3.243  1.00  0.00     0.048 C 
ATOM     31  O   UNL     1      -1.225 -25.125  -4.340  1.00  0.00    -0.550 OA
ATOM     32  O   UNL     1      -1.429 -25.125  -2.073  1.00  0.00    -0.550 OA
ENDBRANCH   1  30
BRANCH  27  33
ATOM     33  O   UNL     1      -5.480 -21.303 -10.663  1.00  0.00    -0.393 OA
ATOM     34  H   UNL     1      -5.473 -21.381 -11.653  1.00  0.00     0.210 HD
ENDBRANCH  27  33
TORSDOF 2
ENDMDL
MODEL 4
REMARK VINA RESULT:    -5.889      1.361      8.172
REMARK INTER + INTRA:          -6.415
REMARK INTER:                  -6.202
REMARK INTRA:                  -0.212
REMARK UNBOUND:                -0.009
REMARK SMILES C[C@H]1[C@@H](C)CC[C@@]2(C(=O)[O-])CC[C@@]3(C)C(=CC[C@@H]4[C@@]5(C)CC[C@@H](O)C(C)(C)[C@@H]5CC[C@@]43C)[C@@H]12
REMARK SMILES IDX 7 1 6 2 11 3 33 4 5 5 12 6 15 7 2 8 3 9 13 10 16 11 1 12
REMARK SMILES IDX 4 13 14 14 31 15 17 16 18 17 30 18 32 19 19 20 29 21 28 22
REMARK SMILES IDX 21 23 20 24 25 25 22 26 23 27 26 28 27 29 8 30 9 31 10 32
REMARK SMILES IDX 24 33
REMARK H PARENT 24 34
REMARK Flexibility Score: inf
ROOT
ATOM      1  C   UNL     1      -2.874 -19.531  -9.090  1.00  0.00     0.017 C 
ATOM      2  C   UNL     1      -3.857 -18.754 -10.019  1.00  0.00     0.014 C 
ATOM      3  C   UNL     1      -1.792 -18.534  -8.613  1.00  0.00     0.014 C 
ATOM      4  C   UNL     1      -3.625 -20.159  -7.843  1.00  0.00     0.030 C 
ATOM      5  C   UNL     1      -5.195 -19.474 -10.156  1.00  0.00     0.004 C 
ATOM      6  C   UNL     1      -0.753 -19.222  -7.729  1.00  0.00     0.013 C 
ATOM      7  C   UNL     1      -2.766 -20.342  -6.570  1.00  0.00    -0.063 C 
ATOM      8  C   UNL     1      -5.019 -19.498  -7.545  1.00  0.00    -0.003 C 
ATOM      9  C   UNL     1      -5.952 -19.558  -8.807  1.00  0.00    -0.011 C 
ATOM     10  C   UNL     1      -1.340 -19.769  -6.381  1.00  0.00    -0.006 C 
ATOM     11  C   UNL     1      -3.287 -21.101  -5.580  1.00  0.00    -0.027 C 
ATOM     12  C   UNL     1      -4.912 -18.114  -6.871  1.00  0.00     0.008 C 
ATOM     13  C   UNL     1      -7.125 -18.565  -8.768  1.00  0.00     0.008 C 
ATOM     14  C   UNL     1      -1.450 -18.517  -5.453  1.00  0.00     0.017 C 
ATOM     15  C   UNL     1      -0.394 -20.929  -5.751  1.00  0.00    -0.020 C 
ATOM     16  C   UNL     1      -2.574 -21.333  -4.283  1.00  0.00     0.032 C 
ATOM     17  C   UNL     1      -1.089 -21.698  -4.523  1.00  0.00     0.006 C 
ATOM     18  C   UNL     1       0.983 -20.341  -5.314  1.00  0.00     0.008 C 
ATOM     19  C   UNL     1      -0.088 -22.010  -6.851  1.00  0.00     0.012 C 
ATOM     20  C   UNL     1      -0.217 -21.843  -3.197  1.00  0.00    -0.025 C 
ATOM     21  C   UNL     1       1.919 -21.350  -4.623  1.00  0.00     0.005 C 
ATOM     22  C   UNL     1       1.210 -22.334  -3.644  1.00  0.00     0.003 C 
ATOM     23  C   UNL     1      -0.873 -22.944  -2.296  1.00  0.00     0.010 C 
ATOM     24  C   UNL     1      -0.144 -20.504  -2.391  1.00  0.00     0.012 C 
ATOM     25  C   UNL     1       2.146 -22.906  -2.502  1.00  0.00    -0.006 C 
ATOM     26  C   UNL     1       0.025 -23.454  -1.162  1.00  0.00     0.033 C 
ATOM     27  C   UNL     1       1.366 -23.988  -1.691  1.00  0.00     0.120 C 
ATOM     28  C   UNL     1       3.386 -23.582  -3.147  1.00  0.00     0.014 C 
ATOM     29  C   UNL     1       2.692 -21.830  -1.522  1.00  0.00     0.014 C 
ENDROOT
BRANCH   1  30
ATOM     30  C   UNL     1      -2.206 -20.613  -9.950  1.00  0.00     0.048 C 
ATOM     31  O   UNL     1      -2.607 -21.805  -9.881  1.00  0.00    -0.550 OA
ATOM     32  O   UNL     1      -1.137 -20.326 -10.794  1.00  0.00    -0.550 OA
ENDBRANCH   1  30
BRANCH  27  33
ATOM     33  O   UNL     1       1.132 -25.125  -2.488  1.00  0.00    -0.393 OA
ATOM     34  H   UNL     1       0.754 -24.804  -3.348  1.00  0.00     0.210 HD
ENDBRANCH  27  33
TORSDOF 2
ENDMDL
