MODEL 1
REMARK VINA RESULT:    -4.085      0.000      0.000
REMARK INTER + INTRA:          -4.273
REMARK INTER:                  -5.041
REMARK INTRA:                   0.768
REMARK UNBOUND:                 0.768
REMARK SMILES CC1=CC=CC(C)(C)CC1=O
REMARK SMILES IDX 1 1 2 2 3 3 10 4 11 5 9 6 4 8 5 9 6 10 7 11 8 12
REMARK H PARENT
REMARK Flexibility Score: 80.00
ROOT
ATOM      1  C   UNL     1      -5.210  -3.625  -2.637  1.00  0.00     0.048 C 
ATOM      2  C   UNL     1      -4.600  -2.539  -1.783  1.00  0.00    -0.008 C 
ATOM      3  C   UNL     1      -3.271  -2.322  -1.900  1.00  0.00     0.007 C 
ENDROOT
BRANCH   2   4
ATOM      4  C   UNL     1      -5.499  -1.845  -0.827  1.00  0.00     0.159 C 
ATOM      5  O   UNL     1      -6.655  -2.311  -0.632  1.00  0.00    -0.295 OA
BRANCH   4   6
ATOM      6  C   UNL     1      -5.114  -0.603  -0.083  1.00  0.00     0.091 CG0
ATOM      7  G   UNL     1      -3.872  -0.792   0.817  1.00  0.00     0.000 G0
ENDBRANCH   4   6
ENDBRANCH   2   4
BRANCH   3   8
ATOM      8  C   UNL     1      -2.398  -1.360  -1.188  1.00  0.00    -0.003 C 
ATOM      9  C   UNL     1      -2.619  -0.710  -0.038  1.00  0.00    -0.020 C 
BRANCH   9  10
ATOM     10  C   UNL     1      -3.863  -0.791   0.814  1.00  0.00    -0.010 CG0
ATOM     11  C   UNL     1      -3.883  -2.125   1.595  1.00  0.00     0.016 C 
ATOM     12  C   UNL     1      -3.823   0.363   1.842  1.00  0.00     0.016 C 
ATOM     13  G   UNL     1      -5.114  -0.601  -0.074  1.00  0.00     0.000 G0
ENDBRANCH   9  10
ENDBRANCH   3   8
TORSDOF 0
ENDMDL
MODEL 2
REMARK VINA RESULT:    -4.059      1.742      3.374
REMARK INTER + INTRA:          -4.241
REMARK INTER:                  -5.283
REMARK INTRA:                   1.043
REMARK UNBOUND:                 0.768
REMARK SMILES CC1=CC=CC(C)(C)CC1=O
REMARK SMILES IDX 1 1 2 2 3 3 10 4 11 5 9 6 4 8 5 9 6 10 7 11 8 12
REMARK H PARENT
REMARK Flexibility Score: 80.00
ROOT
ATOM      1  C   UNL     1      -6.839  -0.137   0.796  1.00  0.00     0.048 C 
ATOM      2  C   UNL     1      -5.866  -1.026   0.060  1.00  0.00    -0.008 C 
ATOM      3  C   UNL     1      -6.373  -1.916  -0.821  1.00  0.00     0.007 C 
ENDROOT
BRANCH   2   4
ATOM      4  C   UNL     1      -4.431  -0.901   0.420  1.00  0.00     0.159 C 
ATOM      5  O   UNL     1      -4.056   0.103   1.086  1.00  0.00    -0.295 OA
BRANCH   4   6
ATOM      6  C   UNL     1      -3.389  -1.902   0.024  1.00  0.00     0.091 CG0
ATOM      7  G   UNL     1      -3.286  -2.102  -1.505  1.00  0.00     0.000 G0
ENDBRANCH   4   6
ENDBRANCH   2   4
BRANCH   3   8
ATOM      8  C   UNL     1      -5.683  -2.923  -1.659  1.00  0.00    -0.003 C 
ATOM      9  C   UNL     1      -4.379  -3.031  -1.950  1.00  0.00    -0.020 C 
BRANCH   9  10
ATOM     10  C   UNL     1      -3.279  -2.101  -1.495  1.00  0.00    -0.010 CG0
ATOM     11  C   UNL     1      -1.904  -2.657  -1.932  1.00  0.00     0.016 C 
ATOM     12  C   UNL     1      -3.482  -0.734  -2.188  1.00  0.00     0.016 C 
ATOM     13  G   UNL     1      -3.378  -1.886   0.032  1.00  0.00     0.000 G0
ENDBRANCH   9  10
ENDBRANCH   3   8
TORSDOF 0
ENDMDL
MODEL 3
REMARK VINA RESULT:    -4.008      1.918      4.026
REMARK INTER + INTRA:          -4.178
REMARK INTER:                  -4.937
REMARK INTRA:                   0.759
REMARK UNBOUND:                 0.768
REMARK SMILES CC1=CC=CC(C)(C)CC1=O
REMARK SMILES IDX 1 1 2 2 3 3 10 4 11 5 9 6 4 8 5 9 6 10 7 11 8 12
REMARK H PARENT
REMARK Flexibility Score: 80.00
ROOT
ATOM      1  C   UNL     1      -4.921   1.406   2.996  1.00  0.00     0.048 C 
ATOM      2  C   UNL     1      -5.056   0.648   1.697  1.00  0.00    -0.008 C 
ATOM      3  C   UNL     1      -6.303   0.437   1.221  1.00  0.00     0.007 C 
ENDROOT
BRANCH   2   4
ATOM      4  C   UNL     1      -3.808   0.128   1.085  1.00  0.00     0.159 C 
ATOM      5  O   UNL     1      -2.742   0.154   1.760  1.00  0.00    -0.295 OA
BRANCH   4   6
ATOM      6  C   UNL     1      -3.736  -0.419  -0.308  1.00  0.00     0.091 CG0
ATOM      7  G   UNL     1      -4.660  -1.638  -0.532  1.00  0.00     0.000 G0
ENDBRANCH   4   6
ENDBRANCH   2   4
BRANCH   3   8
ATOM      8  C   UNL     1      -6.749  -0.284   0.007  1.00  0.00    -0.003 C 
ATOM      9  C   UNL     1      -6.080  -1.171  -0.742  1.00  0.00    -0.020 C 
BRANCH   9  10
ATOM     10  C   UNL     1      -4.659  -1.636  -0.528  1.00  0.00    -0.010 CG0
ATOM     11  C   UNL     1      -4.604  -2.643   0.644  1.00  0.00     0.016 C 
ATOM     12  C   UNL     1      -4.190  -2.367  -1.806  1.00  0.00     0.016 C 
ATOM     13  G   UNL     1      -3.740  -0.414  -0.308  1.00  0.00     0.000 G0
ENDBRANCH   9  10
ENDBRANCH   3   8
TORSDOF 0
ENDMDL
MODEL 4
REMARK VINA RESULT:    -3.982      1.610      2.580
REMARK INTER + INTRA:          -4.146
REMARK INTER:                  -4.900
REMARK INTRA:                   0.754
REMARK UNBOUND:                 0.768
REMARK SMILES CC1=CC=CC(C)(C)CC1=O
REMARK SMILES IDX 1 1 2 2 3 3 10 4 11 5 9 6 4 8 5 9 6 10 7 11 8 12
REMARK H PARENT
REMARK Flexibility Score: 80.00
ROOT
ATOM      1  C   UNL     1      -7.126  -2.501  -1.495  1.00  0.00     0.048 C 
ATOM      2  C   UNL     1      -6.302  -1.817  -0.431  1.00  0.00    -0.008 C 
ATOM      3  C   UNL     1      -6.750  -0.635   0.046  1.00  0.00     0.007 C 
ENDROOT
BRANCH   2   4
ATOM      4  C   UNL     1      -5.024  -2.466  -0.045  1.00  0.00     0.159 C 
ATOM      5  O   UNL     1      -4.586  -3.416  -0.751  1.00  0.00    -0.295 OA
BRANCH   4   6
ATOM      6  C   UNL     1      -4.221  -2.063   1.154  1.00  0.00     0.091 CG0
ATOM      7  G   UNL     1      -3.763  -0.588   1.112  1.00  0.00     0.000 G0
ENDBRANCH   4   6
ENDBRANCH   2   4
BRANCH   3   8
ATOM      8  C   UNL     1      -6.156   0.270   1.057  1.00  0.00    -0.003 C 
ATOM      9  C   UNL     1      -4.897   0.318   1.511  1.00  0.00    -0.020 C 
BRANCH   9  10
ATOM     10  C   UNL     1      -3.760  -0.588   1.102  1.00  0.00    -0.010 CG0
ATOM     11  C   UNL     1      -3.228  -0.173  -0.289  1.00  0.00     0.016 C 
ATOM     12  C   UNL     1      -2.611  -0.416   2.122  1.00  0.00     0.016 C 
ATOM     13  G   UNL     1      -4.226  -2.061   1.147  1.00  0.00     0.000 G0
ENDBRANCH   9  10
ENDBRANCH   3   8
TORSDOF 0
ENDMDL
MODEL 5
REMARK VINA RESULT:    -3.978      1.418      3.463
REMARK INTER + INTRA:          -4.141
REMARK INTER:                  -4.903
REMARK INTRA:                   0.762
REMARK UNBOUND:                 0.768
REMARK SMILES CC1=CC=CC(C)(C)CC1=O
REMARK SMILES IDX 1 1 2 2 3 3 10 4 11 5 9 6 4 8 5 9 6 10 7 11 8 12
REMARK H PARENT
REMARK Flexibility Score: 80.00
ROOT
ATOM      1  C   UNL     1      -5.113   1.343   2.607  1.00  0.00     0.048 C 
ATOM      2  C   UNL     1      -4.485   0.260   1.763  1.00  0.00    -0.008 C 
ATOM      3  C   UNL     1      -3.143   0.121   1.819  1.00  0.00     0.007 C 
ENDROOT
BRANCH   2   4
ATOM      4  C   UNL     1      -5.390  -0.520   0.881  1.00  0.00     0.159 C 
ATOM      5  O   UNL     1      -6.575  -0.119   0.718  1.00  0.00    -0.295 OA
BRANCH   4   6
ATOM      6  C   UNL     1      -4.976  -1.775   0.175  1.00  0.00     0.091 CG0
ATOM      7  G   UNL     1      -3.794  -1.566  -0.797  1.00  0.00     0.000 G0
ENDBRANCH   4   6
ENDBRANCH   2   4
BRANCH   3   8
ATOM      8  C   UNL     1      -2.252  -0.818   1.098  1.00  0.00    -0.003 C 
ATOM      9  C   UNL     1      -2.494  -1.529  -0.011  1.00  0.00    -0.020 C 
BRANCH   9  10
ATOM     10  C   UNL     1      -3.786  -1.559  -0.793  1.00  0.00    -0.010 CG0
ATOM     11  C   UNL     1      -3.925  -0.268  -1.633  1.00  0.00     0.016 C 
ATOM     12  C   UNL     1      -3.736  -2.758  -1.768  1.00  0.00     0.016 C 
ATOM     13  G   UNL     1      -4.974  -1.773   0.171  1.00  0.00     0.000 G0
ENDBRANCH   9  10
ENDBRANCH   3   8
TORSDOF 0
ENDMDL
MODEL 6
REMARK VINA RESULT:    -3.932      0.949      1.485
REMARK INTER + INTRA:          -4.083
REMARK INTER:                  -5.114
REMARK INTRA:                   1.031
REMARK UNBOUND:                 0.768
REMARK SMILES CC1=CC=CC(C)(C)CC1=O
REMARK SMILES IDX 1 1 2 2 3 3 10 4 11 5 9 6 4 8 5 9 6 10 7 11 8 12
REMARK H PARENT
REMARK Flexibility Score: 80.00
ROOT
ATOM      1  C   UNL     1      -5.241  -3.644  -2.657  1.00  0.00     0.048 C 
ATOM      2  C   UNL     1      -4.890  -2.731  -1.506  1.00  0.00    -0.008 C 
ATOM      3  C   UNL     1      -3.586  -2.434  -1.316  1.00  0.00     0.007 C 
ENDROOT
BRANCH   2   4
ATOM      4  C   UNL     1      -6.004  -2.292  -0.628  1.00  0.00     0.159 C 
ATOM      5  O   UNL     1      -7.191  -2.454  -1.025  1.00  0.00    -0.295 OA
BRANCH   4   6
ATOM      6  C   UNL     1      -5.799  -1.651   0.710  1.00  0.00     0.091 CG0
ATOM      7  G   UNL     1      -4.958  -0.356   0.642  1.00  0.00     0.000 G0
ENDBRANCH   4   6
ENDBRANCH   2   4
BRANCH   3   8
ATOM      8  C   UNL     1      -2.942  -1.602  -0.274  1.00  0.00    -0.003 C 
ATOM      9  C   UNL     1      -3.500  -0.730   0.576  1.00  0.00    -0.020 C 
BRANCH   9  10
ATOM     10  C   UNL     1      -4.963  -0.361   0.650  1.00  0.00    -0.010 CG0
ATOM     11  C   UNL     1      -5.213   0.570   1.859  1.00  0.00     0.016 C 
ATOM     12  C   UNL     1      -5.333   0.417  -0.634  1.00  0.00     0.016 C 
ATOM     13  G   UNL     1      -5.822  -1.644   0.698  1.00  0.00     0.000 G0
ENDBRANCH   9  10
ENDBRANCH   3   8
TORSDOF 0
ENDMDL
MODEL 7
REMARK VINA RESULT:    -3.920      1.508      2.516
REMARK INTER + INTRA:          -4.068
REMARK INTER:                  -4.828
REMARK INTRA:                   0.759
REMARK UNBOUND:                 0.768
REMARK SMILES CC1=CC=CC(C)(C)CC1=O
REMARK SMILES IDX 1 1 2 2 3 3 10 4 11 5 9 6 4 8 5 9 6 10 7 11 8 12
REMARK H PARENT
REMARK Flexibility Score: 80.00
ROOT
ATOM      1  C   UNL     1      -5.253  -3.662  -2.937  1.00  0.00     0.048 C 
ATOM      2  C   UNL     1      -5.231  -2.862  -1.657  1.00  0.00    -0.008 C 
ATOM      3  C   UNL     1      -6.417  -2.475  -1.139  1.00  0.00     0.007 C 
ENDROOT
BRANCH   2   4
ATOM      4  C   UNL     1      -3.900  -2.500  -1.109  1.00  0.00     0.159 C 
ATOM      5  O   UNL     1      -2.877  -2.684  -1.824  1.00  0.00    -0.295 OA
BRANCH   4   6
ATOM      6  C   UNL     1      -3.697  -1.934   0.263  1.00  0.00     0.091 CG0
ATOM      7  G   UNL     1      -4.451  -0.604   0.492  1.00  0.00     0.000 G0
ENDBRANCH   4   6
ENDBRANCH   2   4
BRANCH   3   8
ATOM      8  C   UNL     1      -6.711  -1.672   0.071  1.00  0.00    -0.003 C 
ATOM      9  C   UNL     1      -5.899  -0.865   0.767  1.00  0.00    -0.020 C 
BRANCH   9  10
ATOM     10  C   UNL     1      -4.439  -0.601   0.484  1.00  0.00    -0.010 CG0
ATOM     11  C   UNL     1      -4.299   0.360  -0.719  1.00  0.00     0.016 C 
ATOM     12  C   UNL     1      -3.823   0.092   1.721  1.00  0.00     0.016 C 
ATOM     13  G   UNL     1      -3.701  -1.941   0.266  1.00  0.00     0.000 G0
ENDBRANCH   9  10
ENDBRANCH   3   8
TORSDOF 0
ENDMDL
MODEL 8
REMARK VINA RESULT:    -3.471      1.995      3.771
REMARK INTER + INTRA:          -3.515
REMARK INTER:                  -4.274
REMARK INTRA:                   0.759
REMARK UNBOUND:                 0.768
REMARK SMILES CC1=CC=CC(C)(C)CC1=O
REMARK SMILES IDX 1 1 2 2 3 3 10 4 11 5 9 6 4 8 5 9 6 10 7 11 8 12
REMARK H PARENT
REMARK Flexibility Score: 80.00
ROOT
ATOM      1  C   UNL     1      -1.352   0.119   1.747  1.00  0.00     0.048 C 
ATOM      2  C   UNL     1      -2.779   0.036   1.261  1.00  0.00    -0.008 C 
ATOM      3  C   UNL     1      -3.731   0.641   2.005  1.00  0.00     0.007 C 
ENDROOT
BRANCH   2   4
ATOM      4  C   UNL     1      -3.032  -0.770   0.040  1.00  0.00     0.159 C 
ATOM      5  O   UNL     1      -2.108  -1.505  -0.405  1.00  0.00    -0.295 OA
BRANCH   4   6
ATOM      6  C   UNL     1      -4.329  -0.751  -0.709  1.00  0.00     0.091 CG0
ATOM      7  G   UNL     1      -5.535  -1.192   0.150  1.00  0.00     0.000 G0
ENDBRANCH   4   6
ENDBRANCH   2   4
BRANCH   3   8
ATOM      8  C   UNL     1      -5.197   0.708   1.803  1.00  0.00    -0.003 C 
ATOM      9  C   UNL     1      -5.981  -0.064   1.039  1.00  0.00    -0.020 C 
BRANCH   9  10
ATOM     10  C   UNL     1      -5.531  -1.204   0.156  1.00  0.00    -0.010 CG0
ATOM     11  C   UNL     1      -5.214  -2.447   1.018  1.00  0.00     0.016 C 
ATOM     12  C   UNL     1      -6.692  -1.568  -0.796  1.00  0.00     0.016 C 
ATOM     13  G   UNL     1      -4.328  -0.752  -0.703  1.00  0.00     0.000 G0
ENDBRANCH   9  10
ENDBRANCH   3   8
TORSDOF 0
ENDMDL
MODEL 9
REMARK VINA RESULT:    -3.462      1.774      3.459
REMARK INTER + INTRA:          -3.504
REMARK INTER:                  -4.263
REMARK INTRA:                   0.759
REMARK UNBOUND:                 0.768
REMARK SMILES CC1=CC=CC(C)(C)CC1=O
REMARK SMILES IDX 1 1 2 2 3 3 10 4 11 5 9 6 4 8 5 9 6 10 7 11 8 12
REMARK H PARENT
REMARK Flexibility Score: 80.00
ROOT
ATOM      1  C   UNL     1      -1.164   0.097   1.821  1.00  0.00     0.048 C 
ATOM      2  C   UNL     1      -2.177  -0.606   0.950  1.00  0.00    -0.008 C 
ATOM      3  C   UNL     1      -1.904  -0.709  -0.369  1.00  0.00     0.007 C 
ENDROOT
BRANCH   2   4
ATOM      4  C   UNL     1      -3.429  -1.063   1.602  1.00  0.00     0.159 C 
ATOM      5  O   UNL     1      -3.682  -0.671   2.775  1.00  0.00    -0.295 OA
BRANCH   4   6
ATOM      6  C   UNL     1      -4.414  -1.982   0.948  1.00  0.00     0.091 CG0
ATOM      7  G   UNL     1      -4.995  -1.417  -0.368  1.00  0.00     0.000 G0
ENDBRANCH   4   6
ENDBRANCH   2   4
BRANCH   3   8
ATOM      8  C   UNL     1      -2.703  -1.310  -1.462  1.00  0.00    -0.003 C 
ATOM      9  C   UNL     1      -4.010  -1.600  -1.492  1.00  0.00    -0.020 C 
BRANCH   9  10
ATOM     10  C   UNL     1      -5.000  -1.397  -0.369  1.00  0.00    -0.010 CG0
ATOM     11  C   UNL     1      -5.370   0.100  -0.255  1.00  0.00     0.016 C 
ATOM     12  C   UNL     1      -6.287  -2.181  -0.709  1.00  0.00     0.016 C 
ATOM     13  G   UNL     1      -4.421  -1.969   0.944  1.00  0.00     0.000 G0
ENDBRANCH   9  10
ENDBRANCH   3   8
TORSDOF 0
ENDMDL
