MODEL 1
REMARK VINA RESULT:    -6.782      0.000      0.000
REMARK INTER + INTRA:         -11.527
REMARK INTER:                 -10.152
REMARK INTRA:                  -1.375
REMARK UNBOUND:                -1.375
REMARK SMILES COC(=O)C1=CO[C@@H](O[C@H]2O[C@H](CO)[C@@H](O)[C@@H](O)[C@@H]2O)[C@H]2C(CO)=CC[C@H]12
REMARK SMILES IDX 9 1 8 2 5 3 6 4 27 5 7 6 21 7 26 8 22 9 25 10 3 11 4 12 2 13
REMARK SMILES IDX 1 14 23 15 24 16 10 18 19 19 11 20 17 21 12 22 15 23 20 24
REMARK SMILES IDX 18 26 13 28 14 29 16 31
REMARK H PARENT 24 17 20 25 18 27 14 30 16 32
REMARK Flexibility Score: inf
ROOT
ATOM      1  O   UNL     1      15.980  13.045  12.140  1.00  0.00    -0.310 OA
ENDROOT
BRANCH   1   2
ATOM      2  C   UNL     1      16.344  12.232  13.276  1.00  0.00     0.316 C 
ATOM      3  C   UNL     1      17.391  10.428  15.184  1.00  0.00     0.076 C 
ATOM      4  C   UNL     1      17.985  11.631  14.940  1.00  0.00     0.202 C 
ATOM      5  C   UNL     1      16.831   9.805  13.937  1.00  0.00     0.047 C 
ATOM      6  O   UNL     1      17.710  12.215  13.689  1.00  0.00    -0.471 OA
ATOM      7  C   UNL     1      15.817  10.718  13.201  1.00  0.00     0.094 C 
ATOM      8  C   UNL     1      16.134   8.445  13.920  1.00  0.00     0.037 C 
ATOM      9  C   UNL     1      15.459   9.743  12.078  1.00  0.00    -0.039 C 
ATOM     10  C   UNL     1      15.457   8.508  12.609  1.00  0.00    -0.024 C 
BRANCH   3  11
ATOM     11  C   UNL     1      17.457   9.665  16.433  1.00  0.00     0.337 C 
ATOM     12  O   UNL     1      16.676   9.962  17.390  1.00  0.00    -0.246 OA
BRANCH  11  13
ATOM     13  O   UNL     1      18.593   8.881  16.636  1.00  0.00    -0.466 OA
ATOM     14  C   UNL     1      18.595   7.449  16.524  1.00  0.00     0.282 C 
ENDBRANCH  11  13
ENDBRANCH   3  11
BRANCH   9  15
ATOM     15  C   UNL     1      15.654   9.857  10.563  1.00  0.00     0.187 C 
BRANCH  15  16
ATOM     16  O   UNL     1      16.797   9.156  10.096  1.00  0.00    -0.392 OA
ATOM     17  H   UNL     1      16.512   8.260   9.740  1.00  0.00     0.211 HD
ENDBRANCH  15  16
ENDBRANCH   9  15
ENDBRANCH   1   2
BRANCH   1  18
ATOM     18  C   UNL     1      14.835  13.868  12.312  1.00  0.00     0.286 C 
ATOM     19  C   UNL     1      14.734  14.234  13.811  1.00  0.00     0.202 C 
ATOM     20  O   UNL     1      13.718  13.312  11.599  1.00  0.00    -0.341 OA
ATOM     21  C   UNL     1      13.359  14.091  14.492  1.00  0.00     0.179 C 
ATOM     22  C   UNL     1      12.488  13.152  12.330  1.00  0.00     0.178 C 
ATOM     23  C   UNL     1      12.257  14.204  13.452  1.00  0.00     0.177 C 
BRANCH  19  24
ATOM     24  O   UNL     1      15.274  15.528  14.077  1.00  0.00    -0.385 OA
ATOM     25  H   UNL     1      15.123  15.697  15.036  1.00  0.00     0.211 HD
ENDBRANCH  19  24
BRANCH  21  26
ATOM     26  O   UNL     1      13.287  12.832  15.134  1.00  0.00    -0.387 OA
ATOM     27  H   UNL     1      13.575  12.880  16.115  1.00  0.00     0.211 HD
ENDBRANCH  21  26
BRANCH  22  28
ATOM     28  C   UNL     1      11.334  13.046  11.292  1.00  0.00     0.191 C 
BRANCH  28  29
ATOM     29  O   UNL     1      10.164  12.616  11.945  1.00  0.00    -0.394 OA
ATOM     30  H   UNL     1       9.728  13.438  12.306  1.00  0.00     0.210 HD
ENDBRANCH  28  29
ENDBRANCH  22  28
BRANCH  23  31
ATOM     31  O   UNL     1      11.030  14.023  14.119  1.00  0.00    -0.387 OA
ATOM     32  H   UNL     1      10.521  14.897  14.156  1.00  0.00     0.211 HD
ENDBRANCH  23  31
ENDBRANCH   1  18
TORSDOF 11
ENDMDL
MODEL 2
REMARK VINA RESULT:    -6.513      2.232      6.829
REMARK INTER + INTRA:         -11.125
REMARK INTER:                  -9.558
REMARK INTRA:                  -1.566
REMARK UNBOUND:                -1.375
REMARK SMILES COC(=O)C1=CO[C@@H](O[C@H]2O[C@H](CO)[C@@H](O)[C@@H](O)[C@@H]2O)[C@H]2C(CO)=CC[C@H]12
REMARK SMILES IDX 9 1 8 2 5 3 6 4 27 5 7 6 21 7 26 8 22 9 25 10 3 11 4 12 2 13
REMARK SMILES IDX 1 14 23 15 24 16 10 18 19 19 11 20 17 21 12 22 15 23 20 24
REMARK SMILES IDX 18 26 13 28 14 29 16 31
REMARK H PARENT 24 17 20 25 18 27 14 30 16 32
REMARK Flexibility Score: inf
ROOT
ATOM      1  O   UNL     1      17.649  13.198  13.224  1.00  0.00    -0.310 OA
ENDROOT
BRANCH   1   2
ATOM      2  C   UNL     1      16.216  13.166  13.057  1.00  0.00     0.316 C 
ATOM      3  C   UNL     1      13.486  13.468  12.388  1.00  0.00     0.076 C 
ATOM      4  C   UNL     1      14.314  12.668  11.657  1.00  0.00     0.202 C 
ATOM      5  C   UNL     1      14.178  14.708  12.878  1.00  0.00     0.047 C 
ATOM      6  O   UNL     1      15.690  12.954  11.747  1.00  0.00    -0.471 OA
ATOM      7  C   UNL     1      15.445  14.408  13.720  1.00  0.00     0.094 C 
ATOM      8  C   UNL     1      13.476  15.789  13.700  1.00  0.00     0.037 C 
ATOM      9  C   UNL     1      15.801  15.857  14.058  1.00  0.00    -0.039 C 
ATOM     10  C   UNL     1      14.644  16.519  14.233  1.00  0.00    -0.024 C 
BRANCH   3  11
ATOM     11  C   UNL     1      12.035  13.322  12.522  1.00  0.00     0.337 C 
ATOM     12  O   UNL     1      11.535  13.050  13.658  1.00  0.00    -0.246 OA
BRANCH  11  13
ATOM     13  O   UNL     1      11.304  13.152  11.346  1.00  0.00    -0.466 OA
ATOM     14  C   UNL     1       9.868  13.183  11.295  1.00  0.00     0.282 C 
ENDBRANCH  11  13
ENDBRANCH   3  11
BRANCH   9  15
ATOM     15  C   UNL     1      17.038  16.685  13.702  1.00  0.00     0.187 C 
BRANCH  15  16
ATOM     16  O   UNL     1      18.255  16.051  14.067  1.00  0.00    -0.392 OA
ATOM     17  H   UNL     1      18.394  15.243  13.485  1.00  0.00     0.211 HD
ENDBRANCH  15  16
ENDBRANCH   9  15
ENDBRANCH   1   2
BRANCH   1  18
ATOM     18  C   UNL     1      18.157  12.480  14.340  1.00  0.00     0.286 C 
ATOM     19  C   UNL     1      17.254  11.244  14.559  1.00  0.00     0.202 C 
ATOM     20  O   UNL     1      18.460  13.387  15.412  1.00  0.00    -0.341 OA
ATOM     21  C   UNL     1      16.780  10.949  15.995  1.00  0.00     0.179 C 
ATOM     22  C   UNL     1      17.922  13.070  16.710  1.00  0.00     0.178 C 
ATOM     23  C   UNL     1      17.757  11.549  16.991  1.00  0.00     0.177 C 
BRANCH  19  24
ATOM     24  O   UNL     1      17.821  10.066  13.984  1.00  0.00    -0.385 OA
ATOM     25  H   UNL     1      17.254   9.316  14.279  1.00  0.00     0.211 HD
ENDBRANCH  19  24
BRANCH  21  26
ATOM     26  O   UNL     1      15.495  11.509  16.184  1.00  0.00    -0.387 OA
ATOM     27  H   UNL     1      14.760  10.797  16.206  1.00  0.00     0.211 HD
ENDBRANCH  21  26
BRANCH  22  28
ATOM     28  C   UNL     1      18.763  13.839  17.769  1.00  0.00     0.191 C 
BRANCH  28  29
ATOM     29  O   UNL     1      18.093  15.026  18.118  1.00  0.00    -0.394 OA
ATOM     30  H   UNL     1      17.434  14.776  18.824  1.00  0.00     0.210 HD
ENDBRANCH  28  29
ENDBRANCH  22  28
BRANCH  23  31
ATOM     31  O   UNL     1      17.256  11.289  18.281  1.00  0.00    -0.387 OA
ATOM     32  H   UNL     1      17.934  11.563  18.980  1.00  0.00     0.211 HD
ENDBRANCH  23  31
ENDBRANCH   1  18
TORSDOF 11
ENDMDL
MODEL 3
REMARK VINA RESULT:    -6.379      1.917      3.272
REMARK INTER + INTRA:         -10.924
REMARK INTER:                  -9.445
REMARK INTRA:                  -1.478
REMARK UNBOUND:                -1.375
REMARK SMILES COC(=O)C1=CO[C@@H](O[C@H]2O[C@H](CO)[C@@H](O)[C@@H](O)[C@@H]2O)[C@H]2C(CO)=CC[C@H]12
REMARK SMILES IDX 9 1 8 2 5 3 6 4 27 5 7 6 21 7 26 8 22 9 25 10 3 11 4 12 2 13
REMARK SMILES IDX 1 14 23 15 24 16 10 18 19 19 11 20 17 21 12 22 15 23 20 24
REMARK SMILES IDX 18 26 13 28 14 29 16 31
REMARK H PARENT 24 17 20 25 18 27 14 30 16 32
REMARK Flexibility Score: inf
ROOT
ATOM      1  O   UNL     1      14.328  12.390  12.180  1.00  0.00    -0.310 OA
ENDROOT
BRANCH   1   2
ATOM      2  C   UNL     1      15.219  12.265  13.309  1.00  0.00     0.316 C 
ATOM      3  C   UNL     1      17.317  11.911  15.171  1.00  0.00     0.076 C 
ATOM      4  C   UNL     1      17.116  13.105  14.542  1.00  0.00     0.202 C 
ATOM      5  C   UNL     1      17.038  10.739  14.273  1.00  0.00     0.047 C 
ATOM      6  O   UNL     1      16.409  13.052  13.325  1.00  0.00    -0.471 OA
ATOM      7  C   UNL     1      15.605  10.751  13.680  1.00  0.00     0.094 C 
ATOM      8  C   UNL     1      17.207   9.286  14.716  1.00  0.00     0.037 C 
ATOM      9  C   UNL     1      15.703   9.432  12.913  1.00  0.00    -0.039 C 
ATOM     10  C   UNL     1      16.447   8.595  13.656  1.00  0.00    -0.024 C 
BRANCH   3  11
ATOM     11  C   UNL     1      17.949  11.715  16.478  1.00  0.00     0.337 C 
ATOM     12  O   UNL     1      17.221  11.555  17.508  1.00  0.00    -0.246 OA
BRANCH  11  13
ATOM     13  O   UNL     1      19.298  12.050  16.585  1.00  0.00    -0.466 OA
ATOM     14  C   UNL     1      19.790  13.082  17.455  1.00  0.00     0.282 C 
ENDBRANCH  11  13
ENDBRANCH   3  11
BRANCH   9  15
ATOM     15  C   UNL     1      15.609   9.146  11.411  1.00  0.00     0.187 C 
BRANCH  15  16
ATOM     16  O   UNL     1      15.976  10.259  10.609  1.00  0.00    -0.392 OA
ATOM     17  H   UNL     1      15.163  10.598  10.124  1.00  0.00     0.211 HD
ENDBRANCH  15  16
ENDBRANCH   9  15
ENDBRANCH   1   2
BRANCH   1  18
ATOM     18  C   UNL     1      13.895  13.709  11.879  1.00  0.00     0.286 C 
ATOM     19  C   UNL     1      14.874  14.302  10.838  1.00  0.00     0.202 C 
ATOM     20  O   UNL     1      13.574  14.410  13.091  1.00  0.00    -0.341 OA
ATOM     21  C   UNL     1      15.407  15.726  11.087  1.00  0.00     0.179 C 
ATOM     22  C   UNL     1      14.168  15.710  13.273  1.00  0.00     0.178 C 
ATOM     23  C   UNL     1      14.427  16.496  11.957  1.00  0.00     0.177 C 
BRANCH  19  24
ATOM     24  O   UNL     1      14.358  14.203   9.511  1.00  0.00    -0.385 OA
ATOM     25  H   UNL     1      13.756  14.974   9.391  1.00  0.00     0.211 HD
ENDBRANCH  19  24
BRANCH  21  26
ATOM     26  O   UNL     1      16.663  15.646  11.733  1.00  0.00    -0.387 OA
ATOM     27  H   UNL     1      16.620  15.103  12.599  1.00  0.00     0.211 HD
ENDBRANCH  21  26
BRANCH  22  28
ATOM     28  C   UNL     1      13.316  16.472  14.328  1.00  0.00     0.191 C 
BRANCH  28  29
ATOM     29  O   UNL     1      14.152  17.334  15.061  1.00  0.00    -0.394 OA
ATOM     30  H   UNL     1      14.217  16.947  15.978  1.00  0.00     0.210 HD
ENDBRANCH  28  29
ENDBRANCH  22  28
BRANCH  23  31
ATOM     31  O   UNL     1      14.981  17.770  12.188  1.00  0.00    -0.387 OA
ATOM     32  H   UNL     1      15.201  18.220  11.310  1.00  0.00     0.211 HD
ENDBRANCH  23  31
ENDBRANCH   1  18
TORSDOF 11
ENDMDL
MODEL 4
REMARK VINA RESULT:    -6.337      2.368      4.375
REMARK INTER + INTRA:         -10.860
REMARK INTER:                  -9.499
REMARK INTRA:                  -1.362
REMARK UNBOUND:                -1.375
REMARK SMILES COC(=O)C1=CO[C@@H](O[C@H]2O[C@H](CO)[C@@H](O)[C@@H](O)[C@@H]2O)[C@H]2C(CO)=CC[C@H]12
REMARK SMILES IDX 9 1 8 2 5 3 6 4 27 5 7 6 21 7 26 8 22 9 25 10 3 11 4 12 2 13
REMARK SMILES IDX 1 14 23 15 24 16 10 18 19 19 11 20 17 21 12 22 15 23 20 24
REMARK SMILES IDX 18 26 13 28 14 29 16 31
REMARK H PARENT 24 17 20 25 18 27 14 30 16 32
REMARK Flexibility Score: inf
ROOT
ATOM      1  O   UNL     1      16.189  10.775  13.689  1.00  0.00    -0.310 OA
ENDROOT
BRANCH   1   2
ATOM      2  C   UNL     1      16.500   9.378  13.502  1.00  0.00     0.316 C 
ATOM      3  C   UNL     1      16.791   6.566  13.523  1.00  0.00     0.076 C 
ATOM      4  C   UNL     1      15.770   7.172  12.851  1.00  0.00     0.202 C 
ATOM      5  C   UNL     1      17.118   7.264  14.812  1.00  0.00     0.047 C 
ATOM      6  O   UNL     1      15.423   8.465  13.286  1.00  0.00    -0.471 OA
ATOM      7  C   UNL     1      17.471   8.763  14.622  1.00  0.00     0.094 C 
ATOM      8  C   UNL     1      18.204   6.782  15.774  1.00  0.00     0.037 C 
ATOM      9  C   UNL     1      17.781   9.075  16.087  1.00  0.00    -0.039 C 
ATOM     10  C   UNL     1      18.377   7.989  16.608  1.00  0.00    -0.024 C 
BRANCH   3  11
ATOM     11  C   UNL     1      17.383   5.263  13.211  1.00  0.00     0.337 C 
ATOM     12  O   UNL     1      18.379   5.201  12.423  1.00  0.00    -0.246 OA
BRANCH  11  13
ATOM     13  O   UNL     1      16.625   4.133  13.516  1.00  0.00    -0.466 OA
ATOM     14  C   UNL     1      16.770   3.389  14.736  1.00  0.00     0.282 C 
ENDBRANCH  11  13
ENDBRANCH   3  11
BRANCH   9  15
ATOM     15  C   UNL     1      17.102  10.041  17.063  1.00  0.00     0.187 C 
BRANCH  15  16
ATOM     16  O   UNL     1      15.790  10.407  16.660  1.00  0.00    -0.392 OA
ATOM     17  H   UNL     1      15.370  10.971  17.378  1.00  0.00     0.211 HD
ENDBRANCH  15  16
ENDBRANCH   9  15
ENDBRANCH   1   2
BRANCH   1  18
ATOM     18  C   UNL     1      15.042  11.250  12.997  1.00  0.00     0.286 C 
ATOM     19  C   UNL     1      15.508  11.793  11.626  1.00  0.00     0.202 C 
ATOM     20  O   UNL     1      14.227  12.039  13.879  1.00  0.00    -0.341 OA
ATOM     21  C   UNL     1      14.974  13.168  11.181  1.00  0.00     0.179 C 
ATOM     22  C   UNL     1      13.826  13.340  13.411  1.00  0.00     0.178 C 
ATOM     23  C   UNL     1      13.649  13.450  11.869  1.00  0.00     0.177 C 
BRANCH  19  24
ATOM     24  O   UNL     1      15.311  10.837  10.583  1.00  0.00    -0.385 OA
ATOM     25  H   UNL     1      14.864  11.319   9.849  1.00  0.00     0.211 HD
ENDBRANCH  19  24
BRANCH  21  26
ATOM     26  O   UNL     1      15.916  14.166  11.525  1.00  0.00    -0.387 OA
ATOM     27  H   UNL     1      16.879  13.866  11.354  1.00  0.00     0.211 HD
ENDBRANCH  21  26
BRANCH  22  28
ATOM     28  C   UNL     1      12.584  13.776  14.240  1.00  0.00     0.191 C 
BRANCH  28  29
ATOM     29  O   UNL     1      11.417  13.484  13.511  1.00  0.00    -0.394 OA
ATOM     30  H   UNL     1      11.169  14.324  13.035  1.00  0.00     0.210 HD
ENDBRANCH  28  29
ENDBRANCH  22  28
BRANCH  23  31
ATOM     31  O   UNL     1      13.228  14.732  11.464  1.00  0.00    -0.387 OA
ATOM     32  H   UNL     1      12.289  14.689  11.091  1.00  0.00     0.211 HD
ENDBRANCH  23  31
ENDBRANCH   1  18
TORSDOF 11
ENDMDL
MODEL 5
REMARK VINA RESULT:    -6.291      2.791      7.216
REMARK INTER + INTRA:         -10.791
REMARK INTER:                 -10.098
REMARK INTRA:                  -0.693
REMARK UNBOUND:                -1.375
REMARK SMILES COC(=O)C1=CO[C@@H](O[C@H]2O[C@H](CO)[C@@H](O)[C@@H](O)[C@@H]2O)[C@H]2C(CO)=CC[C@H]12
REMARK SMILES IDX 9 1 8 2 5 3 6 4 27 5 7 6 21 7 26 8 22 9 25 10 3 11 4 12 2 13
REMARK SMILES IDX 1 14 23 15 24 16 10 18 19 19 11 20 17 21 12 22 15 23 20 24
REMARK SMILES IDX 18 26 13 28 14 29 16 31
REMARK H PARENT 24 17 20 25 18 27 14 30 16 32
REMARK Flexibility Score: inf
ROOT
ATOM      1  O   UNL     1      14.687  13.621  13.613  1.00  0.00    -0.310 OA
ENDROOT
BRANCH   1   2
ATOM      2  C   UNL     1      14.629  14.139  12.267  1.00  0.00     0.316 C 
ATOM      3  C   UNL     1      14.971  15.355   9.737  1.00  0.00     0.076 C 
ATOM      4  C   UNL     1      15.490  14.123  10.013  1.00  0.00     0.202 C 
ATOM      5  C   UNL     1      15.041  16.279  10.919  1.00  0.00     0.047 C 
ATOM      6  O   UNL     1      15.698  13.829  11.374  1.00  0.00    -0.471 OA
ATOM      7  C   UNL     1      14.335  15.715  12.179  1.00  0.00     0.094 C 
ATOM      8  C   UNL     1      14.553  17.727  10.880  1.00  0.00     0.037 C 
ATOM      9  C   UNL     1      14.571  16.921  13.090  1.00  0.00    -0.039 C 
ATOM     10  C   UNL     1      14.474  18.021  12.325  1.00  0.00    -0.024 C 
BRANCH   3  11
ATOM     11  C   UNL     1      14.593  15.862   8.417  1.00  0.00     0.337 C 
ATOM     12  O   UNL     1      13.527  15.441   7.866  1.00  0.00    -0.246 OA
BRANCH  11  13
ATOM     13  O   UNL     1      15.582  16.516   7.683  1.00  0.00    -0.466 OA
ATOM     14  C   UNL     1      16.942  16.062   7.608  1.00  0.00     0.282 C 
ENDBRANCH  11  13
ENDBRANCH   3  11
BRANCH   9  15
ATOM     15  C   UNL     1      15.361  17.040  14.397  1.00  0.00     0.187 C 
BRANCH  15  16
ATOM     16  O   UNL     1      16.223  15.935  14.627  1.00  0.00    -0.392 OA
ATOM     17  H   UNL     1      17.167  16.269  14.728  1.00  0.00     0.211 HD
ENDBRANCH  15  16
ENDBRANCH   9  15
ENDBRANCH   1   2
BRANCH   1  18
ATOM     18  C   UNL     1      14.700  12.205  13.728  1.00  0.00     0.286 C 
ATOM     19  C   UNL     1      15.723  11.828  14.825  1.00  0.00     0.202 C 
ATOM     20  O   UNL     1      14.744  11.605  12.423  1.00  0.00    -0.341 OA
ATOM     21  C   UNL     1      16.725  10.701  14.513  1.00  0.00     0.179 C 
ATOM     22  C   UNL     1      15.756  10.606  12.196  1.00  0.00     0.178 C 
ATOM     23  C   UNL     1      16.146   9.778  13.454  1.00  0.00     0.177 C 
BRANCH  19  24
ATOM     24  O   UNL     1      15.087  11.577  16.078  1.00  0.00    -0.385 OA
ATOM     25  H   UNL     1      15.788  11.663  16.765  1.00  0.00     0.211 HD
ENDBRANCH  19  24
BRANCH  21  26
ATOM     26  O   UNL     1      17.934  11.270  14.045  1.00  0.00    -0.387 OA
ATOM     27  H   UNL     1      17.899  12.292  14.026  1.00  0.00     0.211 HD
ENDBRANCH  21  26
BRANCH  22  28
ATOM     28  C   UNL     1      15.310   9.755  10.971  1.00  0.00     0.191 C 
BRANCH  28  29
ATOM     29  O   UNL     1      16.444   9.403  10.217  1.00  0.00    -0.394 OA
ATOM     30  H   UNL     1      16.619   8.440  10.411  1.00  0.00     0.210 HD
ENDBRANCH  28  29
ENDBRANCH  22  28
BRANCH  23  31
ATOM     31  O   UNL     1      17.116   8.796  13.175  1.00  0.00    -0.387 OA
ATOM     32  H   UNL     1      17.565   8.497  14.030  1.00  0.00     0.211 HD
ENDBRANCH  23  31
ENDBRANCH   1  18
TORSDOF 11
ENDMDL
MODEL 6
REMARK VINA RESULT:    -6.284      2.228      7.034
REMARK INTER + INTRA:         -10.782
REMARK INTER:                  -9.304
REMARK INTRA:                  -1.477
REMARK UNBOUND:                -1.375
REMARK SMILES COC(=O)C1=CO[C@@H](O[C@H]2O[C@H](CO)[C@@H](O)[C@@H](O)[C@@H]2O)[C@H]2C(CO)=CC[C@H]12
REMARK SMILES IDX 9 1 8 2 5 3 6 4 27 5 7 6 21 7 26 8 22 9 25 10 3 11 4 12 2 13
REMARK SMILES IDX 1 14 23 15 24 16 10 18 19 19 11 20 17 21 12 22 15 23 20 24
REMARK SMILES IDX 18 26 13 28 14 29 16 31
REMARK H PARENT 24 17 20 25 18 27 14 30 16 32
REMARK Flexibility Score: inf
ROOT
ATOM      1  O   UNL     1      14.426  11.322  11.756  1.00  0.00    -0.310 OA
ENDROOT
BRANCH   1   2
ATOM      2  C   UNL     1      14.644  12.702  11.395  1.00  0.00     0.316 C 
ATOM      3  C   UNL     1      15.351  15.424  11.109  1.00  0.00     0.076 C 
ATOM      4  C   UNL     1      16.165  14.425  10.661  1.00  0.00     0.202 C 
ATOM      5  C   UNL     1      14.659  15.062  12.392  1.00  0.00     0.047 C 
ATOM      6  O   UNL     1      15.988  13.165  11.262  1.00  0.00    -0.471 OA
ATOM      7  C   UNL     1      13.830  13.755  12.291  1.00  0.00     0.094 C 
ATOM      8  C   UNL     1      13.709  16.007  13.127  1.00  0.00     0.037 C 
ATOM      9  C   UNL     1      13.268  13.772  13.714  1.00  0.00    -0.039 C 
ATOM     10  C   UNL     1      13.034  15.056  14.033  1.00  0.00    -0.024 C 
BRANCH   3  11
ATOM     11  C   UNL     1      15.289  16.792  10.589  1.00  0.00     0.337 C 
ATOM     12  O   UNL     1      16.138  17.652  10.985  1.00  0.00    -0.246 OA
BRANCH  11  13
ATOM     13  O   UNL     1      14.108  17.175   9.954  1.00  0.00    -0.466 OA
ATOM     14  C   UNL     1      13.315  16.282   9.154  1.00  0.00     0.282 C 
ENDBRANCH  11  13
ENDBRANCH   3  11
BRANCH   9  15
ATOM     15  C   UNL     1      13.455  12.783  14.867  1.00  0.00     0.187 C 
BRANCH  15  16
ATOM     16  O   UNL     1      14.818  12.580  15.211  1.00  0.00    -0.392 OA
ATOM     17  H   UNL     1      15.179  13.416  15.636  1.00  0.00     0.211 HD
ENDBRANCH  15  16
ENDBRANCH   9  15
ENDBRANCH   1   2
BRANCH   1  18
ATOM     18  C   UNL     1      15.580  10.601  12.164  1.00  0.00     0.286 C 
ATOM     19  C   UNL     1      15.647   9.300  11.330  1.00  0.00     0.202 C 
ATOM     20  O   UNL     1      15.663  10.576  13.599  1.00  0.00    -0.341 OA
ATOM     21  C   UNL     1      15.921   7.982  12.079  1.00  0.00     0.179 C 
ATOM     22  C   UNL     1      15.855   9.293  14.223  1.00  0.00     0.178 C 
ATOM     23  C   UNL     1      16.664   8.272  13.372  1.00  0.00     0.177 C 
BRANCH  19  24
ATOM     24  O   UNL     1      16.543   9.425  10.226  1.00  0.00    -0.385 OA
ATOM     25  H   UNL     1      17.329   9.914  10.564  1.00  0.00     0.211 HD
ENDBRANCH  19  24
BRANCH  21  26
ATOM     26  O   UNL     1      14.691   7.344  12.364  1.00  0.00    -0.387 OA
ATOM     27  H   UNL     1      13.908   7.768  11.859  1.00  0.00     0.211 HD
ENDBRANCH  21  26
BRANCH  22  28
ATOM     28  C   UNL     1      16.422   9.543  15.650  1.00  0.00     0.191 C 
BRANCH  28  29
ATOM     29  O   UNL     1      15.821   8.643  16.549  1.00  0.00    -0.394 OA
ATOM     30  H   UNL     1      14.991   9.089  16.877  1.00  0.00     0.210 HD
ENDBRANCH  28  29
ENDBRANCH  22  28
BRANCH  23  31
ATOM     31  O   UNL     1      16.850   7.044  14.036  1.00  0.00    -0.387 OA
ATOM     32  H   UNL     1      17.600   6.523  13.601  1.00  0.00     0.211 HD
ENDBRANCH  23  31
ENDBRANCH   1  18
TORSDOF 11
ENDMDL
MODEL 7
REMARK VINA RESULT:    -6.283      3.318      6.958
REMARK INTER + INTRA:         -10.779
REMARK INTER:                  -9.302
REMARK INTRA:                  -1.478
REMARK UNBOUND:                -1.375
REMARK SMILES COC(=O)C1=CO[C@@H](O[C@H]2O[C@H](CO)[C@@H](O)[C@@H](O)[C@@H]2O)[C@H]2C(CO)=CC[C@H]12
REMARK SMILES IDX 9 1 8 2 5 3 6 4 27 5 7 6 21 7 26 8 22 9 25 10 3 11 4 12 2 13
REMARK SMILES IDX 1 14 23 15 24 16 10 18 19 19 11 20 17 21 12 22 15 23 20 24
REMARK SMILES IDX 18 26 13 28 14 29 16 31
REMARK H PARENT 24 17 20 25 18 27 14 30 16 32
REMARK Flexibility Score: inf
ROOT
ATOM      1  O   UNL     1      16.169   7.535  12.566  1.00  0.00    -0.310 OA
ENDROOT
BRANCH   1   2
ATOM      2  C   UNL     1      15.664   8.883  12.463  1.00  0.00     0.316 C 
ATOM      3  C   UNL     1      15.149  11.643  12.135  1.00  0.00     0.076 C 
ATOM      4  C   UNL     1      15.125  10.783  11.076  1.00  0.00     0.202 C 
ATOM      5  C   UNL     1      16.219  11.294  13.129  1.00  0.00     0.047 C 
ATOM      6  O   UNL     1      15.849   9.586  11.235  1.00  0.00    -0.471 OA
ATOM      7  C   UNL     1      16.101   9.846  13.671  1.00  0.00     0.094 C 
ATOM      8  C   UNL     1      16.483  12.107  14.396  1.00  0.00     0.037 C 
ATOM      9  C   UNL     1      17.278   9.906  14.645  1.00  0.00    -0.039 C 
ATOM     10  C   UNL     1      17.301  11.146  15.164  1.00  0.00    -0.024 C 
BRANCH   3  11
ATOM     11  C   UNL     1      14.415  12.906  12.243  1.00  0.00     0.337 C 
ATOM     12  O   UNL     1      15.022  14.003  12.033  1.00  0.00    -0.246 OA
BRANCH  11  13
ATOM     13  O   UNL     1      13.185  12.869  12.900  1.00  0.00    -0.466 OA
ATOM     14  C   UNL     1      13.019  13.202  14.288  1.00  0.00     0.282 C 
ENDBRANCH  11  13
ENDBRANCH   3  11
BRANCH   9  15
ATOM     15  C   UNL     1      18.584   9.106  14.678  1.00  0.00     0.187 C 
BRANCH  15  16
ATOM     16  O   UNL     1      18.831   8.396  13.473  1.00  0.00    -0.392 OA
ATOM     17  H   UNL     1      19.228   7.499  13.694  1.00  0.00     0.211 HD
ENDBRANCH  15  16
ENDBRANCH   9  15
ENDBRANCH   1   2
BRANCH   1  18
ATOM     18  C   UNL     1      15.783   6.817  13.729  1.00  0.00     0.286 C 
ATOM     19  C   UNL     1      16.616   5.515  13.781  1.00  0.00     0.202 C 
ATOM     20  O   UNL     1      14.351   6.796  13.841  1.00  0.00    -0.341 OA
ATOM     21  C   UNL     1      15.870   4.199  14.074  1.00  0.00     0.179 C 
ATOM     22  C   UNL     1      13.728   5.514  14.049  1.00  0.00     0.178 C 
ATOM     23  C   UNL     1      14.593   4.494  14.843  1.00  0.00     0.177 C 
BRANCH  19  24
ATOM     24  O   UNL     1      17.739   5.640  14.654  1.00  0.00    -0.385 OA
ATOM     25  H   UNL     1      18.133   4.739  14.725  1.00  0.00     0.211 HD
ENDBRANCH  19  24
BRANCH  21  26
ATOM     26  O   UNL     1      15.558   3.560  12.851  1.00  0.00    -0.387 OA
ATOM     27  H   UNL     1      14.585   3.710  12.572  1.00  0.00     0.211 HD
ENDBRANCH  21  26
BRANCH  22  28
ATOM     28  C   UNL     1      12.314   5.769  14.644  1.00  0.00     0.191 C 
BRANCH  28  29
ATOM     29  O   UNL     1      12.403   5.802  16.048  1.00  0.00    -0.394 OA
ATOM     30  H   UNL     1      12.017   4.942  16.372  1.00  0.00     0.210 HD
ENDBRANCH  28  29
ENDBRANCH  22  28
BRANCH  23  31
ATOM     31  O   UNL     1      13.931   3.267  15.045  1.00  0.00    -0.387 OA
ATOM     32  H   UNL     1      12.931   3.392  14.959  1.00  0.00     0.211 HD
ENDBRANCH  23  31
ENDBRANCH   1  18
TORSDOF 11
ENDMDL
MODEL 8
REMARK VINA RESULT:    -6.175      2.190      7.314
REMARK INTER + INTRA:         -10.619
REMARK INTER:                  -9.098
REMARK INTRA:                  -1.520
REMARK UNBOUND:                -1.375
REMARK SMILES COC(=O)C1=CO[C@@H](O[C@H]2O[C@H](CO)[C@@H](O)[C@@H](O)[C@@H]2O)[C@H]2C(CO)=CC[C@H]12
REMARK SMILES IDX 9 1 8 2 5 3 6 4 27 5 7 6 21 7 26 8 22 9 25 10 3 11 4 12 2 13
REMARK SMILES IDX 1 14 23 15 24 16 10 18 19 19 11 20 17 21 12 22 15 23 20 24
REMARK SMILES IDX 18 26 13 28 14 29 16 31
REMARK H PARENT 24 17 20 25 18 27 14 30 16 32
REMARK Flexibility Score: inf
ROOT
ATOM      1  O   UNL     1      18.152   9.048  15.277  1.00  0.00    -0.310 OA
ENDROOT
BRANCH   1   2
ATOM      2  C   UNL     1      17.241  10.137  15.020  1.00  0.00     0.316 C 
ATOM      3  C   UNL     1      15.096  11.914  14.532  1.00  0.00     0.076 C 
ATOM      4  C   UNL     1      15.453  11.558  15.800  1.00  0.00     0.202 C 
ATOM      5  C   UNL     1      15.233  10.776  13.561  1.00  0.00     0.047 C 
ATOM      6  O   UNL     1      16.159  10.347  15.928  1.00  0.00    -0.471 OA
ATOM      7  C   UNL     1      16.662  10.174  13.523  1.00  0.00     0.094 C 
ATOM      8  C   UNL     1      14.877  10.892  12.079  1.00  0.00     0.037 C 
ATOM      9  C   UNL     1      16.406   9.138  12.427  1.00  0.00    -0.039 C 
ATOM     10  C   UNL     1      15.555   9.692  11.547  1.00  0.00    -0.024 C 
BRANCH   3  11
ATOM     11  C   UNL     1      14.431  13.156  14.134  1.00  0.00     0.337 C 
ATOM     12  O   UNL     1      15.127  14.132  13.712  1.00  0.00    -0.246 OA
BRANCH  11  13
ATOM     13  O   UNL     1      13.112  13.331  14.554  1.00  0.00    -0.466 OA
ATOM     14  C   UNL     1      11.996  13.392  13.651  1.00  0.00     0.282 C 
ENDBRANCH  11  13
ENDBRANCH   3  11
BRANCH   9  15
ATOM     15  C   UNL     1      16.478   7.609  12.469  1.00  0.00     0.187 C 
BRANCH  15  16
ATOM     16  O   UNL     1      17.774   7.122  12.788  1.00  0.00    -0.392 OA
ATOM     17  H   UNL     1      18.464   7.717  12.364  1.00  0.00     0.211 HD
ENDBRANCH  15  16
ENDBRANCH   9  15
ENDBRANCH   1   2
BRANCH   1  18
ATOM     18  C   UNL     1      17.703   8.075  16.209  1.00  0.00     0.286 C 
ATOM     19  C   UNL     1      18.483   8.286  17.528  1.00  0.00     0.202 C 
ATOM     20  O   UNL     1      17.632   6.786  15.578  1.00  0.00    -0.341 OA
ATOM     21  C   UNL     1      19.088   7.043  18.209  1.00  0.00     0.179 C 
ATOM     22  C   UNL     1      18.281   5.690  16.251  1.00  0.00     0.178 C 
ATOM     23  C   UNL     1      18.308   5.804  17.801  1.00  0.00     0.177 C 
BRANCH  19  24
ATOM     24  O   UNL     1      17.725   9.037  18.476  1.00  0.00    -0.385 OA
ATOM     25  H   UNL     1      18.227   9.871  18.631  1.00  0.00     0.211 HD
ENDBRANCH  19  24
BRANCH  21  26
ATOM     26  O   UNL     1      20.440   6.910  17.817  1.00  0.00    -0.387 OA
ATOM     27  H   UNL     1      20.591   7.187  16.843  1.00  0.00     0.211 HD
ENDBRANCH  21  26
BRANCH  22  28
ATOM     28  C   UNL     1      17.661   4.371  15.707  1.00  0.00     0.191 C 
BRANCH  28  29
ATOM     29  O   UNL     1      18.465   3.880  14.662  1.00  0.00    -0.394 OA
ATOM     30  H   UNL     1      17.845   3.442  14.015  1.00  0.00     0.210 HD
ENDBRANCH  28  29
ENDBRANCH  22  28
BRANCH  23  31
ATOM     31  O   UNL     1      18.926   4.697  18.414  1.00  0.00    -0.387 OA
ATOM     32  H   UNL     1      18.542   4.550  19.338  1.00  0.00     0.211 HD
ENDBRANCH  23  31
ENDBRANCH   1  18
TORSDOF 11
ENDMDL
MODEL 9
REMARK VINA RESULT:    -6.173      1.747      3.111
REMARK INTER + INTRA:         -10.615
REMARK INTER:                  -9.578
REMARK INTRA:                  -1.037
REMARK UNBOUND:                -1.375
REMARK SMILES COC(=O)C1=CO[C@@H](O[C@H]2O[C@H](CO)[C@@H](O)[C@@H](O)[C@@H]2O)[C@H]2C(CO)=CC[C@H]12
REMARK SMILES IDX 9 1 8 2 5 3 6 4 27 5 7 6 21 7 26 8 22 9 25 10 3 11 4 12 2 13
REMARK SMILES IDX 1 14 23 15 24 16 10 18 19 19 11 20 17 21 12 22 15 23 20 24
REMARK SMILES IDX 18 26 13 28 14 29 16 31
REMARK H PARENT 24 17 20 25 18 27 14 30 16 32
REMARK Flexibility Score: inf
ROOT
ATOM      1  O   UNL     1      16.456  12.316  13.298  1.00  0.00    -0.310 OA
ENDROOT
BRANCH   1   2
ATOM      2  C   UNL     1      16.780  11.159  14.098  1.00  0.00     0.316 C 
ATOM      3  C   UNL     1      17.695   8.752  15.266  1.00  0.00     0.076 C 
ATOM      4  C   UNL     1      18.431   9.899  15.327  1.00  0.00     0.202 C 
ATOM      5  C   UNL     1      16.972   8.608  13.956  1.00  0.00     0.047 C 
ATOM      6  O   UNL     1      18.156  10.865  14.341  1.00  0.00    -0.471 OA
ATOM      7  C   UNL     1      16.046   9.809  13.634  1.00  0.00     0.094 C 
ATOM      8  C   UNL     1      16.096   7.404  13.611  1.00  0.00     0.037 C 
ATOM      9  C   UNL     1      15.483   9.271  12.317  1.00  0.00    -0.039 C 
ATOM     10  C   UNL     1      15.348   7.941  12.457  1.00  0.00    -0.024 C 
BRANCH   3  11
ATOM     11  C   UNL     1      17.739   7.640  16.218  1.00  0.00     0.337 C 
ATOM     12  O   UNL     1      18.565   6.692  16.035  1.00  0.00    -0.246 OA
BRANCH  11  13
ATOM     13  O   UNL     1      16.653   7.503  17.082  1.00  0.00    -0.466 OA
ATOM     14  C   UNL     1      16.668   7.947  18.448  1.00  0.00     0.282 C 
ENDBRANCH  11  13
ENDBRANCH   3  11
BRANCH   9  15
ATOM     15  C   UNL     1      15.590   9.822  10.892  1.00  0.00     0.187 C 
BRANCH  15  16
ATOM     16  O   UNL     1      16.683   9.278  10.167  1.00  0.00    -0.392 OA
ATOM     17  H   UNL     1      17.295  10.024   9.884  1.00  0.00     0.211 HD
ENDBRANCH  15  16
ENDBRANCH   9  15
ENDBRANCH   1   2
BRANCH   1  18
ATOM     18  C   UNL     1      15.914  13.423  14.005  1.00  0.00     0.286 C 
ATOM     19  C   UNL     1      14.374  13.359  13.877  1.00  0.00     0.202 C 
ATOM     20  O   UNL     1      16.645  14.617  13.683  1.00  0.00    -0.341 OA
ATOM     21  C   UNL     1      13.632  14.657  13.501  1.00  0.00     0.179 C 
ATOM     22  C   UNL     1      15.877  15.766  13.278  1.00  0.00     0.178 C 
ATOM     23  C   UNL     1      14.462  15.860  13.917  1.00  0.00     0.177 C 
BRANCH  19  24
ATOM     24  O   UNL     1      13.770  12.773  15.030  1.00  0.00    -0.385 OA
ATOM     25  H   UNL     1      12.884  12.452  14.743  1.00  0.00     0.211 HD
ENDBRANCH  19  24
BRANCH  21  26
ATOM     26  O   UNL     1      13.417  14.682  12.103  1.00  0.00    -0.387 OA
ATOM     27  H   UNL     1      13.759  15.546  11.674  1.00  0.00     0.211 HD
ENDBRANCH  21  26
BRANCH  22  28
ATOM     28  C   UNL     1      16.768  17.024  13.485  1.00  0.00     0.191 C 
BRANCH  28  29
ATOM     29  O   UNL     1      16.386  17.669  14.676  1.00  0.00    -0.394 OA
ATOM     30  H   UNL     1      15.993  18.545  14.405  1.00  0.00     0.210 HD
ENDBRANCH  28  29
ENDBRANCH  22  28
BRANCH  23  31
ATOM     31  O   UNL     1      13.762  17.014  13.514  1.00  0.00    -0.387 OA
ATOM     32  H   UNL     1      14.407  17.778  13.365  1.00  0.00     0.211 HD
ENDBRANCH  23  31
ENDBRANCH   1  18
TORSDOF 11
ENDMDL
