MODEL 1
REMARK VINA RESULT:    -3.231      0.000      0.000
REMARK INTER + INTRA:          -4.569
REMARK INTER:                  -4.175
REMARK INTRA:                  -0.394
REMARK UNBOUND:                -0.394
REMARK SMILES CCCCCCC(=O)[O-]
REMARK SMILES IDX 5 1 6 2 7 3 8 4 9 5 4 6 3 7 2 8 1 9
REMARK H PARENT
REMARK Flexibility Score: inf
ROOT
ATOM      1  C   UNL     1     -23.692 118.947  -0.703  1.00  0.00     0.006 C 
ENDROOT
BRANCH   1   2
ATOM      2  C   UNL     1     -23.443 118.004   0.483  1.00  0.00     0.053 C 
BRANCH   2   3
ATOM      3  C   UNL     1     -21.984 117.885   0.802  1.00  0.00     0.041 C 
ATOM      4  O   UNL     1     -21.553 118.228   1.935  1.00  0.00    -0.550 OA
ATOM      5  O   UNL     1     -21.095 117.428  -0.163  1.00  0.00    -0.550 OA
ENDBRANCH   2   3
ENDBRANCH   1   2
BRANCH   1   6
ATOM      6  C   UNL     1     -23.194 120.373  -0.426  1.00  0.00     0.000 C 
BRANCH   6   7
ATOM      7  C   UNL     1     -22.183 120.817  -1.493  1.00  0.00    -0.000 C 
BRANCH   7   8
ATOM      8  C   UNL     1     -20.782 121.068  -0.911  1.00  0.00    -0.003 C 
ATOM      9  C   UNL     1     -19.687 120.311  -1.659  1.00  0.00     0.004 C 
ENDBRANCH   7   8
ENDBRANCH   6   7
ENDBRANCH   1   6
TORSDOF 5
ENDMDL
MODEL 2
REMARK VINA RESULT:    -3.224      2.018      3.343
REMARK INTER + INTRA:          -4.560
REMARK INTER:                  -4.259
REMARK INTRA:                  -0.301
REMARK UNBOUND:                -0.394
REMARK SMILES CCCCCCC(=O)[O-]
REMARK SMILES IDX 5 1 6 2 7 3 8 4 9 5 4 6 3 7 2 8 1 9
REMARK H PARENT
REMARK Flexibility Score: inf
ROOT
ATOM      1  C   UNL     1     -20.421 120.631  -2.058  1.00  0.00     0.006 C 
ENDROOT
BRANCH   1   2
ATOM      2  C   UNL     1     -19.578 119.492  -1.466  1.00  0.00     0.053 C 
BRANCH   2   3
ATOM      3  C   UNL     1     -20.241 118.160  -1.642  1.00  0.00     0.041 C 
ATOM      4  O   UNL     1     -20.936 117.671  -0.712  1.00  0.00    -0.550 OA
ATOM      5  O   UNL     1     -20.064 117.444  -2.819  1.00  0.00    -0.550 OA
ENDBRANCH   2   3
ENDBRANCH   1   2
BRANCH   1   6
ATOM      6  C   UNL     1     -21.255 121.353  -0.990  1.00  0.00     0.000 C 
BRANCH   6   7
ATOM      7  C   UNL     1     -22.738 120.969  -1.101  1.00  0.00    -0.000 C 
BRANCH   7   8
ATOM      8  C   UNL     1     -23.150 120.612  -2.539  1.00  0.00    -0.003 C 
ATOM      9  C   UNL     1     -24.449 121.292  -2.968  1.00  0.00     0.004 C 
ENDBRANCH   7   8
ENDBRANCH   6   7
ENDBRANCH   1   6
TORSDOF 5
ENDMDL
MODEL 3
REMARK VINA RESULT:    -3.188      1.421      2.461
REMARK INTER + INTRA:          -4.514
REMARK INTER:                  -4.093
REMARK INTRA:                  -0.421
REMARK UNBOUND:                -0.394
REMARK SMILES CCCCCCC(=O)[O-]
REMARK SMILES IDX 5 1 6 2 7 3 8 4 9 5 4 6 3 7 2 8 1 9
REMARK H PARENT
REMARK Flexibility Score: inf
ROOT
ATOM      1  C   UNL     1     -20.941 117.793  -1.628  1.00  0.00     0.006 C 
ENDROOT
BRANCH   1   2
ATOM      2  C   UNL     1     -21.186 117.033  -0.316  1.00  0.00     0.053 C 
BRANCH   2   3
ATOM      3  C   UNL     1     -22.036 117.822   0.632  1.00  0.00     0.041 C 
ATOM      4  O   UNL     1     -23.256 118.013   0.381  1.00  0.00    -0.550 OA
ATOM      5  O   UNL     1     -21.474 118.375   1.776  1.00  0.00    -0.550 OA
ENDBRANCH   2   3
ENDBRANCH   1   2
BRANCH   1   6
ATOM      6  C   UNL     1     -19.793 118.805  -1.507  1.00  0.00     0.000 C 
BRANCH   6   7
ATOM      7  C   UNL     1     -20.225 120.188  -2.017  1.00  0.00    -0.000 C 
BRANCH   7   8
ATOM      8  C   UNL     1     -20.798 121.077  -0.902  1.00  0.00    -0.003 C 
ATOM      9  C   UNL     1     -22.322 121.168  -0.943  1.00  0.00     0.004 C 
ENDBRANCH   7   8
ENDBRANCH   6   7
ENDBRANCH   1   6
TORSDOF 5
ENDMDL
MODEL 4
REMARK VINA RESULT:    -3.128      2.365      3.927
REMARK INTER + INTRA:          -4.436
REMARK INTER:                  -3.971
REMARK INTRA:                  -0.465
REMARK UNBOUND:                -0.394
REMARK SMILES CCCCCCC(=O)[O-]
REMARK SMILES IDX 5 1 6 2 7 3 8 4 9 5 4 6 3 7 2 8 1 9
REMARK H PARENT
REMARK Flexibility Score: inf
ROOT
ATOM      1  C   UNL     1     -20.095 120.574  -1.973  1.00  0.00     0.006 C 
ENDROOT
BRANCH   1   2
ATOM      2  C   UNL     1     -21.047 121.329  -1.034  1.00  0.00     0.053 C 
BRANCH   2   3
ATOM      3  C   UNL     1     -22.476 120.943  -1.264  1.00  0.00     0.041 C 
ATOM      4  O   UNL     1     -23.233 120.703  -0.286  1.00  0.00    -0.550 OA
ATOM      5  O   UNL     1     -22.963 120.814  -2.558  1.00  0.00    -0.550 OA
ENDBRANCH   2   3
ENDBRANCH   1   2
BRANCH   1   6
ATOM      6  C   UNL     1     -19.796 119.152  -1.477  1.00  0.00     0.000 C 
BRANCH   6   7
ATOM      7  C   UNL     1     -20.472 118.106  -2.376  1.00  0.00    -0.000 C 
BRANCH   7   8
ATOM      8  C   UNL     1     -21.577 117.325  -1.646  1.00  0.00    -0.003 C 
ATOM      9  C   UNL     1     -21.498 117.469  -0.127  1.00  0.00     0.004 C 
ENDBRANCH   7   8
ENDBRANCH   6   7
ENDBRANCH   1   6
TORSDOF 5
ENDMDL
MODEL 5
REMARK VINA RESULT:    -3.097      1.870      2.813
REMARK INTER + INTRA:          -4.396
REMARK INTER:                  -4.020
REMARK INTRA:                  -0.376
REMARK UNBOUND:                -0.394
REMARK SMILES CCCCCCC(=O)[O-]
REMARK SMILES IDX 5 1 6 2 7 3 8 4 9 5 4 6 3 7 2 8 1 9
REMARK H PARENT
REMARK Flexibility Score: inf
ROOT
ATOM      1  C   UNL     1     -20.666 121.086  -0.879  1.00  0.00     0.006 C 
ENDROOT
BRANCH   1   2
ATOM      2  C   UNL     1     -22.126 120.692  -0.610  1.00  0.00     0.053 C 
BRANCH   2   3
ATOM      3  C   UNL     1     -22.224 119.395   0.132  1.00  0.00     0.041 C 
ATOM      4  O   UNL     1     -21.454 119.159   1.100  1.00  0.00    -0.550 OA
ATOM      5  O   UNL     1     -23.143 118.433  -0.267  1.00  0.00    -0.550 OA
ENDBRANCH   2   3
ENDBRANCH   1   2
BRANCH   1   6
ATOM      6  C   UNL     1     -20.105 120.411  -2.139  1.00  0.00     0.000 C 
BRANCH   6   7
ATOM      7  C   UNL     1     -21.220 120.148  -3.162  1.00  0.00    -0.000 C 
BRANCH   7   8
ATOM      8  C   UNL     1     -21.345 118.660  -3.530  1.00  0.00    -0.003 C 
ATOM      9  C   UNL     1     -20.442 117.764  -2.683  1.00  0.00     0.004 C 
ENDBRANCH   7   8
ENDBRANCH   6   7
ENDBRANCH   1   6
TORSDOF 5
ENDMDL
MODEL 6
REMARK VINA RESULT:    -3.086      2.706      3.652
REMARK INTER + INTRA:          -4.382
REMARK INTER:                  -4.127
REMARK INTRA:                  -0.255
REMARK UNBOUND:                -0.394
REMARK SMILES CCCCCCC(=O)[O-]
REMARK SMILES IDX 5 1 6 2 7 3 8 4 9 5 4 6 3 7 2 8 1 9
REMARK H PARENT
REMARK Flexibility Score: inf
ROOT
ATOM      1  C   UNL     1     -19.870 119.106  -1.437  1.00  0.00     0.006 C 
ENDROOT
BRANCH   1   2
ATOM      2  C   UNL     1     -20.540 117.938  -2.175  1.00  0.00     0.053 C 
BRANCH   2   3
ATOM      3  C   UNL     1     -19.544 116.902  -2.597  1.00  0.00     0.041 C 
ATOM      4  O   UNL     1     -18.621 116.554  -1.814  1.00  0.00    -0.550 OA
ATOM      5  O   UNL     1     -19.614 116.346  -3.868  1.00  0.00    -0.550 OA
ENDBRANCH   2   3
ENDBRANCH   1   2
BRANCH   1   6
ATOM      6  C   UNL     1     -20.275 120.469  -2.017  1.00  0.00     0.000 C 
BRANCH   6   7
ATOM      7  C   UNL     1     -21.048 121.297  -0.979  1.00  0.00    -0.000 C 
BRANCH   7   8
ATOM      8  C   UNL     1     -22.559 121.015  -1.005  1.00  0.00    -0.003 C 
ATOM      9  C   UNL     1     -23.086 120.744  -2.413  1.00  0.00     0.004 C 
ENDBRANCH   7   8
ENDBRANCH   6   7
ENDBRANCH   1   6
TORSDOF 5
ENDMDL
MODEL 7
REMARK VINA RESULT:    -3.067      1.727      2.468
REMARK INTER + INTRA:          -4.358
REMARK INTER:                  -3.931
REMARK INTRA:                  -0.427
REMARK UNBOUND:                -0.394
REMARK SMILES CCCCCCC(=O)[O-]
REMARK SMILES IDX 5 1 6 2 7 3 8 4 9 5 4 6 3 7 2 8 1 9
REMARK H PARENT
REMARK Flexibility Score: inf
ROOT
ATOM      1  C   UNL     1     -23.079 120.892  -2.127  1.00  0.00     0.006 C 
ENDROOT
BRANCH   1   2
ATOM      2  C   UNL     1     -23.392 120.642  -0.645  1.00  0.00     0.053 C 
BRANCH   2   3
ATOM      3  C   UNL     1     -23.573 119.184  -0.354  1.00  0.00     0.041 C 
ATOM      4  O   UNL     1     -22.802 118.598   0.452  1.00  0.00    -0.550 OA
ATOM      5  O   UNL     1     -24.571 118.464  -0.998  1.00  0.00    -0.550 OA
ENDBRANCH   2   3
ENDBRANCH   1   2
BRANCH   1   6
ATOM      6  C   UNL     1     -21.860 120.092  -2.607  1.00  0.00     0.000 C 
BRANCH   6   7
ATOM      7  C   UNL     1     -20.553 120.747  -2.135  1.00  0.00    -0.000 C 
BRANCH   7   8
ATOM      8  C   UNL     1     -19.629 119.762  -1.401  1.00  0.00    -0.003 C 
ATOM      9  C   UNL     1     -20.006 118.302  -1.649  1.00  0.00     0.004 C 
ENDBRANCH   7   8
ENDBRANCH   6   7
ENDBRANCH   1   6
TORSDOF 5
ENDMDL
MODEL 8
REMARK VINA RESULT:    -3.052      1.779      2.754
REMARK INTER + INTRA:          -4.338
REMARK INTER:                  -3.990
REMARK INTRA:                  -0.348
REMARK UNBOUND:                -0.394
REMARK SMILES CCCCCCC(=O)[O-]
REMARK SMILES IDX 5 1 6 2 7 3 8 4 9 5 4 6 3 7 2 8 1 9
REMARK H PARENT
REMARK Flexibility Score: inf
ROOT
ATOM      1  C   UNL     1     -21.006 118.432  -3.138  1.00  0.00     0.006 C 
ENDROOT
BRANCH   1   2
ATOM      2  C   UNL     1     -20.058 117.915  -2.047  1.00  0.00     0.053 C 
BRANCH   2   3
ATOM      3  C   UNL     1     -20.792 117.145  -0.992  1.00  0.00     0.041 C 
ATOM      4  O   UNL     1     -21.224 117.733   0.035  1.00  0.00    -0.550 OA
ATOM      5  O   UNL     1     -20.968 115.774  -1.126  1.00  0.00    -0.550 OA
ENDBRANCH   2   3
ENDBRANCH   1   2
BRANCH   1   6
ATOM      6  C   UNL     1     -21.167 119.959  -3.093  1.00  0.00     0.000 C 
BRANCH   6   7
ATOM      7  C   UNL     1     -20.139 120.590  -2.142  1.00  0.00    -0.000 C 
BRANCH   7   8
ATOM      8  C   UNL     1     -20.785 121.171  -0.874  1.00  0.00    -0.003 C 
ATOM      9  C   UNL     1     -22.311 121.125  -0.914  1.00  0.00     0.004 C 
ENDBRANCH   7   8
ENDBRANCH   6   7
ENDBRANCH   1   6
TORSDOF 5
ENDMDL
MODEL 9
REMARK VINA RESULT:    -3.046      1.806      2.185
REMARK INTER + INTRA:          -4.331
REMARK INTER:                  -3.923
REMARK INTRA:                  -0.408
REMARK UNBOUND:                -0.394
REMARK SMILES CCCCCCC(=O)[O-]
REMARK SMILES IDX 5 1 6 2 7 3 8 4 9 5 4 6 3 7 2 8 1 9
REMARK H PARENT
REMARK Flexibility Score: inf
ROOT
ATOM      1  C   UNL     1     -21.643 118.827   0.488  1.00  0.00     0.006 C 
ENDROOT
BRANCH   1   2
ATOM      2  C   UNL     1     -22.108 117.569  -0.258  1.00  0.00     0.053 C 
BRANCH   2   3
ATOM      3  C   UNL     1     -20.954 116.701  -0.657  1.00  0.00     0.041 C 
ATOM      4  O   UNL     1     -19.964 117.198  -1.255  1.00  0.00    -0.550 OA
ATOM      5  O   UNL     1     -20.987 115.336  -0.398  1.00  0.00    -0.550 OA
ENDBRANCH   2   3
ENDBRANCH   1   2
BRANCH   1   6
ATOM      6  C   UNL     1     -21.788 120.096  -0.364  1.00  0.00     0.000 C 
BRANCH   6   7
ATOM      7  C   UNL     1     -20.419 120.738  -0.630  1.00  0.00    -0.000 C 
BRANCH   7   8
ATOM      8  C   UNL     1     -20.040 120.726  -2.120  1.00  0.00    -0.003 C 
ATOM      9  C   UNL     1     -21.146 120.154  -3.006  1.00  0.00     0.004 C 
ENDBRANCH   7   8
ENDBRANCH   6   7
ENDBRANCH   1   6
TORSDOF 5
ENDMDL
