MODEL 1
REMARK VINA RESULT:    -6.576      0.000      0.000
REMARK INTER + INTRA:         -12.067
REMARK INTER:                 -10.420
REMARK INTRA:                  -1.647
REMARK UNBOUND:                -1.647
REMARK SMILES C[C@H]1O[C@@H](O[C@@H]2[C@H](Oc3cc(O)c4c(c3)O[C@H](c3ccc(O)cc3)CC4=O)O[C@@H](CO)[C@@H](O)[C@@H]2O)[C@H](O)[C@@H](O)[C@@H]1O
REMARK SMILES IDX 6 1 34 2 32 3 29 4 28 5 7 6 5 7 4 8 1 9 2 10 40 11 3 12
REMARK SMILES IDX 38 13 36 14 41 15 39 17 37 19 35 21 8 23 9 24 10 25 15 26
REMARK SMILES IDX 11 27 14 28 13 29 16 30 26 31 17 32 27 33 25 34 12 35 18 37
REMARK SMILES IDX 19 38 24 39 20 40 23 41 21 42 22 43 33 45 30 47 31 48
REMARK H PARENT 41 16 39 18 37 20 35 22 12 36 22 44 33 46 31 49
REMARK Flexibility Score: inf
ROOT
ATOM      1  C   UNL     1      28.493  29.568  27.862  1.00  0.00     0.221 C 
ATOM      2  C   UNL     1      29.495  29.389  29.038  1.00  0.00     0.181 C 
ATOM      3  C   UNL     1      29.120  30.377  30.146  1.00  0.00     0.177 C 
ATOM      4  C   UNL     1      28.966  31.788  29.553  1.00  0.00     0.179 C 
ATOM      5  O   UNL     1      27.939  31.861  28.580  1.00  0.00    -0.332 OA
ATOM      6  C   UNL     1      28.224  31.043  27.451  1.00  0.00     0.339 C 
ENDROOT
BRANCH   1   7
ATOM      7  O   UNL     1      28.894  28.812  26.726  1.00  0.00    -0.337 OA
BRANCH   7   8
ATOM      8  C   UNL     1      28.220  27.572  26.677  1.00  0.00     0.282 C 
ATOM      9  C   UNL     1      29.901  26.247  24.362  1.00  0.00     0.041 C 
ATOM     10  C   UNL     1      29.199  25.651  25.587  1.00  0.00     0.150 C 
ATOM     11  C   UNL     1      27.789  25.059  25.279  1.00  0.00     0.174 C 
ATOM     12  O   UNL     1      29.198  26.534  26.697  1.00  0.00    -0.344 OA
ATOM     13  C   UNL     1      26.693  26.158  25.295  1.00  0.00     0.179 C 
ATOM     14  C   UNL     1      27.198  27.591  25.520  1.00  0.00     0.202 C 
BRANCH  11  15
ATOM     15  O   UNL     1      27.494  24.019  26.188  1.00  0.00    -0.388 OA
ATOM     16  H   UNL     1      27.680  24.336  27.119  1.00  0.00     0.211 HD
ENDBRANCH  11  15
BRANCH  13  17
ATOM     17  O   UNL     1      25.881  26.133  24.150  1.00  0.00    -0.387 OA
ATOM     18  H   UNL     1      25.542  25.194  24.089  1.00  0.00     0.211 HD
ENDBRANCH  13  17
BRANCH  14  19
ATOM     19  O   UNL     1      26.091  28.380  25.875  1.00  0.00    -0.385 OA
ATOM     20  H   UNL     1      25.261  27.892  25.629  1.00  0.00     0.211 HD
ENDBRANCH  14  19
ENDBRANCH   7   8
ENDBRANCH   1   7
BRANCH   2  21
ATOM     21  O   UNL     1      30.820  29.623  28.650  1.00  0.00    -0.387 OA
ATOM     22  H   UNL     1      31.250  30.156  29.383  1.00  0.00     0.211 HD
ENDBRANCH   2  21
BRANCH   6  23
ATOM     23  O   UNL     1      29.163  31.677  26.553  1.00  0.00    -0.462 OA
BRANCH  23  24
ATOM     24  C   UNL     1      28.870  32.636  25.566  1.00  0.00     0.130 A 
ATOM     25  C   UNL     1      28.584  33.963  25.913  1.00  0.00     0.093 A 
ATOM     26  C   UNL     1      28.937  32.290  24.223  1.00  0.00     0.094 A 
ATOM     27  C   UNL     1      28.115  34.863  24.939  1.00  0.00     0.133 A 
ATOM     28  C   UNL     1      28.331  33.112  23.259  1.00  0.00     0.138 A 
ATOM     29  C   UNL     1      27.845  34.387  23.633  1.00  0.00     0.102 A 
ATOM     30  O   UNL     1      28.125  32.599  21.985  1.00  0.00    -0.484 OA
ATOM     31  C   UNL     1      26.957  35.099  22.683  1.00  0.00     0.174 C 
ATOM     32  C   UNL     1      27.555  33.347  20.898  1.00  0.00     0.211 C 
ATOM     33  O   UNL     1      26.265  36.078  23.053  1.00  0.00    -0.294 OA
ATOM     34  C   UNL     1      26.625  34.495  21.349  1.00  0.00     0.131 C 
BRANCH  27  35
ATOM     35  O   UNL     1      27.952  36.187  25.323  1.00  0.00    -0.507 OA
ATOM     36  H   UNL     1      27.046  36.613  25.488  1.00  0.00     0.293 HD
ENDBRANCH  27  35
BRANCH  32  37
ATOM     37  C   UNL     1      28.646  33.832  19.969  1.00  0.00    -0.007 A 
ATOM     38  C   UNL     1      29.117  35.159  20.105  1.00  0.00     0.011 A 
ATOM     39  C   UNL     1      29.282  32.987  19.055  1.00  0.00     0.011 A 
ATOM     40  C   UNL     1      30.097  35.651  19.242  1.00  0.00     0.046 A 
ATOM     41  C   UNL     1      30.279  33.476  18.198  1.00  0.00     0.046 A 
ATOM     42  C   UNL     1      30.693  34.812  18.297  1.00  0.00     0.115 A 
BRANCH  42  43
ATOM     43  O   UNL     1      31.675  35.282  17.425  1.00  0.00    -0.508 OA
ATOM     44  H   UNL     1      32.660  35.165  17.651  1.00  0.00     0.293 HD
ENDBRANCH  42  43
ENDBRANCH  32  37
ENDBRANCH  23  24
ENDBRANCH   6  23
BRANCH   3  45
ATOM     45  O   UNL     1      27.910  29.971  30.755  1.00  0.00    -0.387 OA
ATOM     46  H   UNL     1      27.232  29.874  30.034  1.00  0.00     0.211 HD
ENDBRANCH   3  45
BRANCH   4  47
ATOM     47  C   UNL     1      28.745  32.883  30.611  1.00  0.00     0.191 C 
BRANCH  47  48
ATOM     48  O   UNL     1      27.408  32.952  31.024  1.00  0.00    -0.394 OA
ATOM     49  H   UNL     1      26.922  33.417  30.304  1.00  0.00     0.210 HD
ENDBRANCH  47  48
ENDBRANCH   4  47
TORSDOF 14
ENDMDL
MODEL 2
REMARK VINA RESULT:    -6.403      1.118      1.452
REMARK INTER + INTRA:         -11.793
REMARK INTER:                  -9.777
REMARK INTRA:                  -2.017
REMARK UNBOUND:                -1.647
REMARK SMILES C[C@H]1O[C@@H](O[C@@H]2[C@H](Oc3cc(O)c4c(c3)O[C@H](c3ccc(O)cc3)CC4=O)O[C@@H](CO)[C@@H](O)[C@@H]2O)[C@H](O)[C@@H](O)[C@@H]1O
REMARK SMILES IDX 6 1 34 2 32 3 29 4 28 5 7 6 5 7 4 8 1 9 2 10 40 11 3 12
REMARK SMILES IDX 38 13 36 14 41 15 39 17 37 19 35 21 8 23 9 24 10 25 15 26
REMARK SMILES IDX 11 27 14 28 13 29 16 30 26 31 17 32 27 33 25 34 12 35 18 37
REMARK SMILES IDX 19 38 24 39 20 40 23 41 21 42 22 43 33 45 30 47 31 48
REMARK H PARENT 41 16 39 18 37 20 35 22 12 36 22 44 33 46 31 49
REMARK Flexibility Score: inf
ROOT
ATOM      1  C   UNL     1      28.739  29.666  28.789  1.00  0.00     0.221 C 
ATOM      2  C   UNL     1      29.601  29.513  30.075  1.00  0.00     0.181 C 
ATOM      3  C   UNL     1      28.999  30.401  31.167  1.00  0.00     0.177 C 
ATOM      4  C   UNL     1      28.784  31.823  30.621  1.00  0.00     0.179 C 
ATOM      5  O   UNL     1      27.882  31.856  29.529  1.00  0.00    -0.332 OA
ATOM      6  C   UNL     1      28.382  31.131  28.412  1.00  0.00     0.339 C 
ENDROOT
BRANCH   1   7
ATOM      7  O   UNL     1      29.349  29.013  27.682  1.00  0.00    -0.337 OA
BRANCH   7   8
ATOM      8  C   UNL     1      28.567  27.923  27.242  1.00  0.00     0.282 C 
ATOM      9  C   UNL     1      30.818  26.372  25.669  1.00  0.00     0.041 C 
ATOM     10  C   UNL     1      29.589  25.883  26.444  1.00  0.00     0.150 C 
ATOM     11  C   UNL     1      28.356  25.574  25.540  1.00  0.00     0.174 C 
ATOM     12  O   UNL     1      29.271  26.721  27.545  1.00  0.00    -0.344 OA
ATOM     13  C   UNL     1      27.540  26.857  25.228  1.00  0.00     0.179 C 
ATOM     14  C   UNL     1      28.129  28.164  25.781  1.00  0.00     0.202 C 
BRANCH  11  15
ATOM     15  O   UNL     1      27.552  24.582  26.144  1.00  0.00    -0.388 OA
ATOM     16  H   UNL     1      27.792  24.513  27.114  1.00  0.00     0.211 HD
ENDBRANCH  11  15
BRANCH  13  17
ATOM     17  O   UNL     1      27.278  27.016  23.858  1.00  0.00    -0.387 OA
ATOM     18  H   UNL     1      26.539  27.688  23.809  1.00  0.00     0.211 HD
ENDBRANCH  13  17
BRANCH  14  19
ATOM     19  O   UNL     1      27.115  29.136  25.742  1.00  0.00    -0.385 OA
ATOM     20  H   UNL     1      27.530  30.023  25.573  1.00  0.00     0.211 HD
ENDBRANCH  14  19
ENDBRANCH   7   8
ENDBRANCH   1   7
BRANCH   2  21
ATOM     21  O   UNL     1      30.935  29.887  29.870  1.00  0.00    -0.387 OA
ATOM     22  H   UNL     1      31.284  30.220  30.749  1.00  0.00     0.211 HD
ENDBRANCH   2  21
BRANCH   6  23
ATOM     23  O   UNL     1      29.359  31.896  27.669  1.00  0.00    -0.462 OA
BRANCH  23  24
ATOM     24  C   UNL     1      29.099  32.869  26.686  1.00  0.00     0.130 A 
ATOM     25  C   UNL     1      29.238  34.233  26.968  1.00  0.00     0.093 A 
ATOM     26  C   UNL     1      28.775  32.477  25.394  1.00  0.00     0.094 A 
ATOM     27  C   UNL     1      28.800  35.195  26.040  1.00  0.00     0.133 A 
ATOM     28  C   UNL     1      28.190  33.399  24.511  1.00  0.00     0.138 A 
ATOM     29  C   UNL     1      28.134  34.767  24.866  1.00  0.00     0.102 A 
ATOM     30  O   UNL     1      27.582  32.920  23.358  1.00  0.00    -0.484 OA
ATOM     31  C   UNL     1      27.260  35.658  24.065  1.00  0.00     0.174 C 
ATOM     32  C   UNL     1      26.987  33.758  22.354  1.00  0.00     0.211 C 
ATOM     33  O   UNL     1      26.935  36.795  24.485  1.00  0.00    -0.294 OA
ATOM     34  C   UNL     1      26.497  35.122  22.888  1.00  0.00     0.131 C 
BRANCH  27  35
ATOM     35  O   UNL     1      29.061  36.527  26.333  1.00  0.00    -0.507 OA
ATOM     36  H   UNL     1      29.746  36.823  27.020  1.00  0.00     0.293 HD
ENDBRANCH  27  35
BRANCH  32  37
ATOM     37  C   UNL     1      27.926  33.913  21.178  1.00  0.00    -0.007 A 
ATOM     38  C   UNL     1      28.625  32.777  20.710  1.00  0.00     0.011 A 
ATOM     39  C   UNL     1      28.047  35.112  20.469  1.00  0.00     0.011 A 
ATOM     40  C   UNL     1      29.526  32.890  19.650  1.00  0.00     0.046 A 
ATOM     41  C   UNL     1      28.941  35.224  19.394  1.00  0.00     0.046 A 
ATOM     42  C   UNL     1      29.678  34.106  18.979  1.00  0.00     0.115 A 
BRANCH  42  43
ATOM     43  O   UNL     1      30.572  34.242  17.916  1.00  0.00    -0.508 OA
ATOM     44  H   UNL     1      31.093  33.435  17.578  1.00  0.00     0.293 HD
ENDBRANCH  42  43
ENDBRANCH  32  37
ENDBRANCH  23  24
ENDBRANCH   6  23
BRANCH   3  45
ATOM     45  O   UNL     1      27.768  29.854  31.598  1.00  0.00    -0.387 OA
ATOM     46  H   UNL     1      27.848  28.865  31.549  1.00  0.00     0.211 HD
ENDBRANCH   3  45
BRANCH   4  47
ATOM     47  C   UNL     1      28.330  32.832  31.689  1.00  0.00     0.191 C 
BRANCH  47  48
ATOM     48  O   UNL     1      26.967  32.706  31.986  1.00  0.00    -0.394 OA
ATOM     49  H   UNL     1      26.913  32.488  32.945  1.00  0.00     0.210 HD
ENDBRANCH  47  48
ENDBRANCH   4  47
TORSDOF 14
ENDMDL
MODEL 3
REMARK VINA RESULT:    -6.230      2.200      4.273
REMARK INTER + INTRA:         -11.519
REMARK INTER:                  -9.882
REMARK INTRA:                  -1.637
REMARK UNBOUND:                -1.647
REMARK SMILES C[C@H]1O[C@@H](O[C@@H]2[C@H](Oc3cc(O)c4c(c3)O[C@H](c3ccc(O)cc3)CC4=O)O[C@@H](CO)[C@@H](O)[C@@H]2O)[C@H](O)[C@@H](O)[C@@H]1O
REMARK SMILES IDX 6 1 34 2 32 3 29 4 28 5 7 6 5 7 4 8 1 9 2 10 40 11 3 12
REMARK SMILES IDX 38 13 36 14 41 15 39 17 37 19 35 21 8 23 9 24 10 25 15 26
REMARK SMILES IDX 11 27 14 28 13 29 16 30 26 31 17 32 27 33 25 34 12 35 18 37
REMARK SMILES IDX 19 38 24 39 20 40 23 41 21 42 22 43 33 45 30 47 31 48
REMARK H PARENT 41 16 39 18 37 20 35 22 12 36 22 44 33 46 31 49
REMARK Flexibility Score: inf
ROOT
ATOM      1  C   UNL     1      28.915  29.167  28.262  1.00  0.00     0.221 C 
ATOM      2  C   UNL     1      30.142  28.946  29.192  1.00  0.00     0.181 C 
ATOM      3  C   UNL     1      29.939  29.774  30.464  1.00  0.00     0.177 C 
ATOM      4  C   UNL     1      29.585  31.223  30.089  1.00  0.00     0.179 C 
ATOM      5  O   UNL     1      28.381  31.315  29.349  1.00  0.00    -0.332 OA
ATOM      6  C   UNL     1      28.481  30.650  28.095  1.00  0.00     0.339 C 
ENDROOT
BRANCH   1   7
ATOM      7  O   UNL     1      29.124  28.574  26.986  1.00  0.00    -0.337 OA
BRANCH   7   8
ATOM      8  C   UNL     1      28.369  27.389  26.847  1.00  0.00     0.282 C 
ATOM      9  C   UNL     1      30.083  26.040  24.570  1.00  0.00     0.041 C 
ATOM     10  C   UNL     1      29.273  25.447  25.728  1.00  0.00     0.150 C 
ATOM     11  C   UNL     1      27.844  24.971  25.319  1.00  0.00     0.174 C 
ATOM     12  O   UNL     1      29.270  26.284  26.874  1.00  0.00    -0.344 OA
ATOM     13  C   UNL     1      26.828  26.144  25.324  1.00  0.00     0.179 C 
ATOM     14  C   UNL     1      27.419  27.528  25.638  1.00  0.00     0.202 C 
BRANCH  11  15
ATOM     15  O   UNL     1      27.427  23.919  26.165  1.00  0.00    -0.388 OA
ATOM     16  H   UNL     1      27.520  23.051  25.676  1.00  0.00     0.211 HD
ENDBRANCH  11  15
BRANCH  13  17
ATOM     17  O   UNL     1      26.082  26.224  24.138  1.00  0.00    -0.387 OA
ATOM     18  H   UNL     1      26.564  26.891  23.570  1.00  0.00     0.211 HD
ENDBRANCH  13  17
BRANCH  14  19
ATOM     19  O   UNL     1      26.351  28.380  25.968  1.00  0.00    -0.385 OA
ATOM     20  H   UNL     1      25.623  28.249  25.304  1.00  0.00     0.211 HD
ENDBRANCH  14  19
ENDBRANCH   7   8
ENDBRANCH   1   7
BRANCH   2  21
ATOM     21  O   UNL     1      31.346  29.330  28.587  1.00  0.00    -0.387 OA
ATOM     22  H   UNL     1      31.922  29.723  29.307  1.00  0.00     0.211 HD
ENDBRANCH   2  21
BRANCH   6  23
ATOM     23  O   UNL     1      29.181  31.454  27.116  1.00  0.00    -0.462 OA
BRANCH  23  24
ATOM     24  C   UNL     1      28.607  32.349  26.195  1.00  0.00     0.130 A 
ATOM     25  C   UNL     1      27.995  31.884  25.024  1.00  0.00     0.093 A 
ATOM     26  C   UNL     1      28.575  33.708  26.478  1.00  0.00     0.094 A 
ATOM     27  C   UNL     1      27.592  32.793  24.029  1.00  0.00     0.133 A 
ATOM     28  C   UNL     1      28.327  34.630  25.449  1.00  0.00     0.138 A 
ATOM     29  C   UNL     1      27.900  34.166  24.183  1.00  0.00     0.102 A 
ATOM     30  O   UNL     1      28.617  35.970  25.674  1.00  0.00    -0.484 OA
ATOM     31  C   UNL     1      27.931  35.117  23.046  1.00  0.00     0.174 C 
ATOM     32  C   UNL     1      28.370  37.018  24.722  1.00  0.00     0.211 C 
ATOM     33  O   UNL     1      27.851  34.713  21.861  1.00  0.00    -0.294 OA
ATOM     34  C   UNL     1      28.365  36.541  23.253  1.00  0.00     0.131 C 
BRANCH  27  35
ATOM     35  O   UNL     1      26.897  32.278  22.942  1.00  0.00    -0.507 OA
ATOM     36  H   UNL     1      25.888  32.170  22.925  1.00  0.00     0.293 HD
ENDBRANCH  27  35
BRANCH  32  37
ATOM     37  C   UNL     1      27.103  37.762  25.081  1.00  0.00    -0.007 A 
ATOM     38  C   UNL     1      26.071  37.855  24.119  1.00  0.00     0.011 A 
ATOM     39  C   UNL     1      26.869  38.267  26.364  1.00  0.00     0.011 A 
ATOM     40  C   UNL     1      24.903  38.564  24.403  1.00  0.00     0.046 A 
ATOM     41  C   UNL     1      25.688  38.966  26.656  1.00  0.00     0.046 A 
ATOM     42  C   UNL     1      24.699  39.109  25.673  1.00  0.00     0.115 A 
BRANCH  42  43
ATOM     43  O   UNL     1      23.539  39.821  25.980  1.00  0.00    -0.508 OA
ATOM     44  H   UNL     1      23.597  40.794  26.273  1.00  0.00     0.293 HD
ENDBRANCH  42  43
ENDBRANCH  32  37
ENDBRANCH  23  24
ENDBRANCH   6  23
BRANCH   3  45
ATOM     45  O   UNL     1      28.904  29.206  31.240  1.00  0.00    -0.387 OA
ATOM     46  H   UNL     1      28.100  29.780  31.131  1.00  0.00     0.211 HD
ENDBRANCH   3  45
BRANCH   4  47
ATOM     47  C   UNL     1      29.516  32.175  31.296  1.00  0.00     0.191 C 
BRANCH  47  48
ATOM     48  O   UNL     1      28.536  33.162  31.131  1.00  0.00    -0.394 OA
ATOM     49  H   UNL     1      28.419  33.272  30.159  1.00  0.00     0.210 HD
ENDBRANCH  47  48
ENDBRANCH   4  47
TORSDOF 14
ENDMDL
MODEL 4
REMARK VINA RESULT:    -6.151      6.222     10.265
REMARK INTER + INTRA:         -11.394
REMARK INTER:                  -9.635
REMARK INTRA:                  -1.758
REMARK UNBOUND:                -1.647
REMARK SMILES C[C@H]1O[C@@H](O[C@@H]2[C@H](Oc3cc(O)c4c(c3)O[C@H](c3ccc(O)cc3)CC4=O)O[C@@H](CO)[C@@H](O)[C@@H]2O)[C@H](O)[C@@H](O)[C@@H]1O
REMARK SMILES IDX 6 1 34 2 32 3 29 4 28 5 7 6 5 7 4 8 1 9 2 10 40 11 3 12
REMARK SMILES IDX 38 13 36 14 41 15 39 17 37 19 35 21 8 23 9 24 10 25 15 26
REMARK SMILES IDX 11 27 14 28 13 29 16 30 26 31 17 32 27 33 25 34 12 35 18 37
REMARK SMILES IDX 19 38 24 39 20 40 23 41 21 42 22 43 33 45 30 47 31 48
REMARK H PARENT 41 16 39 18 37 20 35 22 12 36 22 44 33 46 31 49
REMARK Flexibility Score: inf
ROOT
ATOM      1  C   UNL     1      30.655  36.268  20.219  1.00  0.00     0.221 C 
ATOM      2  C   UNL     1      31.978  36.677  20.928  1.00  0.00     0.181 C 
ATOM      3  C   UNL     1      32.815  37.503  19.946  1.00  0.00     0.177 C 
ATOM      4  C   UNL     1      32.928  36.757  18.605  1.00  0.00     0.179 C 
ATOM      5  O   UNL     1      31.669  36.550  17.990  1.00  0.00    -0.332 OA
ATOM      6  C   UNL     1      30.829  35.714  18.778  1.00  0.00     0.339 C 
ENDROOT
BRANCH   1   7
ATOM      7  O   UNL     1      29.914  35.345  21.009  1.00  0.00    -0.337 OA
BRANCH   7   8
ATOM      8  C   UNL     1      28.528  35.597  20.918  1.00  0.00     0.282 C 
ATOM      9  C   UNL     1      27.717  34.650  23.814  1.00  0.00     0.041 C 
ATOM     10  C   UNL     1      27.142  35.732  22.894  1.00  0.00     0.150 C 
ATOM     11  C   UNL     1      25.886  35.273  22.090  1.00  0.00     0.174 C 
ATOM     12  O   UNL     1      28.134  36.332  22.074  1.00  0.00    -0.344 OA
ATOM     13  C   UNL     1      26.282  34.508  20.799  1.00  0.00     0.179 C 
ATOM     14  C   UNL     1      27.789  34.278  20.604  1.00  0.00     0.202 C 
BRANCH  11  15
ATOM     15  O   UNL     1      25.065  36.386  21.802  1.00  0.00    -0.388 OA
ATOM     16  H   UNL     1      24.760  36.798  22.662  1.00  0.00     0.211 HD
ENDBRANCH  11  15
BRANCH  13  17
ATOM     17  O   UNL     1      25.611  33.282  20.666  1.00  0.00    -0.387 OA
ATOM     18  H   UNL     1      26.329  32.587  20.683  1.00  0.00     0.211 HD
ENDBRANCH  13  17
BRANCH  14  19
ATOM     19  O   UNL     1      27.993  33.927  19.259  1.00  0.00    -0.385 OA
ATOM     20  H   UNL     1      28.819  33.376  19.196  1.00  0.00     0.211 HD
ENDBRANCH  14  19
ENDBRANCH   7   8
ENDBRANCH   1   7
BRANCH   2  21
ATOM     21  O   UNL     1      32.726  35.567  21.341  1.00  0.00    -0.387 OA
ATOM     22  H   UNL     1      32.457  35.368  22.286  1.00  0.00     0.211 HD
ENDBRANCH   2  21
BRANCH   6  23
ATOM     23  O   UNL     1      31.169  34.317  18.626  1.00  0.00    -0.462 OA
BRANCH  23  24
ATOM     24  C   UNL     1      31.124  33.562  17.439  1.00  0.00     0.130 A 
ATOM     25  C   UNL     1      31.988  33.844  16.373  1.00  0.00     0.093 A 
ATOM     26  C   UNL     1      30.268  32.473  17.344  1.00  0.00     0.094 A 
ATOM     27  C   UNL     1      31.810  33.207  15.132  1.00  0.00     0.133 A 
ATOM     28  C   UNL     1      29.965  31.932  16.084  1.00  0.00     0.138 A 
ATOM     29  C   UNL     1      30.693  32.356  14.948  1.00  0.00     0.102 A 
ATOM     30  O   UNL     1      28.877  31.075  15.974  1.00  0.00    -0.484 OA
ATOM     31  C   UNL     1      30.164  31.999  13.609  1.00  0.00     0.174 C 
ATOM     32  C   UNL     1      28.486  30.422  14.755  1.00  0.00     0.211 C 
ATOM     33  O   UNL     1      30.581  32.573  12.574  1.00  0.00    -0.294 OA
ATOM     34  C   UNL     1      28.914  31.176  13.477  1.00  0.00     0.131 C 
BRANCH  27  35
ATOM     35  O   UNL     1      32.761  33.449  14.150  1.00  0.00    -0.507 OA
ATOM     36  H   UNL     1      33.458  32.768  13.868  1.00  0.00     0.293 HD
ENDBRANCH  27  35
BRANCH  32  37
ATOM     37  C   UNL     1      28.965  28.987  14.754  1.00  0.00    -0.007 A 
ATOM     38  C   UNL     1      28.105  27.982  15.255  1.00  0.00     0.011 A 
ATOM     39  C   UNL     1      30.179  28.603  14.178  1.00  0.00     0.011 A 
ATOM     40  C   UNL     1      28.527  26.652  15.302  1.00  0.00     0.046 A 
ATOM     41  C   UNL     1      30.598  27.264  14.211  1.00  0.00     0.046 A 
ATOM     42  C   UNL     1      29.765  26.284  14.769  1.00  0.00     0.115 A 
BRANCH  42  43
ATOM     43  O   UNL     1      30.207  24.961  14.805  1.00  0.00    -0.508 OA
ATOM     44  H   UNL     1      30.572  24.520  13.964  1.00  0.00     0.293 HD
ENDBRANCH  42  43
ENDBRANCH  32  37
ENDBRANCH  23  24
ENDBRANCH   6  23
BRANCH   3  45
ATOM     45  O   UNL     1      32.209  38.765  19.752  1.00  0.00    -0.387 OA
ATOM     46  H   UNL     1      32.932  39.410  19.526  1.00  0.00     0.211 HD
ENDBRANCH   3  45
BRANCH   4  47
ATOM     47  C   UNL     1      33.881  37.431  17.603  1.00  0.00     0.191 C 
BRANCH  47  48
ATOM     48  O   UNL     1      33.368  38.642  17.123  1.00  0.00    -0.394 OA
ATOM     49  H   UNL     1      32.398  38.507  17.017  1.00  0.00     0.210 HD
ENDBRANCH  47  48
ENDBRANCH   4  47
TORSDOF 14
ENDMDL
MODEL 5
REMARK VINA RESULT:    -6.026      2.543     10.146
REMARK INTER + INTRA:         -11.196
REMARK INTER:                  -9.573
REMARK INTRA:                  -1.623
REMARK UNBOUND:                -1.647
REMARK SMILES C[C@H]1O[C@@H](O[C@@H]2[C@H](Oc3cc(O)c4c(c3)O[C@H](c3ccc(O)cc3)CC4=O)O[C@@H](CO)[C@@H](O)[C@@H]2O)[C@H](O)[C@@H](O)[C@@H]1O
REMARK SMILES IDX 6 1 34 2 32 3 29 4 28 5 7 6 5 7 4 8 1 9 2 10 40 11 3 12
REMARK SMILES IDX 38 13 36 14 41 15 39 17 37 19 35 21 8 23 9 24 10 25 15 26
REMARK SMILES IDX 11 27 14 28 13 29 16 30 26 31 17 32 27 33 25 34 12 35 18 37
REMARK SMILES IDX 19 38 24 39 20 40 23 41 21 42 22 43 33 45 30 47 31 48
REMARK H PARENT 41 16 39 18 37 20 35 22 12 36 22 44 33 46 31 49
REMARK Flexibility Score: inf
ROOT
ATOM      1  C   UNL     1      29.205  36.127  21.062  1.00  0.00     0.221 C 
ATOM      2  C   UNL     1      28.359  36.080  19.757  1.00  0.00     0.181 C 
ATOM      3  C   UNL     1      26.880  36.186  20.137  1.00  0.00     0.177 C 
ATOM      4  C   UNL     1      26.550  35.160  21.235  1.00  0.00     0.179 C 
ATOM      5  O   UNL     1      27.290  35.377  22.423  1.00  0.00    -0.332 OA
ATOM      6  C   UNL     1      28.688  35.215  22.209  1.00  0.00     0.339 C 
ENDROOT
BRANCH   1   7
ATOM      7  O   UNL     1      30.574  35.847  20.797  1.00  0.00    -0.337 OA
BRANCH   7   8
ATOM      8  C   UNL     1      31.132  36.816  19.934  1.00  0.00     0.282 C 
ATOM      9  C   UNL     1      33.725  35.225  19.104  1.00  0.00     0.041 C 
ATOM     10  C   UNL     1      32.860  36.239  18.347  1.00  0.00     0.150 C 
ATOM     11  C   UNL     1      33.425  37.694  18.375  1.00  0.00     0.174 C 
ATOM     12  O   UNL     1      31.492  36.170  18.715  1.00  0.00    -0.344 OA
ATOM     13  C   UNL     1      33.012  38.441  19.671  1.00  0.00     0.179 C 
ATOM     14  C   UNL     1      32.221  37.607  20.691  1.00  0.00     0.202 C 
BRANCH  11  15
ATOM     15  O   UNL     1      33.012  38.393  17.219  1.00  0.00    -0.388 OA
ATOM     16  H   UNL     1      33.669  38.223  16.483  1.00  0.00     0.211 HD
ENDBRANCH  11  15
BRANCH  13  17
ATOM     17  O   UNL     1      34.099  39.047  20.319  1.00  0.00    -0.387 OA
ATOM     18  H   UNL     1      34.341  39.832  19.749  1.00  0.00     0.211 HD
ENDBRANCH  13  17
BRANCH  14  19
ATOM     19  O   UNL     1      31.620  38.500  21.594  1.00  0.00    -0.385 OA
ATOM     20  H   UNL     1      32.236  38.639  22.361  1.00  0.00     0.211 HD
ENDBRANCH  14  19
ENDBRANCH   7   8
ENDBRANCH   1   7
BRANCH   2  21
ATOM     21  O   UNL     1      28.559  34.896  19.036  1.00  0.00    -0.387 OA
ATOM     22  H   UNL     1      27.858  34.247  19.340  1.00  0.00     0.211 HD
ENDBRANCH   2  21
BRANCH   6  23
ATOM     23  O   UNL     1      29.069  33.820  22.189  1.00  0.00    -0.462 OA
BRANCH  23  24
ATOM     24  C   UNL     1      29.239  32.975  23.301  1.00  0.00     0.130 A 
ATOM     25  C   UNL     1      29.058  33.455  24.604  1.00  0.00     0.093 A 
ATOM     26  C   UNL     1      29.515  31.628  23.111  1.00  0.00     0.094 A 
ATOM     27  C   UNL     1      29.408  32.655  25.707  1.00  0.00     0.133 A 
ATOM     28  C   UNL     1      30.015  30.861  24.176  1.00  0.00     0.138 A 
ATOM     29  C   UNL     1      30.032  31.405  25.481  1.00  0.00     0.102 A 
ATOM     30  O   UNL     1      30.584  29.625  23.894  1.00  0.00    -0.484 OA
ATOM     31  C   UNL     1      30.826  30.702  26.518  1.00  0.00     0.174 C 
ATOM     32  C   UNL     1      31.093  28.727  24.893  1.00  0.00     0.211 C 
ATOM     33  O   UNL     1      31.124  31.265  27.598  1.00  0.00    -0.294 OA
ATOM     34  C   UNL     1      31.552  29.428  26.190  1.00  0.00     0.131 C 
BRANCH  27  35
ATOM     35  O   UNL     1      29.105  33.146  26.970  1.00  0.00    -0.507 OA
ATOM     36  H   UNL     1      29.055  34.136  27.187  1.00  0.00     0.293 HD
ENDBRANCH  27  35
BRANCH  32  37
ATOM     37  C   UNL     1      30.091  27.627  25.166  1.00  0.00    -0.007 A 
ATOM     38  C   UNL     1      30.389  26.664  26.156  1.00  0.00     0.011 A 
ATOM     39  C   UNL     1      28.834  27.591  24.553  1.00  0.00     0.011 A 
ATOM     40  C   UNL     1      29.503  25.615  26.409  1.00  0.00     0.046 A 
ATOM     41  C   UNL     1      27.936  26.546  24.818  1.00  0.00     0.046 A 
ATOM     42  C   UNL     1      28.270  25.558  25.756  1.00  0.00     0.115 A 
BRANCH  42  43
ATOM     43  O   UNL     1      27.369  24.520  25.994  1.00  0.00    -0.508 OA
ATOM     44  H   UNL     1      27.607  23.565  25.734  1.00  0.00     0.293 HD
ENDBRANCH  42  43
ENDBRANCH  32  37
ENDBRANCH  23  24
ENDBRANCH   6  23
BRANCH   3  45
ATOM     45  O   UNL     1      26.600  37.494  20.595  1.00  0.00    -0.387 OA
ATOM     46  H   UNL     1      25.827  37.834  20.071  1.00  0.00     0.211 HD
ENDBRANCH   3  45
BRANCH   4  47
ATOM     47  C   UNL     1      25.052  35.078  21.574  1.00  0.00     0.191 C 
BRANCH  47  48
ATOM     48  O   UNL     1      24.632  36.159  22.360  1.00  0.00    -0.394 OA
ATOM     49  H   UNL     1      23.779  36.464  21.973  1.00  0.00     0.210 HD
ENDBRANCH  47  48
ENDBRANCH   4  47
TORSDOF 14
ENDMDL
MODEL 6
REMARK VINA RESULT:    -5.973      1.919      2.959
REMARK INTER + INTRA:         -11.112
REMARK INTER:                  -9.587
REMARK INTRA:                  -1.525
REMARK UNBOUND:                -1.647
REMARK SMILES C[C@H]1O[C@@H](O[C@@H]2[C@H](Oc3cc(O)c4c(c3)O[C@H](c3ccc(O)cc3)CC4=O)O[C@@H](CO)[C@@H](O)[C@@H]2O)[C@H](O)[C@@H](O)[C@@H]1O
REMARK SMILES IDX 6 1 34 2 32 3 29 4 28 5 7 6 5 7 4 8 1 9 2 10 40 11 3 12
REMARK SMILES IDX 38 13 36 14 41 15 39 17 37 19 35 21 8 23 9 24 10 25 15 26
REMARK SMILES IDX 11 27 14 28 13 29 16 30 26 31 17 32 27 33 25 34 12 35 18 37
REMARK SMILES IDX 19 38 24 39 20 40 23 41 21 42 22 43 33 45 30 47 31 48
REMARK H PARENT 41 16 39 18 37 20 35 22 12 36 22 44 33 46 31 49
REMARK Flexibility Score: inf
ROOT
ATOM      1  C   UNL     1      28.833  29.284  28.188  1.00  0.00     0.221 C 
ATOM      2  C   UNL     1      29.716  28.993  29.435  1.00  0.00     0.181 C 
ATOM      3  C   UNL     1      29.356  30.004  30.527  1.00  0.00     0.177 C 
ATOM      4  C   UNL     1      29.393  31.429  29.948  1.00  0.00     0.179 C 
ATOM      5  O   UNL     1      28.459  31.615  28.900  1.00  0.00    -0.332 OA
ATOM      6  C   UNL     1      28.748  30.782  27.783  1.00  0.00     0.339 C 
ENDROOT
BRANCH   1   7
ATOM      7  O   UNL     1      29.244  28.501  27.074  1.00  0.00    -0.337 OA
BRANCH   7   8
ATOM      8  C   UNL     1      28.423  27.363  26.922  1.00  0.00     0.282 C 
ATOM      9  C   UNL     1      30.123  25.883  24.717  1.00  0.00     0.041 C 
ATOM     10  C   UNL     1      29.241  25.355  25.854  1.00  0.00     0.150 C 
ATOM     11  C   UNL     1      27.800  24.962  25.403  1.00  0.00     0.174 C 
ATOM     12  O   UNL     1      29.252  26.205  26.991  1.00  0.00    -0.344 OA
ATOM     13  C   UNL     1      26.858  26.196  25.362  1.00  0.00     0.179 C 
ATOM     14  C   UNL     1      27.522  27.544  25.681  1.00  0.00     0.202 C 
BRANCH  11  15
ATOM     15  O   UNL     1      27.291  23.949  26.245  1.00  0.00    -0.388 OA
ATOM     16  H   UNL     1      26.892  23.225  25.681  1.00  0.00     0.211 HD
ENDBRANCH  11  15
BRANCH  13  17
ATOM     17  O   UNL     1      26.158  26.305  24.151  1.00  0.00    -0.387 OA
ATOM     18  H   UNL     1      25.355  25.719  24.258  1.00  0.00     0.211 HD
ENDBRANCH  13  17
BRANCH  14  19
ATOM     19  O   UNL     1      26.499  28.464  25.966  1.00  0.00    -0.385 OA
ATOM     20  H   UNL     1      26.884  29.380  25.964  1.00  0.00     0.211 HD
ENDBRANCH  14  19
ENDBRANCH   7   8
ENDBRANCH   1   7
BRANCH   2  21
ATOM     21  O   UNL     1      31.084  29.094  29.155  1.00  0.00    -0.387 OA
ATOM     22  H   UNL     1      31.231  28.668  28.259  1.00  0.00     0.211 HD
ENDBRANCH   2  21
BRANCH   6  23
ATOM     23  O   UNL     1      29.815  31.325  26.971  1.00  0.00    -0.462 OA
BRANCH  23  24
ATOM     24  C   UNL     1      29.776  31.577  25.587  1.00  0.00     0.130 A 
ATOM     25  C   UNL     1      29.481  30.555  24.676  1.00  0.00     0.093 A 
ATOM     26  C   UNL     1      29.958  32.870  25.114  1.00  0.00     0.094 A 
ATOM     27  C   UNL     1      29.627  30.775  23.295  1.00  0.00     0.133 A 
ATOM     28  C   UNL     1      30.259  33.081  23.759  1.00  0.00     0.138 A 
ATOM     29  C   UNL     1      30.165  32.005  22.846  1.00  0.00     0.102 A 
ATOM     30  O   UNL     1      30.751  34.322  23.374  1.00  0.00    -0.484 OA
ATOM     31  C   UNL     1      30.766  32.179  21.501  1.00  0.00     0.174 C 
ATOM     32  C   UNL     1      31.058  34.681  22.017  1.00  0.00     0.211 C 
ATOM     33  O   UNL     1      30.979  31.193  20.755  1.00  0.00    -0.294 OA
ATOM     34  C   UNL     1      31.415  33.478  21.117  1.00  0.00     0.131 C 
BRANCH  27  35
ATOM     35  O   UNL     1      29.218  29.758  22.442  1.00  0.00    -0.507 OA
ATOM     36  H   UNL     1      28.249  29.600  22.187  1.00  0.00     0.293 HD
ENDBRANCH  27  35
BRANCH  32  37
ATOM     37  C   UNL     1      29.940  35.516  21.432  1.00  0.00    -0.007 A 
ATOM     38  C   UNL     1      29.375  35.128  20.195  1.00  0.00     0.011 A 
ATOM     39  C   UNL     1      29.370  36.592  22.119  1.00  0.00     0.011 A 
ATOM     40  C   UNL     1      28.366  35.894  19.609  1.00  0.00     0.046 A 
ATOM     41  C   UNL     1      28.345  37.354  21.538  1.00  0.00     0.046 A 
ATOM     42  C   UNL     1      27.837  36.998  20.281  1.00  0.00     0.115 A 
BRANCH  42  43
ATOM     43  O   UNL     1      26.828  37.778  19.714  1.00  0.00    -0.508 OA
ATOM     44  H   UNL     1      26.268  38.395  20.299  1.00  0.00     0.293 HD
ENDBRANCH  42  43
ENDBRANCH  32  37
ENDBRANCH  23  24
ENDBRANCH   6  23
BRANCH   3  45
ATOM     45  O   UNL     1      28.067  29.718  31.033  1.00  0.00    -0.387 OA
ATOM     46  H   UNL     1      27.919  28.741  30.933  1.00  0.00     0.211 HD
ENDBRANCH   3  45
BRANCH   4  47
ATOM     47  C   UNL     1      29.201  32.530  31.005  1.00  0.00     0.191 C 
BRANCH  47  48
ATOM     48  O   UNL     1      29.465  33.805  30.488  1.00  0.00    -0.394 OA
ATOM     49  H   UNL     1      28.859  34.423  30.959  1.00  0.00     0.210 HD
ENDBRANCH  47  48
ENDBRANCH   4  47
TORSDOF 14
ENDMDL
MODEL 7
REMARK VINA RESULT:    -5.940      2.130      2.943
REMARK INTER + INTRA:         -11.061
REMARK INTER:                  -9.266
REMARK INTRA:                  -1.795
REMARK UNBOUND:                -1.647
REMARK SMILES C[C@H]1O[C@@H](O[C@@H]2[C@H](Oc3cc(O)c4c(c3)O[C@H](c3ccc(O)cc3)CC4=O)O[C@@H](CO)[C@@H](O)[C@@H]2O)[C@H](O)[C@@H](O)[C@@H]1O
REMARK SMILES IDX 6 1 34 2 32 3 29 4 28 5 7 6 5 7 4 8 1 9 2 10 40 11 3 12
REMARK SMILES IDX 38 13 36 14 41 15 39 17 37 19 35 21 8 23 9 24 10 25 15 26
REMARK SMILES IDX 11 27 14 28 13 29 16 30 26 31 17 32 27 33 25 34 12 35 18 37
REMARK SMILES IDX 19 38 24 39 20 40 23 41 21 42 22 43 33 45 30 47 31 48
REMARK H PARENT 41 16 39 18 37 20 35 22 12 36 22 44 33 46 31 49
REMARK Flexibility Score: inf
ROOT
ATOM      1  C   UNL     1      28.841  29.415  28.119  1.00  0.00     0.221 C 
ATOM      2  C   UNL     1      29.656  28.885  29.334  1.00  0.00     0.181 C 
ATOM      3  C   UNL     1      29.419  29.826  30.519  1.00  0.00     0.177 C 
ATOM      4  C   UNL     1      29.659  31.281  30.084  1.00  0.00     0.179 C 
ATOM      5  O   UNL     1      28.775  31.694  29.056  1.00  0.00    -0.332 OA
ATOM      6  C   UNL     1      28.967  30.943  27.863  1.00  0.00     0.339 C 
ENDROOT
BRANCH   1   7
ATOM      7  O   UNL     1      29.161  28.695  26.934  1.00  0.00    -0.337 OA
BRANCH   7   8
ATOM      8  C   UNL     1      28.389  27.516  26.833  1.00  0.00     0.282 C 
ATOM      9  C   UNL     1      30.034  26.110  24.539  1.00  0.00     0.041 C 
ATOM     10  C   UNL     1      29.245  25.546  25.726  1.00  0.00     0.150 C 
ATOM     11  C   UNL     1      27.802  25.079  25.359  1.00  0.00     0.174 C 
ATOM     12  O   UNL     1      29.278  26.402  26.858  1.00  0.00    -0.344 OA
ATOM     13  C   UNL     1      26.799  26.264  25.368  1.00  0.00     0.179 C 
ATOM     14  C   UNL     1      27.412  27.646  25.645  1.00  0.00     0.202 C 
BRANCH  11  15
ATOM     15  O   UNL     1      27.393  24.046  26.232  1.00  0.00    -0.388 OA
ATOM     16  H   UNL     1      27.093  23.260  25.689  1.00  0.00     0.211 HD
ENDBRANCH  11  15
BRANCH  13  17
ATOM     17  O   UNL     1      26.027  26.332  24.198  1.00  0.00    -0.387 OA
ATOM     18  H   UNL     1      25.786  25.384  23.988  1.00  0.00     0.211 HD
ENDBRANCH  13  17
BRANCH  14  19
ATOM     19  O   UNL     1      26.362  28.515  25.984  1.00  0.00    -0.385 OA
ATOM     20  H   UNL     1      26.743  29.410  26.188  1.00  0.00     0.211 HD
ENDBRANCH  14  19
ENDBRANCH   7   8
ENDBRANCH   1   7
BRANCH   2  21
ATOM     21  O   UNL     1      31.030  28.826  29.069  1.00  0.00    -0.387 OA
ATOM     22  H   UNL     1      31.499  28.836  29.955  1.00  0.00     0.211 HD
ENDBRANCH   2  21
BRANCH   6  23
ATOM     23  O   UNL     1      30.110  31.411  27.112  1.00  0.00    -0.462 OA
BRANCH  23  24
ATOM     24  C   UNL     1      30.186  32.580  26.332  1.00  0.00     0.130 A 
ATOM     25  C   UNL     1      31.423  33.156  26.015  1.00  0.00     0.093 A 
ATOM     26  C   UNL     1      29.029  33.134  25.802  1.00  0.00     0.094 A 
ATOM     27  C   UNL     1      31.477  34.418  25.396  1.00  0.00     0.133 A 
ATOM     28  C   UNL     1      29.042  34.454  25.324  1.00  0.00     0.138 A 
ATOM     29  C   UNL     1      30.274  35.135  25.186  1.00  0.00     0.102 A 
ATOM     30  O   UNL     1      27.828  35.093  25.104  1.00  0.00    -0.484 OA
ATOM     31  C   UNL     1      30.238  36.601  24.968  1.00  0.00     0.174 C 
ATOM     32  C   UNL     1      27.702  36.424  24.578  1.00  0.00     0.211 C 
ATOM     33  O   UNL     1      31.264  37.305  25.126  1.00  0.00    -0.294 OA
ATOM     34  C   UNL     1      28.926  37.325  24.855  1.00  0.00     0.131 C 
BRANCH  27  35
ATOM     35  O   UNL     1      32.727  34.885  25.013  1.00  0.00    -0.507 OA
ATOM     36  H   UNL     1      32.864  35.735  24.476  1.00  0.00     0.293 HD
ENDBRANCH  27  35
BRANCH  32  37
ATOM     37  C   UNL     1      27.356  36.373  23.106  1.00  0.00    -0.007 A 
ATOM     38  C   UNL     1      26.411  35.421  22.661  1.00  0.00     0.011 A 
ATOM     39  C   UNL     1      27.854  37.303  22.188  1.00  0.00     0.011 A 
ATOM     40  C   UNL     1      26.094  35.323  21.305  1.00  0.00     0.046 A 
ATOM     41  C   UNL     1      27.524  37.215  20.827  1.00  0.00     0.046 A 
ATOM     42  C   UNL     1      26.635  36.225  20.386  1.00  0.00     0.115 A 
BRANCH  42  43
ATOM     43  O   UNL     1      26.332  36.146  19.026  1.00  0.00    -0.508 OA
ATOM     44  H   UNL     1      25.439  35.764  18.721  1.00  0.00     0.293 HD
ENDBRANCH  42  43
ENDBRANCH  32  37
ENDBRANCH  23  24
ENDBRANCH   6  23
BRANCH   3  45
ATOM     45  O   UNL     1      28.096  29.671  30.991  1.00  0.00    -0.387 OA
ATOM     46  H   UNL     1      28.112  29.814  31.975  1.00  0.00     0.211 HD
ENDBRANCH   3  45
BRANCH   4  47
ATOM     47  C   UNL     1      29.601  32.291  31.243  1.00  0.00     0.191 C 
BRANCH  47  48
ATOM     48  O   UNL     1      28.285  32.546  31.652  1.00  0.00    -0.394 OA
ATOM     49  H   UNL     1      28.249  33.504  31.877  1.00  0.00     0.210 HD
ENDBRANCH  47  48
ENDBRANCH   4  47
TORSDOF 14
ENDMDL
MODEL 8
REMARK VINA RESULT:    -5.876      5.988      9.228
REMARK INTER + INTRA:         -10.958
REMARK INTER:                  -9.347
REMARK INTRA:                  -1.611
REMARK UNBOUND:                -1.647
REMARK SMILES C[C@H]1O[C@@H](O[C@@H]2[C@H](Oc3cc(O)c4c(c3)O[C@H](c3ccc(O)cc3)CC4=O)O[C@@H](CO)[C@@H](O)[C@@H]2O)[C@H](O)[C@@H](O)[C@@H]1O
REMARK SMILES IDX 6 1 34 2 32 3 29 4 28 5 7 6 5 7 4 8 1 9 2 10 40 11 3 12
REMARK SMILES IDX 38 13 36 14 41 15 39 17 37 19 35 21 8 23 9 24 10 25 15 26
REMARK SMILES IDX 11 27 14 28 13 29 16 30 26 31 17 32 27 33 25 34 12 35 18 37
REMARK SMILES IDX 19 38 24 39 20 40 23 41 21 42 22 43 33 45 30 47 31 48
REMARK H PARENT 41 16 39 18 37 20 35 22 12 36 22 44 33 46 31 49
REMARK Flexibility Score: inf
ROOT
ATOM      1  C   UNL     1      30.280  26.116  17.583  1.00  0.00     0.221 C 
ATOM      2  C   UNL     1      31.513  25.263  18.000  1.00  0.00     0.181 C 
ATOM      3  C   UNL     1      31.782  25.501  19.489  1.00  0.00     0.177 C 
ATOM      4  C   UNL     1      31.834  27.012  19.772  1.00  0.00     0.179 C 
ATOM      5  O   UNL     1      30.614  27.665  19.472  1.00  0.00    -0.332 OA
ATOM      6  C   UNL     1      30.302  27.586  18.085  1.00  0.00     0.339 C 
ENDROOT
BRANCH   1   7
ATOM      7  O   UNL     1      30.089  26.085  16.174  1.00  0.00    -0.337 OA
BRANCH   7   8
ATOM      8  C   UNL     1      28.716  26.102  15.847  1.00  0.00     0.282 C 
ATOM      9  C   UNL     1      27.993  23.194  16.829  1.00  0.00     0.041 C 
ATOM     10  C   UNL     1      27.179  24.493  16.789  1.00  0.00     0.150 C 
ATOM     11  C   UNL     1      26.238  24.609  15.550  1.00  0.00     0.174 C 
ATOM     12  O   UNL     1      27.984  25.645  16.983  1.00  0.00    -0.344 OA
ATOM     13  C   UNL     1      26.994  25.148  14.307  1.00  0.00     0.179 C 
ATOM     14  C   UNL     1      28.501  25.379  14.500  1.00  0.00     0.202 C 
BRANCH  11  15
ATOM     15  O   UNL     1      25.121  25.414  15.868  1.00  0.00    -0.388 OA
ATOM     16  H   UNL     1      25.367  26.377  15.743  1.00  0.00     0.211 HD
ENDBRANCH  11  15
BRANCH  13  17
ATOM     17  O   UNL     1      26.795  24.359  13.164  1.00  0.00    -0.387 OA
ATOM     18  H   UNL     1      26.763  23.417  13.498  1.00  0.00     0.211 HD
ENDBRANCH  13  17
BRANCH  14  19
ATOM     19  O   UNL     1      28.944  26.195  13.446  1.00  0.00    -0.385 OA
ATOM     20  H   UNL     1      29.552  25.664  12.866  1.00  0.00     0.211 HD
ENDBRANCH  14  19
ENDBRANCH   7   8
ENDBRANCH   1   7
BRANCH   2  21
ATOM     21  O   UNL     1      32.662  25.596  17.272  1.00  0.00    -0.387 OA
ATOM     22  H   UNL     1      32.440  26.411  16.731  1.00  0.00     0.211 HD
ENDBRANCH   2  21
BRANCH   6  23
ATOM     23  O   UNL     1      31.048  28.554  17.312  1.00  0.00    -0.462 OA
BRANCH  23  24
ATOM     24  C   UNL     1      30.790  29.934  17.214  1.00  0.00     0.130 A 
ATOM     25  C   UNL     1      30.847  30.592  15.978  1.00  0.00     0.093 A 
ATOM     26  C   UNL     1      30.398  30.647  18.339  1.00  0.00     0.094 A 
ATOM     27  C   UNL     1      30.769  31.995  15.920  1.00  0.00     0.133 A 
ATOM     28  C   UNL     1      30.468  32.049  18.337  1.00  0.00     0.138 A 
ATOM     29  C   UNL     1      30.730  32.734  17.127  1.00  0.00     0.102 A 
ATOM     30  O   UNL     1      30.388  32.719  19.551  1.00  0.00    -0.484 OA
ATOM     31  C   UNL     1      31.090  34.170  17.205  1.00  0.00     0.174 C 
ATOM     32  C   UNL     1      30.405  34.150  19.683  1.00  0.00     0.211 C 
ATOM     33  O   UNL     1      31.611  34.761  16.228  1.00  0.00    -0.294 OA
ATOM     34  C   UNL     1      31.130  34.877  18.529  1.00  0.00     0.131 C 
BRANCH  27  35
ATOM     35  O   UNL     1      30.726  32.578  14.661  1.00  0.00    -0.507 OA
ATOM     36  H   UNL     1      30.247  33.451  14.466  1.00  0.00     0.293 HD
ENDBRANCH  27  35
BRANCH  32  37
ATOM     37  C   UNL     1      29.000  34.672  19.888  1.00  0.00    -0.007 A 
ATOM     38  C   UNL     1      27.995  33.774  20.314  1.00  0.00     0.011 A 
ATOM     39  C   UNL     1      28.681  36.029  19.777  1.00  0.00     0.011 A 
ATOM     40  C   UNL     1      26.680  34.213  20.479  1.00  0.00     0.046 A 
ATOM     41  C   UNL     1      27.363  36.475  19.958  1.00  0.00     0.046 A 
ATOM     42  C   UNL     1      26.360  35.563  20.317  1.00  0.00     0.115 A 
BRANCH  42  43
ATOM     43  O   UNL     1      25.053  36.025  20.478  1.00  0.00    -0.508 OA
ATOM     44  H   UNL     1      24.296  35.368  20.653  1.00  0.00     0.293 HD
ENDBRANCH  42  43
ENDBRANCH  32  37
ENDBRANCH  23  24
ENDBRANCH   6  23
BRANCH   3  45
ATOM     45  O   UNL     1      30.761  24.897  20.258  1.00  0.00    -0.387 OA
ATOM     46  H   UNL     1      31.017  24.987  21.215  1.00  0.00     0.211 HD
ENDBRANCH   3  45
BRANCH   4  47
ATOM     47  C   UNL     1      32.257  27.356  21.211  1.00  0.00     0.191 C 
BRANCH  47  48
ATOM     48  O   UNL     1      31.233  27.104  22.133  1.00  0.00    -0.394 OA
ATOM     49  H   UNL     1      31.598  26.452  22.776  1.00  0.00     0.210 HD
ENDBRANCH  47  48
ENDBRANCH   4  47
TORSDOF 14
ENDMDL
MODEL 9
REMARK VINA RESULT:    -5.806      2.256      8.693
REMARK INTER + INTRA:         -10.848
REMARK INTER:                  -8.413
REMARK INTRA:                  -2.435
REMARK UNBOUND:                -1.647
REMARK SMILES C[C@H]1O[C@@H](O[C@@H]2[C@H](Oc3cc(O)c4c(c3)O[C@H](c3ccc(O)cc3)CC4=O)O[C@@H](CO)[C@@H](O)[C@@H]2O)[C@H](O)[C@@H](O)[C@@H]1O
REMARK SMILES IDX 6 1 34 2 32 3 29 4 28 5 7 6 5 7 4 8 1 9 2 10 40 11 3 12
REMARK SMILES IDX 38 13 36 14 41 15 39 17 37 19 35 21 8 23 9 24 10 25 15 26
REMARK SMILES IDX 11 27 14 28 13 29 16 30 26 31 17 32 27 33 25 34 12 35 18 37
REMARK SMILES IDX 19 38 24 39 20 40 23 41 21 42 22 43 33 45 30 47 31 48
REMARK H PARENT 41 16 39 18 37 20 35 22 12 36 22 44 33 46 31 49
REMARK Flexibility Score: inf
ROOT
ATOM      1  C   UNL     1      28.095  35.164  22.069  1.00  0.00     0.221 C 
ATOM      2  C   UNL     1      26.808  35.586  21.303  1.00  0.00     0.181 C 
ATOM      3  C   UNL     1      26.302  36.902  21.900  1.00  0.00     0.177 C 
ATOM      4  C   UNL     1      26.209  36.777  23.430  1.00  0.00     0.179 C 
ATOM      5  O   UNL     1      27.464  36.515  24.032  1.00  0.00    -0.332 OA
ATOM      6  C   UNL     1      27.996  35.263  23.617  1.00  0.00     0.339 C 
ENDROOT
BRANCH   1   7
ATOM      7  O   UNL     1      28.512  33.858  21.690  1.00  0.00    -0.337 OA
BRANCH   7   8
ATOM      8  C   UNL     1      29.920  33.770  21.634  1.00  0.00     0.282 C 
ATOM      9  C   UNL     1      30.334  35.117  18.814  1.00  0.00     0.041 C 
ATOM     10  C   UNL     1      31.202  35.102  20.077  1.00  0.00     0.150 C 
ATOM     11  C   UNL     1      32.342  34.037  20.046  1.00  0.00     0.174 C 
ATOM     12  O   UNL     1      30.429  35.050  21.267  1.00  0.00    -0.344 OA
ATOM     13  C   UNL     1      31.829  32.639  20.486  1.00  0.00     0.179 C 
ATOM     14  C   UNL     1      30.323  32.550  20.779  1.00  0.00     0.202 C 
BRANCH  11  15
ATOM     15  O   UNL     1      33.425  34.467  20.844  1.00  0.00    -0.388 OA
ATOM     16  H   UNL     1      34.279  34.133  20.442  1.00  0.00     0.211 HD
ENDBRANCH  11  15
BRANCH  13  17
ATOM     17  O   UNL     1      32.181  31.622  19.584  1.00  0.00    -0.387 OA
ATOM     18  H   UNL     1      32.630  32.090  18.823  1.00  0.00     0.211 HD
ENDBRANCH  13  17
BRANCH  14  19
ATOM     19  O   UNL     1      30.101  31.367  21.502  1.00  0.00    -0.385 OA
ATOM     20  H   UNL     1      30.188  31.566  22.472  1.00  0.00     0.211 HD
ENDBRANCH  14  19
ENDBRANCH   7   8
ENDBRANCH   1   7
BRANCH   2  21
ATOM     21  O   UNL     1      25.793  34.625  21.396  1.00  0.00    -0.387 OA
ATOM     22  H   UNL     1      26.228  33.729  21.281  1.00  0.00     0.211 HD
ENDBRANCH   2  21
BRANCH   6  23
ATOM     23  O   UNL     1      27.389  34.159  24.328  1.00  0.00    -0.462 OA
BRANCH  23  24
ATOM     24  C   UNL     1      28.057  33.104  24.977  1.00  0.00     0.130 A 
ATOM     25  C   UNL     1      28.563  33.262  26.274  1.00  0.00     0.093 A 
ATOM     26  C   UNL     1      28.154  31.864  24.361  1.00  0.00     0.094 A 
ATOM     27  C   UNL     1      29.384  32.269  26.837  1.00  0.00     0.133 A 
ATOM     28  C   UNL     1      29.088  30.925  24.827  1.00  0.00     0.138 A 
ATOM     29  C   UNL     1      29.769  31.161  26.044  1.00  0.00     0.102 A 
ATOM     30  O   UNL     1      29.398  29.839  24.017  1.00  0.00    -0.484 OA
ATOM     31  C   UNL     1      30.946  30.315  26.357  1.00  0.00     0.174 C 
ATOM     32  C   UNL     1      30.302  28.787  24.392  1.00  0.00     0.211 C 
ATOM     33  O   UNL     1      31.761  30.646  27.253  1.00  0.00    -0.294 OA
ATOM     34  C   UNL     1      31.368  29.217  25.424  1.00  0.00     0.131 C 
BRANCH  27  35
ATOM     35  O   UNL     1      29.765  32.435  28.162  1.00  0.00    -0.507 OA
ATOM     36  H   UNL     1      30.135  31.683  28.735  1.00  0.00     0.293 HD
ENDBRANCH  27  35
BRANCH  32  37
ATOM     37  C   UNL     1      29.528  27.571  24.849  1.00  0.00    -0.007 A 
ATOM     38  C   UNL     1      30.139  26.675  25.755  1.00  0.00     0.011 A 
ATOM     39  C   UNL     1      28.192  27.357  24.494  1.00  0.00     0.011 A 
ATOM     40  C   UNL     1      29.467  25.523  26.170  1.00  0.00     0.046 A 
ATOM     41  C   UNL     1      27.510  26.208  24.923  1.00  0.00     0.046 A 
ATOM     42  C   UNL     1      28.149  25.292  25.770  1.00  0.00     0.115 A 
BRANCH  42  43
ATOM     43  O   UNL     1      27.458  24.148  26.173  1.00  0.00    -0.508 OA
ATOM     44  H   UNL     1      26.731  24.212  26.883  1.00  0.00     0.293 HD
ENDBRANCH  42  43
ENDBRANCH  32  37
ENDBRANCH  23  24
ENDBRANCH   6  23
BRANCH   3  45
ATOM     45  O   UNL     1      27.183  37.951  21.550  1.00  0.00    -0.387 OA
ATOM     46  H   UNL     1      26.714  38.808  21.735  1.00  0.00     0.211 HD
ENDBRANCH   3  45
BRANCH   4  47
ATOM     47  C   UNL     1      25.560  37.994  24.111  1.00  0.00     0.191 C 
BRANCH  47  48
ATOM     48  O   UNL     1      25.280  39.019  23.198  1.00  0.00    -0.394 OA
ATOM     49  H   UNL     1      25.654  39.843  23.587  1.00  0.00     0.210 HD
ENDBRANCH  47  48
ENDBRANCH   4  47
TORSDOF 14
ENDMDL
