MODEL 1
REMARK VINA RESULT:    -7.393      0.000      0.000
REMARK INTER + INTRA:          -8.654
REMARK INTER:                  -8.473
REMARK INTRA:                  -0.181
REMARK UNBOUND:                -0.181
REMARK SMILES C=C(C)[C@@H]1CC[C@]2(C(=O)[O-])CC[C@@]3(C)[C@@H](CC[C@H]4[C@]5(C)CC[C@H](O)C(C)(C)[C@@H]5CC[C@]43C)[C@@H]12
REMARK SMILES IDX 7 1 6 2 33 3 11 4 5 5 15 6 4 7 12 8 16 9 13 10 17 11 31 12
REMARK SMILES IDX 14 13 18 14 30 15 32 16 19 17 29 18 21 19 20 20 28 21 22 22
REMARK SMILES IDX 25 23 23 24 26 25 27 26 8 27 9 28 10 29 2 30 3 31 1 32 24 33
REMARK H PARENT 24 34
REMARK Flexibility Score: inf
ROOT
ATOM      1  C   UNL     1     -16.848  30.702  -3.960  1.00  0.00     0.014 C 
ATOM      2  C   UNL     1     -15.529  29.902  -4.008  1.00  0.00     0.014 C 
ATOM      3  C   UNL     1     -17.865  29.609  -4.324  1.00  0.00     0.012 C 
ATOM      4  C   UNL     1     -17.211  31.237  -2.542  1.00  0.00     0.014 C 
ATOM      5  C   UNL     1     -15.709  28.884  -5.153  1.00  0.00     0.009 C 
ATOM      6  C   UNL     1     -19.366  30.059  -4.399  1.00  0.00     0.000 C 
ATOM      7  C   UNL     1     -17.227  28.790  -5.449  1.00  0.00     0.018 C 
ATOM      8  C   UNL     1     -18.749  31.327  -2.245  1.00  0.00     0.008 C 
ATOM      9  C   UNL     1     -20.025  30.166  -5.790  1.00  0.00     0.005 C 
ATOM     10  C   UNL     1     -19.731  31.285  -3.486  1.00  0.00    -0.024 C 
ATOM     11  C   UNL     1     -21.438  30.813  -5.732  1.00  0.00     0.005 C 
ATOM     12  C   UNL     1     -21.285  31.106  -3.059  1.00  0.00    -0.024 C 
ATOM     13  C   UNL     1     -19.544  32.653  -4.257  1.00  0.00     0.012 C 
ATOM     14  C   UNL     1     -22.197  30.751  -4.344  1.00  0.00     0.002 C 
ATOM     15  C   UNL     1     -21.477  29.986  -1.978  1.00  0.00     0.008 C 
ATOM     16  C   UNL     1     -21.791  32.426  -2.353  1.00  0.00     0.012 C 
ATOM     17  C   UNL     1     -23.199  29.482  -4.270  1.00  0.00    -0.026 C 
ATOM     18  C   UNL     1     -22.938  29.749  -1.628  1.00  0.00     0.005 C 
ATOM     19  C   UNL     1     -24.353  29.740  -5.325  1.00  0.00     0.010 C 
ATOM     20  C   UNL     1     -22.498  28.161  -4.738  1.00  0.00     0.012 C 
ATOM     21  C   UNL     1     -23.778  29.206  -2.805  1.00  0.00     0.003 C 
ATOM     22  C   UNL     1     -25.700  29.017  -5.139  1.00  0.00     0.033 C 
ATOM     23  C   UNL     1     -25.322  29.437  -2.609  1.00  0.00    -0.006 C 
ATOM     24  C   UNL     1     -26.055  28.604  -3.703  1.00  0.00     0.120 C 
ATOM     25  C   UNL     1     -25.710  30.943  -2.657  1.00  0.00     0.014 C 
ATOM     26  C   UNL     1     -25.769  28.872  -1.231  1.00  0.00     0.014 C 
ENDROOT
BRANCH   1  27
ATOM     27  C   UNL     1     -16.701  31.831  -4.978  1.00  0.00     0.048 C 
ATOM     28  O   UNL     1     -16.304  32.971  -4.621  1.00  0.00    -0.550 OA
ATOM     29  O   UNL     1     -17.023  31.648  -6.310  1.00  0.00    -0.550 OA
ENDBRANCH   1  27
BRANCH   7  30
ATOM     30  C   UNL     1     -17.731  27.346  -5.522  1.00  0.00    -0.077 C 
ATOM     31  C   UNL     1     -17.056  26.269  -4.714  1.00  0.00     0.039 C 
ATOM     32  C   UNL     1     -18.742  26.989  -6.333  1.00  0.00     0.008 C 
ENDBRANCH   7  30
BRANCH  24  33
ATOM     33  O   UNL     1     -27.457  28.685  -3.542  1.00  0.00    -0.393 OA
ATOM     34  H   UNL     1     -27.664  29.564  -3.121  1.00  0.00     0.210 HD
ENDBRANCH  24  33
TORSDOF 3
ENDMDL
MODEL 2
REMARK VINA RESULT:    -7.106      3.027      4.923
REMARK INTER + INTRA:          -8.325
REMARK INTER:                  -8.022
REMARK INTRA:                  -0.303
REMARK UNBOUND:                -0.181
REMARK SMILES C=C(C)[C@@H]1CC[C@]2(C(=O)[O-])CC[C@@]3(C)[C@@H](CC[C@H]4[C@]5(C)CC[C@H](O)C(C)(C)[C@@H]5CC[C@]43C)[C@@H]12
REMARK SMILES IDX 7 1 6 2 33 3 11 4 5 5 15 6 4 7 12 8 16 9 13 10 17 11 31 12
REMARK SMILES IDX 14 13 18 14 30 15 32 16 19 17 29 18 21 19 20 20 28 21 22 22
REMARK SMILES IDX 25 23 23 24 26 25 27 26 8 27 9 28 10 29 2 30 3 31 1 32 24 33
REMARK H PARENT 24 34
REMARK Flexibility Score: inf
ROOT
ATOM      1  C   UNL     1     -19.730  31.428  -2.485  1.00  0.00     0.014 C 
ATOM      2  C   UNL     1     -18.491  31.840  -1.662  1.00  0.00     0.014 C 
ATOM      3  C   UNL     1     -19.076  30.608  -3.607  1.00  0.00     0.012 C 
ATOM      4  C   UNL     1     -20.713  30.491  -1.720  1.00  0.00     0.014 C 
ATOM      5  C   UNL     1     -17.368  32.063  -2.696  1.00  0.00     0.009 C 
ATOM      6  C   UNL     1     -20.048  30.020  -4.690  1.00  0.00     0.000 C 
ATOM      7  C   UNL     1     -17.811  31.370  -4.010  1.00  0.00     0.018 C 
ATOM      8  C   UNL     1     -21.478  29.461  -2.624  1.00  0.00     0.008 C 
ATOM      9  C   UNL     1     -20.041  30.655  -6.095  1.00  0.00     0.005 C 
ATOM     10  C   UNL     1     -21.508  29.744  -4.181  1.00  0.00    -0.024 C 
ATOM     11  C   UNL     1     -21.186  30.115  -6.999  1.00  0.00     0.005 C 
ATOM     12  C   UNL     1     -22.077  28.492  -5.042  1.00  0.00    -0.024 C 
ATOM     13  C   UNL     1     -22.440  31.004  -4.394  1.00  0.00     0.012 C 
ATOM     14  C   UNL     1     -21.792  28.702  -6.618  1.00  0.00     0.002 C 
ATOM     15  C   UNL     1     -21.446  27.129  -4.591  1.00  0.00     0.008 C 
ATOM     16  C   UNL     1     -23.623  28.323  -4.764  1.00  0.00     0.012 C 
ATOM     17  C   UNL     1     -21.090  27.509  -7.455  1.00  0.00    -0.026 C 
ATOM     18  C   UNL     1     -21.907  25.957  -5.445  1.00  0.00     0.005 C 
ATOM     19  C   UNL     1     -21.501  27.703  -8.974  1.00  0.00     0.010 C 
ATOM     20  C   UNL     1     -19.528  27.624  -7.431  1.00  0.00     0.012 C 
ATOM     21  C   UNL     1     -21.456  26.048  -6.919  1.00  0.00     0.003 C 
ATOM     22  C   UNL     1     -21.445  26.487  -9.916  1.00  0.00     0.033 C 
ATOM     23  C   UNL     1     -22.321  25.147  -7.876  1.00  0.00    -0.006 C 
ATOM     24  C   UNL     1     -21.594  25.109  -9.255  1.00  0.00     0.120 C 
ATOM     25  C   UNL     1     -23.789  25.650  -8.000  1.00  0.00     0.014 C 
ATOM     26  C   UNL     1     -22.358  23.689  -7.340  1.00  0.00     0.014 C 
ENDROOT
BRANCH   1  27
ATOM     27  C   UNL     1     -20.403  32.728  -2.924  1.00  0.00     0.048 C 
ATOM     28  O   UNL     1     -21.318  33.245  -2.231  1.00  0.00    -0.550 OA
ATOM     29  O   UNL     1     -20.052  33.360  -4.103  1.00  0.00    -0.550 OA
ENDBRANCH   1  27
BRANCH   7  30
ATOM     30  C   UNL     1     -16.719  30.478  -4.607  1.00  0.00    -0.077 C 
ATOM     31  C   UNL     1     -16.167  30.774  -5.977  1.00  0.00     0.039 C 
ATOM     32  C   UNL     1     -16.259  29.392  -3.962  1.00  0.00     0.008 C 
ENDBRANCH   7  30
BRANCH  24  33
ATOM     33  O   UNL     1     -22.262  24.246 -10.152  1.00  0.00    -0.393 OA
ATOM     34  H   UNL     1     -22.033  24.535 -11.078  1.00  0.00     0.210 HD
ENDBRANCH  24  33
TORSDOF 3
ENDMDL
MODEL 3
REMARK VINA RESULT:    -7.039      2.794      5.594
REMARK INTER + INTRA:          -8.248
REMARK INTER:                  -7.995
REMARK INTRA:                  -0.254
REMARK UNBOUND:                -0.181
REMARK SMILES C=C(C)[C@@H]1CC[C@]2(C(=O)[O-])CC[C@@]3(C)[C@@H](CC[C@H]4[C@]5(C)CC[C@H](O)C(C)(C)[C@@H]5CC[C@]43C)[C@@H]12
REMARK SMILES IDX 7 1 6 2 33 3 11 4 5 5 15 6 4 7 12 8 16 9 13 10 17 11 31 12
REMARK SMILES IDX 14 13 18 14 30 15 32 16 19 17 29 18 21 19 20 20 28 21 22 22
REMARK SMILES IDX 25 23 23 24 26 25 27 26 8 27 9 28 10 29 2 30 3 31 1 32 24 33
REMARK H PARENT 24 34
REMARK Flexibility Score: inf
ROOT
ATOM      1  C   UNL     1     -14.005  28.310  -7.240  1.00  0.00     0.014 C 
ATOM      2  C   UNL     1     -12.926  28.728  -8.262  1.00  0.00     0.014 C 
ATOM      3  C   UNL     1     -14.635  29.672  -6.907  1.00  0.00     0.012 C 
ATOM      4  C   UNL     1     -15.121  27.402  -7.837  1.00  0.00     0.014 C 
ATOM      5  C   UNL     1     -12.418  30.104  -7.781  1.00  0.00     0.009 C 
ATOM      6  C   UNL     1     -15.796  29.657  -5.852  1.00  0.00     0.000 C 
ATOM      7  C   UNL     1     -13.473  30.662  -6.793  1.00  0.00     0.018 C 
ATOM      8  C   UNL     1     -16.538  27.585  -7.188  1.00  0.00     0.008 C 
ATOM      9  C   UNL     1     -15.508  30.225  -4.447  1.00  0.00     0.005 C 
ATOM     10  C   UNL     1     -16.603  28.311  -5.782  1.00  0.00    -0.024 C 
ATOM     11  C   UNL     1     -16.672  29.963  -3.449  1.00  0.00     0.005 C 
ATOM     12  C   UNL     1     -18.115  28.693  -5.336  1.00  0.00    -0.024 C 
ATOM     13  C   UNL     1     -15.972  27.315  -4.729  1.00  0.00     0.012 C 
ATOM     14  C   UNL     1     -18.104  29.700  -4.072  1.00  0.00     0.002 C 
ATOM     15  C   UNL     1     -18.927  29.355  -6.502  1.00  0.00     0.008 C 
ATOM     16  C   UNL     1     -18.913  27.372  -5.000  1.00  0.00     0.012 C 
ATOM     17  C   UNL     1     -18.982  31.057  -4.142  1.00  0.00    -0.026 C 
ATOM     18  C   UNL     1     -20.319  29.795  -6.075  1.00  0.00     0.005 C 
ATOM     19  C   UNL     1     -19.290  31.487  -2.648  1.00  0.00     0.010 C 
ATOM     20  C   UNL     1     -18.166  32.246  -4.754  1.00  0.00     0.012 C 
ATOM     21  C   UNL     1     -20.317  30.914  -5.010  1.00  0.00     0.003 C 
ATOM     22  C   UNL     1     -20.502  32.396  -2.375  1.00  0.00     0.033 C 
ATOM     23  C   UNL     1     -21.676  31.009  -4.224  1.00  0.00    -0.006 C 
ATOM     24  C   UNL     1     -21.642  32.333  -3.402  1.00  0.00     0.120 C 
ATOM     25  C   UNL     1     -21.931  29.765  -3.324  1.00  0.00     0.014 C 
ATOM     26  C   UNL     1     -22.859  31.125  -5.226  1.00  0.00     0.014 C 
ENDROOT
BRANCH   1  27
ATOM     27  C   UNL     1     -13.265  27.628  -6.091  1.00  0.00     0.048 C 
ATOM     28  O   UNL     1     -13.092  26.381  -6.087  1.00  0.00    -0.550 OA
ATOM     29  O   UNL     1     -12.788  28.348  -5.011  1.00  0.00    -0.550 OA
ENDBRANCH   1  27
BRANCH   7  30
ATOM     30  C   UNL     1     -13.866  32.111  -7.100  1.00  0.00    -0.077 C 
ATOM     31  C   UNL     1     -14.029  32.562  -8.527  1.00  0.00     0.039 C 
ATOM     32  C   UNL     1     -14.027  33.022  -6.125  1.00  0.00     0.008 C 
ENDBRANCH   7  30
BRANCH  24  33
ATOM     33  O   UNL     1     -22.868  32.541  -2.731  1.00  0.00    -0.393 OA
ATOM     34  H   UNL     1     -22.774  33.362  -2.175  1.00  0.00     0.210 HD
ENDBRANCH  24  33
TORSDOF 3
ENDMDL
MODEL 4
REMARK VINA RESULT:    -6.979      3.031      6.711
REMARK INTER + INTRA:          -8.180
REMARK INTER:                  -7.930
REMARK INTRA:                  -0.249
REMARK UNBOUND:                -0.181
REMARK SMILES C=C(C)[C@@H]1CC[C@]2(C(=O)[O-])CC[C@@]3(C)[C@@H](CC[C@H]4[C@]5(C)CC[C@H](O)C(C)(C)[C@@H]5CC[C@]43C)[C@@H]12
REMARK SMILES IDX 7 1 6 2 33 3 11 4 5 5 15 6 4 7 12 8 16 9 13 10 17 11 31 12
REMARK SMILES IDX 14 13 18 14 30 15 32 16 19 17 29 18 21 19 20 20 28 21 22 22
REMARK SMILES IDX 25 23 23 24 26 25 27 26 8 27 9 28 10 29 2 30 3 31 1 32 24 33
REMARK H PARENT 24 34
REMARK Flexibility Score: inf
ROOT
ATOM      1  C   UNL     1     -20.092  32.214  -2.980  1.00  0.00     0.014 C 
ATOM      2  C   UNL     1     -21.239  32.730  -2.085  1.00  0.00     0.014 C 
ATOM      3  C   UNL     1     -20.835  31.176  -3.835  1.00  0.00     0.012 C 
ATOM      4  C   UNL     1     -19.507  33.293  -3.940  1.00  0.00     0.014 C 
ATOM      5  C   UNL     1     -22.135  31.503  -1.819  1.00  0.00     0.009 C 
ATOM      6  C   UNL     1     -19.968  30.399  -4.887  1.00  0.00     0.000 C 
ATOM      7  C   UNL     1     -21.778  30.436  -2.884  1.00  0.00     0.018 C 
ATOM      8  C   UNL     1     -18.982  32.739  -5.311  1.00  0.00     0.008 C 
ATOM      9  C   UNL     1     -19.644  28.916  -4.609  1.00  0.00     0.005 C 
ATOM     10  C   UNL     1     -18.710  31.182  -5.408  1.00  0.00    -0.024 C 
ATOM     11  C   UNL     1     -18.617  28.331  -5.619  1.00  0.00     0.005 C 
ATOM     12  C   UNL     1     -18.441  30.680  -6.927  1.00  0.00    -0.024 C 
ATOM     13  C   UNL     1     -17.438  30.889  -4.517  1.00  0.00     0.012 C 
ATOM     14  C   UNL     1     -18.487  29.067  -7.015  1.00  0.00     0.002 C 
ATOM     15  C   UNL     1     -19.481  31.272  -7.940  1.00  0.00     0.008 C 
ATOM     16  C   UNL     1     -17.047  31.233  -7.424  1.00  0.00     0.012 C 
ATOM     17  C   UNL     1     -19.413  28.369  -8.144  1.00  0.00    -0.026 C 
ATOM     18  C   UNL     1     -19.292  30.744  -9.354  1.00  0.00     0.005 C 
ATOM     19  C   UNL     1     -18.808  26.929  -8.415  1.00  0.00     0.010 C 
ATOM     20  C   UNL     1     -20.869  28.115  -7.625  1.00  0.00     0.012 C 
ATOM     21  C   UNL     1     -19.542  29.226  -9.488  1.00  0.00     0.003 C 
ATOM     22  C   UNL     1     -19.115  26.239  -9.756  1.00  0.00     0.033 C 
ATOM     23  C   UNL     1     -18.879  28.611 -10.776  1.00  0.00    -0.006 C 
ATOM     24  C   UNL     1     -19.439  27.165 -10.937  1.00  0.00     0.120 C 
ATOM     25  C   UNL     1     -17.324  28.635 -10.714  1.00  0.00     0.014 C 
ATOM     26  C   UNL     1     -19.321  29.413 -12.031  1.00  0.00     0.014 C 
ENDROOT
BRANCH   1  27
ATOM     27  C   UNL     1     -19.031  31.652  -2.035  1.00  0.00     0.048 C 
ATOM     28  O   UNL     1     -18.005  32.322  -1.749  1.00  0.00    -0.550 OA
ATOM     29  O   UNL     1     -19.149  30.387  -1.489  1.00  0.00    -0.550 OA
ENDBRANCH   1  27
BRANCH   7  30
ATOM     30  C   UNL     1     -23.013  29.848  -3.574  1.00  0.00    -0.077 C 
ATOM     31  C   UNL     1     -23.245  28.360  -3.568  1.00  0.00     0.039 C 
ATOM     32  C   UNL     1     -23.889  30.622  -4.237  1.00  0.00     0.008 C 
ENDBRANCH   7  30
BRANCH  24  33
ATOM     33  O   UNL     1     -18.959  26.569 -12.125  1.00  0.00    -0.393 OA
ATOM     34  H   UNL     1     -17.983  26.405 -12.009  1.00  0.00     0.210 HD
ENDBRANCH  24  33
TORSDOF 3
ENDMDL
MODEL 5
REMARK VINA RESULT:    -6.930      3.237      8.037
REMARK INTER + INTRA:          -8.124
REMARK INTER:                  -7.895
REMARK INTRA:                  -0.229
REMARK UNBOUND:                -0.181
REMARK SMILES C=C(C)[C@@H]1CC[C@]2(C(=O)[O-])CC[C@@]3(C)[C@@H](CC[C@H]4[C@]5(C)CC[C@H](O)C(C)(C)[C@@H]5CC[C@]43C)[C@@H]12
REMARK SMILES IDX 7 1 6 2 33 3 11 4 5 5 15 6 4 7 12 8 16 9 13 10 17 11 31 12
REMARK SMILES IDX 14 13 18 14 30 15 32 16 19 17 29 18 21 19 20 20 28 21 22 22
REMARK SMILES IDX 25 23 23 24 26 25 27 26 8 27 9 28 10 29 2 30 3 31 1 32 24 33
REMARK H PARENT 24 34
REMARK Flexibility Score: inf
ROOT
ATOM      1  C   UNL     1     -21.101  29.895  -3.789  1.00  0.00     0.014 C 
ATOM      2  C   UNL     1     -21.238  29.683  -2.267  1.00  0.00     0.014 C 
ATOM      3  C   UNL     1     -19.617  30.280  -3.897  1.00  0.00     0.012 C 
ATOM      4  C   UNL     1     -21.319  28.600  -4.628  1.00  0.00     0.014 C 
ATOM      5  C   UNL     1     -20.310  30.734  -1.621  1.00  0.00     0.009 C 
ATOM      6  C   UNL     1     -19.090  30.602  -5.339  1.00  0.00     0.000 C 
ATOM      7  C   UNL     1     -19.334  31.221  -2.723  1.00  0.00     0.018 C 
ATOM      8  C   UNL     1     -20.480  28.524  -5.952  1.00  0.00     0.008 C 
ATOM      9  C   UNL     1     -18.783  32.072  -5.690  1.00  0.00     0.005 C 
ATOM     10  C   UNL     1     -19.862  29.876  -6.498  1.00  0.00    -0.024 C 
ATOM     11  C   UNL     1     -18.467  32.271  -7.200  1.00  0.00     0.005 C 
ATOM     12  C   UNL     1     -18.797  29.645  -7.700  1.00  0.00    -0.024 C 
ATOM     13  C   UNL     1     -21.073  30.748  -7.020  1.00  0.00     0.012 C 
ATOM     14  C   UNL     1     -17.969  30.999  -8.001  1.00  0.00     0.002 C 
ATOM     15  C   UNL     1     -17.783  28.493  -7.380  1.00  0.00     0.008 C 
ATOM     16  C   UNL     1     -19.561  29.151  -8.991  1.00  0.00     0.012 C 
ATOM     17  C   UNL     1     -16.353  30.933  -8.067  1.00  0.00    -0.026 C 
ATOM     18  C   UNL     1     -16.727  28.321  -8.461  1.00  0.00     0.005 C 
ATOM     19  C   UNL     1     -15.875  32.154  -8.957  1.00  0.00     0.010 C 
ATOM     20  C   UNL     1     -15.704  31.167  -6.661  1.00  0.00     0.012 C 
ATOM     21  C   UNL     1     -15.790  29.539  -8.612  1.00  0.00     0.003 C 
ATOM     22  C   UNL     1     -14.495  32.079  -9.634  1.00  0.00     0.033 C 
ATOM     23  C   UNL     1     -15.060  29.577 -10.006  1.00  0.00    -0.006 C 
ATOM     24  C   UNL     1     -13.953  30.670  -9.918  1.00  0.00     0.120 C 
ATOM     25  C   UNL     1     -16.044  29.829 -11.185  1.00  0.00     0.014 C 
ATOM     26  C   UNL     1     -14.343  28.222 -10.263  1.00  0.00     0.014 C 
ENDROOT
BRANCH   1  27
ATOM     27  C   UNL     1     -22.096  30.993  -4.160  1.00  0.00     0.048 C 
ATOM     28  O   UNL     1     -23.257  30.703  -4.550  1.00  0.00    -0.550 OA
ATOM     29  O   UNL     1     -21.748  32.330  -4.109  1.00  0.00    -0.550 OA
ENDBRANCH   1  27
BRANCH   7  30
ATOM     30  C   UNL     1     -17.872  31.215  -2.267  1.00  0.00    -0.077 C 
ATOM     31  C   UNL     1     -16.970  30.068  -2.639  1.00  0.00     0.039 C 
ATOM     32  C   UNL     1     -17.368  32.191  -1.492  1.00  0.00     0.008 C 
ENDBRANCH   7  30
BRANCH  24  33
ATOM     33  O   UNL     1     -13.188  30.709 -11.105  1.00  0.00    -0.393 OA
ATOM     34  H   UNL     1     -13.780  30.429 -11.856  1.00  0.00     0.210 HD
ENDBRANCH  24  33
TORSDOF 3
ENDMDL
MODEL 6
REMARK VINA RESULT:    -6.865      3.410      5.730
REMARK INTER + INTRA:          -8.049
REMARK INTER:                  -7.772
REMARK INTRA:                  -0.276
REMARK UNBOUND:                -0.181
REMARK SMILES C=C(C)[C@@H]1CC[C@]2(C(=O)[O-])CC[C@@]3(C)[C@@H](CC[C@H]4[C@]5(C)CC[C@H](O)C(C)(C)[C@@H]5CC[C@]43C)[C@@H]12
REMARK SMILES IDX 7 1 6 2 33 3 11 4 5 5 15 6 4 7 12 8 16 9 13 10 17 11 31 12
REMARK SMILES IDX 14 13 18 14 30 15 32 16 19 17 29 18 21 19 20 20 28 21 22 22
REMARK SMILES IDX 25 23 23 24 26 25 27 26 8 27 9 28 10 29 2 30 3 31 1 32 24 33
REMARK H PARENT 24 34
REMARK Flexibility Score: inf
ROOT
ATOM      1  C   UNL     1     -17.312  31.455  -4.240  1.00  0.00     0.014 C 
ATOM      2  C   UNL     1     -17.337  32.290  -2.943  1.00  0.00     0.014 C 
ATOM      3  C   UNL     1     -18.800  31.105  -4.392  1.00  0.00     0.012 C 
ATOM      4  C   UNL     1     -16.882  32.263  -5.502  1.00  0.00     0.014 C 
ATOM      5  C   UNL     1     -18.425  31.642  -2.060  1.00  0.00     0.009 C 
ATOM      6  C   UNL     1     -19.180  30.217  -5.628  1.00  0.00     0.000 C 
ATOM      7  C   UNL     1     -19.303  30.763  -2.987  1.00  0.00     0.018 C 
ATOM      8  C   UNL     1     -17.548  31.794  -6.843  1.00  0.00     0.008 C 
ATOM      9  C   UNL     1     -19.573  28.747  -5.374  1.00  0.00     0.005 C 
ATOM     10  C   UNL     1     -18.215  30.358  -6.859  1.00  0.00    -0.024 C 
ATOM     11  C   UNL     1     -19.724  27.934  -6.692  1.00  0.00     0.005 C 
ATOM     12  C   UNL     1     -19.105  30.088  -8.187  1.00  0.00    -0.024 C 
ATOM     13  C   UNL     1     -17.032  29.310  -6.788  1.00  0.00     0.012 C 
ATOM     14  C   UNL     1     -20.009  28.760  -8.013  1.00  0.00     0.002 C 
ATOM     15  C   UNL     1     -20.043  31.297  -8.528  1.00  0.00     0.008 C 
ATOM     16  C   UNL     1     -18.153  29.962  -9.442  1.00  0.00     0.012 C 
ATOM     17  C   UNL     1     -21.593  28.840  -8.333  1.00  0.00    -0.026 C 
ATOM     18  C   UNL     1     -20.945  31.024  -9.722  1.00  0.00     0.005 C 
ATOM     19  C   UNL     1     -22.069  27.372  -8.692  1.00  0.00     0.010 C 
ATOM     20  C   UNL     1     -22.422  29.247  -7.068  1.00  0.00     0.012 C 
ATOM     21  C   UNL     1     -21.962  29.886  -9.486  1.00  0.00     0.003 C 
ATOM     22  C   UNL     1     -23.347  27.193  -9.531  1.00  0.00     0.033 C 
ATOM     23  C   UNL     1     -22.522  29.282 -10.826  1.00  0.00    -0.006 C 
ATOM     24  C   UNL     1     -23.724  28.364 -10.451  1.00  0.00     0.120 C 
ATOM     25  C   UNL     1     -21.432  28.522 -11.637  1.00  0.00     0.014 C 
ATOM     26  C   UNL     1     -23.081  30.419 -11.725  1.00  0.00     0.014 C 
ENDROOT
BRANCH   1  27
ATOM     27  C   UNL     1     -16.381  30.274  -3.972  1.00  0.00     0.048 C 
ATOM     28  O   UNL     1     -15.156  30.344  -4.251  1.00  0.00    -0.550 OA
ATOM     29  O   UNL     1     -16.855  29.087  -3.443  1.00  0.00    -0.550 OA
ENDBRANCH   1  27
BRANCH   7  30
ATOM     30  C   UNL     1     -20.802  31.006  -2.791  1.00  0.00    -0.077 C 
ATOM     31  C   UNL     1     -21.498  32.090  -3.572  1.00  0.00     0.039 C 
ATOM     32  C   UNL     1     -21.523  30.307  -1.898  1.00  0.00     0.008 C 
ENDBRANCH   7  30
BRANCH  24  33
ATOM     33  O   UNL     1     -24.344  27.847 -11.611  1.00  0.00    -0.393 OA
ATOM     34  H   UNL     1     -24.072  28.419 -12.381  1.00  0.00     0.210 HD
ENDBRANCH  24  33
TORSDOF 3
ENDMDL
MODEL 7
REMARK VINA RESULT:    -6.861      3.386      5.157
REMARK INTER + INTRA:          -8.045
REMARK INTER:                  -7.815
REMARK INTRA:                  -0.230
REMARK UNBOUND:                -0.181
REMARK SMILES C=C(C)[C@@H]1CC[C@]2(C(=O)[O-])CC[C@@]3(C)[C@@H](CC[C@H]4[C@]5(C)CC[C@H](O)C(C)(C)[C@@H]5CC[C@]43C)[C@@H]12
REMARK SMILES IDX 7 1 6 2 33 3 11 4 5 5 15 6 4 7 12 8 16 9 13 10 17 11 31 12
REMARK SMILES IDX 14 13 18 14 30 15 32 16 19 17 29 18 21 19 20 20 28 21 22 22
REMARK SMILES IDX 25 23 23 24 26 25 27 26 8 27 9 28 10 29 2 30 3 31 1 32 24 33
REMARK H PARENT 24 34
REMARK Flexibility Score: inf
ROOT
ATOM      1  C   UNL     1     -20.516  31.012  -2.495  1.00  0.00     0.014 C 
ATOM      2  C   UNL     1     -19.272  31.757  -1.967  1.00  0.00     0.014 C 
ATOM      3  C   UNL     1     -19.874  30.062  -3.519  1.00  0.00     0.012 C 
ATOM      4  C   UNL     1     -21.233  30.140  -1.421  1.00  0.00     0.014 C 
ATOM      5  C   UNL     1     -18.332  31.898  -3.182  1.00  0.00     0.009 C 
ATOM      6  C   UNL     1     -20.857  29.125  -4.304  1.00  0.00     0.000 C 
ATOM      7  C   UNL     1     -18.807  30.881  -4.250  1.00  0.00     0.018 C 
ATOM      8  C   UNL     1     -21.921  28.844  -1.976  1.00  0.00     0.008 C 
ATOM      9  C   UNL     1     -21.123  29.432  -5.792  1.00  0.00     0.005 C 
ATOM     10  C   UNL     1     -22.182  28.772  -3.536  1.00  0.00    -0.024 C 
ATOM     11  C   UNL     1     -22.263  28.558  -6.387  1.00  0.00     0.005 C 
ATOM     12  C   UNL     1     -22.636  27.298  -4.036  1.00  0.00    -0.024 C 
ATOM     13  C   UNL     1     -23.326  29.817  -3.852  1.00  0.00     0.012 C 
ATOM     14  C   UNL     1     -22.579  27.194  -5.647  1.00  0.00     0.002 C 
ATOM     15  C   UNL     1     -21.741  26.164  -3.425  1.00  0.00     0.008 C 
ATOM     16  C   UNL     1     -24.089  26.985  -3.500  1.00  0.00     0.012 C 
ATOM     17  C   UNL     1     -21.795  25.953  -6.327  1.00  0.00    -0.026 C 
ATOM     18  C   UNL     1     -22.102  24.782  -3.949  1.00  0.00     0.005 C 
ATOM     19  C   UNL     1     -22.410  25.752  -7.774  1.00  0.00     0.010 C 
ATOM     20  C   UNL     1     -20.281  26.280  -6.563  1.00  0.00     0.012 C 
ATOM     21  C   UNL     1     -21.850  24.608  -5.463  1.00  0.00     0.003 C 
ATOM     22  C   UNL     1     -22.267  24.378  -8.454  1.00  0.00     0.033 C 
ATOM     23  C   UNL     1     -22.664  23.412  -6.081  1.00  0.00    -0.006 C 
ATOM     24  C   UNL     1     -22.109  23.171  -7.518  1.00  0.00     0.120 C 
ATOM     25  C   UNL     1     -24.198  23.671  -6.079  1.00  0.00     0.014 C 
ATOM     26  C   UNL     1     -22.396  22.115  -5.267  1.00  0.00     0.014 C 
ENDROOT
BRANCH   1  27
ATOM     27  C   UNL     1     -21.440  32.081  -3.077  1.00  0.00     0.048 C 
ATOM     28  O   UNL     1     -21.313  32.461  -4.270  1.00  0.00    -0.550 OA
ATOM     29  O   UNL     1     -22.421  32.681  -2.309  1.00  0.00    -0.550 OA
ENDBRANCH   1  27
BRANCH   7  30
ATOM     30  C   UNL     1     -17.663  30.036  -4.817  1.00  0.00    -0.077 C 
ATOM     31  C   UNL     1     -17.433  29.977  -6.304  1.00  0.00     0.039 C 
ATOM     32  C   UNL     1     -16.871  29.294  -4.024  1.00  0.00     0.008 C 
ENDBRANCH   7  30
BRANCH  24  33
ATOM     33  O   UNL     1     -22.728  22.050  -8.115  1.00  0.00    -0.393 OA
ATOM     34  H   UNL     1     -23.148  21.513  -7.389  1.00  0.00     0.210 HD
ENDBRANCH  24  33
TORSDOF 3
ENDMDL
MODEL 8
REMARK VINA RESULT:    -6.833      2.568      7.519
REMARK INTER + INTRA:          -8.012
REMARK INTER:                  -7.901
REMARK INTRA:                  -0.110
REMARK UNBOUND:                -0.181
REMARK SMILES C=C(C)[C@@H]1CC[C@]2(C(=O)[O-])CC[C@@]3(C)[C@@H](CC[C@H]4[C@]5(C)CC[C@H](O)C(C)(C)[C@@H]5CC[C@]43C)[C@@H]12
REMARK SMILES IDX 7 1 6 2 33 3 11 4 5 5 15 6 4 7 12 8 16 9 13 10 17 11 31 12
REMARK SMILES IDX 14 13 18 14 30 15 32 16 19 17 29 18 21 19 20 20 28 21 22 22
REMARK SMILES IDX 25 23 23 24 26 25 27 26 8 27 9 28 10 29 2 30 3 31 1 32 24 33
REMARK H PARENT 24 34
REMARK Flexibility Score: inf
ROOT
ATOM      1  C   UNL     1     -22.636  31.117  -3.266  1.00  0.00     0.014 C 
ATOM      2  C   UNL     1     -24.168  31.121  -3.451  1.00  0.00     0.014 C 
ATOM      3  C   UNL     1     -22.188  30.414  -4.556  1.00  0.00     0.012 C 
ATOM      4  C   UNL     1     -21.998  32.539  -3.253  1.00  0.00     0.014 C 
ATOM      5  C   UNL     1     -24.497  29.795  -4.169  1.00  0.00     0.009 C 
ATOM      6  C   UNL     1     -20.643  30.200  -4.727  1.00  0.00     0.000 C 
ATOM      7  C   UNL     1     -23.175  29.265  -4.781  1.00  0.00     0.018 C 
ATOM      8  C   UNL     1     -20.547  32.617  -3.844  1.00  0.00     0.008 C 
ATOM      9  C   UNL     1     -20.085  28.770  -4.576  1.00  0.00     0.005 C 
ATOM     10  C   UNL     1     -19.748  31.257  -3.985  1.00  0.00    -0.024 C 
ATOM     11  C   UNL     1     -18.530  28.735  -4.565  1.00  0.00     0.005 C 
ATOM     12  C   UNL     1     -18.386  31.410  -4.852  1.00  0.00    -0.024 C 
ATOM     13  C   UNL     1     -19.396  30.785  -2.518  1.00  0.00     0.012 C 
ATOM     14  C   UNL     1     -17.782  29.960  -5.234  1.00  0.00     0.002 C 
ATOM     15  C   UNL     1     -18.611  32.227  -6.170  1.00  0.00     0.008 C 
ATOM     16  C   UNL     1     -17.336  32.261  -4.034  1.00  0.00     0.012 C 
ATOM     17  C   UNL     1     -17.396  29.652  -6.775  1.00  0.00    -0.026 C 
ATOM     18  C   UNL     1     -17.361  32.308  -7.034  1.00  0.00     0.005 C 
ATOM     19  C   UNL     1     -16.304  28.503  -6.759  1.00  0.00     0.010 C 
ATOM     20  C   UNL     1     -18.608  29.061  -7.571  1.00  0.00     0.012 C 
ATOM     21  C   UNL     1     -16.896  30.940  -7.580  1.00  0.00     0.003 C 
ATOM     22  C   UNL     1     -15.371  28.353  -7.974  1.00  0.00     0.033 C 
ATOM     23  C   UNL     1     -15.386  30.945  -8.026  1.00  0.00    -0.006 C 
ATOM     24  C   UNL     1     -15.132  29.620  -8.807  1.00  0.00     0.120 C 
ATOM     25  C   UNL     1     -14.412  31.114  -6.824  1.00  0.00     0.014 C 
ATOM     26  C   UNL     1     -15.132  32.114  -9.017  1.00  0.00     0.014 C 
ENDROOT
BRANCH   1  27
ATOM     27  C   UNL     1     -22.362  30.355  -1.970  1.00  0.00     0.048 C 
ATOM     28  O   UNL     1     -22.275  30.964  -0.872  1.00  0.00    -0.550 OA
ATOM     29  O   UNL     1     -22.174  28.985  -1.965  1.00  0.00    -0.550 OA
ENDBRANCH   1  27
BRANCH   7  30
ATOM     30  C   UNL     1     -23.322  28.856  -6.249  1.00  0.00    -0.077 C 
ATOM     31  C   UNL     1     -22.553  29.589  -7.317  1.00  0.00     0.039 C 
ATOM     32  C   UNL     1     -24.163  27.881  -6.632  1.00  0.00     0.008 C 
ENDBRANCH   7  30
BRANCH  24  33
ATOM     33  O   UNL     1     -13.817  29.584  -9.321  1.00  0.00    -0.393 OA
ATOM     34  H   UNL     1     -13.647  28.660  -9.655  1.00  0.00     0.210 HD
ENDBRANCH  24  33
TORSDOF 3
ENDMDL
MODEL 9
REMARK VINA RESULT:    -6.747      2.034      7.982
REMARK INTER + INTRA:          -7.914
REMARK INTER:                  -7.636
REMARK INTRA:                  -0.278
REMARK UNBOUND:                -0.181
REMARK SMILES C=C(C)[C@@H]1CC[C@]2(C(=O)[O-])CC[C@@]3(C)[C@@H](CC[C@H]4[C@]5(C)CC[C@H](O)C(C)(C)[C@@H]5CC[C@]43C)[C@@H]12
REMARK SMILES IDX 7 1 6 2 33 3 11 4 5 5 15 6 4 7 12 8 16 9 13 10 17 11 31 12
REMARK SMILES IDX 14 13 18 14 30 15 32 16 19 17 29 18 21 19 20 20 28 21 22 22
REMARK SMILES IDX 25 23 23 24 26 25 27 26 8 27 9 28 10 29 2 30 3 31 1 32 24 33
REMARK H PARENT 24 34
REMARK Flexibility Score: inf
ROOT
ATOM      1  C   UNL     1     -22.497  27.898  -4.261  1.00  0.00     0.014 C 
ATOM      2  C   UNL     1     -23.487  27.812  -3.080  1.00  0.00     0.014 C 
ATOM      3  C   UNL     1     -21.554  29.008  -3.771  1.00  0.00     0.012 C 
ATOM      4  C   UNL     1     -21.647  26.608  -4.467  1.00  0.00     0.014 C 
ATOM      5  C   UNL     1     -23.641  29.260  -2.569  1.00  0.00     0.009 C 
ATOM      6  C   UNL     1     -20.389  29.405  -4.743  1.00  0.00     0.000 C 
ATOM      7  C   UNL     1     -22.447  30.073  -3.129  1.00  0.00     0.018 C 
ATOM      8  C   UNL     1     -20.203  26.853  -5.029  1.00  0.00     0.008 C 
ATOM      9  C   UNL     1     -20.480  30.760  -5.474  1.00  0.00     0.005 C 
ATOM     10  C   UNL     1     -19.916  28.256  -5.704  1.00  0.00    -0.024 C 
ATOM     11  C   UNL     1     -19.372  30.933  -6.551  1.00  0.00     0.005 C 
ATOM     12  C   UNL     1     -18.340  28.507  -5.997  1.00  0.00    -0.024 C 
ATOM     13  C   UNL     1     -20.720  28.275  -7.065  1.00  0.00     0.012 C 
ATOM     14  C   UNL     1     -18.067  30.052  -6.383  1.00  0.00     0.002 C 
ATOM     15  C   UNL     1     -17.442  28.126  -4.770  1.00  0.00     0.008 C 
ATOM     16  C   UNL     1     -17.860  27.542  -7.152  1.00  0.00     0.012 C 
ATOM     17  C   UNL     1     -16.900  30.861  -5.606  1.00  0.00    -0.026 C 
ATOM     18  C   UNL     1     -15.970  28.435  -4.999  1.00  0.00     0.005 C 
ATOM     19  C   UNL     1     -16.442  32.042  -6.559  1.00  0.00     0.010 C 
ATOM     20  C   UNL     1     -17.439  31.558  -4.312  1.00  0.00     0.012 C 
ATOM     21  C   UNL     1     -15.670  29.941  -5.161  1.00  0.00     0.003 C 
ATOM     22  C   UNL     1     -15.041  32.650  -6.361  1.00  0.00     0.033 C 
ATOM     23  C   UNL     1     -14.296  30.215  -5.878  1.00  0.00    -0.006 C 
ATOM     24  C   UNL     1     -13.988  31.734  -5.720  1.00  0.00     0.120 C 
ATOM     25  C   UNL     1     -14.304  29.768  -7.368  1.00  0.00     0.014 C 
ATOM     26  C   UNL     1     -13.159  29.442  -5.152  1.00  0.00     0.014 C 
ENDROOT
BRANCH   1  27
ATOM     27  C   UNL     1     -23.331  28.238  -5.495  1.00  0.00     0.048 C 
ATOM     28  O   UNL     1     -23.779  27.327  -6.239  1.00  0.00    -0.550 OA
ATOM     29  O   UNL     1     -23.595  29.548  -5.848  1.00  0.00    -0.550 OA
ENDBRANCH   1  27
BRANCH   7  30
ATOM     30  C   UNL     1     -21.739  30.906  -2.056  1.00  0.00    -0.077 C 
ATOM     31  C   UNL     1     -21.983  32.389  -1.969  1.00  0.00     0.039 C 
ATOM     32  C   UNL     1     -20.856  30.358  -1.203  1.00  0.00     0.008 C 
ENDBRANCH   7  30
BRANCH  24  33
ATOM     33  O   UNL     1     -12.723  32.051  -6.262  1.00  0.00    -0.393 OA
ATOM     34  H   UNL     1     -12.839  32.190  -7.243  1.00  0.00     0.210 HD
ENDBRANCH  24  33
TORSDOF 3
ENDMDL
