MODEL 1
REMARK VINA RESULT:    -3.571      0.000      0.000
REMARK INTER + INTRA:          -5.826
REMARK INTER:                  -4.406
REMARK INTRA:                  -1.420
REMARK UNBOUND:                -1.420
REMARK SMILES CC(C)=CCC[C@@H](C)c1ccc(C)cc1
REMARK SMILES IDX 6 1 7 2 8 3 9 4 13 5 12 6 11 7 14 8 10 9 15 10 5 11 4 12
REMARK SMILES IDX 2 13 1 14 3 15
REMARK H PARENT
REMARK Flexibility Score: inf
ROOT
ATOM      1  C   UNL     1     102.098 102.214  92.961  1.00  0.00     0.012 C 
ENDROOT
BRANCH   1   2
ATOM      2  C   UNL     1     100.617 102.652  93.077  1.00  0.00     0.016 C 
ATOM      3  C   UNL     1      99.852 101.824  94.121  1.00  0.00     0.013 C 
BRANCH   2   4
ATOM      4  C   UNL     1     100.520 104.129  93.411  1.00  0.00    -0.045 A 
ATOM      5  C   UNL     1     100.256 108.343  94.322  1.00  0.00     0.044 C 
ATOM      6  C   UNL     1     100.321 106.875  94.020  1.00  0.00    -0.051 A 
ATOM      7  C   UNL     1     100.931 105.993  94.924  1.00  0.00     0.004 A 
ATOM      8  C   UNL     1      99.833 106.383  92.801  1.00  0.00     0.004 A 
ATOM      9  C   UNL     1     101.024 104.631  94.626  1.00  0.00     0.004 A 
ATOM     10  C   UNL     1      99.926 105.021  92.501  1.00  0.00     0.004 A 
ENDBRANCH   2   4
ENDBRANCH   1   2
BRANCH   1  11
ATOM     11  C   UNL     1     102.946 103.141  92.076  1.00  0.00     0.028 C 
BRANCH  11  12
ATOM     12  C   UNL     1     104.168 103.640  92.815  1.00  0.00    -0.028 C 
ATOM     13  C   UNL     1     104.495 104.941  92.979  1.00  0.00    -0.080 C 
ATOM     14  C   UNL     1     105.733 105.309  93.757  1.00  0.00     0.039 C 
ATOM     15  C   UNL     1     103.659 106.060  92.413  1.00  0.00     0.039 C 
ENDBRANCH  11  12
ENDBRANCH   1  11
TORSDOF 4
ENDMDL
MODEL 2
REMARK VINA RESULT:    -3.448      1.654      4.298
REMARK INTER + INTRA:          -5.675
REMARK INTER:                  -4.129
REMARK INTRA:                  -1.546
REMARK UNBOUND:                -1.420
REMARK SMILES CC(C)=CCC[C@@H](C)c1ccc(C)cc1
REMARK SMILES IDX 6 1 7 2 8 3 9 4 13 5 12 6 11 7 14 8 10 9 15 10 5 11 4 12
REMARK SMILES IDX 2 13 1 14 3 15
REMARK H PARENT
REMARK Flexibility Score: inf
ROOT
ATOM      1  C   UNL     1     101.031 109.334  93.651  1.00  0.00     0.012 C 
ENDROOT
BRANCH   1   2
ATOM      2  C   UNL     1      99.701 108.546  93.542  1.00  0.00     0.016 C 
ATOM      3  C   UNL     1      98.960 108.847  92.230  1.00  0.00     0.013 C 
BRANCH   2   4
ATOM      4  C   UNL     1      99.952 107.055  93.667  1.00  0.00    -0.045 A 
ATOM      5  C   UNL     1     100.624 102.802  94.018  1.00  0.00     0.044 C 
ATOM      6  C   UNL     1     100.415 104.281  93.877  1.00  0.00    -0.051 A 
ATOM      7  C   UNL     1     101.060 105.173  94.745  1.00  0.00     0.004 A 
ATOM      8  C   UNL     1      99.519 104.779  92.920  1.00  0.00     0.004 A 
ATOM      9  C   UNL     1     100.837 106.547  94.638  1.00  0.00     0.004 A 
ATOM     10  C   UNL     1      99.294 106.154  92.812  1.00  0.00     0.004 A 
ENDBRANCH   2   4
ENDBRANCH   1   2
BRANCH   1  11
ATOM     11  C   UNL     1     101.879 109.289  92.370  1.00  0.00     0.028 C 
BRANCH  11  12
ATOM     12  C   UNL     1     103.228 108.654  92.627  1.00  0.00    -0.028 C 
ATOM     13  C   UNL     1     103.607 107.436  92.180  1.00  0.00    -0.080 C 
ATOM     14  C   UNL     1     104.991 106.923  92.486  1.00  0.00     0.039 C 
ATOM     15  C   UNL     1     102.691 106.554  91.370  1.00  0.00     0.039 C 
ENDBRANCH  11  12
ENDBRANCH   1  11
TORSDOF 4
ENDMDL
MODEL 3
REMARK VINA RESULT:    -3.430      1.446      2.606
REMARK INTER + INTRA:          -5.653
REMARK INTER:                  -4.491
REMARK INTRA:                  -1.161
REMARK UNBOUND:                -1.420
REMARK SMILES CC(C)=CCC[C@@H](C)c1ccc(C)cc1
REMARK SMILES IDX 6 1 7 2 8 3 9 4 13 5 12 6 11 7 14 8 10 9 15 10 5 11 4 12
REMARK SMILES IDX 2 13 1 14 3 15
REMARK H PARENT
REMARK Flexibility Score: inf
ROOT
ATOM      1  C   UNL     1     100.883 104.362  94.124  1.00  0.00     0.012 C 
ENDROOT
BRANCH   1   2
ATOM      2  C   UNL     1     100.436 105.243  92.931  1.00  0.00     0.016 C 
ATOM      3  C   UNL     1      98.946 105.058  92.604  1.00  0.00     0.013 C 
BRANCH   2   4
ATOM      4  C   UNL     1     100.730 106.706  93.207  1.00  0.00    -0.045 A 
ATOM      5  C   UNL     1     101.526 110.878  93.993  1.00  0.00     0.044 C 
ATOM      6  C   UNL     1     101.269 109.422  93.743  1.00  0.00    -0.051 A 
ATOM      7  C   UNL     1     102.079 108.703  92.853  1.00  0.00     0.004 A 
ATOM      8  C   UNL     1     100.174 108.785  94.345  1.00  0.00     0.004 A 
ATOM      9  C   UNL     1     101.817 107.355  92.592  1.00  0.00     0.004 A 
ATOM     10  C   UNL     1      99.910 107.437  94.084  1.00  0.00     0.004 A 
ENDBRANCH   2   4
ENDBRANCH   1   2
BRANCH   1  11
ATOM     11  C   UNL     1     102.118 103.499  93.822  1.00  0.00     0.028 C 
BRANCH  11  12
ATOM     12  C   UNL     1     103.397 104.240  94.142  1.00  0.00    -0.028 C 
ATOM     13  C   UNL     1     104.284 104.685  93.224  1.00  0.00    -0.080 C 
ATOM     14  C   UNL     1     105.514 105.432  93.671  1.00  0.00     0.039 C 
ATOM     15  C   UNL     1     104.090 104.468  91.745  1.00  0.00     0.039 C 
ENDBRANCH  11  12
ENDBRANCH   1  11
TORSDOF 4
ENDMDL
MODEL 4
REMARK VINA RESULT:    -3.369      1.580      3.979
REMARK INTER + INTRA:          -5.578
REMARK INTER:                  -4.028
REMARK INTRA:                  -1.550
REMARK UNBOUND:                -1.420
REMARK SMILES CC(C)=CCC[C@@H](C)c1ccc(C)cc1
REMARK SMILES IDX 6 1 7 2 8 3 9 4 13 5 12 6 11 7 14 8 10 9 15 10 5 11 4 12
REMARK SMILES IDX 2 13 1 14 3 15
REMARK H PARENT
REMARK Flexibility Score: inf
ROOT
ATOM      1  C   UNL     1     100.799 103.185  94.211  1.00  0.00     0.012 C 
ENDROOT
BRANCH   1   2
ATOM      2  C   UNL     1     102.079 104.034  94.009  1.00  0.00     0.016 C 
ATOM      3  C   UNL     1     102.909 103.548  92.810  1.00  0.00     0.013 C 
BRANCH   2   4
ATOM      4  C   UNL     1     101.726 105.500  93.838  1.00  0.00    -0.045 A 
ATOM      5  C   UNL     1     100.681 109.663  93.356  1.00  0.00     0.044 C 
ATOM      6  C   UNL     1     101.066 108.225  93.544  1.00  0.00    -0.051 A 
ATOM      7  C   UNL     1     102.059 107.648  92.739  1.00  0.00     0.004 A 
ATOM      8  C   UNL     1     100.388 107.429  94.478  1.00  0.00     0.004 A 
ATOM      9  C   UNL     1     102.391 106.299  92.889  1.00  0.00     0.004 A 
ATOM     10  C   UNL     1     100.719 106.080  94.628  1.00  0.00     0.004 A 
ENDBRANCH   2   4
ENDBRANCH   1   2
BRANCH   1  11
ATOM     11  C   UNL     1     100.076 102.841  92.899  1.00  0.00     0.028 C 
BRANCH  11  12
ATOM     12  C   UNL     1      98.702 103.471  92.848  1.00  0.00    -0.028 C 
ATOM     13  C   UNL     1      98.361 104.522  92.069  1.00  0.00    -0.080 C 
ATOM     14  C   UNL     1      96.948 105.045  92.093  1.00  0.00     0.039 C 
ATOM     15  C   UNL     1      99.349 105.202  91.156  1.00  0.00     0.039 C 
ENDBRANCH  11  12
ENDBRANCH   1  11
TORSDOF 4
ENDMDL
MODEL 5
REMARK VINA RESULT:    -3.354      2.224      5.069
REMARK INTER + INTRA:          -5.559
REMARK INTER:                  -4.075
REMARK INTRA:                  -1.484
REMARK UNBOUND:                -1.420
REMARK SMILES CC(C)=CCC[C@@H](C)c1ccc(C)cc1
REMARK SMILES IDX 6 1 7 2 8 3 9 4 13 5 12 6 11 7 14 8 10 9 15 10 5 11 4 12
REMARK SMILES IDX 2 13 1 14 3 15
REMARK H PARENT
REMARK Flexibility Score: inf
ROOT
ATOM      1  C   UNL     1     101.775 103.701  94.016  1.00  0.00     0.012 C 
ENDROOT
BRANCH   1   2
ATOM      2  C   UNL     1     100.228 103.767  93.969  1.00  0.00     0.016 C 
ATOM      3  C   UNL     1      99.725 104.719  92.873  1.00  0.00     0.013 C 
BRANCH   2   4
ATOM      4  C   UNL     1      99.640 102.382  93.766  1.00  0.00    -0.045 A 
ATOM      5  C   UNL     1      98.005  98.425  93.198  1.00  0.00     0.044 C 
ATOM      6  C   UNL     1      98.548  99.807  93.412  1.00  0.00    -0.051 A 
ATOM      7  C   UNL     1      98.231 100.838  92.517  1.00  0.00     0.004 A 
ATOM      8  C   UNL     1      99.432 100.062  94.470  1.00  0.00     0.004 A 
ATOM      9  C   UNL     1      98.766 102.116  92.695  1.00  0.00     0.004 A 
ATOM     10  C   UNL     1      99.969 101.340  94.649  1.00  0.00     0.004 A 
ENDBRANCH   2   4
ENDBRANCH   1   2
BRANCH   1  11
ATOM     11  C   UNL     1     102.410 103.216  92.702  1.00  0.00     0.028 C 
BRANCH  11  12
ATOM     12  C   UNL     1     103.375 102.078  92.946  1.00  0.00    -0.028 C 
ATOM     13  C   UNL     1     103.206 100.812  92.502  1.00  0.00    -0.080 C 
ATOM     14  C   UNL     1     104.255  99.770  92.794  1.00  0.00     0.039 C 
ATOM     15  C   UNL     1     101.997 100.391  91.707  1.00  0.00     0.039 C 
ENDBRANCH  11  12
ENDBRANCH   1  11
TORSDOF 4
ENDMDL
MODEL 6
REMARK VINA RESULT:    -3.306      2.789      4.657
REMARK INTER + INTRA:          -5.500
REMARK INTER:                  -4.877
REMARK INTRA:                  -0.623
REMARK UNBOUND:                -1.420
REMARK SMILES CC(C)=CCC[C@@H](C)c1ccc(C)cc1
REMARK SMILES IDX 6 1 7 2 8 3 9 4 13 5 12 6 11 7 14 8 10 9 15 10 5 11 4 12
REMARK SMILES IDX 2 13 1 14 3 15
REMARK H PARENT
REMARK Flexibility Score: inf
ROOT
ATOM      1  C   UNL     1      99.981  99.574  94.436  1.00  0.00     0.012 C 
ENDROOT
BRANCH   1   2
ATOM      2  C   UNL     1      98.954 100.215  93.469  1.00  0.00     0.016 C 
ATOM      3  C   UNL     1      97.506  99.905  93.880  1.00  0.00     0.013 C 
BRANCH   2   4
ATOM      4  C   UNL     1      99.162 101.716  93.386  1.00  0.00    -0.045 A 
ATOM      5  C   UNL     1      99.762 105.989  93.193  1.00  0.00     0.044 C 
ATOM      6  C   UNL     1      99.572 104.501  93.235  1.00  0.00    -0.051 A 
ATOM      7  C   UNL     1      98.521 103.902  92.526  1.00  0.00     0.004 A 
ATOM      8  C   UNL     1     100.401 103.706  94.039  1.00  0.00     0.004 A 
ATOM      9  C   UNL     1      98.322 102.521  92.595  1.00  0.00     0.004 A 
ATOM     10  C   UNL     1     100.202 102.324  94.110  1.00  0.00     0.004 A 
ENDBRANCH   2   4
ENDBRANCH   1   2
BRANCH   1  11
ATOM     11  C   UNL     1     100.942  98.591  93.748  1.00  0.00     0.028 C 
BRANCH  11  12
ATOM     12  C   UNL     1     102.347  99.147  93.690  1.00  0.00    -0.028 C 
ATOM     13  C   UNL     1     103.472  98.400  93.627  1.00  0.00    -0.080 C 
ATOM     14  C   UNL     1     104.817  99.077  93.552  1.00  0.00     0.039 C 
ATOM     15  C   UNL     1     103.440  96.893  93.624  1.00  0.00     0.039 C 
ENDBRANCH  11  12
ENDBRANCH   1  11
TORSDOF 4
ENDMDL
MODEL 7
REMARK VINA RESULT:    -3.301      3.554      6.334
REMARK INTER + INTRA:          -5.493
REMARK INTER:                  -3.935
REMARK INTRA:                  -1.558
REMARK UNBOUND:                -1.420
REMARK SMILES CC(C)=CCC[C@@H](C)c1ccc(C)cc1
REMARK SMILES IDX 6 1 7 2 8 3 9 4 13 5 12 6 11 7 14 8 10 9 15 10 5 11 4 12
REMARK SMILES IDX 2 13 1 14 3 15
REMARK H PARENT
REMARK Flexibility Score: inf
ROOT
ATOM      1  C   UNL     1     102.711 111.841  94.451  1.00  0.00     0.012 C 
ENDROOT
BRANCH   1   2
ATOM      2  C   UNL     1     101.383 111.999  93.669  1.00  0.00     0.016 C 
ATOM      3  C   UNL     1     101.569 112.808  92.376  1.00  0.00     0.013 C 
BRANCH   2   4
ATOM      4  C   UNL     1     100.785 110.640  93.352  1.00  0.00    -0.045 A 
ATOM      5  C   UNL     1      99.047 106.793  92.436  1.00  0.00     0.044 C 
ATOM      6  C   UNL     1      99.677 108.121  92.739  1.00  0.00    -0.051 A 
ATOM      7  C   UNL     1     100.423 108.298  93.913  1.00  0.00     0.004 A 
ATOM      8  C   UNL     1      99.466 109.214  91.886  1.00  0.00     0.004 A 
ATOM      9  C   UNL     1     100.978 109.544  94.214  1.00  0.00     0.004 A 
ATOM     10  C   UNL     1     100.020 110.461  92.186  1.00  0.00     0.004 A 
ENDBRANCH   2   4
ENDBRANCH   1   2
BRANCH   1  11
ATOM     11  C   UNL     1     103.946 111.710  93.545  1.00  0.00     0.028 C 
BRANCH  11  12
ATOM     12  C   UNL     1     104.425 110.278  93.473  1.00  0.00    -0.028 C 
ATOM     13  C   UNL     1     104.274 109.465  92.403  1.00  0.00    -0.080 C 
ATOM     14  C   UNL     1     104.817 108.059  92.448  1.00  0.00     0.039 C 
ATOM     15  C   UNL     1     103.580 109.912  91.142  1.00  0.00     0.039 C 
ENDBRANCH  11  12
ENDBRANCH   1  11
TORSDOF 4
ENDMDL
MODEL 8
REMARK VINA RESULT:    -3.293      5.432      8.242
REMARK INTER + INTRA:          -5.484
REMARK INTER:                  -3.938
REMARK INTRA:                  -1.546
REMARK UNBOUND:                -1.420
REMARK SMILES CC(C)=CCC[C@@H](C)c1ccc(C)cc1
REMARK SMILES IDX 6 1 7 2 8 3 9 4 13 5 12 6 11 7 14 8 10 9 15 10 5 11 4 12
REMARK SMILES IDX 2 13 1 14 3 15
REMARK H PARENT
REMARK Flexibility Score: inf
ROOT
ATOM      1  C   UNL     1     101.654 112.371  94.357  1.00  0.00     0.012 C 
ENDROOT
BRANCH   1   2
ATOM      2  C   UNL     1     102.089 110.884  94.356  1.00  0.00     0.016 C 
ATOM      3  C   UNL     1     101.012 109.970  93.752  1.00  0.00     0.013 C 
BRANCH   2   4
ATOM      4  C   UNL     1     103.398 110.711  93.608  1.00  0.00    -0.045 A 
ATOM      5  C   UNL     1     107.121 110.257  91.466  1.00  0.00     0.044 C 
ATOM      6  C   UNL     1     105.842 110.402  92.235  1.00  0.00    -0.051 A 
ATOM      7  C   UNL     1     104.894 109.369  92.231  1.00  0.00     0.004 A 
ATOM      8  C   UNL     1     105.553 111.599  92.906  1.00  0.00     0.004 A 
ATOM      9  C   UNL     1     103.686 109.518  92.917  1.00  0.00     0.004 A 
ATOM     10  C   UNL     1     104.344 111.750  93.592  1.00  0.00     0.004 A 
ENDBRANCH   2   4
ENDBRANCH   1   2
BRANCH   1  11
ATOM     11  C   UNL     1     100.746 112.747  93.175  1.00  0.00     0.028 C 
BRANCH  11  12
ATOM     12  C   UNL     1     101.482 113.602  92.168  1.00  0.00    -0.028 C 
ATOM     13  C   UNL     1     101.955 113.163  90.980  1.00  0.00    -0.080 C 
ATOM     14  C   UNL     1     102.654 114.123  90.052  1.00  0.00     0.039 C 
ATOM     15  C   UNL     1     101.807 111.731  90.533  1.00  0.00     0.039 C 
ENDBRANCH  11  12
ENDBRANCH   1  11
TORSDOF 4
ENDMDL
MODEL 9
REMARK VINA RESULT:    -3.288      1.805      5.560
REMARK INTER + INTRA:          -5.478
REMARK INTER:                  -4.340
REMARK INTRA:                  -1.138
REMARK UNBOUND:                -1.420
REMARK SMILES CC(C)=CCC[C@@H](C)c1ccc(C)cc1
REMARK SMILES IDX 6 1 7 2 8 3 9 4 13 5 12 6 11 7 14 8 10 9 15 10 5 11 4 12
REMARK SMILES IDX 2 13 1 14 3 15
REMARK H PARENT
REMARK Flexibility Score: inf
ROOT
ATOM      1  C   UNL     1     100.679 106.745  94.562  1.00  0.00     0.012 C 
ENDROOT
BRANCH   1   2
ATOM      2  C   UNL     1     100.963 105.956  93.259  1.00  0.00     0.016 C 
ATOM      3  C   UNL     1     102.466 105.705  93.055  1.00  0.00     0.013 C 
BRANCH   2   4
ATOM      4  C   UNL     1     100.210 104.639  93.257  1.00  0.00    -0.045 A 
ATOM      5  C   UNL     1      98.104 100.868  93.251  1.00  0.00     0.044 C 
ATOM      6  C   UNL     1      98.817 102.187  93.277  1.00  0.00    -0.051 A 
ATOM      7  C   UNL     1      98.359 103.254  92.490  1.00  0.00     0.004 A 
ATOM      8  C   UNL     1      99.987 102.343  94.034  1.00  0.00     0.004 A 
ATOM      9  C   UNL     1      99.045 104.471  92.485  1.00  0.00     0.004 A 
ATOM     10  C   UNL     1     100.675 103.560  94.029  1.00  0.00     0.004 A 
ENDBRANCH   2   4
ENDBRANCH   1   2
BRANCH   1  11
ATOM     11  C   UNL     1      99.968 108.087  94.325  1.00  0.00     0.028 C 
BRANCH  11  12
ATOM     12  C   UNL     1      98.503 107.884  94.009  1.00  0.00    -0.028 C 
ATOM     13  C   UNL     1      97.947 108.039  92.787  1.00  0.00    -0.080 C 
ATOM     14  C   UNL     1      96.473 107.786  92.598  1.00  0.00     0.039 C 
ATOM     15  C   UNL     1      98.751 108.458  91.583  1.00  0.00     0.039 C 
ENDBRANCH  11  12
ENDBRANCH   1  11
TORSDOF 4
ENDMDL
