MODEL 1
REMARK VINA RESULT:    -2.791      0.000      0.000
REMARK INTER + INTRA:          -3.670
REMARK INTER:                  -3.280
REMARK INTRA:                  -0.390
REMARK UNBOUND:                -0.390
REMARK SMILES [NH3+][C@H](CO)C(=O)[O-]
REMARK SMILES IDX 3 1 2 2 1 3 5 7 6 8 7 9 4 10
REMARK H PARENT 1 4 1 5 1 6 4 11
REMARK Flexibility Score: inf
ROOT
ATOM      1  C   UNL     1      45.656  17.022  76.808  1.00  0.00     0.227 C 
ENDROOT
BRANCH   1   2
ATOM      2  C   UNL     1      45.728  18.403  77.479  1.00  0.00     0.253 C 
BRANCH   2   3
ATOM      3  N   UNL     1      46.753  18.432  78.530  1.00  0.00    -0.348 N 
ATOM      4  H   UNL     1      46.301  18.316  79.467  1.00  0.00     0.345 HD
ATOM      5  H   UNL     1      47.280  19.337  78.516  1.00  0.00     0.345 HD
ATOM      6  H   UNL     1      47.425  17.644  78.391  1.00  0.00     0.345 HD
ENDBRANCH   2   3
BRANCH   2   7
ATOM      7  C   UNL     1      45.970  19.484  76.458  1.00  0.00     0.102 C 
ATOM      8  O   UNL     1      47.121  19.970  76.298  1.00  0.00    -0.544 OA
ATOM      9  O   UNL     1      44.925  19.923  75.654  1.00  0.00    -0.544 OA
ENDBRANCH   2   7
ENDBRANCH   1   2
BRANCH   1  10
ATOM     10  O   UNL     1      46.092  17.092  75.477  1.00  0.00    -0.390 OA
ATOM     11  H   UNL     1      46.661  16.292  75.331  1.00  0.00     0.210 HD
ENDBRANCH   1  10
TORSDOF 4
ENDMDL
MODEL 2
REMARK VINA RESULT:    -2.753      8.346      8.671
REMARK INTER + INTRA:          -3.626
REMARK INTER:                  -3.390
REMARK INTRA:                  -0.236
REMARK UNBOUND:                -0.390
REMARK SMILES [NH3+][C@H](CO)C(=O)[O-]
REMARK SMILES IDX 3 1 2 2 1 3 5 7 6 8 7 9 4 10
REMARK H PARENT 1 4 1 5 1 6 4 11
REMARK Flexibility Score: inf
ROOT
ATOM      1  C   UNL     1      37.575  17.512  80.130  1.00  0.00     0.227 C 
ENDROOT
BRANCH   1   2
ATOM      2  C   UNL     1      37.416  19.033  80.287  1.00  0.00     0.253 C 
BRANCH   2   3
ATOM      3  N   UNL     1      36.811  19.375  81.581  1.00  0.00    -0.348 N 
ATOM      4  H   UNL     1      37.434  19.053  82.358  1.00  0.00     0.345 HD
ATOM      5  H   UNL     1      35.873  18.923  81.687  1.00  0.00     0.345 HD
ATOM      6  H   UNL     1      36.702  20.411  81.658  1.00  0.00     0.345 HD
ENDBRANCH   2   3
BRANCH   2   7
ATOM      7  C   UNL     1      38.738  19.733  80.107  1.00  0.00     0.102 C 
ATOM      8  O   UNL     1      39.814  19.170  80.445  1.00  0.00    -0.544 OA
ATOM      9  O   UNL     1      38.781  20.993  79.525  1.00  0.00    -0.544 OA
ENDBRANCH   2   7
ENDBRANCH   1   2
BRANCH   1  10
ATOM     10  O   UNL     1      38.334  17.207  78.991  1.00  0.00    -0.390 OA
ATOM     11  H   UNL     1      39.192  16.835  79.324  1.00  0.00     0.210 HD
ENDBRANCH   1  10
TORSDOF 4
ENDMDL
MODEL 3
REMARK VINA RESULT:    -2.735     19.532     20.242
REMARK INTER + INTRA:          -3.604
REMARK INTER:                  -3.595
REMARK INTRA:                  -0.009
REMARK UNBOUND:                -0.390
REMARK SMILES [NH3+][C@H](CO)C(=O)[O-]
REMARK SMILES IDX 3 1 2 2 1 3 5 7 6 8 7 9 4 10
REMARK H PARENT 1 4 1 5 1 6 4 11
REMARK Flexibility Score: inf
ROOT
ATOM      1  C   UNL     1      43.727  32.108  93.042  1.00  0.00     0.227 C 
ENDROOT
BRANCH   1   2
ATOM      2  C   UNL     1      44.120  31.278  91.809  1.00  0.00     0.253 C 
BRANCH   2   3
ATOM      3  N   UNL     1      45.047  32.017  90.942  1.00  0.00    -0.348 N 
ATOM      4  H   UNL     1      45.800  31.375  90.602  1.00  0.00     0.345 HD
ATOM      5  H   UNL     1      45.488  32.815  91.458  1.00  0.00     0.345 HD
ATOM      6  H   UNL     1      44.535  32.390  90.112  1.00  0.00     0.345 HD
ENDBRANCH   2   3
BRANCH   2   7
ATOM      7  C   UNL     1      44.704  29.951  92.218  1.00  0.00     0.102 C 
ATOM      8  O   UNL     1      44.163  29.264  93.125  1.00  0.00    -0.544 OA
ATOM      9  O   UNL     1      45.826  29.457  91.565  1.00  0.00    -0.544 OA
ENDBRANCH   2   7
ENDBRANCH   1   2
BRANCH   1  10
ATOM     10  O   UNL     1      44.367  33.355  93.026  1.00  0.00    -0.390 OA
ATOM     11  H   UNL     1      44.210  33.734  92.122  1.00  0.00     0.210 HD
ENDBRANCH   1  10
TORSDOF 4
ENDMDL
MODEL 4
REMARK VINA RESULT:    -2.724      8.448      8.867
REMARK INTER + INTRA:          -3.591
REMARK INTER:                  -3.586
REMARK INTRA:                  -0.005
REMARK UNBOUND:                -0.390
REMARK SMILES [NH3+][C@H](CO)C(=O)[O-]
REMARK SMILES IDX 3 1 2 2 1 3 5 7 6 8 7 9 4 10
REMARK H PARENT 1 4 1 5 1 6 4 11
REMARK Flexibility Score: inf
ROOT
ATOM      1  C   UNL     1      37.527  17.897  79.964  1.00  0.00     0.227 C 
ENDROOT
BRANCH   1   2
ATOM      2  C   UNL     1      38.392  19.094  80.391  1.00  0.00     0.253 C 
BRANCH   2   3
ATOM      3  N   UNL     1      39.615  19.182  79.584  1.00  0.00    -0.348 N 
ATOM      4  H   UNL     1      40.450  19.000  80.187  1.00  0.00     0.345 HD
ATOM      5  H   UNL     1      39.710  20.130  79.148  1.00  0.00     0.345 HD
ATOM      6  H   UNL     1      39.593  18.461  78.828  1.00  0.00     0.345 HD
ENDBRANCH   2   3
BRANCH   2   7
ATOM      7  C   UNL     1      37.605  20.377  80.323  1.00  0.00     0.102 C 
ATOM      8  O   UNL     1      38.018  21.347  79.634  1.00  0.00    -0.544 OA
ATOM      9  O   UNL     1      36.391  20.481  80.990  1.00  0.00    -0.544 OA
ENDBRANCH   2   7
ENDBRANCH   1   2
BRANCH   1  10
ATOM     10  O   UNL     1      38.270  16.999  79.186  1.00  0.00    -0.390 OA
ATOM     11  H   UNL     1      38.843  17.555  78.596  1.00  0.00     0.210 HD
ENDBRANCH   1  10
TORSDOF 4
ENDMDL
MODEL 5
REMARK VINA RESULT:    -2.586      2.684      3.495
REMARK INTER + INTRA:          -3.430
REMARK INTER:                  -3.204
REMARK INTRA:                  -0.225
REMARK UNBOUND:                -0.390
REMARK SMILES [NH3+][C@H](CO)C(=O)[O-]
REMARK SMILES IDX 3 1 2 2 1 3 5 7 6 8 7 9 4 10
REMARK H PARENT 1 4 1 5 1 6 4 11
REMARK Flexibility Score: inf
ROOT
ATOM      1  C   UNL     1      46.748  20.458  73.840  1.00  0.00     0.227 C 
ENDROOT
BRANCH   1   2
ATOM      2  C   UNL     1      45.928  19.195  74.150  1.00  0.00     0.253 C 
BRANCH   2   3
ATOM      3  N   UNL     1      46.319  18.079  73.279  1.00  0.00    -0.348 N 
ATOM      4  H   UNL     1      46.599  17.257  73.863  1.00  0.00     0.345 HD
ATOM      5  H   UNL     1      47.121  18.348  72.662  1.00  0.00     0.345 HD
ATOM      6  H   UNL     1      45.510  17.796  72.682  1.00  0.00     0.345 HD
ENDBRANCH   2   3
BRANCH   2   7
ATOM      7  C   UNL     1      46.052  18.817  75.602  1.00  0.00     0.102 C 
ATOM      8  O   UNL     1      46.464  19.653  76.451  1.00  0.00    -0.544 OA
ATOM      9  O   UNL     1      45.671  17.549  76.023  1.00  0.00    -0.544 OA
ENDBRANCH   2   7
ENDBRANCH   1   2
BRANCH   1  10
ATOM     10  O   UNL     1      48.118  20.215  74.011  1.00  0.00    -0.390 OA
ATOM     11  H   UNL     1      48.255  20.084  74.985  1.00  0.00     0.210 HD
ENDBRANCH   1  10
TORSDOF 4
ENDMDL
MODEL 6
REMARK VINA RESULT:    -2.582      1.600      2.542
REMARK INTER + INTRA:          -3.425
REMARK INTER:                  -3.077
REMARK INTRA:                  -0.348
REMARK UNBOUND:                -0.390
REMARK SMILES [NH3+][C@H](CO)C(=O)[O-]
REMARK SMILES IDX 3 1 2 2 1 3 5 7 6 8 7 9 4 10
REMARK H PARENT 1 4 1 5 1 6 4 11
REMARK Flexibility Score: inf
ROOT
ATOM      1  C   UNL     1      45.181  19.919  78.459  1.00  0.00     0.227 C 
ENDROOT
BRANCH   1   2
ATOM      2  C   UNL     1      46.330  19.122  77.820  1.00  0.00     0.253 C 
BRANCH   2   3
ATOM      3  N   UNL     1      47.092  18.381  78.834  1.00  0.00    -0.348 N 
ATOM      4  H   UNL     1      48.112  18.589  78.729  1.00  0.00     0.345 HD
ATOM      5  H   UNL     1      46.943  17.349  78.736  1.00  0.00     0.345 HD
ATOM      6  H   UNL     1      46.793  18.680  79.790  1.00  0.00     0.345 HD
ENDBRANCH   2   3
BRANCH   2   7
ATOM      7  C   UNL     1      45.811  18.196  76.751  1.00  0.00     0.102 C 
ATOM      8  O   UNL     1      45.510  17.004  77.025  1.00  0.00    -0.544 OA
ATOM      9  O   UNL     1      45.621  18.669  75.459  1.00  0.00    -0.544 OA
ENDBRANCH   2   7
ENDBRANCH   1   2
BRANCH   1  10
ATOM     10  O   UNL     1      43.945  19.316  78.187  1.00  0.00    -0.390 OA
ATOM     11  H   UNL     1      43.623  18.947  79.050  1.00  0.00     0.210 HD
ENDBRANCH   1  10
TORSDOF 4
ENDMDL
MODEL 7
REMARK VINA RESULT:    -2.572     19.268     19.745
REMARK INTER + INTRA:          -3.413
REMARK INTER:                  -3.384
REMARK INTRA:                  -0.029
REMARK UNBOUND:                -0.390
REMARK SMILES [NH3+][C@H](CO)C(=O)[O-]
REMARK SMILES IDX 3 1 2 2 1 3 5 7 6 8 7 9 4 10
REMARK H PARENT 1 4 1 5 1 6 4 11
REMARK Flexibility Score: inf
ROOT
ATOM      1  C   UNL     1      43.626  30.518  92.728  1.00  0.00     0.227 C 
ENDROOT
BRANCH   1   2
ATOM      2  C   UNL     1      44.140  31.662  91.839  1.00  0.00     0.253 C 
BRANCH   2   3
ATOM      3  N   UNL     1      44.506  32.837  92.641  1.00  0.00    -0.348 N 
ATOM      4  H   UNL     1      43.940  33.662  92.336  1.00  0.00     0.345 HD
ATOM      5  H   UNL     1      45.523  33.062  92.532  1.00  0.00     0.345 HD
ATOM      6  H   UNL     1      44.303  32.654  93.649  1.00  0.00     0.345 HD
ENDBRANCH   2   3
BRANCH   2   7
ATOM      7  C   UNL     1      45.297  31.204  90.990  1.00  0.00     0.102 C 
ATOM      8  O   UNL     1      45.852  30.094  91.206  1.00  0.00    -0.544 OA
ATOM      9  O   UNL     1      45.733  31.991  89.931  1.00  0.00    -0.544 OA
ENDBRANCH   2   7
ENDBRANCH   1   2
BRANCH   1  10
ATOM     10  O   UNL     1      42.343  30.117  92.330  1.00  0.00    -0.390 OA
ATOM     11  H   UNL     1      42.305  30.251  91.348  1.00  0.00     0.210 HD
ENDBRANCH   1  10
TORSDOF 4
ENDMDL
MODEL 8
REMARK VINA RESULT:    -2.542      2.038      3.009
REMARK INTER + INTRA:          -3.378
REMARK INTER:                  -3.027
REMARK INTRA:                  -0.351
REMARK UNBOUND:                -0.390
REMARK SMILES [NH3+][C@H](CO)C(=O)[O-]
REMARK SMILES IDX 3 1 2 2 1 3 5 7 6 8 7 9 4 10
REMARK H PARENT 1 4 1 5 1 6 4 11
REMARK Flexibility Score: inf
ROOT
ATOM      1  C   UNL     1      46.927  20.076  76.011  1.00  0.00     0.227 C 
ENDROOT
BRANCH   1   2
ATOM      2  C   UNL     1      45.785  19.096  75.698  1.00  0.00     0.253 C 
BRANCH   2   3
ATOM      3  N   UNL     1      46.121  18.232  74.559  1.00  0.00    -0.348 N 
ATOM      4  H   UNL     1      46.381  18.821  73.734  1.00  0.00     0.345 HD
ATOM      5  H   UNL     1      45.311  17.621  74.300  1.00  0.00     0.345 HD
ATOM      6  H   UNL     1      46.939  17.629  74.802  1.00  0.00     0.345 HD
ENDBRANCH   2   3
BRANCH   2   7
ATOM      7  C   UNL     1      45.432  18.277  76.912  1.00  0.00     0.102 C 
ATOM      8  O   UNL     1      45.738  17.057  76.974  1.00  0.00    -0.544 OA
ATOM      9  O   UNL     1      44.801  18.880  77.994  1.00  0.00    -0.544 OA
ENDBRANCH   2   7
ENDBRANCH   1   2
BRANCH   1  10
ATOM     10  O   UNL     1      47.478  19.811  77.273  1.00  0.00    -0.390 OA
ATOM     11  H   UNL     1      47.871  18.902  77.216  1.00  0.00     0.210 HD
ENDBRANCH   1  10
TORSDOF 4
ENDMDL
MODEL 9
REMARK VINA RESULT:    -2.455      2.402      2.963
REMARK INTER + INTRA:          -3.276
REMARK INTER:                  -2.918
REMARK INTRA:                  -0.358
REMARK UNBOUND:                -0.390
REMARK SMILES [NH3+][C@H](CO)C(=O)[O-]
REMARK SMILES IDX 3 1 2 2 1 3 5 7 6 8 7 9 4 10
REMARK H PARENT 1 4 1 5 1 6 4 11
REMARK Flexibility Score: inf
ROOT
ATOM      1  C   UNL     1      47.807  19.528  78.910  1.00  0.00     0.227 C 
ENDROOT
BRANCH   1   2
ATOM      2  C   UNL     1      46.889  20.038  77.788  1.00  0.00     0.253 C 
BRANCH   2   3
ATOM      3  N   UNL     1      47.635  20.242  76.540  1.00  0.00    -0.348 N 
ATOM      4  H   UNL     1      48.655  20.072  76.707  1.00  0.00     0.345 HD
ATOM      5  H   UNL     1      47.507  21.218  76.182  1.00  0.00     0.345 HD
ATOM      6  H   UNL     1      47.305  19.566  75.815  1.00  0.00     0.345 HD
ENDBRANCH   2   3
BRANCH   2   7
ATOM      7  C   UNL     1      45.728  19.101  77.577  1.00  0.00     0.102 C 
ATOM      8  O   UNL     1      44.657  19.250  78.222  1.00  0.00    -0.544 OA
ATOM      9  O   UNL     1      45.821  18.087  76.632  1.00  0.00    -0.544 OA
ENDBRANCH   2   7
ENDBRANCH   1   2
BRANCH   1  10
ATOM     10  O   UNL     1      47.539  18.182  79.199  1.00  0.00    -0.390 OA
ATOM     11  H   UNL     1      46.810  18.185  79.872  1.00  0.00     0.210 HD
ENDBRANCH   1  10
TORSDOF 4
ENDMDL
