MODEL 1
REMARK VINA RESULT:    -2.433      0.000      0.000
REMARK INTER + INTRA:          -6.409
REMARK INTER:                  -5.775
REMARK INTRA:                  -0.634
REMARK UNBOUND:                -0.634
REMARK SMILES O=C(OC[C@@H]1O[C@@H](OC(=O)c2cc(O)c(O)c(O)c2)[C@@H](OC(=O)c2cc(O)c(O)c(O)c2)[C@H](OC(=O)c2cc(O)c(O)c(O)c2)[C@@H]1OC(=O)c1cc(O)c(O)c(O)c1)c1cc(O)c(O)c(O)c1
REMARK SMILES IDX 5 1 46 2 33 3 20 4 7 5 6 6 4 7 3 8 2 9 1 10 59 11 60 12
REMARK SMILES IDX 61 13 67 14 63 15 65 16 62 17 64 19 66 21 47 23 48 24 49 25
REMARK SMILES IDX 50 26 58 27 51 28 56 29 52 30 54 31 57 32 53 34 55 36 34 38
REMARK SMILES IDX 35 39 36 40 37 41 45 42 38 43 43 44 39 45 41 46 44 47 40 49
REMARK SMILES IDX 42 51 8 53 9 54 10 55 11 56 19 57 12 58 17 59 13 60 15 61
REMARK SMILES IDX 18 62 14 64 16 66 21 68 22 69 23 70 24 71 32 72 25 73 30 74
REMARK SMILES IDX 26 75 28 76 31 77 27 79 29 81
REMARK H PARENT 62 18 64 20 66 22 57 33 53 35 55 37 44 48 40 50 42 52 18 63
REMARK H PARENT 14 65 16 67 31 78 27 80 29 82
REMARK Flexibility Score: inf
ROOT
ATOM      1  C   UNL     1     -21.721  15.169 -31.783  1.00  0.00     0.205 C 
ATOM      2  C   UNL     1     -22.671  14.070 -31.261  1.00  0.00     0.254 C 
ATOM      3  C   UNL     1     -24.131  14.521 -31.472  1.00  0.00     0.267 C 
ATOM      4  C   UNL     1     -24.345  15.919 -30.862  1.00  0.00     0.290 C 
ATOM      5  C   UNL     1     -23.262  16.889 -31.367  1.00  0.00     0.357 C 
ATOM      6  O   UNL     1     -21.959  16.394 -31.105  1.00  0.00    -0.329 OA
ENDROOT
BRANCH   1   7
ATOM      7  C   UNL     1     -20.249  14.765 -31.593  1.00  0.00     0.269 C 
BRANCH   7   8
ATOM      8  O   UNL     1     -19.598  14.625 -32.855  1.00  0.00    -0.459 OA
BRANCH   8   9
ATOM      9  C   UNL     1     -18.248  14.917 -33.079  1.00  0.00     0.338 C 
ATOM     10  O   UNL     1     -17.920  15.826 -33.888  1.00  0.00    -0.246 OA
BRANCH   9  11
ATOM     11  C   UNL     1     -17.207  14.175 -32.334  1.00  0.00     0.067 A 
ATOM     12  C   UNL     1     -15.959  14.763 -32.091  1.00  0.00     0.066 A 
ATOM     13  C   UNL     1     -14.962  14.068 -31.404  1.00  0.00     0.162 A 
ATOM     14  C   UNL     1     -17.450  12.874 -31.867  1.00  0.00     0.066 A 
ATOM     15  C   UNL     1     -15.201  12.760 -30.946  1.00  0.00     0.200 A 
ATOM     16  C   UNL     1     -16.465  12.161 -31.174  1.00  0.00     0.162 A 
BRANCH  13  17
ATOM     17  O   UNL     1     -13.727  14.687 -31.200  1.00  0.00    -0.504 OA
ATOM     18  H   UNL     1     -12.969  14.235 -30.704  1.00  0.00     0.293 HD
ENDBRANCH  13  17
BRANCH  15  19
ATOM     19  O   UNL     1     -14.170  12.090 -30.280  1.00  0.00    -0.502 OA
ATOM     20  H   UNL     1     -13.479  12.545 -29.705  1.00  0.00     0.293 HD
ENDBRANCH  15  19
BRANCH  16  21
ATOM     21  O   UNL     1     -16.786  10.876 -30.729  1.00  0.00    -0.504 OA
ATOM     22  H   UNL     1     -16.475  10.027 -31.172  1.00  0.00     0.293 HD
ENDBRANCH  16  21
ENDBRANCH   9  11
ENDBRANCH   8   9
ENDBRANCH   7   8
ENDBRANCH   1   7
BRANCH   2  23
ATOM     23  O   UNL     1     -22.428  13.851 -29.871  1.00  0.00    -0.452 OA
BRANCH  23  24
ATOM     24  C   UNL     1     -21.714  12.756 -29.364  1.00  0.00     0.338 C 
ATOM     25  O   UNL     1     -22.272  11.630 -29.249  1.00  0.00    -0.246 OA
BRANCH  24  26
ATOM     26  C   UNL     1     -20.302  12.929 -28.966  1.00  0.00     0.067 A 
ATOM     27  C   UNL     1     -19.690  14.193 -29.026  1.00  0.00     0.066 A 
ATOM     28  C   UNL     1     -19.559  11.829 -28.515  1.00  0.00     0.066 A 
ATOM     29  C   UNL     1     -18.356  14.357 -28.641  1.00  0.00     0.162 A 
ATOM     30  C   UNL     1     -18.223  11.981 -28.134  1.00  0.00     0.162 A 
ATOM     31  C   UNL     1     -17.615  13.248 -28.197  1.00  0.00     0.200 A 
BRANCH  29  32
ATOM     32  O   UNL     1     -17.790  15.631 -28.686  1.00  0.00    -0.504 OA
ATOM     33  H   UNL     1     -17.098  15.884 -29.381  1.00  0.00     0.293 HD
ENDBRANCH  29  32
BRANCH  30  34
ATOM     34  O   UNL     1     -17.489  10.876 -27.697  1.00  0.00    -0.504 OA
ATOM     35  H   UNL     1     -17.836  10.275 -26.956  1.00  0.00     0.293 HD
ENDBRANCH  30  34
BRANCH  31  36
ATOM     36  O   UNL     1     -16.283  13.418 -27.815  1.00  0.00    -0.502 OA
ATOM     37  H   UNL     1     -15.890  12.956 -27.000  1.00  0.00     0.293 HD
ENDBRANCH  31  36
ENDBRANCH  24  26
ENDBRANCH  23  24
ENDBRANCH   2  23
BRANCH   3  38
ATOM     38  O   UNL     1     -25.038  13.604 -30.861  1.00  0.00    -0.450 OA
BRANCH  38  39
ATOM     39  C   UNL     1     -26.228  13.159 -31.446  1.00  0.00     0.338 C 
ATOM     40  O   UNL     1     -26.364  13.182 -32.700  1.00  0.00    -0.246 OA
BRANCH  39  41
ATOM     41  C   UNL     1     -27.329  12.669 -30.583  1.00  0.00     0.067 A 
ATOM     42  C   UNL     1     -28.608  12.415 -31.108  1.00  0.00     0.066 A 
ATOM     43  C   UNL     1     -27.103  12.460 -29.214  1.00  0.00     0.066 A 
ATOM     44  C   UNL     1     -29.653  11.992 -30.275  1.00  0.00     0.162 A 
ATOM     45  C   UNL     1     -28.138  12.040 -28.375  1.00  0.00     0.162 A 
ATOM     46  C   UNL     1     -29.420  11.810 -28.901  1.00  0.00     0.200 A 
BRANCH  44  47
ATOM     47  O   UNL     1     -30.924  11.753 -30.805  1.00  0.00    -0.504 OA
ATOM     48  H   UNL     1     -31.055  11.443 -31.762  1.00  0.00     0.293 HD
ENDBRANCH  44  47
BRANCH  45  49
ATOM     49  O   UNL     1     -27.877  11.851 -27.017  1.00  0.00    -0.504 OA
ATOM     50  H   UNL     1     -27.271  11.112 -26.686  1.00  0.00     0.293 HD
ENDBRANCH  45  49
BRANCH  46  51
ATOM     51  O   UNL     1     -30.447  11.398 -28.052  1.00  0.00    -0.502 OA
ATOM     52  H   UNL     1     -30.650  11.865 -27.175  1.00  0.00     0.293 HD
ENDBRANCH  46  51
ENDBRANCH  39  41
ENDBRANCH  38  39
ENDBRANCH   3  38
BRANCH   5  53
ATOM     53  O   UNL     1     -23.429  17.156 -32.762  1.00  0.00    -0.428 OA
BRANCH  53  54
ATOM     54  C   UNL     1     -23.617  18.443 -33.283  1.00  0.00     0.340 C 
ATOM     55  O   UNL     1     -23.851  18.600 -34.513  1.00  0.00    -0.246 OA
BRANCH  54  56
ATOM     56  C   UNL     1     -23.510  19.615 -32.386  1.00  0.00     0.067 A 
ATOM     57  C   UNL     1     -23.979  20.870 -32.807  1.00  0.00     0.066 A 
ATOM     58  C   UNL     1     -22.951  19.485 -31.104  1.00  0.00     0.066 A 
ATOM     59  C   UNL     1     -23.884  21.985 -31.963  1.00  0.00     0.162 A 
ATOM     60  C   UNL     1     -22.860  20.594 -30.253  1.00  0.00     0.162 A 
ATOM     61  C   UNL     1     -23.320  21.849 -30.683  1.00  0.00     0.200 A 
BRANCH  59  62
ATOM     62  O   UNL     1     -24.347  23.227 -32.389  1.00  0.00    -0.504 OA
ATOM     63  H   UNL     1     -25.313  23.507 -32.263  1.00  0.00     0.293 HD
ENDBRANCH  59  62
BRANCH  60  64
ATOM     64  O   UNL     1     -22.298  20.441 -28.986  1.00  0.00    -0.504 OA
ATOM     65  H   UNL     1     -21.333  20.687 -28.794  1.00  0.00     0.293 HD
ENDBRANCH  60  64
BRANCH  61  66
ATOM     66  O   UNL     1     -23.211  22.949 -29.827  1.00  0.00    -0.502 OA
ATOM     67  H   UNL     1     -23.024  22.839 -28.831  1.00  0.00     0.293 HD
ENDBRANCH  61  66
ENDBRANCH  54  56
ENDBRANCH  53  54
ENDBRANCH   5  53
BRANCH   4  68
ATOM     68  O   UNL     1     -25.637  16.422 -31.218  1.00  0.00    -0.448 OA
BRANCH  68  69
ATOM     69  C   UNL     1     -26.087  17.707 -30.881  1.00  0.00     0.339 C 
ATOM     70  O   UNL     1     -25.667  18.269 -29.834  1.00  0.00    -0.246 OA
BRANCH  69  71
ATOM     71  C   UNL     1     -27.025  18.420 -31.774  1.00  0.00     0.067 A 
ATOM     72  C   UNL     1     -26.558  19.406 -32.662  1.00  0.00     0.066 A 
ATOM     73  C   UNL     1     -28.396  18.119 -31.749  1.00  0.00     0.066 A 
ATOM     74  C   UNL     1     -27.442  20.056 -33.534  1.00  0.00     0.162 A 
ATOM     75  C   UNL     1     -29.294  18.772 -32.605  1.00  0.00     0.162 A 
ATOM     76  C   UNL     1     -28.808  19.738 -33.521  1.00  0.00     0.200 A 
BRANCH  74  77
ATOM     77  O   UNL     1     -26.970  21.013 -34.432  1.00  0.00    -0.504 OA
ATOM     78  H   UNL     1     -27.086  22.000 -34.259  1.00  0.00     0.293 HD
ENDBRANCH  74  77
BRANCH  75  79
ATOM     79  O   UNL     1     -30.647  18.438 -32.499  1.00  0.00    -0.504 OA
ATOM     80  H   UNL     1     -31.153  18.397 -31.629  1.00  0.00     0.293 HD
ENDBRANCH  75  79
BRANCH  76  81
ATOM     81  O   UNL     1     -29.644  20.386 -34.433  1.00  0.00    -0.502 OA
ATOM     82  H   UNL     1     -29.909  21.353 -34.352  1.00  0.00     0.293 HD
ENDBRANCH  76  81
ENDBRANCH  69  71
ENDBRANCH  68  69
ENDBRANCH   4  68
TORSDOF 31
ENDMDL
MODEL 2
REMARK VINA RESULT:    -2.153      0.215      2.060
REMARK INTER + INTRA:          -5.744
REMARK INTER:                  -4.742
REMARK INTRA:                  -1.002
REMARK UNBOUND:                -0.634
REMARK SMILES O=C(OC[C@@H]1O[C@@H](OC(=O)c2cc(O)c(O)c(O)c2)[C@@H](OC(=O)c2cc(O)c(O)c(O)c2)[C@H](OC(=O)c2cc(O)c(O)c(O)c2)[C@@H]1OC(=O)c1cc(O)c(O)c(O)c1)c1cc(O)c(O)c(O)c1
REMARK SMILES IDX 5 1 46 2 33 3 20 4 7 5 6 6 4 7 3 8 2 9 1 10 59 11 60 12
REMARK SMILES IDX 61 13 67 14 63 15 65 16 62 17 64 19 66 21 47 23 48 24 49 25
REMARK SMILES IDX 50 26 58 27 51 28 56 29 52 30 54 31 57 32 53 34 55 36 34 38
REMARK SMILES IDX 35 39 36 40 37 41 45 42 38 43 43 44 39 45 41 46 44 47 40 49
REMARK SMILES IDX 42 51 8 53 9 54 10 55 11 56 19 57 12 58 17 59 13 60 15 61
REMARK SMILES IDX 18 62 14 64 16 66 21 68 22 69 23 70 24 71 32 72 25 73 30 74
REMARK SMILES IDX 26 75 28 76 31 77 27 79 29 81
REMARK H PARENT 62 18 64 20 66 22 57 33 53 35 55 37 44 48 40 50 42 52 18 63
REMARK H PARENT 14 65 16 67 31 78 27 80 29 82
REMARK Flexibility Score: inf
ROOT
ATOM      1  C   UNL     1     -21.712  15.165 -31.797  1.00  0.00     0.205 C 
ATOM      2  C   UNL     1     -22.639  14.047 -31.271  1.00  0.00     0.254 C 
ATOM      3  C   UNL     1     -24.108  14.473 -31.471  1.00  0.00     0.267 C 
ATOM      4  C   UNL     1     -24.344  15.864 -30.857  1.00  0.00     0.290 C 
ATOM      5  C   UNL     1     -23.282  16.856 -31.367  1.00  0.00     0.357 C 
ATOM      6  O   UNL     1     -21.968  16.384 -31.114  1.00  0.00    -0.329 OA
ENDROOT
BRANCH   1   7
ATOM      7  C   UNL     1     -20.233  14.787 -31.617  1.00  0.00     0.269 C 
BRANCH   7   8
ATOM      8  O   UNL     1     -19.599  14.618 -32.884  1.00  0.00    -0.459 OA
BRANCH   8   9
ATOM      9  C   UNL     1     -18.252  14.904 -33.133  1.00  0.00     0.338 C 
ATOM     10  O   UNL     1     -17.934  15.757 -34.006  1.00  0.00    -0.246 OA
BRANCH   9  11
ATOM     11  C   UNL     1     -17.202  14.225 -32.342  1.00  0.00     0.067 A 
ATOM     12  C   UNL     1     -17.341  12.873 -32.000  1.00  0.00     0.066 A 
ATOM     13  C   UNL     1     -16.366  12.224 -31.240  1.00  0.00     0.162 A 
ATOM     14  C   UNL     1     -16.061  14.921 -31.918  1.00  0.00     0.066 A 
ATOM     15  C   UNL     1     -15.227  12.925 -30.805  1.00  0.00     0.200 A 
ATOM     16  C   UNL     1     -15.072  14.289 -31.157  1.00  0.00     0.162 A 
BRANCH  13  17
ATOM     17  O   UNL     1     -16.555  10.880 -30.908  1.00  0.00    -0.504 OA
ATOM     18  H   UNL     1     -16.337  10.127 -31.551  1.00  0.00     0.293 HD
ENDBRANCH  13  17
BRANCH  15  19
ATOM     19  O   UNL     1     -14.285  12.245 -30.028  1.00  0.00    -0.502 OA
ATOM     20  H   UNL     1     -14.260  11.243 -29.917  1.00  0.00     0.293 HD
ENDBRANCH  15  19
BRANCH  16  21
ATOM     21  O   UNL     1     -13.957  15.044 -30.783  1.00  0.00    -0.504 OA
ATOM     22  H   UNL     1     -13.541  15.764 -31.351  1.00  0.00     0.293 HD
ENDBRANCH  16  21
ENDBRANCH   9  11
ENDBRANCH   8   9
ENDBRANCH   7   8
ENDBRANCH   1   7
BRANCH   2  23
ATOM     23  O   UNL     1     -22.383  13.830 -29.884  1.00  0.00    -0.452 OA
BRANCH  23  24
ATOM     24  C   UNL     1     -21.663  12.737 -29.382  1.00  0.00     0.338 C 
ATOM     25  O   UNL     1     -22.211  11.605 -29.280  1.00  0.00    -0.246 OA
BRANCH  24  26
ATOM     26  C   UNL     1     -20.254  12.918 -28.975  1.00  0.00     0.067 A 
ATOM     27  C   UNL     1     -19.656  14.190 -29.008  1.00  0.00     0.066 A 
ATOM     28  C   UNL     1     -19.500  11.819 -28.540  1.00  0.00     0.066 A 
ATOM     29  C   UNL     1     -18.326  14.362 -28.614  1.00  0.00     0.162 A 
ATOM     30  C   UNL     1     -18.168  11.979 -28.150  1.00  0.00     0.162 A 
ATOM     31  C   UNL     1     -17.574  13.253 -28.187  1.00  0.00     0.200 A 
BRANCH  29  32
ATOM     32  O   UNL     1     -17.774  15.643 -28.633  1.00  0.00    -0.504 OA
ATOM     33  H   UNL     1     -16.939  15.858 -29.164  1.00  0.00     0.293 HD
ENDBRANCH  29  32
BRANCH  30  34
ATOM     34  O   UNL     1     -17.424  10.875 -27.730  1.00  0.00    -0.504 OA
ATOM     35  H   UNL     1     -17.821  10.181 -27.105  1.00  0.00     0.293 HD
ENDBRANCH  30  34
BRANCH  31  36
ATOM     36  O   UNL     1     -16.246  13.432 -27.796  1.00  0.00    -0.502 OA
ATOM     37  H   UNL     1     -15.473  12.997 -28.291  1.00  0.00     0.293 HD
ENDBRANCH  31  36
ENDBRANCH  24  26
ENDBRANCH  23  24
ENDBRANCH   2  23
BRANCH   3  38
ATOM     38  O   UNL     1     -24.995  13.537 -30.857  1.00  0.00    -0.450 OA
BRANCH  38  39
ATOM     39  C   UNL     1     -26.246  13.178 -31.368  1.00  0.00     0.338 C 
ATOM     40  O   UNL     1     -26.447  13.187 -32.614  1.00  0.00    -0.246 OA
BRANCH  39  41
ATOM     41  C   UNL     1     -27.334  12.796 -30.438  1.00  0.00     0.067 A 
ATOM     42  C   UNL     1     -27.072  12.520 -29.085  1.00  0.00     0.066 A 
ATOM     43  C   UNL     1     -28.653  12.698 -30.907  1.00  0.00     0.066 A 
ATOM     44  C   UNL     1     -28.102  12.120 -28.222  1.00  0.00     0.162 A 
ATOM     45  C   UNL     1     -29.687  12.298 -30.056  1.00  0.00     0.162 A 
ATOM     46  C   UNL     1     -29.414  12.002 -28.711  1.00  0.00     0.200 A 
BRANCH  44  47
ATOM     47  O   UNL     1     -27.828  11.836 -26.881  1.00  0.00    -0.504 OA
ATOM     48  H   UNL     1     -28.364  11.152 -26.358  1.00  0.00     0.293 HD
ENDBRANCH  44  47
BRANCH  45  49
ATOM     49  O   UNL     1     -30.984  12.204 -30.562  1.00  0.00    -0.504 OA
ATOM     50  H   UNL     1     -31.503  11.337 -30.547  1.00  0.00     0.293 HD
ENDBRANCH  45  49
BRANCH  46  51
ATOM     51  O   UNL     1     -30.453  11.597 -27.873  1.00  0.00    -0.502 OA
ATOM     52  H   UNL     1     -30.679  12.081 -27.011  1.00  0.00     0.293 HD
ENDBRANCH  46  51
ENDBRANCH  39  41
ENDBRANCH  38  39
ENDBRANCH   3  38
BRANCH   5  53
ATOM     53  O   UNL     1     -23.463  17.123 -32.760  1.00  0.00    -0.428 OA
BRANCH  53  54
ATOM     54  C   UNL     1     -23.615  18.413 -33.284  1.00  0.00     0.340 C 
ATOM     55  O   UNL     1     -23.832  18.574 -34.516  1.00  0.00    -0.246 OA
BRANCH  54  56
ATOM     56  C   UNL     1     -23.489  19.583 -32.387  1.00  0.00     0.067 A 
ATOM     57  C   UNL     1     -22.923  19.434 -31.110  1.00  0.00     0.066 A 
ATOM     58  C   UNL     1     -23.921  20.853 -32.803  1.00  0.00     0.066 A 
ATOM     59  C   UNL     1     -22.798  20.538 -30.254  1.00  0.00     0.162 A 
ATOM     60  C   UNL     1     -23.791  21.961 -31.956  1.00  0.00     0.162 A 
ATOM     61  C   UNL     1     -23.236  21.805 -30.676  1.00  0.00     0.200 A 
BRANCH  59  62
ATOM     62  O   UNL     1     -22.240  20.383 -28.988  1.00  0.00    -0.504 OA
ATOM     63  H   UNL     1     -21.745  21.138 -28.528  1.00  0.00     0.293 HD
ENDBRANCH  59  62
BRANCH  60  64
ATOM     64  O   UNL     1     -24.231  23.211 -32.391  1.00  0.00    -0.504 OA
ATOM     65  H   UNL     1     -25.133  23.585 -32.121  1.00  0.00     0.293 HD
ENDBRANCH  60  64
BRANCH  61  66
ATOM     66  O   UNL     1     -23.124  22.917 -29.837  1.00  0.00    -0.502 OA
ATOM     67  H   UNL     1     -23.442  22.895 -28.869  1.00  0.00     0.293 HD
ENDBRANCH  61  66
ENDBRANCH  54  56
ENDBRANCH  53  54
ENDBRANCH   5  53
BRANCH   4  68
ATOM     68  O   UNL     1     -25.647  16.345 -31.203  1.00  0.00    -0.448 OA
BRANCH  68  69
ATOM     69  C   UNL     1     -26.134  17.604 -30.823  1.00  0.00     0.339 C 
ATOM     70  O   UNL     1     -25.799  18.103 -29.716  1.00  0.00    -0.246 OA
BRANCH  69  71
ATOM     71  C   UNL     1     -27.010  18.366 -31.739  1.00  0.00     0.067 A 
ATOM     72  C   UNL     1     -28.409  18.324 -31.591  1.00  0.00     0.066 A 
ATOM     73  C   UNL     1     -26.456  19.145 -32.766  1.00  0.00     0.066 A 
ATOM     74  C   UNL     1     -29.237  19.076 -32.435  1.00  0.00     0.162 A 
ATOM     75  C   UNL     1     -27.273  19.889 -33.628  1.00  0.00     0.162 A 
ATOM     76  C   UNL     1     -28.679  19.870 -33.448  1.00  0.00     0.200 A 
BRANCH  74  77
ATOM     77  O   UNL     1     -30.622  19.052 -32.268  1.00  0.00    -0.504 OA
ATOM     78  H   UNL     1     -31.041  18.809 -31.383  1.00  0.00     0.293 HD
ENDBRANCH  74  77
BRANCH  75  79
ATOM     79  O   UNL     1     -26.648  20.617 -34.645  1.00  0.00    -0.504 OA
ATOM     80  H   UNL     1     -27.136  21.208 -35.299  1.00  0.00     0.293 HD
ENDBRANCH  75  79
BRANCH  76  81
ATOM     81  O   UNL     1     -29.543  20.628 -34.242  1.00  0.00    -0.502 OA
ATOM     82  H   UNL     1     -30.484  20.350 -34.458  1.00  0.00     0.293 HD
ENDBRANCH  76  81
ENDBRANCH  69  71
ENDBRANCH  68  69
ENDBRANCH   4  68
TORSDOF 31
ENDMDL
MODEL 3
REMARK VINA RESULT:    -0.922      1.298      9.811
REMARK INTER + INTRA:          -2.823
REMARK INTER:                  -0.882
REMARK INTRA:                  -1.940
REMARK UNBOUND:                -0.634
REMARK SMILES O=C(OC[C@@H]1O[C@@H](OC(=O)c2cc(O)c(O)c(O)c2)[C@@H](OC(=O)c2cc(O)c(O)c(O)c2)[C@H](OC(=O)c2cc(O)c(O)c(O)c2)[C@@H]1OC(=O)c1cc(O)c(O)c(O)c1)c1cc(O)c(O)c(O)c1
REMARK SMILES IDX 5 1 46 2 33 3 20 4 7 5 6 6 4 7 3 8 2 9 1 10 59 11 60 12
REMARK SMILES IDX 61 13 67 14 63 15 65 16 62 17 64 19 66 21 47 23 48 24 49 25
REMARK SMILES IDX 50 26 58 27 51 28 56 29 52 30 54 31 57 32 53 34 55 36 34 38
REMARK SMILES IDX 35 39 36 40 37 41 45 42 38 43 43 44 39 45 41 46 44 47 40 49
REMARK SMILES IDX 42 51 8 53 9 54 10 55 11 56 19 57 12 58 17 59 13 60 15 61
REMARK SMILES IDX 18 62 14 64 16 66 21 68 22 69 23 70 24 71 32 72 25 73 30 74
REMARK SMILES IDX 26 75 28 76 31 77 27 79 29 81
REMARK H PARENT 62 18 64 20 66 22 57 33 53 35 55 37 44 48 40 50 42 52 18 63
REMARK H PARENT 14 65 16 67 31 78 27 80 29 82
REMARK Flexibility Score: inf
ROOT
ATOM      1  C   UNL     1     -24.377  15.148 -30.439  1.00  0.00     0.205 C 
ATOM      2  C   UNL     1     -23.556  14.198 -29.540  1.00  0.00     0.254 C 
ATOM      3  C   UNL     1     -22.056  14.506 -29.715  1.00  0.00     0.267 C 
ATOM      4  C   UNL     1     -21.683  14.485 -31.209  1.00  0.00     0.290 C 
ATOM      5  C   UNL     1     -22.649  15.375 -32.010  1.00  0.00     0.357 C 
ATOM      6  O   UNL     1     -24.000  14.994 -31.799  1.00  0.00    -0.329 OA
ENDROOT
BRANCH   1   7
ATOM      7  C   UNL     1     -25.885  14.877 -30.299  1.00  0.00     0.269 C 
BRANCH   7   8
ATOM      8  O   UNL     1     -26.640  15.852 -31.017  1.00  0.00    -0.459 OA
BRANCH   8   9
ATOM      9  C   UNL     1     -26.556  17.231 -30.794  1.00  0.00     0.338 C 
ATOM     10  O   UNL     1     -25.864  17.679 -29.840  1.00  0.00    -0.246 OA
BRANCH   9  11
ATOM     11  C   UNL     1     -27.257  18.162 -31.705  1.00  0.00     0.067 A 
ATOM     12  C   UNL     1     -28.645  18.074 -31.872  1.00  0.00     0.066 A 
ATOM     13  C   UNL     1     -29.317  18.936 -32.742  1.00  0.00     0.162 A 
ATOM     14  C   UNL     1     -26.545  19.139 -32.418  1.00  0.00     0.066 A 
ATOM     15  C   UNL     1     -28.602  19.908 -33.465  1.00  0.00     0.200 A 
ATOM     16  C   UNL     1     -27.199  20.013 -33.292  1.00  0.00     0.162 A 
BRANCH  13  17
ATOM     17  O   UNL     1     -30.699  18.800 -32.890  1.00  0.00    -0.504 OA
ATOM     18  H   UNL     1     -31.239  18.132 -32.353  1.00  0.00     0.293 HD
ENDBRANCH  13  17
BRANCH  15  19
ATOM     19  O   UNL     1     -29.308  20.737 -34.341  1.00  0.00    -0.502 OA
ATOM     20  H   UNL     1     -28.892  21.492 -34.864  1.00  0.00     0.293 HD
ENDBRANCH  15  19
BRANCH  16  21
ATOM     21  O   UNL     1     -26.425  20.968 -33.957  1.00  0.00    -0.504 OA
ATOM     22  H   UNL     1     -26.681  21.399 -34.830  1.00  0.00     0.293 HD
ENDBRANCH  16  21
ENDBRANCH   9  11
ENDBRANCH   8   9
ENDBRANCH   7   8
ENDBRANCH   1   7
BRANCH   2  23
ATOM     23  O   UNL     1     -23.819  12.845 -29.914  1.00  0.00    -0.452 OA
BRANCH  23  24
ATOM     24  C   UNL     1     -24.710  12.003 -29.233  1.00  0.00     0.338 C 
ATOM     25  O   UNL     1     -24.390  11.504 -28.119  1.00  0.00    -0.246 OA
BRANCH  24  26
ATOM     26  C   UNL     1     -26.029  11.706 -29.827  1.00  0.00     0.067 A 
ATOM     27  C   UNL     1     -27.176  11.619 -29.019  1.00  0.00     0.066 A 
ATOM     28  C   UNL     1     -26.151  11.516 -31.211  1.00  0.00     0.066 A 
ATOM     29  C   UNL     1     -28.426  11.348 -29.584  1.00  0.00     0.162 A 
ATOM     30  C   UNL     1     -27.395  11.237 -31.784  1.00  0.00     0.162 A 
ATOM     31  C   UNL     1     -28.539  11.150 -30.971  1.00  0.00     0.200 A 
BRANCH  29  32
ATOM     32  O   UNL     1     -29.547  11.298 -28.755  1.00  0.00    -0.504 OA
ATOM     33  H   UNL     1     -30.482  11.179 -29.126  1.00  0.00     0.293 HD
ENDBRANCH  29  32
BRANCH  30  34
ATOM     34  O   UNL     1     -27.502  11.038 -33.162  1.00  0.00    -0.504 OA
ATOM     35  H   UNL     1     -28.313  11.362 -33.678  1.00  0.00     0.293 HD
ENDBRANCH  30  34
BRANCH  31  36
ATOM     36  O   UNL     1     -29.789  10.878 -31.528  1.00  0.00    -0.502 OA
ATOM     37  H   UNL     1     -29.901  10.604 -32.500  1.00  0.00     0.293 HD
ENDBRANCH  31  36
ENDBRANCH  24  26
ENDBRANCH  23  24
ENDBRANCH   2  23
BRANCH   3  38
ATOM     38  O   UNL     1     -21.257  13.547 -29.023  1.00  0.00    -0.450 OA
BRANCH  38  39
ATOM     39  C   UNL     1     -20.682  12.418 -29.615  1.00  0.00     0.338 C 
ATOM     40  O   UNL     1     -21.322  11.766 -30.486  1.00  0.00    -0.246 OA
BRANCH  39  41
ATOM     41  C   UNL     1     -19.324  11.989 -29.207  1.00  0.00     0.067 A 
ATOM     42  C   UNL     1     -18.944  11.962 -27.854  1.00  0.00     0.066 A 
ATOM     43  C   UNL     1     -18.389  11.608 -30.182  1.00  0.00     0.066 A 
ATOM     44  C   UNL     1     -17.644  11.594 -27.482  1.00  0.00     0.162 A 
ATOM     45  C   UNL     1     -17.090  11.242 -29.822  1.00  0.00     0.162 A 
ATOM     46  C   UNL     1     -16.710  11.239 -28.470  1.00  0.00     0.200 A 
BRANCH  44  47
ATOM     47  O   UNL     1     -17.274  11.582 -26.134  1.00  0.00    -0.504 OA
ATOM     48  H   UNL     1     -16.579  12.222 -25.763  1.00  0.00     0.293 HD
ENDBRANCH  44  47
BRANCH  45  49
ATOM     49  O   UNL     1     -16.186  10.877 -30.820  1.00  0.00    -0.504 OA
ATOM     50  H   UNL     1     -15.474  11.512 -31.157  1.00  0.00     0.293 HD
ENDBRANCH  45  49
BRANCH  46  51
ATOM     51  O   UNL     1     -15.408  10.877 -28.123  1.00  0.00    -0.502 OA
ATOM     52  H   UNL     1     -15.202  10.252 -27.351  1.00  0.00     0.293 HD
ENDBRANCH  46  51
ENDBRANCH  39  41
ENDBRANCH  38  39
ENDBRANCH   3  38
BRANCH   5  53
ATOM     53  O   UNL     1     -22.457  16.754 -31.687  1.00  0.00    -0.428 OA
BRANCH  53  54
ATOM     54  C   UNL     1     -23.069  17.802 -32.386  1.00  0.00     0.340 C 
ATOM     55  O   UNL     1     -23.495  17.618 -33.559  1.00  0.00    -0.246 OA
BRANCH  54  56
ATOM     56  C   UNL     1     -23.184  19.133 -31.749  1.00  0.00     0.067 A 
ATOM     57  C   UNL     1     -22.849  19.297 -30.395  1.00  0.00     0.066 A 
ATOM     58  C   UNL     1     -23.617  20.245 -32.490  1.00  0.00     0.066 A 
ATOM     59  C   UNL     1     -22.952  20.555 -29.783  1.00  0.00     0.162 A 
ATOM     60  C   UNL     1     -23.715  21.506 -31.886  1.00  0.00     0.162 A 
ATOM     61  C   UNL     1     -23.390  21.663 -30.529  1.00  0.00     0.200 A 
BRANCH  59  62
ATOM     62  O   UNL     1     -22.623  20.710 -28.440  1.00  0.00    -0.504 OA
ATOM     63  H   UNL     1     -23.056  21.422 -27.864  1.00  0.00     0.293 HD
ENDBRANCH  59  62
BRANCH  60  64
ATOM     64  O   UNL     1     -24.150  22.595 -32.642  1.00  0.00    -0.504 OA
ATOM     65  H   UNL     1     -23.500  23.253 -33.057  1.00  0.00     0.293 HD
ENDBRANCH  60  64
BRANCH  61  66
ATOM     66  O   UNL     1     -23.505  22.924 -29.939  1.00  0.00    -0.502 OA
ATOM     67  H   UNL     1     -22.689  23.504 -29.748  1.00  0.00     0.293 HD
ENDBRANCH  61  66
ENDBRANCH  54  56
ENDBRANCH  53  54
ENDBRANCH   5  53
BRANCH   4  68
ATOM     68  O   UNL     1     -20.343  14.954 -31.392  1.00  0.00    -0.448 OA
BRANCH  68  69
ATOM     69  C   UNL     1     -19.353  14.227 -32.070  1.00  0.00     0.339 C 
ATOM     70  O   UNL     1     -19.664  13.500 -33.051  1.00  0.00    -0.246 OA
BRANCH  69  71
ATOM     71  C   UNL     1     -17.938  14.343 -31.659  1.00  0.00     0.067 A 
ATOM     72  C   UNL     1     -16.906  14.231 -32.608  1.00  0.00     0.066 A 
ATOM     73  C   UNL     1     -17.605  14.571 -30.314  1.00  0.00     0.066 A 
ATOM     74  C   UNL     1     -15.566  14.379 -32.225  1.00  0.00     0.162 A 
ATOM     75  C   UNL     1     -16.269  14.704 -29.914  1.00  0.00     0.162 A 
ATOM     76  C   UNL     1     -15.238  14.626 -30.884  1.00  0.00     0.200 A 
BRANCH  74  77
ATOM     77  O   UNL     1     -14.547  14.294 -33.174  1.00  0.00    -0.504 OA
ATOM     78  H   UNL     1     -13.581  14.439 -32.925  1.00  0.00     0.293 HD
ENDBRANCH  74  77
BRANCH  75  79
ATOM     79  O   UNL     1     -16.018  14.900 -28.552  1.00  0.00    -0.504 OA
ATOM     80  H   UNL     1     -16.380  15.672 -28.016  1.00  0.00     0.293 HD
ENDBRANCH  75  79
BRANCH  76  81
ATOM     81  O   UNL     1     -13.892  14.800 -30.556  1.00  0.00    -0.502 OA
ATOM     82  H   UNL     1     -13.576  15.381 -29.798  1.00  0.00     0.293 HD
ENDBRANCH  76  81
ENDBRANCH  69  71
ENDBRANCH  68  69
ENDBRANCH   4  68
TORSDOF 31
ENDMDL
MODEL 4
REMARK VINA RESULT:    -0.729      1.288      7.571
REMARK INTER + INTRA:          -2.364
REMARK INTER:                  -2.732
REMARK INTRA:                   0.367
REMARK UNBOUND:                -0.634
REMARK SMILES O=C(OC[C@@H]1O[C@@H](OC(=O)c2cc(O)c(O)c(O)c2)[C@@H](OC(=O)c2cc(O)c(O)c(O)c2)[C@H](OC(=O)c2cc(O)c(O)c(O)c2)[C@@H]1OC(=O)c1cc(O)c(O)c(O)c1)c1cc(O)c(O)c(O)c1
REMARK SMILES IDX 5 1 46 2 33 3 20 4 7 5 6 6 4 7 3 8 2 9 1 10 59 11 60 12
REMARK SMILES IDX 61 13 67 14 63 15 65 16 62 17 64 19 66 21 47 23 48 24 49 25
REMARK SMILES IDX 50 26 58 27 51 28 56 29 52 30 54 31 57 32 53 34 55 36 34 38
REMARK SMILES IDX 35 39 36 40 37 41 45 42 38 43 43 44 39 45 41 46 44 47 40 49
REMARK SMILES IDX 42 51 8 53 9 54 10 55 11 56 19 57 12 58 17 59 13 60 15 61
REMARK SMILES IDX 18 62 14 64 16 66 21 68 22 69 23 70 24 71 32 72 25 73 30 74
REMARK SMILES IDX 26 75 28 76 31 77 27 79 29 81
REMARK H PARENT 62 18 64 20 66 22 57 33 53 35 55 37 44 48 40 50 42 52 18 63
REMARK H PARENT 14 65 16 67 31 78 27 80 29 82
REMARK Flexibility Score: inf
ROOT
ATOM      1  C   UNL     1     -22.339  14.975 -30.283  1.00  0.00     0.205 C 
ATOM      2  C   UNL     1     -23.063  16.302 -30.597  1.00  0.00     0.254 C 
ATOM      3  C   UNL     1     -24.584  16.051 -30.638  1.00  0.00     0.267 C 
ATOM      4  C   UNL     1     -24.901  14.887 -31.594  1.00  0.00     0.290 C 
ATOM      5  C   UNL     1     -24.028  13.666 -31.252  1.00  0.00     0.357 C 
ATOM      6  O   UNL     1     -22.648  13.997 -31.264  1.00  0.00    -0.329 OA
ENDROOT
BRANCH   1   7
ATOM      7  C   UNL     1     -20.815  15.175 -30.232  1.00  0.00     0.269 C 
BRANCH   7   8
ATOM      8  O   UNL     1     -20.137  13.988 -30.642  1.00  0.00    -0.459 OA
BRANCH   8   9
ATOM      9  C   UNL     1     -18.927  13.978 -31.345  1.00  0.00     0.338 C 
ATOM     10  O   UNL     1     -18.921  14.101 -32.600  1.00  0.00    -0.246 OA
BRANCH   9  11
ATOM     11  C   UNL     1     -17.653  13.856 -30.604  1.00  0.00     0.067 A 
ATOM     12  C   UNL     1     -16.450  13.660 -31.297  1.00  0.00     0.066 A 
ATOM     13  C   UNL     1     -15.243  13.526 -30.609  1.00  0.00     0.162 A 
ATOM     14  C   UNL     1     -17.628  13.927 -29.204  1.00  0.00     0.066 A 
ATOM     15  C   UNL     1     -15.220  13.587 -29.204  1.00  0.00     0.200 A 
ATOM     16  C   UNL     1     -16.429  13.798 -28.496  1.00  0.00     0.162 A 
BRANCH  13  17
ATOM     17  O   UNL     1     -14.071  13.315 -31.340  1.00  0.00    -0.504 OA
ATOM     18  H   UNL     1     -13.600  14.062 -31.836  1.00  0.00     0.293 HD
ENDBRANCH  13  17
BRANCH  15  19
ATOM     19  O   UNL     1     -13.993  13.427 -28.552  1.00  0.00    -0.502 OA
ATOM     20  H   UNL     1     -13.630  12.540 -28.240  1.00  0.00     0.293 HD
ENDBRANCH  15  19
BRANCH  16  21
ATOM     21  O   UNL     1     -16.482  13.893 -27.102  1.00  0.00    -0.504 OA
ATOM     22  H   UNL     1     -16.446  14.760 -26.591  1.00  0.00     0.293 HD
ENDBRANCH  16  21
ENDBRANCH   9  11
ENDBRANCH   8   9
ENDBRANCH   7   8
ENDBRANCH   1   7
BRANCH   2  23
ATOM     23  O   UNL     1     -22.620  16.798 -31.860  1.00  0.00    -0.452 OA
BRANCH  23  24
ATOM     24  C   UNL     1     -23.262  17.824 -32.568  1.00  0.00     0.338 C 
ATOM     25  O   UNL     1     -23.758  17.599 -33.706  1.00  0.00    -0.246 OA
BRANCH  24  26
ATOM     26  C   UNL     1     -23.357  19.172 -31.971  1.00  0.00     0.067 A 
ATOM     27  C   UNL     1     -24.019  20.211 -32.648  1.00  0.00     0.066 A 
ATOM     28  C   UNL     1     -22.793  19.425 -30.712  1.00  0.00     0.066 A 
ATOM     29  C   UNL     1     -24.117  21.483 -32.078  1.00  0.00     0.162 A 
ATOM     30  C   UNL     1     -22.880  20.696 -30.137  1.00  0.00     0.162 A 
ATOM     31  C   UNL     1     -23.541  21.732 -30.819  1.00  0.00     0.200 A 
BRANCH  29  32
ATOM     32  O   UNL     1     -24.806  22.483 -32.766  1.00  0.00    -0.504 OA
ATOM     33  H   UNL     1     -25.621  22.279 -33.332  1.00  0.00     0.293 HD
ENDBRANCH  29  32
BRANCH  30  34
ATOM     34  O   UNL     1     -22.304  20.940 -28.888  1.00  0.00    -0.504 OA
ATOM     35  H   UNL     1     -22.410  21.837 -28.427  1.00  0.00     0.293 HD
ENDBRANCH  30  34
BRANCH  31  36
ATOM     36  O   UNL     1     -23.642  23.005 -30.256  1.00  0.00    -0.502 OA
ATOM     37  H   UNL     1     -24.131  23.174 -29.382  1.00  0.00     0.293 HD
ENDBRANCH  31  36
ENDBRANCH  24  26
ENDBRANCH  23  24
ENDBRANCH   2  23
BRANCH   3  38
ATOM     38  O   UNL     1     -25.279  17.217 -31.080  1.00  0.00    -0.450 OA
BRANCH  38  39
ATOM     39  C   UNL     1     -26.597  17.533 -30.733  1.00  0.00     0.338 C 
ATOM     40  O   UNL     1     -27.083  17.115 -29.647  1.00  0.00    -0.246 OA
BRANCH  39  41
ATOM     41  C   UNL     1     -27.418  18.353 -31.654  1.00  0.00     0.067 A 
ATOM     42  C   UNL     1     -26.821  19.204 -32.600  1.00  0.00     0.066 A 
ATOM     43  C   UNL     1     -28.818  18.293 -31.583  1.00  0.00     0.066 A 
ATOM     44  C   UNL     1     -27.608  20.007 -33.439  1.00  0.00     0.162 A 
ATOM     45  C   UNL     1     -29.611  19.090 -32.413  1.00  0.00     0.162 A 
ATOM     46  C   UNL     1     -29.009  19.955 -33.341  1.00  0.00     0.200 A 
BRANCH  44  47
ATOM     47  O   UNL     1     -27.004  20.858 -34.369  1.00  0.00    -0.504 OA
ATOM     48  H   UNL     1     -26.017  21.089 -34.321  1.00  0.00     0.293 HD
ENDBRANCH  44  47
BRANCH  45  49
ATOM     49  O   UNL     1     -31.000  19.008 -32.308  1.00  0.00    -0.504 OA
ATOM     50  H   UNL     1     -31.609  19.733 -32.664  1.00  0.00     0.293 HD
ENDBRANCH  45  49
BRANCH  46  51
ATOM     51  O   UNL     1     -29.811  20.751 -34.159  1.00  0.00    -0.502 OA
ATOM     52  H   UNL     1     -29.640  21.741 -34.293  1.00  0.00     0.293 HD
ENDBRANCH  46  51
ENDBRANCH  39  41
ENDBRANCH  38  39
ENDBRANCH   3  38
BRANCH   5  53
ATOM     53  O   UNL     1     -24.403  13.110 -29.990  1.00  0.00    -0.428 OA
BRANCH  53  54
ATOM     54  C   UNL     1     -24.054  11.816 -29.583  1.00  0.00     0.340 C 
ATOM     55  O   UNL     1     -24.889  10.875 -29.680  1.00  0.00    -0.246 OA
BRANCH  54  56
ATOM     56  C   UNL     1     -22.711  11.569 -29.012  1.00  0.00     0.067 A 
ATOM     57  C   UNL     1     -21.580  11.579 -29.844  1.00  0.00     0.066 A 
ATOM     58  C   UNL     1     -22.552  11.336 -27.637  1.00  0.00     0.066 A 
ATOM     59  C   UNL     1     -20.303  11.348 -29.312  1.00  0.00     0.162 A 
ATOM     60  C   UNL     1     -21.278  11.114 -27.097  1.00  0.00     0.162 A 
ATOM     61  C   UNL     1     -20.151  11.111 -27.934  1.00  0.00     0.200 A 
BRANCH  59  62
ATOM     62  O   UNL     1     -19.186  11.354 -30.143  1.00  0.00    -0.504 OA
ATOM     63  H   UNL     1     -18.514  10.596 -30.136  1.00  0.00     0.293 HD
ENDBRANCH  59  62
BRANCH  60  64
ATOM     64  O   UNL     1     -21.144  10.881 -25.729  1.00  0.00    -0.504 OA
ATOM     65  H   UNL     1     -21.842  10.367 -25.202  1.00  0.00     0.293 HD
ENDBRANCH  60  64
BRANCH  61  66
ATOM     66  O   UNL     1     -18.888  10.876 -27.384  1.00  0.00    -0.502 OA
ATOM     67  H   UNL     1     -18.449   9.956 -27.419  1.00  0.00     0.293 HD
ENDBRANCH  61  66
ENDBRANCH  54  56
ENDBRANCH  53  54
ENDBRANCH   5  53
BRANCH   4  68
ATOM     68  O   UNL     1     -26.283  14.525 -31.494  1.00  0.00    -0.448 OA
BRANCH  68  69
ATOM     69  C   UNL     1     -26.747  13.205 -31.592  1.00  0.00     0.339 C 
ATOM     70  O   UNL     1     -26.304  12.445 -32.495  1.00  0.00    -0.246 OA
BRANCH  69  71
ATOM     71  C   UNL     1     -27.727  12.690 -30.612  1.00  0.00     0.067 A 
ATOM     72  C   UNL     1     -27.456  12.745 -29.233  1.00  0.00     0.066 A 
ATOM     73  C   UNL     1     -28.945  12.144 -31.047  1.00  0.00     0.066 A 
ATOM     74  C   UNL     1     -28.401  12.291 -28.303  1.00  0.00     0.162 A 
ATOM     75  C   UNL     1     -29.892  11.671 -30.129  1.00  0.00     0.162 A 
ATOM     76  C   UNL     1     -29.626  11.764 -28.740  1.00  0.00     0.200 A 
BRANCH  74  77
ATOM     77  O   UNL     1     -28.139  12.371 -26.935  1.00  0.00    -0.504 OA
ATOM     78  H   UNL     1     -28.761  11.963 -26.254  1.00  0.00     0.293 HD
ENDBRANCH  74  77
BRANCH  75  79
ATOM     79  O   UNL     1     -31.068  11.114 -30.641  1.00  0.00    -0.504 OA
ATOM     80  H   UNL     1     -31.688  11.589 -31.277  1.00  0.00     0.293 HD
ENDBRANCH  75  79
BRANCH  76  81
ATOM     81  O   UNL     1     -30.549  11.357 -27.775  1.00  0.00    -0.502 OA
ATOM     82  H   UNL     1     -30.595  11.750 -26.850  1.00  0.00     0.293 HD
ENDBRANCH  76  81
ENDBRANCH  69  71
ENDBRANCH  68  69
ENDBRANCH   4  68
TORSDOF 31
ENDMDL
MODEL 5
REMARK VINA RESULT:    -0.126      1.306      7.702
REMARK INTER + INTRA:          -0.932
REMARK INTER:                  -1.549
REMARK INTRA:                   0.616
REMARK UNBOUND:                -0.634
REMARK SMILES O=C(OC[C@@H]1O[C@@H](OC(=O)c2cc(O)c(O)c(O)c2)[C@@H](OC(=O)c2cc(O)c(O)c(O)c2)[C@H](OC(=O)c2cc(O)c(O)c(O)c2)[C@@H]1OC(=O)c1cc(O)c(O)c(O)c1)c1cc(O)c(O)c(O)c1
REMARK SMILES IDX 5 1 46 2 33 3 20 4 7 5 6 6 4 7 3 8 2 9 1 10 59 11 60 12
REMARK SMILES IDX 61 13 67 14 63 15 65 16 62 17 64 19 66 21 47 23 48 24 49 25
REMARK SMILES IDX 50 26 58 27 51 28 56 29 52 30 54 31 57 32 53 34 55 36 34 38
REMARK SMILES IDX 35 39 36 40 37 41 45 42 38 43 43 44 39 45 41 46 44 47 40 49
REMARK SMILES IDX 42 51 8 53 9 54 10 55 11 56 19 57 12 58 17 59 13 60 15 61
REMARK SMILES IDX 18 62 14 64 16 66 21 68 22 69 23 70 24 71 32 72 25 73 30 74
REMARK SMILES IDX 26 75 28 76 31 77 27 79 29 81
REMARK H PARENT 62 18 64 20 66 22 57 33 53 35 55 37 44 48 40 50 42 52 18 63
REMARK H PARENT 14 65 16 67 31 78 27 80 29 82
REMARK Flexibility Score: inf
ROOT
ATOM      1  C   UNL     1     -22.551  15.255 -30.116  1.00  0.00     0.205 C 
ATOM      2  C   UNL     1     -23.391  16.405 -30.713  1.00  0.00     0.254 C 
ATOM      3  C   UNL     1     -24.863  15.955 -30.818  1.00  0.00     0.267 C 
ATOM      4  C   UNL     1     -24.953  14.616 -31.571  1.00  0.00     0.290 C 
ATOM      5  C   UNL     1     -23.980  13.594 -30.955  1.00  0.00     0.357 C 
ATOM      6  O   UNL     1     -22.653  14.094 -30.927  1.00  0.00    -0.329 OA
ENDROOT
BRANCH   1   7
ATOM      7  C   UNL     1     -21.072  15.657 -29.992  1.00  0.00     0.269 C 
BRANCH   7   8
ATOM      8  O   UNL     1     -20.235  14.502 -29.984  1.00  0.00    -0.459 OA
BRANCH   8   9
ATOM      9  C   UNL     1     -19.045  14.399 -29.254  1.00  0.00     0.338 C 
ATOM     10  O   UNL     1     -19.069  14.420 -27.994  1.00  0.00    -0.246 OA
BRANCH   9  11
ATOM     11  C   UNL     1     -17.761  14.232 -29.971  1.00  0.00     0.067 A 
ATOM     12  C   UNL     1     -16.555  14.574 -29.345  1.00  0.00     0.066 A 
ATOM     13  C   UNL     1     -15.338  14.436 -30.016  1.00  0.00     0.162 A 
ATOM     14  C   UNL     1     -17.732  13.738 -31.283  1.00  0.00     0.066 A 
ATOM     15  C   UNL     1     -15.310  13.952 -31.336  1.00  0.00     0.200 A 
ATOM     16  C   UNL     1     -16.524  13.591 -31.972  1.00  0.00     0.162 A 
BRANCH  13  17
ATOM     17  O   UNL     1     -14.162  14.805 -29.359  1.00  0.00    -0.504 OA
ATOM     18  H   UNL     1     -13.483  14.125 -29.040  1.00  0.00     0.293 HD
ENDBRANCH  13  17
BRANCH  15  19
ATOM     19  O   UNL     1     -14.073  13.849 -31.979  1.00  0.00    -0.502 OA
ATOM     20  H   UNL     1     -13.799  13.069 -32.556  1.00  0.00     0.293 HD
ENDBRANCH  15  19
BRANCH  16  21
ATOM     21  O   UNL     1     -16.573  13.079 -33.272  1.00  0.00    -0.504 OA
ATOM     22  H   UNL     1     -16.103  12.241 -33.571  1.00  0.00     0.293 HD
ENDBRANCH  16  21
ENDBRANCH   9  11
ENDBRANCH   8   9
ENDBRANCH   7   8
ENDBRANCH   1   7
BRANCH   2  23
ATOM     23  O   UNL     1     -22.892  16.735 -32.009  1.00  0.00    -0.452 OA
BRANCH  23  24
ATOM     24  C   UNL     1     -23.286  17.869 -32.735  1.00  0.00     0.338 C 
ATOM     25  O   UNL     1     -23.565  17.774 -33.962  1.00  0.00    -0.246 OA
BRANCH  24  26
ATOM     26  C   UNL     1     -23.374  19.175 -32.053  1.00  0.00     0.067 A 
ATOM     27  C   UNL     1     -22.868  19.341 -30.752  1.00  0.00     0.066 A 
ATOM     28  C   UNL     1     -23.959  20.271 -32.705  1.00  0.00     0.066 A 
ATOM     29  C   UNL     1     -22.944  20.581 -30.111  1.00  0.00     0.162 A 
ATOM     30  C   UNL     1     -24.045  21.513 -32.070  1.00  0.00     0.162 A 
ATOM     31  C   UNL     1     -23.539  21.673 -30.767  1.00  0.00     0.200 A 
BRANCH  29  32
ATOM     32  O   UNL     1     -22.405  20.716 -28.831  1.00  0.00    -0.504 OA
ATOM     33  H   UNL     1     -22.632  21.504 -28.236  1.00  0.00     0.293 HD
ENDBRANCH  29  32
BRANCH  30  34
ATOM     34  O   UNL     1     -24.639  22.594 -32.724  1.00  0.00    -0.504 OA
ATOM     35  H   UNL     1     -25.614  22.830 -32.569  1.00  0.00     0.293 HD
ENDBRANCH  30  34
BRANCH  31  36
ATOM     36  O   UNL     1     -23.612  22.908 -30.121  1.00  0.00    -0.502 OA
ATOM     37  H   UNL     1     -22.921  23.637 -30.268  1.00  0.00     0.293 HD
ENDBRANCH  31  36
ENDBRANCH  24  26
ENDBRANCH  23  24
ENDBRANCH   2  23
BRANCH   3  38
ATOM     38  O   UNL     1     -25.643  16.931 -31.509  1.00  0.00    -0.450 OA
BRANCH  38  39
ATOM     39  C   UNL     1     -26.604  17.749 -30.906  1.00  0.00     0.338 C 
ATOM     40  O   UNL     1     -26.711  17.779 -29.649  1.00  0.00    -0.246 OA
BRANCH  39  41
ATOM     41  C   UNL     1     -27.499  18.571 -31.753  1.00  0.00     0.067 A 
ATOM     42  C   UNL     1     -28.895  18.528 -31.594  1.00  0.00     0.066 A 
ATOM     43  C   UNL     1     -26.955  19.406 -32.741  1.00  0.00     0.066 A 
ATOM     44  C   UNL     1     -29.736  19.279 -32.428  1.00  0.00     0.162 A 
ATOM     45  C   UNL     1     -27.784  20.157 -33.579  1.00  0.00     0.162 A 
ATOM     46  C   UNL     1     -29.179  20.092 -33.430  1.00  0.00     0.200 A 
BRANCH  44  47
ATOM     47  O   UNL     1     -31.123  19.219 -32.268  1.00  0.00    -0.504 OA
ATOM     48  H   UNL     1     -31.573  18.454 -31.777  1.00  0.00     0.293 HD
ENDBRANCH  44  47
BRANCH  45  49
ATOM     49  O   UNL     1     -27.205  20.969 -34.555  1.00  0.00    -0.504 OA
ATOM     50  H   UNL     1     -26.264  21.327 -34.465  1.00  0.00     0.293 HD
ENDBRANCH  45  49
BRANCH  46  51
ATOM     51  O   UNL     1     -29.995  20.841 -34.276  1.00  0.00    -0.502 OA
ATOM     52  H   UNL     1     -29.622  21.438 -35.007  1.00  0.00     0.293 HD
ENDBRANCH  46  51
ENDBRANCH  39  41
ENDBRANCH  38  39
ENDBRANCH   3  38
BRANCH   5  53
ATOM     53  O   UNL     1     -24.405  13.214 -29.644  1.00  0.00    -0.428 OA
BRANCH  53  54
ATOM     54  C   UNL     1     -23.975  12.046 -29.003  1.00  0.00     0.340 C 
ATOM     55  O   UNL     1     -24.815  11.268 -28.473  1.00  0.00    -0.246 OA
BRANCH  54  56
ATOM     56  C   UNL     1     -22.527  11.747 -28.927  1.00  0.00     0.067 A 
ATOM     57  C   UNL     1     -21.740  11.775 -30.090  1.00  0.00     0.066 A 
ATOM     58  C   UNL     1     -21.923  11.447 -27.695  1.00  0.00     0.066 A 
ATOM     59  C   UNL     1     -20.367  11.497 -30.026  1.00  0.00     0.162 A 
ATOM     60  C   UNL     1     -20.550  11.175 -27.624  1.00  0.00     0.162 A 
ATOM     61  C   UNL     1     -19.770  11.192 -28.791  1.00  0.00     0.200 A 
BRANCH  59  62
ATOM     62  O   UNL     1     -19.593  11.521 -31.184  1.00  0.00    -0.504 OA
ATOM     63  H   UNL     1     -19.187  10.677 -31.570  1.00  0.00     0.293 HD
ENDBRANCH  59  62
BRANCH  60  64
ATOM     64  O   UNL     1     -19.974  10.875 -26.390  1.00  0.00    -0.504 OA
ATOM     65  H   UNL     1     -19.195  11.407 -26.019  1.00  0.00     0.293 HD
ENDBRANCH  60  64
BRANCH  61  66
ATOM     66  O   UNL     1     -18.405  10.907 -28.706  1.00  0.00    -0.502 OA
ATOM     67  H   UNL     1     -17.987  10.121 -29.204  1.00  0.00     0.293 HD
ENDBRANCH  61  66
ENDBRANCH  54  56
ENDBRANCH  53  54
ENDBRANCH   5  53
BRANCH   4  68
ATOM     68  O   UNL     1     -26.286  14.100 -31.507  1.00  0.00    -0.448 OA
BRANCH  68  69
ATOM     69  C   UNL     1     -26.585  12.756 -31.237  1.00  0.00     0.339 C 
ATOM     70  O   UNL     1     -25.911  11.838 -31.778  1.00  0.00    -0.246 OA
BRANCH  69  71
ATOM     71  C   UNL     1     -27.664  12.414 -30.287  1.00  0.00     0.067 A 
ATOM     72  C   UNL     1     -28.873  11.860 -30.745  1.00  0.00     0.066 A 
ATOM     73  C   UNL     1     -27.494  12.635 -28.911  1.00  0.00     0.066 A 
ATOM     74  C   UNL     1     -29.881  11.501 -29.840  1.00  0.00     0.162 A 
ATOM     75  C   UNL     1     -28.500  12.296 -27.996  1.00  0.00     0.162 A 
ATOM     76  C   UNL     1     -29.700  11.704 -28.464  1.00  0.00     0.200 A 
BRANCH  74  77
ATOM     77  O   UNL     1     -31.067  10.926 -30.297  1.00  0.00    -0.504 OA
ATOM     78  H   UNL     1     -31.356  11.011 -31.260  1.00  0.00     0.293 HD
ENDBRANCH  74  77
BRANCH  75  79
ATOM     79  O   UNL     1     -28.268  12.575 -26.645  1.00  0.00    -0.504 OA
ATOM     80  H   UNL     1     -28.945  12.996 -26.030  1.00  0.00     0.293 HD
ENDBRANCH  75  79
BRANCH  76  81
ATOM     81  O   UNL     1     -30.718  11.299 -27.599  1.00  0.00    -0.502 OA
ATOM     82  H   UNL     1     -31.363  11.936 -27.164  1.00  0.00     0.293 HD
ENDBRANCH  76  81
ENDBRANCH  69  71
ENDBRANCH  68  69
ENDBRANCH   4  68
TORSDOF 31
ENDMDL
