MODEL 1
REMARK VINA RESULT:    -5.626      0.000      0.000
REMARK INTER + INTRA:          -6.494
REMARK INTER:                  -6.284
REMARK INTRA:                  -0.210
REMARK UNBOUND:                -0.210
REMARK SMILES CC(C)c1ccc(C(=O)[O-])cc1
REMARK SMILES IDX 7 1 6 2 11 3 5 4 12 5 4 6 8 7 9 8 10 9 2 10 1 11 3 12
REMARK H PARENT
REMARK Flexibility Score: inf
ROOT
ATOM      1  C   UNL     1     -15.007  -5.695  29.281  1.00  0.00    -0.003 A 
ATOM      2  C   UNL     1     -15.385  -6.418  28.137  1.00  0.00     0.010 A 
ATOM      3  C   UNL     1     -15.186  -6.280  30.545  1.00  0.00     0.010 A 
ATOM      4  C   UNL     1     -15.931  -7.700  28.255  1.00  0.00     0.004 A 
ATOM      5  C   UNL     1     -15.731  -7.561  30.663  1.00  0.00     0.004 A 
ATOM      6  C   UNL     1     -16.111  -8.286  29.521  1.00  0.00    -0.045 A 
ENDROOT
BRANCH   1   7
ATOM      7  C   UNL     1     -14.428  -4.340  29.159  1.00  0.00     0.071 C 
ATOM      8  O   UNL     1     -14.392  -3.755  28.044  1.00  0.00    -0.545 OA
ATOM      9  O   UNL     1     -13.915  -3.690  30.277  1.00  0.00    -0.545 OA
ENDBRANCH   1   7
BRANCH   6  10
ATOM     10  C   UNL     1     -16.702  -9.676  29.665  1.00  0.00     0.013 C 
ATOM     11  C   UNL     1     -15.639 -10.756  29.434  1.00  0.00     0.012 C 
ATOM     12  C   UNL     1     -17.897  -9.868  28.723  1.00  0.00     0.012 C 
ENDBRANCH   6  10
TORSDOF 2
ENDMDL
MODEL 2
REMARK VINA RESULT:    -5.620      0.090      1.400
REMARK INTER + INTRA:          -6.486
REMARK INTER:                  -6.274
REMARK INTRA:                  -0.212
REMARK UNBOUND:                -0.210
REMARK SMILES CC(C)c1ccc(C(=O)[O-])cc1
REMARK SMILES IDX 7 1 6 2 11 3 5 4 12 5 4 6 8 7 9 8 10 9 2 10 1 11 3 12
REMARK H PARENT
REMARK Flexibility Score: inf
ROOT
ATOM      1  C   UNL     1     -15.012  -5.647  29.268  1.00  0.00    -0.003 A 
ATOM      2  C   UNL     1     -15.241  -6.225  30.527  1.00  0.00     0.010 A 
ATOM      3  C   UNL     1     -15.342  -6.377  28.114  1.00  0.00     0.010 A 
ATOM      4  C   UNL     1     -15.788  -7.508  30.631  1.00  0.00     0.004 A 
ATOM      5  C   UNL     1     -15.890  -7.658  28.217  1.00  0.00     0.004 A 
ATOM      6  C   UNL     1     -16.118  -8.239  29.476  1.00  0.00    -0.045 A 
ENDROOT
BRANCH   1   7
ATOM      7  C   UNL     1     -14.434  -4.290  29.154  1.00  0.00     0.071 C 
ATOM      8  O   UNL     1     -14.314  -3.736  28.029  1.00  0.00    -0.545 OA
ATOM      9  O   UNL     1     -14.015  -3.605  30.290  1.00  0.00    -0.545 OA
ENDBRANCH   1   7
BRANCH   6  10
ATOM     10  C   UNL     1     -16.714  -9.632  29.573  1.00  0.00     0.013 C 
ATOM     11  C   UNL     1     -15.641 -10.707  29.367  1.00  0.00     0.012 C 
ATOM     12  C   UNL     1     -17.870  -9.809  28.582  1.00  0.00     0.012 C 
ENDBRANCH   6  10
TORSDOF 2
ENDMDL
MODEL 3
REMARK VINA RESULT:    -5.406      1.444      2.203
REMARK INTER + INTRA:          -6.248
REMARK INTER:                  -6.038
REMARK INTRA:                  -0.210
REMARK UNBOUND:                -0.210
REMARK SMILES CC(C)c1ccc(C(=O)[O-])cc1
REMARK SMILES IDX 7 1 6 2 11 3 5 4 12 5 4 6 8 7 9 8 10 9 2 10 1 11 3 12
REMARK H PARENT
REMARK Flexibility Score: inf
ROOT
ATOM      1  C   UNL     1     -15.249  -6.681  30.550  1.00  0.00    -0.003 A 
ATOM      2  C   UNL     1     -15.998  -7.576  31.333  1.00  0.00     0.010 A 
ATOM      3  C   UNL     1     -15.252  -6.832  29.154  1.00  0.00     0.010 A 
ATOM      4  C   UNL     1     -16.734  -8.601  30.731  1.00  0.00     0.004 A 
ATOM      5  C   UNL     1     -15.988  -7.856  28.553  1.00  0.00     0.004 A 
ATOM      6  C   UNL     1     -16.737  -8.753  29.333  1.00  0.00    -0.045 A 
ENDROOT
BRANCH   1   7
ATOM      7  C   UNL     1     -14.469  -5.595  31.183  1.00  0.00     0.071 C 
ATOM      8  O   UNL     1     -13.430  -5.146  30.631  1.00  0.00    -0.545 OA
ATOM      9  O   UNL     1     -14.874  -5.052  32.398  1.00  0.00    -0.545 OA
ENDBRANCH   1   7
BRANCH   6  10
ATOM     10  C   UNL     1     -17.532  -9.860  28.667  1.00  0.00     0.013 C 
ATOM     11  C   UNL     1     -16.663 -11.101  28.433  1.00  0.00     0.012 C 
ATOM     12  C   UNL     1     -18.165  -9.375  27.357  1.00  0.00     0.012 C 
ENDBRANCH   6  10
TORSDOF 2
ENDMDL
MODEL 4
REMARK VINA RESULT:    -5.358      1.437      1.995
REMARK INTER + INTRA:          -6.194
REMARK INTER:                  -5.981
REMARK INTRA:                  -0.213
REMARK UNBOUND:                -0.210
REMARK SMILES CC(C)c1ccc(C(=O)[O-])cc1
REMARK SMILES IDX 7 1 6 2 11 3 5 4 12 5 4 6 8 7 9 8 10 9 2 10 1 11 3 12
REMARK H PARENT
REMARK Flexibility Score: inf
ROOT
ATOM      1  C   UNL     1     -13.970  -4.396  29.827  1.00  0.00    -0.003 A 
ATOM      2  C   UNL     1     -14.462  -4.685  28.542  1.00  0.00     0.010 A 
ATOM      3  C   UNL     1     -14.176  -5.327  30.859  1.00  0.00     0.010 A 
ATOM      4  C   UNL     1     -15.145  -5.880  28.296  1.00  0.00     0.004 A 
ATOM      5  C   UNL     1     -14.858  -6.521  30.612  1.00  0.00     0.004 A 
ATOM      6  C   UNL     1     -15.351  -6.812  29.329  1.00  0.00    -0.045 A 
ENDROOT
BRANCH   1   7
ATOM      7  C   UNL     1     -13.247  -3.134  30.091  1.00  0.00     0.071 C 
ATOM      8  O   UNL     1     -13.379  -2.145  29.322  1.00  0.00    -0.545 OA
ATOM      9  O   UNL     1     -12.410  -3.020  31.196  1.00  0.00    -0.545 OA
ENDBRANCH   1   7
BRANCH   6  10
ATOM     10  C   UNL     1     -16.090  -8.113  29.076  1.00  0.00     0.013 C 
ATOM     11  C   UNL     1     -16.698  -8.665  30.370  1.00  0.00     0.012 C 
ATOM     12  C   UNL     1     -15.175  -9.147  28.411  1.00  0.00     0.012 C 
ENDBRANCH   6  10
TORSDOF 2
ENDMDL
MODEL 5
REMARK VINA RESULT:    -5.311      1.616      2.767
REMARK INTER + INTRA:          -6.142
REMARK INTER:                  -5.930
REMARK INTRA:                  -0.212
REMARK UNBOUND:                -0.210
REMARK SMILES CC(C)c1ccc(C(=O)[O-])cc1
REMARK SMILES IDX 7 1 6 2 11 3 5 4 12 5 4 6 8 7 9 8 10 9 2 10 1 11 3 12
REMARK H PARENT
REMARK Flexibility Score: inf
ROOT
ATOM      1  C   UNL     1     -13.762  -4.251  30.166  1.00  0.00    -0.003 A 
ATOM      2  C   UNL     1     -13.947  -5.219  31.167  1.00  0.00     0.010 A 
ATOM      3  C   UNL     1     -14.344  -4.458  28.904  1.00  0.00     0.010 A 
ATOM      4  C   UNL     1     -14.698  -6.370  30.912  1.00  0.00     0.004 A 
ATOM      5  C   UNL     1     -15.095  -5.608  28.649  1.00  0.00     0.004 A 
ATOM      6  C   UNL     1     -15.281  -6.578  29.649  1.00  0.00    -0.045 A 
ENDROOT
BRANCH   1   7
ATOM      7  C   UNL     1     -12.969  -3.032  30.432  1.00  0.00     0.071 C 
ATOM      8  O   UNL     1     -12.189  -2.977  31.420  1.00  0.00    -0.545 OA
ATOM      9  O   UNL     1     -13.071  -1.927  29.594  1.00  0.00    -0.545 OA
ENDBRANCH   1   7
BRANCH   6  10
ATOM     10  C   UNL     1     -16.099  -7.822  29.358  1.00  0.00     0.013 C 
ATOM     11  C   UNL     1     -16.564  -8.495  30.654  1.00  0.00     0.012 C 
ATOM     12  C   UNL     1     -15.318  -8.804  28.477  1.00  0.00     0.012 C 
ENDBRANCH   6  10
TORSDOF 2
ENDMDL
MODEL 6
REMARK VINA RESULT:    -5.235      2.765      5.623
REMARK INTER + INTRA:          -6.057
REMARK INTER:                  -5.844
REMARK INTRA:                  -0.213
REMARK UNBOUND:                -0.210
REMARK SMILES CC(C)c1ccc(C(=O)[O-])cc1
REMARK SMILES IDX 7 1 6 2 11 3 5 4 12 5 4 6 8 7 9 8 10 9 2 10 1 11 3 12
REMARK H PARENT
REMARK Flexibility Score: inf
ROOT
ATOM      1  C   UNL     1     -15.179  -6.521  30.053  1.00  0.00    -0.003 A 
ATOM      2  C   UNL     1     -14.635  -6.354  31.338  1.00  0.00     0.010 A 
ATOM      3  C   UNL     1     -14.953  -5.530  29.084  1.00  0.00     0.010 A 
ATOM      4  C   UNL     1     -13.881  -5.217  31.646  1.00  0.00     0.004 A 
ATOM      5  C   UNL     1     -14.199  -4.395  29.393  1.00  0.00     0.004 A 
ATOM      6  C   UNL     1     -13.655  -4.225  30.676  1.00  0.00    -0.045 A 
ENDROOT
BRANCH   1   7
ATOM      7  C   UNL     1     -15.977  -7.722  29.723  1.00  0.00     0.071 C 
ATOM      8  O   UNL     1     -16.005  -8.170  28.546  1.00  0.00    -0.545 OA
ATOM      9  O   UNL     1     -16.708  -8.376  30.709  1.00  0.00    -0.545 OA
ENDBRANCH   1   7
BRANCH   6  10
ATOM     10  C   UNL     1     -12.837  -2.987  30.997  1.00  0.00     0.013 C 
ATOM     11  C   UNL     1     -13.033  -1.903  29.931  1.00  0.00     0.012 C 
ATOM     12  C   UNL     1     -11.353  -3.333  31.166  1.00  0.00     0.012 C 
ENDBRANCH   6  10
TORSDOF 2
ENDMDL
MODEL 7
REMARK VINA RESULT:    -5.116      3.240      5.037
REMARK INTER + INTRA:          -5.924
REMARK INTER:                  -5.713
REMARK INTRA:                  -0.210
REMARK UNBOUND:                -0.210
REMARK SMILES CC(C)c1ccc(C(=O)[O-])cc1
REMARK SMILES IDX 7 1 6 2 11 3 5 4 12 5 4 6 8 7 9 8 10 9 2 10 1 11 3 12
REMARK H PARENT
REMARK Flexibility Score: inf
ROOT
ATOM      1  C   UNL     1     -16.571  -8.668  29.342  1.00  0.00    -0.003 A 
ATOM      2  C   UNL     1     -16.002  -7.898  28.314  1.00  0.00     0.010 A 
ATOM      3  C   UNL     1     -16.430  -8.237  30.672  1.00  0.00     0.010 A 
ATOM      4  C   UNL     1     -15.305  -6.723  28.609  1.00  0.00     0.004 A 
ATOM      5  C   UNL     1     -15.735  -7.062  30.966  1.00  0.00     0.004 A 
ATOM      6  C   UNL     1     -15.163  -6.291  29.940  1.00  0.00    -0.045 A 
ENDROOT
BRANCH   1   7
ATOM      7  C   UNL     1     -17.310  -9.912  29.034  1.00  0.00     0.071 C 
ATOM      8  O   UNL     1     -18.472  -9.864  28.549  1.00  0.00    -0.545 OA
ATOM      9  O   UNL     1     -16.730 -11.153  29.273  1.00  0.00    -0.545 OA
ENDBRANCH   1   7
BRANCH   6  10
ATOM     10  C   UNL     1     -14.410  -5.017  30.275  1.00  0.00     0.013 C 
ATOM     11  C   UNL     1     -13.772  -4.406  29.023  1.00  0.00     0.012 C 
ATOM     12  C   UNL     1     -13.360  -5.266  31.364  1.00  0.00     0.012 C 
ENDBRANCH   6  10
TORSDOF 2
ENDMDL
MODEL 8
REMARK VINA RESULT:    -5.085      2.960      5.448
REMARK INTER + INTRA:          -5.889
REMARK INTER:                  -5.673
REMARK INTRA:                  -0.216
REMARK UNBOUND:                -0.210
REMARK SMILES CC(C)c1ccc(C(=O)[O-])cc1
REMARK SMILES IDX 7 1 6 2 11 3 5 4 12 5 4 6 8 7 9 8 10 9 2 10 1 11 3 12
REMARK H PARENT
REMARK Flexibility Score: inf
ROOT
ATOM      1  C   UNL     1     -15.124  -6.741  30.906  1.00  0.00    -0.003 A 
ATOM      2  C   UNL     1     -15.208  -5.980  29.727  1.00  0.00     0.010 A 
ATOM      3  C   UNL     1     -14.132  -6.427  31.849  1.00  0.00     0.010 A 
ATOM      4  C   UNL     1     -14.317  -4.928  29.497  1.00  0.00     0.004 A 
ATOM      5  C   UNL     1     -13.242  -5.374  31.619  1.00  0.00     0.004 A 
ATOM      6  C   UNL     1     -13.323  -4.613  30.442  1.00  0.00    -0.045 A 
ENDROOT
BRANCH   1   7
ATOM      7  C   UNL     1     -16.065  -7.855  31.153  1.00  0.00     0.071 C 
ATOM      8  O   UNL     1     -16.643  -8.432  30.194  1.00  0.00    -0.545 OA
ATOM      9  O   UNL     1     -16.324  -8.284  32.451  1.00  0.00    -0.545 OA
ENDBRANCH   1   7
BRANCH   6  10
ATOM     10  C   UNL     1     -12.351  -3.472  30.205  1.00  0.00     0.013 C 
ATOM     11  C   UNL     1     -11.314  -3.387  31.332  1.00  0.00     0.012 C 
ATOM     12  C   UNL     1     -13.091  -2.141  30.035  1.00  0.00     0.012 C 
ENDBRANCH   6  10
TORSDOF 2
ENDMDL
