MODEL 1
REMARK VINA RESULT:    -4.160      0.000      0.000
REMARK INTER + INTRA:          -5.341
REMARK INTER:                  -5.132
REMARK INTRA:                  -0.209
REMARK UNBOUND:                -0.209
REMARK SMILES [NH3+][C@H](Cc1ccc(O)cc1)C(=O)[O-]
REMARK SMILES IDX 3 1 2 2 1 3 11 7 12 8 13 9 4 10 5 11 10 12 6 13 9 14 7 15
REMARK SMILES IDX 8 16
REMARK H PARENT 1 4 1 5 1 6 8 17
REMARK Flexibility Score: inf
ROOT
ATOM      1  C   UNL     1      28.269  15.029 -14.885  1.00  0.00     0.107 C 
ENDROOT
BRANCH   1   2
ATOM      2  C   UNL     1      26.925  15.053 -15.644  1.00  0.00     0.232 C 
BRANCH   2   3
ATOM      3  N   UNL     1      26.578  16.425 -16.034  1.00  0.00    -0.350 N 
ATOM      4  H   UNL     1      27.440  17.017 -16.052  1.00  0.00     0.345 HD
ATOM      5  H   UNL     1      26.161  16.426 -16.994  1.00  0.00     0.345 HD
ATOM      6  H   UNL     1      25.890  16.839 -15.362  1.00  0.00     0.345 HD
ENDBRANCH   2   3
BRANCH   2   7
ATOM      7  C   UNL     1      26.973  14.160 -16.858  1.00  0.00     0.099 C 
ATOM      8  O   UNL     1      26.648  12.947 -16.771  1.00  0.00    -0.544 OA
ATOM      9  O   UNL     1      27.355  14.682 -18.087  1.00  0.00    -0.544 OA
ENDBRANCH   2   7
ENDBRANCH   1   2
BRANCH   1  10
ATOM     10  C   UNL     1      28.114  14.478 -13.490  1.00  0.00    -0.041 A 
ATOM     11  C   UNL     1      28.587  15.199 -12.383  1.00  0.00     0.008 A 
ATOM     12  C   UNL     1      27.533  13.214 -13.291  1.00  0.00     0.008 A 
ATOM     13  C   UNL     1      28.468  14.671 -11.093  1.00  0.00     0.046 A 
ATOM     14  C   UNL     1      27.415  12.688 -12.001  1.00  0.00     0.046 A 
ATOM     15  C   UNL     1      27.883  13.417 -10.898  1.00  0.00     0.115 A 
BRANCH  15  16
ATOM     16  O   UNL     1      27.771  12.903  -9.609  1.00  0.00    -0.508 OA
ATOM     17  H   UNL     1      27.453  13.477  -8.835  1.00  0.00     0.293 HD
ENDBRANCH  15  16
ENDBRANCH   1  10
TORSDOF 5
ENDMDL
MODEL 2
REMARK VINA RESULT:    -4.087      1.335      2.148
REMARK INTER + INTRA:          -5.251
REMARK INTER:                  -5.028
REMARK INTRA:                  -0.223
REMARK UNBOUND:                -0.209
REMARK SMILES [NH3+][C@H](Cc1ccc(O)cc1)C(=O)[O-]
REMARK SMILES IDX 3 1 2 2 1 3 11 7 12 8 13 9 4 10 5 11 10 12 6 13 9 14 7 15
REMARK SMILES IDX 8 16
REMARK H PARENT 1 4 1 5 1 6 8 17
REMARK Flexibility Score: inf
ROOT
ATOM      1  C   UNL     1      27.129  15.538 -15.794  1.00  0.00     0.107 C 
ENDROOT
BRANCH   1   2
ATOM      2  C   UNL     1      25.832  15.161 -16.541  1.00  0.00     0.232 C 
BRANCH   2   3
ATOM      3  N   UNL     1      24.837  16.234 -16.417  1.00  0.00    -0.350 N 
ATOM      4  H   UNL     1      23.909  15.898 -16.761  1.00  0.00     0.345 HD
ATOM      5  H   UNL     1      24.735  16.508 -15.413  1.00  0.00     0.345 HD
ATOM      6  H   UNL     1      25.127  17.073 -16.972  1.00  0.00     0.345 HD
ENDBRANCH   2   3
BRANCH   2   7
ATOM      7  C   UNL     1      26.108  14.869 -17.993  1.00  0.00     0.099 C 
ATOM      8  O   UNL     1      25.189  14.959 -18.849  1.00  0.00    -0.544 OA
ATOM      9  O   UNL     1      27.390  14.520 -18.398  1.00  0.00    -0.544 OA
ENDBRANCH   2   7
ENDBRANCH   1   2
BRANCH   1  10
ATOM     10  C   UNL     1      27.384  14.627 -14.620  1.00  0.00    -0.041 A 
ATOM     11  C   UNL     1      26.913  13.304 -14.629  1.00  0.00     0.008 A 
ATOM     12  C   UNL     1      28.056  15.109 -13.484  1.00  0.00     0.008 A 
ATOM     13  C   UNL     1      27.125  12.471 -13.526  1.00  0.00     0.046 A 
ATOM     14  C   UNL     1      28.268  14.275 -12.383  1.00  0.00     0.046 A 
ATOM     15  C   UNL     1      27.802  12.953 -12.401  1.00  0.00     0.115 A 
BRANCH  15  16
ATOM     16  O   UNL     1      28.006  12.113 -11.310  1.00  0.00    -0.508 OA
ATOM     17  H   UNL     1      27.365  11.358 -11.094  1.00  0.00     0.293 HD
ENDBRANCH  15  16
ENDBRANCH   1  10
TORSDOF 5
ENDMDL
MODEL 3
REMARK VINA RESULT:    -4.011      2.408      5.466
REMARK INTER + INTRA:          -5.158
REMARK INTER:                  -4.972
REMARK INTRA:                  -0.186
REMARK UNBOUND:                -0.209
REMARK SMILES [NH3+][C@H](Cc1ccc(O)cc1)C(=O)[O-]
REMARK SMILES IDX 3 1 2 2 1 3 11 7 12 8 13 9 4 10 5 11 10 12 6 13 9 14 7 15
REMARK SMILES IDX 8 16
REMARK H PARENT 1 4 1 5 1 6 8 17
REMARK Flexibility Score: inf
ROOT
ATOM      1  C   UNL     1      28.755  14.777 -14.223  1.00  0.00     0.107 C 
ENDROOT
BRANCH   1   2
ATOM      2  C   UNL     1      28.642  13.865 -12.983  1.00  0.00     0.232 C 
BRANCH   2   3
ATOM      3  N   UNL     1      29.536  12.709 -13.112  1.00  0.00    -0.350 N 
ATOM      4  H   UNL     1      30.072  12.574 -12.224  1.00  0.00     0.345 HD
ATOM      5  H   UNL     1      28.974  11.844 -13.288  1.00  0.00     0.345 HD
ATOM      6  H   UNL     1      30.208  12.846 -13.903  1.00  0.00     0.345 HD
ENDBRANCH   2   3
BRANCH   2   7
ATOM      7  C   UNL     1      28.952  14.628 -11.721  1.00  0.00     0.099 C 
ATOM      8  O   UNL     1      28.353  15.706 -11.462  1.00  0.00    -0.544 OA
ATOM      9  O   UNL     1      29.886  14.131 -10.822  1.00  0.00    -0.544 OA
ENDBRANCH   2   7
ENDBRANCH   1   2
BRANCH   1  10
ATOM     10  C   UNL     1      27.508  14.727 -15.070  1.00  0.00    -0.041 A 
ATOM     11  C   UNL     1      26.641  13.626 -14.996  1.00  0.00     0.008 A 
ATOM     12  C   UNL     1      27.227  15.764 -15.976  1.00  0.00     0.008 A 
ATOM     13  C   UNL     1      25.501  13.569 -15.805  1.00  0.00     0.046 A 
ATOM     14  C   UNL     1      26.087  15.706 -16.783  1.00  0.00     0.046 A 
ATOM     15  C   UNL     1      25.221  14.607 -16.699  1.00  0.00     0.115 A 
BRANCH  15  16
ATOM     16  O   UNL     1      24.082  14.537 -17.498  1.00  0.00    -0.508 OA
ATOM     17  H   UNL     1      24.130  14.672 -18.502  1.00  0.00     0.293 HD
ENDBRANCH  15  16
ENDBRANCH   1  10
TORSDOF 5
ENDMDL
MODEL 4
REMARK VINA RESULT:    -4.009     10.996     13.012
REMARK INTER + INTRA:          -5.155
REMARK INTER:                  -4.925
REMARK INTRA:                  -0.230
REMARK UNBOUND:                -0.209
REMARK SMILES [NH3+][C@H](Cc1ccc(O)cc1)C(=O)[O-]
REMARK SMILES IDX 3 1 2 2 1 3 11 7 12 8 13 9 4 10 5 11 10 12 6 13 9 14 7 15
REMARK SMILES IDX 8 16
REMARK H PARENT 1 4 1 5 1 6 8 17
REMARK Flexibility Score: inf
ROOT
ATOM      1  C   UNL     1      32.798  21.025 -22.380  1.00  0.00     0.107 C 
ENDROOT
BRANCH   1   2
ATOM      2  C   UNL     1      31.338  20.804 -21.929  1.00  0.00     0.232 C 
BRANCH   2   3
ATOM      3  N   UNL     1      30.490  20.465 -23.078  1.00  0.00    -0.350 N 
ATOM      4  H   UNL     1      30.917  19.675 -23.613  1.00  0.00     0.345 HD
ATOM      5  H   UNL     1      29.547  20.161 -22.744  1.00  0.00     0.345 HD
ATOM      6  H   UNL     1      30.379  21.290 -23.712  1.00  0.00     0.345 HD
ENDBRANCH   2   3
BRANCH   2   7
ATOM      7  C   UNL     1      31.254  19.725 -20.880  1.00  0.00     0.099 C 
ATOM      8  O   UNL     1      32.033  19.734 -19.890  1.00  0.00    -0.544 OA
ATOM      9  O   UNL     1      30.297  18.725 -20.990  1.00  0.00    -0.544 OA
ENDBRANCH   2   7
ENDBRANCH   1   2
BRANCH   1  10
ATOM     10  C   UNL     1      33.252  22.441 -22.132  1.00  0.00    -0.041 A 
ATOM     11  C   UNL     1      32.901  23.104 -20.945  1.00  0.00     0.008 A 
ATOM     12  C   UNL     1      33.995  23.126 -23.109  1.00  0.00     0.008 A 
ATOM     13  C   UNL     1      33.299  24.428 -20.731  1.00  0.00     0.046 A 
ATOM     14  C   UNL     1      34.392  24.449 -22.893  1.00  0.00     0.046 A 
ATOM     15  C   UNL     1      34.044  25.103 -21.703  1.00  0.00     0.115 A 
BRANCH  15  16
ATOM     16  O   UNL     1      34.434  26.421 -21.476  1.00  0.00    -0.508 OA
ATOM     17  H   UNL     1      34.874  26.702 -20.607  1.00  0.00     0.293 HD
ENDBRANCH  15  16
ENDBRANCH   1  10
TORSDOF 5
ENDMDL
MODEL 5
REMARK VINA RESULT:    -3.968      2.097      2.717
REMARK INTER + INTRA:          -5.105
REMARK INTER:                  -4.909
REMARK INTRA:                  -0.195
REMARK UNBOUND:                -0.209
REMARK SMILES [NH3+][C@H](Cc1ccc(O)cc1)C(=O)[O-]
REMARK SMILES IDX 3 1 2 2 1 3 11 7 12 8 13 9 4 10 5 11 10 12 6 13 9 14 7 15
REMARK SMILES IDX 8 16
REMARK H PARENT 1 4 1 5 1 6 8 17
REMARK Flexibility Score: inf
ROOT
ATOM      1  C   UNL     1      26.476  15.674 -16.608  1.00  0.00     0.107 C 
ENDROOT
BRANCH   1   2
ATOM      2  C   UNL     1      24.986  15.412 -16.914  1.00  0.00     0.232 C 
BRANCH   2   3
ATOM      3  N   UNL     1      24.134  16.326 -16.144  1.00  0.00    -0.350 N 
ATOM      4  H   UNL     1      24.243  16.135 -15.121  1.00  0.00     0.345 HD
ATOM      5  H   UNL     1      24.423  17.315 -16.324  1.00  0.00     0.345 HD
ATOM      6  H   UNL     1      23.129  16.210 -16.411  1.00  0.00     0.345 HD
ENDBRANCH   2   3
BRANCH   2   7
ATOM      7  C   UNL     1      24.704  15.551 -18.388  1.00  0.00     0.099 C 
ATOM      8  O   UNL     1      25.215  14.749 -19.214  1.00  0.00    -0.544 OA
ATOM      9  O   UNL     1      23.857  16.554 -18.840  1.00  0.00    -0.544 OA
ENDBRANCH   2   7
ENDBRANCH   1   2
BRANCH   1  10
ATOM     10  C   UNL     1      26.967  14.833 -15.457  1.00  0.00    -0.041 A 
ATOM     11  C   UNL     1      27.980  15.308 -14.608  1.00  0.00     0.008 A 
ATOM     12  C   UNL     1      26.445  13.545 -15.249  1.00  0.00     0.008 A 
ATOM     13  C   UNL     1      28.453  14.513 -13.559  1.00  0.00     0.046 A 
ATOM     14  C   UNL     1      26.919  12.752 -14.200  1.00  0.00     0.046 A 
ATOM     15  C   UNL     1      27.925  13.235 -13.352  1.00  0.00     0.115 A 
BRANCH  15  16
ATOM     16  O   UNL     1      28.405  12.455 -12.304  1.00  0.00    -0.508 OA
ATOM     17  H   UNL     1      28.886  11.578 -12.473  1.00  0.00     0.293 HD
ENDBRANCH  15  16
ENDBRANCH   1  10
TORSDOF 5
ENDMDL
MODEL 6
REMARK VINA RESULT:    -3.953      1.876      2.100
REMARK INTER + INTRA:          -5.086
REMARK INTER:                  -4.863
REMARK INTRA:                  -0.224
REMARK UNBOUND:                -0.209
REMARK SMILES [NH3+][C@H](Cc1ccc(O)cc1)C(=O)[O-]
REMARK SMILES IDX 3 1 2 2 1 3 11 7 12 8 13 9 4 10 5 11 10 12 6 13 9 14 7 15
REMARK SMILES IDX 8 16
REMARK H PARENT 1 4 1 5 1 6 8 17
REMARK Flexibility Score: inf
ROOT
ATOM      1  C   UNL     1      26.441  13.683 -15.629  1.00  0.00     0.107 C 
ENDROOT
BRANCH   1   2
ATOM      2  C   UNL     1      26.486  14.933 -16.535  1.00  0.00     0.232 C 
BRANCH   2   3
ATOM      3  N   UNL     1      27.267  14.662 -17.748  1.00  0.00    -0.350 N 
ATOM      4  H   UNL     1      26.777  13.947 -18.333  1.00  0.00     0.345 HD
ATOM      5  H   UNL     1      27.361  15.538 -18.312  1.00  0.00     0.345 HD
ATOM      6  H   UNL     1      28.222  14.310 -17.502  1.00  0.00     0.345 HD
ENDBRANCH   2   3
BRANCH   2   7
ATOM      7  C   UNL     1      25.096  15.387 -16.899  1.00  0.00     0.099 C 
ATOM      8  O   UNL     1      24.174  15.373 -16.041  1.00  0.00    -0.544 OA
ATOM      9  O   UNL     1      24.831  15.847 -18.182  1.00  0.00    -0.544 OA
ENDBRANCH   2   7
ENDBRANCH   1   2
BRANCH   1  10
ATOM     10  C   UNL     1      27.197  13.897 -14.343  1.00  0.00    -0.041 A 
ATOM     11  C   UNL     1      27.851  15.114 -14.095  1.00  0.00     0.008 A 
ATOM     12  C   UNL     1      27.290  12.861 -13.397  1.00  0.00     0.008 A 
ATOM     13  C   UNL     1      28.576  15.299 -12.913  1.00  0.00     0.046 A 
ATOM     14  C   UNL     1      28.015  13.048 -12.217  1.00  0.00     0.046 A 
ATOM     15  C   UNL     1      28.660  14.268 -11.972  1.00  0.00     0.115 A 
BRANCH  15  16
ATOM     16  O   UNL     1      29.384  14.465 -10.799  1.00  0.00    -0.508 OA
ATOM     17  H   UNL     1      29.029  15.046 -10.047  1.00  0.00     0.293 HD
ENDBRANCH  15  16
ENDBRANCH   1  10
TORSDOF 5
ENDMDL
MODEL 7
REMARK VINA RESULT:    -3.886     16.352     17.200
REMARK INTER + INTRA:          -5.004
REMARK INTER:                  -4.824
REMARK INTRA:                  -0.180
REMARK UNBOUND:                -0.209
REMARK SMILES [NH3+][C@H](Cc1ccc(O)cc1)C(=O)[O-]
REMARK SMILES IDX 3 1 2 2 1 3 11 7 12 8 13 9 4 10 5 11 10 12 6 13 9 14 7 15
REMARK SMILES IDX 8 16
REMARK H PARENT 1 4 1 5 1 6 8 17
REMARK Flexibility Score: inf
ROOT
ATOM      1  C   UNL     1      36.368  29.426 -17.301  1.00  0.00     0.107 C 
ENDROOT
BRANCH   1   2
ATOM      2  C   UNL     1      35.442  30.596 -17.699  1.00  0.00     0.232 C 
BRANCH   2   3
ATOM      3  N   UNL     1      36.233  31.763 -18.105  1.00  0.00    -0.350 N 
ATOM      4  H   UNL     1      35.867  32.622 -17.634  1.00  0.00     0.345 HD
ATOM      5  H   UNL     1      37.231  31.633 -17.817  1.00  0.00     0.345 HD
ATOM      6  H   UNL     1      36.192  31.896 -19.143  1.00  0.00     0.345 HD
ENDBRANCH   2   3
BRANCH   2   7
ATOM      7  C   UNL     1      34.503  30.190 -18.805  1.00  0.00     0.099 C 
ATOM      8  O   UNL     1      33.522  30.919 -19.111  1.00  0.00    -0.544 OA
ATOM      9  O   UNL     1      34.729  29.015 -19.511  1.00  0.00    -0.544 OA
ENDBRANCH   2   7
ENDBRANCH   1   2
BRANCH   1  10
ATOM     10  C   UNL     1      36.106  28.960 -15.891  1.00  0.00    -0.041 A 
ATOM     11  C   UNL     1      37.152  28.460 -15.100  1.00  0.00     0.008 A 
ATOM     12  C   UNL     1      34.800  28.980 -15.372  1.00  0.00     0.008 A 
ATOM     13  C   UNL     1      36.900  28.001 -13.803  1.00  0.00     0.046 A 
ATOM     14  C   UNL     1      34.550  28.521 -14.076  1.00  0.00     0.046 A 
ATOM     15  C   UNL     1      35.600  28.030 -13.288  1.00  0.00     0.115 A 
BRANCH  15  16
ATOM     16  O   UNL     1      35.363  27.570 -11.995  1.00  0.00    -0.508 OA
ATOM     17  H   UNL     1      36.072  27.065 -11.474  1.00  0.00     0.293 HD
ENDBRANCH  15  16
ENDBRANCH   1  10
TORSDOF 5
ENDMDL
MODEL 8
REMARK VINA RESULT:    -3.872     16.331     17.720
REMARK INTER + INTRA:          -4.986
REMARK INTER:                  -4.764
REMARK INTRA:                  -0.223
REMARK UNBOUND:                -0.209
REMARK SMILES [NH3+][C@H](Cc1ccc(O)cc1)C(=O)[O-]
REMARK SMILES IDX 3 1 2 2 1 3 11 7 12 8 13 9 4 10 5 11 10 12 6 13 9 14 7 15
REMARK SMILES IDX 8 16
REMARK H PARENT 1 4 1 5 1 6 8 17
REMARK Flexibility Score: inf
ROOT
ATOM      1  C   UNL     1      35.184  27.898 -13.850  1.00  0.00     0.107 C 
ENDROOT
BRANCH   1   2
ATOM      2  C   UNL     1      36.200  27.919 -12.688  1.00  0.00     0.232 C 
BRANCH   2   3
ATOM      3  N   UNL     1      35.508  27.827 -11.397  1.00  0.00    -0.350 N 
ATOM      4  H   UNL     1      36.148  28.134 -10.629  1.00  0.00     0.345 HD
ATOM      5  H   UNL     1      34.672  28.456 -11.397  1.00  0.00     0.345 HD
ATOM      6  H   UNL     1      35.195  26.844 -11.214  1.00  0.00     0.345 HD
ENDBRANCH   2   3
BRANCH   2   7
ATOM      7  C   UNL     1      37.202  26.801 -12.825  1.00  0.00     0.099 C 
ATOM      8  O   UNL     1      37.862  26.662 -13.889  1.00  0.00    -0.544 OA
ATOM      9  O   UNL     1      37.419  25.931 -11.765  1.00  0.00    -0.544 OA
ENDBRANCH   2   7
ENDBRANCH   1   2
BRANCH   1  10
ATOM     10  C   UNL     1      35.474  28.974 -14.866  1.00  0.00    -0.041 A 
ATOM     11  C   UNL     1      36.123  30.159 -14.483  1.00  0.00     0.008 A 
ATOM     12  C   UNL     1      35.055  28.819 -16.198  1.00  0.00     0.008 A 
ATOM     13  C   UNL     1      36.364  31.167 -15.423  1.00  0.00     0.046 A 
ATOM     14  C   UNL     1      35.296  29.827 -17.135  1.00  0.00     0.046 A 
ATOM     15  C   UNL     1      35.952  31.005 -16.749  1.00  0.00     0.115 A 
BRANCH  15  16
ATOM     16  O   UNL     1      36.198  32.016 -17.674  1.00  0.00    -0.508 OA
ATOM     17  H   UNL     1      36.909  31.918 -18.390  1.00  0.00     0.293 HD
ENDBRANCH  15  16
ENDBRANCH   1  10
TORSDOF 5
ENDMDL
MODEL 9
REMARK VINA RESULT:    -3.813     16.120     16.828
REMARK INTER + INTRA:          -4.914
REMARK INTER:                  -4.719
REMARK INTRA:                  -0.195
REMARK UNBOUND:                -0.209
REMARK SMILES [NH3+][C@H](Cc1ccc(O)cc1)C(=O)[O-]
REMARK SMILES IDX 3 1 2 2 1 3 11 7 12 8 13 9 4 10 5 11 10 12 6 13 9 14 7 15
REMARK SMILES IDX 8 16
REMARK H PARENT 1 4 1 5 1 6 8 17
REMARK Flexibility Score: inf
ROOT
ATOM      1  C   UNL     1      36.231  29.683 -17.487  1.00  0.00     0.107 C 
ENDROOT
BRANCH   1   2
ATOM      2  C   UNL     1      35.068  29.338 -18.443  1.00  0.00     0.232 C 
BRANCH   2   3
ATOM      3  N   UNL     1      34.553  30.554 -19.085  1.00  0.00    -0.350 N 
ATOM      4  H   UNL     1      33.508  30.561 -19.043  1.00  0.00     0.345 HD
ATOM      5  H   UNL     1      34.905  31.399 -18.579  1.00  0.00     0.345 HD
ATOM      6  H   UNL     1      34.858  30.602 -20.085  1.00  0.00     0.345 HD
ENDBRANCH   2   3
BRANCH   2   7
ATOM      7  C   UNL     1      35.502  28.340 -19.485  1.00  0.00     0.099 C 
ATOM      8  O   UNL     1      36.647  28.417 -20.006  1.00  0.00    -0.544 OA
ATOM      9  O   UNL     1      34.646  27.313 -19.860  1.00  0.00    -0.544 OA
ENDBRANCH   2   7
ENDBRANCH   1   2
BRANCH   1  10
ATOM     10  C   UNL     1      36.000  29.130 -16.104  1.00  0.00    -0.041 A 
ATOM     11  C   UNL     1      34.726  29.186 -15.517  1.00  0.00     0.008 A 
ATOM     12  C   UNL     1      37.072  28.592 -15.371  1.00  0.00     0.008 A 
ATOM     13  C   UNL     1      34.523  28.698 -14.222  1.00  0.00     0.046 A 
ATOM     14  C   UNL     1      36.867  28.105 -14.077  1.00  0.00     0.046 A 
ATOM     15  C   UNL     1      35.590  28.157 -13.499  1.00  0.00     0.115 A 
BRANCH  15  16
ATOM     16  O   UNL     1      35.374  27.675 -12.211  1.00  0.00    -0.508 OA
ATOM     17  H   UNL     1      35.920  26.909 -11.832  1.00  0.00     0.293 HD
ENDBRANCH  15  16
ENDBRANCH   1  10
TORSDOF 5
ENDMDL
