MODEL 1
REMARK VINA RESULT:    -4.403      0.000      0.000
REMARK INTER + INTRA:          -5.143
REMARK INTER:                  -5.046
REMARK INTRA:                  -0.097
REMARK UNBOUND:                -0.097
REMARK SMILES COc1cc(C(=O)[O-])ccc1O
REMARK SMILES IDX 5 1 9 2 4 3 10 4 3 5 11 6 6 7 7 8 8 9 2 10 1 11 12 12
REMARK H PARENT 12 13
REMARK Flexibility Score: inf
ROOT
ATOM      1  C   UNL     1     -13.908   2.085  34.869  1.00  0.00     0.001 A 
ATOM      2  C   UNL     1     -14.385   2.598  36.087  1.00  0.00     0.014 A 
ATOM      3  C   UNL     1     -12.620   2.445  34.434  1.00  0.00     0.060 A 
ATOM      4  C   UNL     1     -13.590   3.451  36.854  1.00  0.00     0.051 A 
ATOM      5  C   UNL     1     -11.812   3.307  35.205  1.00  0.00     0.161 A 
ATOM      6  C   UNL     1     -12.310   3.808  36.421  1.00  0.00     0.157 A 
ENDROOT
BRANCH   1   7
ATOM      7  C   UNL     1     -14.748   1.181  34.053  1.00  0.00     0.072 C 
ATOM      8  O   UNL     1     -15.495   0.329  34.604  1.00  0.00    -0.545 OA
ATOM      9  O   UNL     1     -14.725   1.257  32.665  1.00  0.00    -0.545 OA
ENDBRANCH   1   7
BRANCH   5  10
ATOM     10  O   UNL     1     -10.522   3.682  34.796  1.00  0.00    -0.493 OA
ATOM     11  C   UNL     1     -10.234   4.777  33.932  1.00  0.00     0.278 C 
ENDBRANCH   5  10
BRANCH   6  12
ATOM     12  O   UNL     1     -11.545   4.662  37.215  1.00  0.00    -0.504 OA
ATOM     13  H   UNL     1     -10.612   4.421  37.526  1.00  0.00     0.293 HD
ENDBRANCH   6  12
TORSDOF 3
ENDMDL
MODEL 2
REMARK VINA RESULT:    -4.372      7.013      8.200
REMARK INTER + INTRA:          -5.108
REMARK INTER:                  -5.012
REMARK INTRA:                  -0.095
REMARK UNBOUND:                -0.097
REMARK SMILES COc1cc(C(=O)[O-])ccc1O
REMARK SMILES IDX 5 1 9 2 4 3 10 4 3 5 11 6 6 7 7 8 8 9 2 10 1 11 12 12
REMARK H PARENT 12 13
REMARK Flexibility Score: inf
ROOT
ATOM      1  C   UNL     1      -6.562   5.538  33.386  1.00  0.00     0.001 A 
ATOM      2  C   UNL     1      -7.827   5.150  32.912  1.00  0.00     0.014 A 
ATOM      3  C   UNL     1      -6.175   6.886  33.277  1.00  0.00     0.060 A 
ATOM      4  C   UNL     1      -8.687   6.091  32.343  1.00  0.00     0.051 A 
ATOM      5  C   UNL     1      -7.040   7.840  32.702  1.00  0.00     0.161 A 
ATOM      6  C   UNL     1      -8.302   7.430  32.235  1.00  0.00     0.157 A 
ENDROOT
BRANCH   1   7
ATOM      7  C   UNL     1      -5.648   4.543  33.989  1.00  0.00     0.072 C 
ATOM      8  O   UNL     1      -5.362   3.480  33.377  1.00  0.00    -0.545 OA
ATOM      9  O   UNL     1      -5.091   4.767  35.243  1.00  0.00    -0.545 OA
ENDBRANCH   1   7
BRANCH   5  10
ATOM     10  O   UNL     1      -6.681   9.192  32.582  1.00  0.00    -0.493 OA
ATOM     11  C   UNL     1      -5.943   9.739  31.493  1.00  0.00     0.278 C 
ENDBRANCH   5  10
BRANCH   6  12
ATOM     12  O   UNL     1      -9.188   8.341  31.661  1.00  0.00    -0.504 OA
ATOM     13  H   UNL     1      -9.041   8.732  30.739  1.00  0.00     0.293 HD
ENDBRANCH   6  12
TORSDOF 3
ENDMDL
MODEL 3
REMARK VINA RESULT:    -4.338      6.991      8.467
REMARK INTER + INTRA:          -5.069
REMARK INTER:                  -4.969
REMARK INTRA:                  -0.099
REMARK UNBOUND:                -0.097
REMARK SMILES COc1cc(C(=O)[O-])ccc1O
REMARK SMILES IDX 5 1 9 2 4 3 10 4 3 5 11 6 6 7 7 8 8 9 2 10 1 11 12 12
REMARK H PARENT 12 13
REMARK Flexibility Score: inf
ROOT
ATOM      1  C   UNL     1      -7.296   7.479  32.325  1.00  0.00     0.001 A 
ATOM      2  C   UNL     1      -8.056   6.315  32.124  1.00  0.00     0.014 A 
ATOM      3  C   UNL     1      -6.135   7.409  33.116  1.00  0.00     0.060 A 
ATOM      4  C   UNL     1      -7.663   5.106  32.700  1.00  0.00     0.051 A 
ATOM      5  C   UNL     1      -5.733   6.190  33.701  1.00  0.00     0.161 A 
ATOM      6  C   UNL     1      -6.509   5.037  33.485  1.00  0.00     0.157 A 
ENDROOT
BRANCH   1   7
ATOM      7  C   UNL     1      -7.710   8.763  31.716  1.00  0.00     0.072 C 
ATOM      8  O   UNL     1      -8.904   9.157  31.800  1.00  0.00    -0.545 OA
ATOM      9  O   UNL     1      -6.787   9.553  31.041  1.00  0.00    -0.545 OA
ENDBRANCH   1   7
BRANCH   5  10
ATOM     10  O   UNL     1      -4.579   6.090  34.494  1.00  0.00    -0.493 OA
ATOM     11  C   UNL     1      -4.516   6.426  35.877  1.00  0.00     0.278 C 
ENDBRANCH   5  10
BRANCH   6  12
ATOM     12  O   UNL     1      -6.148   3.811  34.044  1.00  0.00    -0.504 OA
ATOM     13  H   UNL     1      -6.294   3.599  35.023  1.00  0.00     0.293 HD
ENDBRANCH   6  12
TORSDOF 3
ENDMDL
MODEL 4
REMARK VINA RESULT:    -4.317      6.188      8.534
REMARK INTER + INTRA:          -5.044
REMARK INTER:                  -4.942
REMARK INTRA:                  -0.102
REMARK UNBOUND:                -0.097
REMARK SMILES COc1cc(C(=O)[O-])ccc1O
REMARK SMILES IDX 5 1 9 2 4 3 10 4 3 5 11 6 6 7 7 8 8 9 2 10 1 11 12 12
REMARK H PARENT 12 13
REMARK Flexibility Score: inf
ROOT
ATOM      1  C   UNL     1      -7.699   6.916  32.536  1.00  0.00     0.001 A 
ATOM      2  C   UNL     1      -8.681   7.813  32.082  1.00  0.00     0.014 A 
ATOM      3  C   UNL     1      -6.381   7.376  32.709  1.00  0.00     0.060 A 
ATOM      4  C   UNL     1      -8.352   9.141  31.808  1.00  0.00     0.051 A 
ATOM      5  C   UNL     1      -6.043   8.717  32.434  1.00  0.00     0.161 A 
ATOM      6  C   UNL     1      -7.042   9.597  31.980  1.00  0.00     0.157 A 
ENDROOT
BRANCH   1   7
ATOM      7  C   UNL     1      -8.045   5.507  32.827  1.00  0.00     0.072 C 
ATOM      8  O   UNL     1      -7.154   4.616  32.831  1.00  0.00    -0.545 OA
ATOM      9  O   UNL     1      -9.359   5.145  33.100  1.00  0.00    -0.545 OA
ENDBRANCH   1   7
BRANCH   5  10
ATOM     10  O   UNL     1      -4.736   9.204  32.598  1.00  0.00    -0.493 OA
ATOM     11  C   UNL     1      -3.686   9.039  31.650  1.00  0.00     0.278 C 
ENDBRANCH   5  10
BRANCH   6  12
ATOM     12  O   UNL     1      -6.751  10.932  31.697  1.00  0.00    -0.504 OA
ATOM     13  H   UNL     1      -6.923  11.676  32.361  1.00  0.00     0.293 HD
ENDBRANCH   6  12
TORSDOF 3
ENDMDL
MODEL 5
REMARK VINA RESULT:    -4.222      6.047      8.679
REMARK INTER + INTRA:          -4.935
REMARK INTER:                  -4.834
REMARK INTRA:                  -0.101
REMARK UNBOUND:                -0.097
REMARK SMILES COc1cc(C(=O)[O-])ccc1O
REMARK SMILES IDX 5 1 9 2 4 3 10 4 3 5 11 6 6 7 7 8 8 9 2 10 1 11 12 12
REMARK H PARENT 12 13
REMARK Flexibility Score: inf
ROOT
ATOM      1  C   UNL     1      -6.741   7.802  32.371  1.00  0.00     0.001 A 
ATOM      2  C   UNL     1      -8.082   7.619  31.995  1.00  0.00     0.014 A 
ATOM      3  C   UNL     1      -6.097   6.800  33.119  1.00  0.00     0.060 A 
ATOM      4  C   UNL     1      -8.765   6.457  32.358  1.00  0.00     0.051 A 
ATOM      5  C   UNL     1      -6.783   5.624  33.489  1.00  0.00     0.161 A 
ATOM      6  C   UNL     1      -8.125   5.461  33.101  1.00  0.00     0.157 A 
ENDROOT
BRANCH   1   7
ATOM      7  C   UNL     1      -6.014   9.033  31.989  1.00  0.00     0.072 C 
ATOM      8  O   UNL     1      -5.025   9.430  32.661  1.00  0.00    -0.545 OA
ATOM      9  O   UNL     1      -6.413   9.772  30.880  1.00  0.00    -0.545 OA
ENDBRANCH   1   7
BRANCH   5  10
ATOM     10  O   UNL     1      -6.166   4.607  34.235  1.00  0.00    -0.493 OA
ATOM     11  C   UNL     1      -5.225   3.676  33.710  1.00  0.00     0.278 C 
ENDBRANCH   5  10
BRANCH   6  12
ATOM     12  O   UNL     1      -8.839   4.314  33.445  1.00  0.00    -0.504 OA
ATOM     13  H   UNL     1      -9.199   4.160  34.378  1.00  0.00     0.293 HD
ENDBRANCH   6  12
TORSDOF 3
ENDMDL
MODEL 6
REMARK VINA RESULT:    -4.168      7.738      8.854
REMARK INTER + INTRA:          -4.874
REMARK INTER:                  -4.772
REMARK INTRA:                  -0.102
REMARK UNBOUND:                -0.097
REMARK SMILES COc1cc(C(=O)[O-])ccc1O
REMARK SMILES IDX 5 1 9 2 4 3 10 4 3 5 11 6 6 7 7 8 8 9 2 10 1 11 12 12
REMARK H PARENT 12 13
REMARK Flexibility Score: inf
ROOT
ATOM      1  C   UNL     1      -6.421   6.791  33.503  1.00  0.00     0.001 A 
ATOM      2  C   UNL     1      -7.340   6.710  32.443  1.00  0.00     0.014 A 
ATOM      3  C   UNL     1      -6.161   8.043  34.088  1.00  0.00     0.060 A 
ATOM      4  C   UNL     1      -7.988   7.856  31.981  1.00  0.00     0.051 A 
ATOM      5  C   UNL     1      -6.813   9.205  33.624  1.00  0.00     0.161 A 
ATOM      6  C   UNL     1      -7.730   9.100  32.562  1.00  0.00     0.157 A 
ENDROOT
BRANCH   1   7
ATOM      7  C   UNL     1      -5.732   5.578  33.996  1.00  0.00     0.072 C 
ATOM      8  O   UNL     1      -4.853   5.659  34.894  1.00  0.00    -0.545 OA
ATOM      9  O   UNL     1      -6.045   4.328  33.473  1.00  0.00    -0.545 OA
ENDBRANCH   1   7
BRANCH   5  10
ATOM     10  O   UNL     1      -6.574  10.468  34.189  1.00  0.00    -0.493 OA
ATOM     11  C   UNL     1      -7.034  10.880  35.473  1.00  0.00     0.278 C 
ENDBRANCH   5  10
BRANCH   6  12
ATOM     12  O   UNL     1      -8.396  10.224  32.073  1.00  0.00    -0.504 OA
ATOM     13  H   UNL     1      -8.157  10.652  31.188  1.00  0.00     0.293 HD
ENDBRANCH   6  12
TORSDOF 3
ENDMDL
MODEL 7
REMARK VINA RESULT:    -4.105      6.671      9.893
REMARK INTER + INTRA:          -4.802
REMARK INTER:                  -4.725
REMARK INTRA:                  -0.076
REMARK UNBOUND:                -0.097
REMARK SMILES COc1cc(C(=O)[O-])ccc1O
REMARK SMILES IDX 5 1 9 2 4 3 10 4 3 5 11 6 6 7 7 8 8 9 2 10 1 11 12 12
REMARK H PARENT 12 13
REMARK Flexibility Score: inf
ROOT
ATOM      1  C   UNL     1      -5.507   8.660  32.813  1.00  0.00     0.001 A 
ATOM      2  C   UNL     1      -6.149   9.867  32.489  1.00  0.00     0.014 A 
ATOM      3  C   UNL     1      -6.233   7.458  32.741  1.00  0.00     0.060 A 
ATOM      4  C   UNL     1      -7.490   9.871  32.099  1.00  0.00     0.051 A 
ATOM      5  C   UNL     1      -7.588   7.457  32.348  1.00  0.00     0.161 A 
ATOM      6  C   UNL     1      -8.211   8.676  32.027  1.00  0.00     0.157 A 
ENDROOT
BRANCH   1   7
ATOM      7  C   UNL     1      -4.086   8.652  33.226  1.00  0.00     0.072 C 
ATOM      8  O   UNL     1      -3.287   7.797  32.760  1.00  0.00    -0.545 OA
ATOM      9  O   UNL     1      -3.612   9.588  34.138  1.00  0.00    -0.545 OA
ENDBRANCH   1   7
BRANCH   5  10
ATOM     10  O   UNL     1      -8.338   6.272  32.266  1.00  0.00    -0.493 OA
ATOM     11  C   UNL     1      -7.897   5.002  32.736  1.00  0.00     0.278 C 
ENDBRANCH   5  10
BRANCH   6  12
ATOM     12  O   UNL     1      -9.548   8.720  31.634  1.00  0.00    -0.504 OA
ATOM     13  H   UNL     1      -9.825   8.891  30.675  1.00  0.00     0.293 HD
ENDBRANCH   6  12
TORSDOF 3
ENDMDL
MODEL 8
REMARK VINA RESULT:    -4.075      5.284      8.857
REMARK INTER + INTRA:          -4.767
REMARK INTER:                  -4.672
REMARK INTRA:                  -0.095
REMARK UNBOUND:                -0.097
REMARK SMILES COc1cc(C(=O)[O-])ccc1O
REMARK SMILES IDX 5 1 9 2 4 3 10 4 3 5 11 6 6 7 7 8 8 9 2 10 1 11 12 12
REMARK H PARENT 12 13
REMARK Flexibility Score: inf
ROOT
ATOM      1  C   UNL     1      -6.568   8.074  32.376  1.00  0.00     0.001 A 
ATOM      2  C   UNL     1      -5.409   7.765  33.109  1.00  0.00     0.014 A 
ATOM      3  C   UNL     1      -7.592   7.115  32.281  1.00  0.00     0.060 A 
ATOM      4  C   UNL     1      -5.279   6.524  33.735  1.00  0.00     0.051 A 
ATOM      5  C   UNL     1      -7.466   5.860  32.912  1.00  0.00     0.161 A 
ATOM      6  C   UNL     1      -6.298   5.572  33.641  1.00  0.00     0.157 A 
ENDROOT
BRANCH   1   7
ATOM      7  C   UNL     1      -6.708   9.388  31.711  1.00  0.00     0.072 C 
ATOM      8  O   UNL     1      -6.305   9.555  30.529  1.00  0.00    -0.545 OA
ATOM      9  O   UNL     1      -7.287  10.459  32.382  1.00  0.00    -0.545 OA
ENDBRANCH   1   7
BRANCH   5  10
ATOM     10  O   UNL     1      -8.473   4.884  32.835  1.00  0.00    -0.493 OA
ATOM     11  C   UNL     1      -9.704   4.933  33.550  1.00  0.00     0.278 C 
ENDBRANCH   5  10
BRANCH   6  12
ATOM     12  O   UNL     1      -6.133   4.343  34.280  1.00  0.00    -0.504 OA
ATOM     13  H   UNL     1      -6.655   4.091  35.109  1.00  0.00     0.293 HD
ENDBRANCH   6  12
TORSDOF 3
ENDMDL
MODEL 9
REMARK VINA RESULT:    -4.038      7.437      9.371
REMARK INTER + INTRA:          -4.725
REMARK INTER:                  -4.627
REMARK INTRA:                  -0.098
REMARK UNBOUND:                -0.097
REMARK SMILES COc1cc(C(=O)[O-])ccc1O
REMARK SMILES IDX 5 1 9 2 4 3 10 4 3 5 11 6 6 7 7 8 8 9 2 10 1 11 12 12
REMARK H PARENT 12 13
REMARK Flexibility Score: inf
ROOT
ATOM      1  C   UNL     1      -6.927   9.116  33.160  1.00  0.00     0.001 A 
ATOM      2  C   UNL     1      -7.881   8.624  32.253  1.00  0.00     0.014 A 
ATOM      3  C   UNL     1      -6.095   8.207  33.837  1.00  0.00     0.060 A 
ATOM      4  C   UNL     1      -7.999   7.251  32.028  1.00  0.00     0.051 A 
ATOM      5  C   UNL     1      -6.210   6.819  33.613  1.00  0.00     0.161 A 
ATOM      6  C   UNL     1      -7.172   6.348  32.701  1.00  0.00     0.157 A 
ENDROOT
BRANCH   1   7
ATOM      7  C   UNL     1      -6.800  10.570  33.402  1.00  0.00     0.072 C 
ATOM      8  O   UNL     1      -6.877  11.035  34.570  1.00  0.00    -0.545 OA
ATOM      9  O   UNL     1      -6.595  11.446  32.341  1.00  0.00    -0.545 OA
ENDBRANCH   1   7
BRANCH   5  10
ATOM     10  O   UNL     1      -5.392   5.889  34.275  1.00  0.00    -0.493 OA
ATOM     11  C   UNL     1      -4.076   5.533  33.864  1.00  0.00     0.278 C 
ENDBRANCH   5  10
BRANCH   6  12
ATOM     12  O   UNL     1      -7.318   4.984  32.450  1.00  0.00    -0.504 OA
ATOM     13  H   UNL     1      -7.463   4.310  33.191  1.00  0.00     0.293 HD
ENDBRANCH   6  12
TORSDOF 3
ENDMDL
