MODEL 1
REMARK VINA RESULT:    -4.389      0.000      0.000
REMARK INTER + INTRA:          -4.987
REMARK INTER:                  -4.773
REMARK INTRA:                  -0.213
REMARK UNBOUND:                -0.213
REMARK SMILES CC(C)(C)[C@@H]1C=C[C@H](O)CC1
REMARK SMILES IDX 5 1 11 2 10 3 8 4 7 5 6 6 2 7 1 8 3 9 4 10 9 11
REMARK H PARENT 9 12
REMARK Flexibility Score: inf
ROOT
ATOM      1  C   UNL     1     133.778 133.714 137.481  1.00  0.00     0.017 C 
ATOM      2  C   UNL     1     134.395 132.460 136.805  1.00  0.00     0.011 C 
ATOM      3  C   UNL     1     133.345 131.699 135.993  1.00  0.00     0.037 C 
ATOM      4  C   UNL     1     132.215 131.206 136.903  1.00  0.00     0.137 C 
ATOM      5  C   UNL     1     131.693 132.315 137.783  1.00  0.00     0.000 C 
ATOM      6  C   UNL     1     132.420 133.399 138.104  1.00  0.00    -0.025 C 
ENDROOT
BRANCH   1   7
ATOM      7  C   UNL     1     134.758 134.427 138.494  1.00  0.00    -0.032 C 
ATOM      8  C   UNL     1     134.675 133.747 139.882  1.00  0.00     0.011 C 
ATOM      9  C   UNL     1     134.358 135.910 138.688  1.00  0.00     0.011 C 
ATOM     10  C   UNL     1     136.224 134.373 138.007  1.00  0.00     0.011 C 
ENDBRANCH   1   7
BRANCH   4  11
ATOM     11  O   UNL     1     132.682 130.151 137.702  1.00  0.00    -0.389 OA
ATOM     12  H   UNL     1     132.407 129.307 137.254  1.00  0.00     0.211 HD
ENDBRANCH   4  11
TORSDOF 2
ENDMDL
MODEL 2
REMARK VINA RESULT:    -4.222      0.212      1.328
REMARK INTER + INTRA:          -4.805
REMARK INTER:                  -4.591
REMARK INTRA:                  -0.214
REMARK UNBOUND:                -0.213
REMARK SMILES CC(C)(C)[C@@H]1C=C[C@H](O)CC1
REMARK SMILES IDX 5 1 11 2 10 3 8 4 7 5 6 6 2 7 1 8 3 9 4 10 9 11
REMARK H PARENT 9 12
REMARK Flexibility Score: inf
ROOT
ATOM      1  C   UNL     1     133.611 133.674 137.546  1.00  0.00     0.017 C 
ATOM      2  C   UNL     1     134.195 132.501 136.714  1.00  0.00     0.011 C 
ATOM      3  C   UNL     1     133.084 131.712 136.017  1.00  0.00     0.037 C 
ATOM      4  C   UNL     1     132.132 131.098 137.049  1.00  0.00     0.137 C 
ATOM      5  C   UNL     1     131.680 132.123 138.059  1.00  0.00     0.000 C 
ATOM      6  C   UNL     1     132.380 133.236 138.337  1.00  0.00    -0.025 C 
ENDROOT
BRANCH   1   7
ATOM      7  C   UNL     1     134.683 134.400 138.449  1.00  0.00    -0.032 C 
ATOM      8  C   UNL     1     136.089 134.273 137.811  1.00  0.00     0.011 C 
ATOM      9  C   UNL     1     134.756 133.742 139.848  1.00  0.00     0.011 C 
ATOM     10  C   UNL     1     134.360 135.902 138.628  1.00  0.00     0.011 C 
ENDBRANCH   1   7
BRANCH   4  11
ATOM     11  O   UNL     1     132.775 130.038 137.708  1.00  0.00    -0.389 OA
ATOM     12  H   UNL     1     132.168 129.744 138.439  1.00  0.00     0.211 HD
ENDBRANCH   4  11
TORSDOF 2
ENDMDL
MODEL 3
REMARK VINA RESULT:    -3.725      1.949      4.264
REMARK INTER + INTRA:          -4.265
REMARK INTER:                  -4.044
REMARK INTRA:                  -0.221
REMARK UNBOUND:                -0.213
REMARK SMILES CC(C)(C)[C@@H]1C=C[C@H](O)CC1
REMARK SMILES IDX 5 1 11 2 10 3 8 4 7 5 6 6 2 7 1 8 3 9 4 10 9 11
REMARK H PARENT 9 12
REMARK Flexibility Score: inf
ROOT
ATOM      1  C   UNL     1     133.516 133.360 137.388  1.00  0.00     0.017 C 
ATOM      2  C   UNL     1     133.104 133.688 138.848  1.00  0.00     0.011 C 
ATOM      3  C   UNL     1     133.763 134.982 139.329  1.00  0.00     0.037 C 
ATOM      4  C   UNL     1     135.289 134.847 139.315  1.00  0.00     0.137 C 
ATOM      5  C   UNL     1     135.781 134.306 137.995  1.00  0.00     0.000 C 
ATOM      6  C   UNL     1     135.011 133.576 137.169  1.00  0.00    -0.025 C 
ENDROOT
BRANCH   1   7
ATOM      7  C   UNL     1     133.033 131.937 136.903  1.00  0.00    -0.032 C 
ATOM      8  C   UNL     1     131.487 131.905 136.804  1.00  0.00     0.011 C 
ATOM      9  C   UNL     1     133.447 130.844 137.919  1.00  0.00     0.011 C 
ATOM     10  C   UNL     1     133.621 131.571 135.521  1.00  0.00     0.011 C 
ENDBRANCH   1   7
BRANCH   4  11
ATOM     11  O   UNL     1     135.695 133.994 140.353  1.00  0.00    -0.389 OA
ATOM     12  H   UNL     1     136.466 133.469 140.010  1.00  0.00     0.211 HD
ENDBRANCH   4  11
TORSDOF 2
ENDMDL
MODEL 4
REMARK VINA RESULT:    -3.155      1.266      2.296
REMARK INTER + INTRA:          -3.644
REMARK INTER:                  -3.426
REMARK INTRA:                  -0.219
REMARK UNBOUND:                -0.213
REMARK SMILES CC(C)(C)[C@@H]1C=C[C@H](O)CC1
REMARK SMILES IDX 5 1 11 2 10 3 8 4 7 5 6 6 2 7 1 8 3 9 4 10 9 11
REMARK H PARENT 9 12
REMARK Flexibility Score: inf
ROOT
ATOM      1  C   UNL     1     133.670 132.826 138.234  1.00  0.00     0.017 C 
ATOM      2  C   UNL     1     132.181 132.503 138.532  1.00  0.00     0.011 C 
ATOM      3  C   UNL     1     131.824 131.085 138.081  1.00  0.00     0.037 C 
ATOM      4  C   UNL     1     132.020 130.935 136.569  1.00  0.00     0.137 C 
ATOM      5  C   UNL     1     133.372 131.445 136.136  1.00  0.00     0.000 C 
ATOM      6  C   UNL     1     134.075 132.347 136.841  1.00  0.00    -0.025 C 
ENDROOT
BRANCH   1   7
ATOM      7  C   UNL     1     134.048 134.337 138.488  1.00  0.00    -0.032 C 
ATOM      8  C   UNL     1     135.368 134.686 137.757  1.00  0.00     0.011 C 
ATOM      9  C   UNL     1     134.281 134.596 139.997  1.00  0.00     0.011 C 
ATOM     10  C   UNL     1     132.943 135.297 137.990  1.00  0.00     0.011 C 
ENDBRANCH   1   7
BRANCH   4  11
ATOM     11  O   UNL     1     131.012 131.641 135.893  1.00  0.00    -0.389 OA
ATOM     12  H   UNL     1     131.407 132.510 135.614  1.00  0.00     0.211 HD
ENDBRANCH   4  11
TORSDOF 2
ENDMDL
MODEL 5
REMARK VINA RESULT:    -3.108      2.169      4.156
REMARK INTER + INTRA:          -3.594
REMARK INTER:                  -3.383
REMARK INTRA:                  -0.211
REMARK UNBOUND:                -0.213
REMARK SMILES CC(C)(C)[C@@H]1C=C[C@H](O)CC1
REMARK SMILES IDX 5 1 11 2 10 3 8 4 7 5 6 6 2 7 1 8 3 9 4 10 9 11
REMARK H PARENT 9 12
REMARK Flexibility Score: inf
ROOT
ATOM      1  C   UNL     1     133.822 132.539 138.153  1.00  0.00     0.017 C 
ATOM      2  C   UNL     1     135.022 133.209 137.431  1.00  0.00     0.011 C 
ATOM      3  C   UNL     1     135.902 133.976 138.421  1.00  0.00     0.037 C 
ATOM      4  C   UNL     1     135.103 135.097 139.093  1.00  0.00     0.137 C 
ATOM      5  C   UNL     1     133.789 134.589 139.634  1.00  0.00     0.000 C 
ATOM      6  C   UNL     1     133.179 133.488 139.162  1.00  0.00    -0.025 C 
ENDROOT
BRANCH   1   7
ATOM      7  C   UNL     1     132.769 131.903 137.164  1.00  0.00    -0.032 C 
ATOM      8  C   UNL     1     131.583 132.877 136.953  1.00  0.00     0.011 C 
ATOM      9  C   UNL     1     132.186 130.595 137.752  1.00  0.00     0.011 C 
ATOM     10  C   UNL     1     133.395 131.586 135.786  1.00  0.00     0.011 C 
ENDBRANCH   1   7
BRANCH   4  11
ATOM     11  O   UNL     1     134.864 136.125 138.167  1.00  0.00    -0.389 OA
ATOM     12  H   UNL     1     134.237 136.763 138.601  1.00  0.00     0.211 HD
ENDBRANCH   4  11
TORSDOF 2
ENDMDL
MODEL 6
REMARK VINA RESULT:    -2.646      2.042      2.945
REMARK INTER + INTRA:          -3.091
REMARK INTER:                  -2.879
REMARK INTRA:                  -0.212
REMARK UNBOUND:                -0.213
REMARK SMILES CC(C)(C)[C@@H]1C=C[C@H](O)CC1
REMARK SMILES IDX 5 1 11 2 10 3 8 4 7 5 6 6 2 7 1 8 3 9 4 10 9 11
REMARK H PARENT 9 12
REMARK Flexibility Score: inf
ROOT
ATOM      1  C   UNL     1     134.292 133.456 137.796  1.00  0.00     0.017 C 
ATOM      2  C   UNL     1     133.390 132.849 136.688  1.00  0.00     0.011 C 
ATOM      3  C   UNL     1     134.168 131.847 135.832  1.00  0.00     0.037 C 
ATOM      4  C   UNL     1     135.340 132.538 135.126  1.00  0.00     0.137 C 
ATOM      5  C   UNL     1     136.159 133.357 136.093  1.00  0.00     0.000 C 
ATOM      6  C   UNL     1     135.668 133.832 137.250  1.00  0.00    -0.025 C 
ENDROOT
BRANCH   1   7
ATOM      7  C   UNL     1     133.608 134.642 138.583  1.00  0.00    -0.032 C 
ATOM      8  C   UNL     1     133.373 134.235 140.058  1.00  0.00     0.011 C 
ATOM      9  C   UNL     1     132.224 134.975 137.974  1.00  0.00     0.011 C 
ATOM     10  C   UNL     1     134.476 135.922 138.559  1.00  0.00     0.011 C 
ENDBRANCH   1   7
BRANCH   4  11
ATOM     11  O   UNL     1     134.850 133.367 134.104  1.00  0.00    -0.389 OA
ATOM     12  H   UNL     1     135.180 132.990 133.246  1.00  0.00     0.211 HD
ENDBRANCH   4  11
TORSDOF 2
ENDMDL
MODEL 7
REMARK VINA RESULT:    -2.025      2.958      4.889
REMARK INTER + INTRA:          -2.416
REMARK INTER:                  -2.204
REMARK INTRA:                  -0.212
REMARK UNBOUND:                -0.213
REMARK SMILES CC(C)(C)[C@@H]1C=C[C@H](O)CC1
REMARK SMILES IDX 5 1 11 2 10 3 8 4 7 5 6 6 2 7 1 8 3 9 4 10 9 11
REMARK H PARENT 9 12
REMARK Flexibility Score: inf
ROOT
ATOM      1  C   UNL     1     132.020 129.786 137.996  1.00  0.00     0.017 C 
ATOM      2  C   UNL     1     130.890 129.738 139.059  1.00  0.00     0.011 C 
ATOM      3  C   UNL     1     130.746 128.333 139.648  1.00  0.00     0.037 C 
ATOM      4  C   UNL     1     130.374 127.327 138.554  1.00  0.00     0.137 C 
ATOM      5  C   UNL     1     131.285 127.452 137.358  1.00  0.00     0.000 C 
ATOM      6  C   UNL     1     131.961 128.576 137.066  1.00  0.00    -0.025 C 
ENDROOT
BRANCH   1   7
ATOM      7  C   UNL     1     132.084 131.152 137.208  1.00  0.00    -0.032 C 
ATOM      8  C   UNL     1     133.467 131.309 136.526  1.00  0.00     0.011 C 
ATOM      9  C   UNL     1     131.915 132.349 138.174  1.00  0.00     0.011 C 
ATOM     10  C   UNL     1     130.988 131.239 136.120  1.00  0.00     0.011 C 
ENDBRANCH   1   7
BRANCH   4  11
ATOM     11  O   UNL     1     129.044 127.536 138.156  1.00  0.00    -0.389 OA
ATOM     12  H   UNL     1     128.768 126.732 137.641  1.00  0.00     0.211 HD
ENDBRANCH   4  11
TORSDOF 2
ENDMDL
