MODEL 1
REMARK VINA RESULT:     1.107      0.000      0.000
REMARK INTER + INTRA:           1.609
REMARK INTER:                   1.205
REMARK INTRA:                   0.405
REMARK UNBOUND:                 0.405
REMARK SMILES CC1(C)CC[C@@]2(C(=O)[O-])CC[C@@]3(C)C(=CC[C@H]4[C@@]5(C)CC[C@H](O)C(C)(C)[C@@H]5CC[C@]43C)[C@H]2C1
REMARK SMILES IDX 6 1 5 2 10 3 32 4 4 5 11 6 14 7 33 8 2 9 12 10 15 11 1 12
REMARK SMILES IDX 3 13 13 14 30 15 16 16 17 17 29 18 31 19 18 20 28 21 27 22
REMARK SMILES IDX 20 23 19 24 24 25 21 26 22 27 25 28 26 29 7 30 8 31 9 32
REMARK SMILES IDX 23 33
REMARK H PARENT 23 34
REMARK Flexibility Score: inf
ROOT
ATOM      1  C   UNL     1      92.203 112.850 109.076  1.00  0.00     0.017 C 
ATOM      2  C   UNL     1      90.712 113.335 109.013  1.00  0.00     0.014 C 
ATOM      3  C   UNL     1      92.200 111.321 109.276  1.00  0.00     0.014 C 
ATOM      4  C   UNL     1      92.960 113.199 107.748  1.00  0.00     0.028 C 
ATOM      5  C   UNL     1      90.524 114.541 108.083  1.00  0.00     0.007 C 
ATOM      6  C   UNL     1      93.613 110.739 109.337  1.00  0.00     0.013 C 
ATOM      7  C   UNL     1      94.246 112.399 107.505  1.00  0.00    -0.064 C 
ATOM      8  C   UNL     1      92.012 113.118 106.528  1.00  0.00     0.015 C 
ATOM      9  C   UNL     1      90.880 114.194 106.604  1.00  0.00    -0.035 C 
ATOM     10  C   UNL     1      94.491 110.995 108.059  1.00  0.00    -0.006 C 
ATOM     11  C   UNL     1      95.125 112.927 106.639  1.00  0.00    -0.027 C 
ATOM     12  C   UNL     1      89.627 113.658 105.876  1.00  0.00     0.011 C 
ATOM     13  C   UNL     1      91.338 115.483 105.885  1.00  0.00     0.011 C 
ATOM     14  C   UNL     1      93.994 110.005 106.962  1.00  0.00     0.017 C 
ATOM     15  C   UNL     1      96.069 110.787 108.360  1.00  0.00    -0.020 C 
ATOM     16  C   UNL     1      96.433 112.308 106.253  1.00  0.00     0.032 C 
ATOM     17  C   UNL     1      96.918 111.032 107.031  1.00  0.00     0.006 C 
ATOM     18  C   UNL     1      96.585 111.793 109.446  1.00  0.00     0.008 C 
ATOM     19  C   UNL     1      96.266 109.335 108.906  1.00  0.00     0.012 C 
ATOM     20  C   UNL     1      98.513 111.024 107.217  1.00  0.00    -0.025 C 
ATOM     21  C   UNL     1      98.115 111.801 109.650  1.00  0.00     0.005 C 
ATOM     22  C   UNL     1      98.888 112.071 108.336  1.00  0.00     0.003 C 
ATOM     23  C   UNL     1      99.235 111.418 105.875  1.00  0.00     0.010 C 
ATOM     24  C   UNL     1      98.999 109.569 107.550  1.00  0.00     0.012 C 
ATOM     25  C   UNL     1     100.434 112.372 108.512  1.00  0.00    -0.006 C 
ATOM     26  C   UNL     1     100.743 111.671 106.028  1.00  0.00     0.033 C 
ATOM     27  C   UNL     1     101.034 112.728 107.109  1.00  0.00     0.120 C 
ATOM     28  C   UNL     1     100.622 113.620 109.419  1.00  0.00     0.014 C 
ATOM     29  C   UNL     1     101.217 111.210 109.179  1.00  0.00     0.014 C 
ENDROOT
BRANCH   1  30
ATOM     30  C   UNL     1      92.875 113.506 110.283  1.00  0.00     0.048 C 
ATOM     31  O   UNL     1      93.524 112.828 111.123  1.00  0.00    -0.550 OA
ATOM     32  O   UNL     1      92.739 114.874 110.491  1.00  0.00    -0.550 OA
ENDBRANCH   1  30
BRANCH  27  33
ATOM     33  O   UNL     1     102.414 113.000 107.178  1.00  0.00    -0.393 OA
ATOM     34  H   UNL     1     102.533 113.927 107.509  1.00  0.00     0.210 HD
ENDBRANCH  27  33
TORSDOF 2
ENDMDL
MODEL 2
REMARK VINA RESULT:     3.426      1.721      7.863
REMARK INTER + INTRA:           4.131
REMARK INTER:                   4.342
REMARK INTRA:                  -0.210
REMARK UNBOUND:                 0.405
REMARK SMILES CC1(C)CC[C@@]2(C(=O)[O-])CC[C@@]3(C)C(=CC[C@H]4[C@@]5(C)CC[C@H](O)C(C)(C)[C@@H]5CC[C@]43C)[C@H]2C1
REMARK SMILES IDX 6 1 5 2 10 3 32 4 4 5 11 6 14 7 33 8 2 9 12 10 15 11 1 12
REMARK SMILES IDX 3 13 13 14 30 15 16 16 17 17 29 18 31 19 18 20 28 21 27 22
REMARK SMILES IDX 20 23 19 24 24 25 21 26 22 27 25 28 26 29 7 30 8 31 9 32
REMARK SMILES IDX 23 33
REMARK H PARENT 23 34
REMARK Flexibility Score: inf
ROOT
ATOM      1  C   UNL     1      99.479 112.402 107.783  1.00  0.00     0.017 C 
ATOM      2  C   UNL     1     100.978 112.504 108.235  1.00  0.00     0.014 C 
ATOM      3  C   UNL     1      99.325 111.131 106.923  1.00  0.00     0.014 C 
ATOM      4  C   UNL     1      98.527 112.308 109.026  1.00  0.00     0.028 C 
ATOM      5  C   UNL     1     101.134 113.144 109.620  1.00  0.00     0.007 C 
ATOM      6  C   UNL     1      97.888 110.927 106.439  1.00  0.00     0.013 C 
ATOM      7  C   UNL     1      97.126 111.758 108.729  1.00  0.00    -0.064 C 
ATOM      8  C   UNL     1      99.198 111.534 110.185  1.00  0.00     0.015 C 
ATOM      9  C   UNL     1     100.451 112.289 110.734  1.00  0.00    -0.035 C 
ATOM     10  C   UNL     1      96.816 110.796 107.581  1.00  0.00    -0.006 C 
ATOM     11  C   UNL     1      96.170 112.040 109.627  1.00  0.00    -0.027 C 
ATOM     12  C   UNL     1     101.457 111.257 111.291  1.00  0.00     0.011 C 
ATOM     13  C   UNL     1     100.031 113.223 111.892  1.00  0.00     0.011 C 
ATOM     14  C   UNL     1      96.956 109.360 108.172  1.00  0.00     0.017 C 
ATOM     15  C   UNL     1      95.315 111.057 107.032  1.00  0.00    -0.020 C 
ATOM     16  C   UNL     1      94.743 111.596 109.535  1.00  0.00     0.032 C 
ATOM     17  C   UNL     1      94.260 110.889 108.217  1.00  0.00     0.006 C 
ATOM     18  C   UNL     1      95.157 112.506 106.456  1.00  0.00     0.008 C 
ATOM     19  C   UNL     1      95.044 110.040 105.875  1.00  0.00     0.012 C 
ATOM     20  C   UNL     1      92.745 111.282 107.857  1.00  0.00    -0.025 C 
ATOM     21  C   UNL     1      93.711 112.908 106.094  1.00  0.00     0.005 C 
ATOM     22  C   UNL     1      92.736 112.754 107.287  1.00  0.00     0.003 C 
ATOM     23  C   UNL     1      91.831 111.215 109.136  1.00  0.00     0.010 C 
ATOM     24  C   UNL     1      92.151 110.232 106.854  1.00  0.00     0.012 C 
ATOM     25  C   UNL     1      91.306 113.406 107.080  1.00  0.00    -0.006 C 
ATOM     26  C   UNL     1      90.427 111.809 108.932  1.00  0.00     0.033 C 
ATOM     27  C   UNL     1      90.493 113.255 108.411  1.00  0.00     0.120 C 
ATOM     28  C   UNL     1      91.463 114.929 106.810  1.00  0.00     0.014 C 
ATOM     29  C   UNL     1      90.526 112.814 105.876  1.00  0.00     0.014 C 
ENDROOT
BRANCH   1  30
ATOM     30  C   UNL     1      99.148 113.624 106.926  1.00  0.00     0.048 C 
ATOM     31  O   UNL     1      99.871 113.957 105.948  1.00  0.00    -0.550 OA
ATOM     32  O   UNL     1      98.053 114.417 107.246  1.00  0.00    -0.550 OA
ENDBRANCH   1  30
BRANCH  27  33
ATOM     33  O   UNL     1      89.200 113.804 108.305  1.00  0.00    -0.393 OA
ATOM     34  H   UNL     1      89.019 114.336 109.122  1.00  0.00     0.210 HD
ENDBRANCH  27  33
TORSDOF 2
ENDMDL
