MODEL 1
REMARK VINA RESULT:    -6.572      0.000      0.000
REMARK INTER + INTRA:          -7.953
REMARK INTER:                  -7.916
REMARK INTRA:                  -0.036
REMARK UNBOUND:                -0.036
REMARK SMILES O=c1c(O)c(-c2ccc(O)c(O)c2)oc2cc(O)cc(O)c12
REMARK SMILES IDX 5 1 3 2 2 3 1 4 22 5 20 6 19 7 17 8 16 9 15 10 14 11 6 12
REMARK SMILES IDX 7 13 8 14 9 15 13 16 11 17 10 18 12 20 4 22 21 24 18 26
REMARK H PARENT 10 19 12 21 4 23 21 25 18 27
REMARK Flexibility Score: inf
ROOT
ATOM      1  C   UNL     1       3.735   5.877  -0.721  1.00  0.00     0.180 A 
ATOM      2  C   UNL     1       4.285   7.172  -0.786  1.00  0.00     0.208 A 
ATOM      3  C   UNL     1       5.494   7.360  -1.475  1.00  0.00     0.238 A 
ATOM      4  O   UNL     1       6.002   8.514  -1.530  1.00  0.00    -0.285 OA
ATOM      5  C   UNL     1       6.118   6.262  -2.101  1.00  0.00     0.111 A 
ATOM      6  C   UNL     1       7.334   6.369  -2.818  1.00  0.00     0.134 A 
ATOM      7  C   UNL     1       7.887   5.230  -3.422  1.00  0.00     0.093 A 
ATOM      8  C   UNL     1       7.251   3.991  -3.324  1.00  0.00     0.123 A 
ATOM      9  C   UNL     1       6.049   3.880  -2.617  1.00  0.00     0.094 A 
ATOM     10  C   UNL     1       5.483   5.002  -2.007  1.00  0.00     0.146 A 
ATOM     11  O   UNL     1       4.344   4.868  -1.337  1.00  0.00    -0.452 OA
ENDROOT
BRANCH   1  12
ATOM     12  C   UNL     1       2.474   5.594   0.003  1.00  0.00     0.025 A 
ATOM     13  C   UNL     1       1.378   4.997  -0.643  1.00  0.00     0.016 A 
ATOM     14  C   UNL     1       0.189   4.763   0.054  1.00  0.00     0.051 A 
ATOM     15  C   UNL     1       0.073   5.132   1.397  1.00  0.00     0.157 A 
ATOM     16  C   UNL     1       2.347   5.982   1.346  1.00  0.00     0.062 A 
ATOM     17  C   UNL     1       1.155   5.747   2.048  1.00  0.00     0.158 A 
BRANCH  15  18
ATOM     18  O   UNL     1      -1.125   4.883   2.067  1.00  0.00    -0.504 OA
ATOM     19  H   UNL     1      -1.431   3.943   2.289  1.00  0.00     0.293 HD
ENDBRANCH  15  18
BRANCH  17  20
ATOM     20  O   UNL     1       1.043   6.124   3.385  1.00  0.00    -0.504 OA
ATOM     21  H   UNL     1       1.591   5.677   4.110  1.00  0.00     0.293 HD
ENDBRANCH  17  20
ENDBRANCH   1  12
BRANCH   2  22
ATOM     22  O   UNL     1       3.622   8.251  -0.199  1.00  0.00    -0.502 OA
ATOM     23  H   UNL     1       3.857   9.214  -0.411  1.00  0.00     0.293 HD
ENDBRANCH   2  22
BRANCH   6  24
ATOM     24  O   UNL     1       7.995   7.592  -2.935  1.00  0.00    -0.507 OA
ATOM     25  H   UNL     1       8.955   7.651  -3.254  1.00  0.00     0.293 HD
ENDBRANCH   6  24
BRANCH   8  26
ATOM     26  O   UNL     1       7.821   2.875  -3.934  1.00  0.00    -0.508 OA
ATOM     27  H   UNL     1       7.269   2.058  -4.167  1.00  0.00     0.293 HD
ENDBRANCH   8  26
TORSDOF 6
ENDMDL
MODEL 2
REMARK VINA RESULT:    -6.101      1.557      3.062
REMARK INTER + INTRA:          -7.385
REMARK INTER:                  -7.485
REMARK INTRA:                   0.099
REMARK UNBOUND:                -0.036
REMARK SMILES O=c1c(O)c(-c2ccc(O)c(O)c2)oc2cc(O)cc(O)c12
REMARK SMILES IDX 5 1 3 2 2 3 1 4 22 5 20 6 19 7 17 8 16 9 15 10 14 11 6 12
REMARK SMILES IDX 7 13 8 14 9 15 13 16 11 17 10 18 12 20 4 22 21 24 18 26
REMARK H PARENT 10 19 12 21 4 23 21 25 18 27
REMARK Flexibility Score: inf
ROOT
ATOM      1  C   UNL     1       3.692   6.047  -0.469  1.00  0.00     0.180 A 
ATOM      2  C   UNL     1       3.421   4.754  -0.957  1.00  0.00     0.208 A 
ATOM      3  C   UNL     1       4.344   4.150  -1.826  1.00  0.00     0.238 A 
ATOM      4  O   UNL     1       4.105   2.997  -2.279  1.00  0.00    -0.285 OA
ATOM      5  C   UNL     1       5.525   4.835  -2.174  1.00  0.00     0.111 A 
ATOM      6  C   UNL     1       6.507   4.295  -3.039  1.00  0.00     0.134 A 
ATOM      7  C   UNL     1       7.662   5.037  -3.330  1.00  0.00     0.093 A 
ATOM      8  C   UNL     1       7.854   6.304  -2.774  1.00  0.00     0.123 A 
ATOM      9  C   UNL     1       6.887   6.843  -1.918  1.00  0.00     0.094 A 
ATOM     10  C   UNL     1       5.729   6.120  -1.618  1.00  0.00     0.146 A 
ATOM     11  O   UNL     1       4.825   6.656  -0.806  1.00  0.00    -0.452 OA
ENDROOT
BRANCH   1  12
ATOM     12  C   UNL     1       2.760   6.757   0.436  1.00  0.00     0.025 A 
ATOM     13  C   UNL     1       2.451   8.116   0.249  1.00  0.00     0.016 A 
ATOM     14  C   UNL     1       1.587   8.772   1.130  1.00  0.00     0.051 A 
ATOM     15  C   UNL     1       1.032   8.088   2.216  1.00  0.00     0.157 A 
ATOM     16  C   UNL     1       2.216   6.079   1.539  1.00  0.00     0.062 A 
ATOM     17  C   UNL     1       1.349   6.735   2.424  1.00  0.00     0.158 A 
BRANCH  15  18
ATOM     18  O   UNL     1       0.171   8.768   3.077  1.00  0.00    -0.504 OA
ATOM     19  H   UNL     1       0.426   9.650   3.505  1.00  0.00     0.293 HD
ENDBRANCH  15  18
BRANCH  17  20
ATOM     20  O   UNL     1       0.804   6.049   3.509  1.00  0.00    -0.504 OA
ATOM     21  H   UNL     1       0.020   6.422   4.033  1.00  0.00     0.293 HD
ENDBRANCH  17  20
ENDBRANCH   1  12
BRANCH   2  22
ATOM     22  O   UNL     1       2.266   4.076  -0.558  1.00  0.00    -0.502 OA
ATOM     23  H   UNL     1       1.382   4.550  -0.414  1.00  0.00     0.293 HD
ENDBRANCH   2  22
BRANCH   6  24
ATOM     24  O   UNL     1       6.345   3.033  -3.610  1.00  0.00    -0.507 OA
ATOM     25  H   UNL     1       5.473   2.751  -4.043  1.00  0.00     0.293 HD
ENDBRANCH   6  24
BRANCH   8  26
ATOM     26  O   UNL     1       9.010   7.020  -3.078  1.00  0.00    -0.508 OA
ATOM     27  H   UNL     1       9.292   7.189  -4.036  1.00  0.00     0.293 HD
ENDBRANCH   8  26
TORSDOF 6
ENDMDL
MODEL 3
REMARK VINA RESULT:    -5.976      1.524      6.704
REMARK INTER + INTRA:          -7.235
REMARK INTER:                  -6.950
REMARK INTRA:                  -0.286
REMARK UNBOUND:                -0.036
REMARK SMILES O=c1c(O)c(-c2ccc(O)c(O)c2)oc2cc(O)cc(O)c12
REMARK SMILES IDX 5 1 3 2 2 3 1 4 22 5 20 6 19 7 17 8 16 9 15 10 14 11 6 12
REMARK SMILES IDX 7 13 8 14 9 15 13 16 11 17 10 18 12 20 4 22 21 24 18 26
REMARK H PARENT 10 19 12 21 4 23 21 25 18 27
REMARK Flexibility Score: inf
ROOT
ATOM      1  C   UNL     1       5.575   6.136  -1.279  1.00  0.00     0.180 A 
ATOM      2  C   UNL     1       5.320   7.501  -1.515  1.00  0.00     0.208 A 
ATOM      3  C   UNL     1       4.241   8.112  -0.857  1.00  0.00     0.238 A 
ATOM      4  O   UNL     1       3.996   9.332  -1.069  1.00  0.00    -0.285 OA
ATOM      5  C   UNL     1       3.451   7.360   0.036  1.00  0.00     0.111 A 
ATOM      6  C   UNL     1       2.350   7.902   0.741  1.00  0.00     0.134 A 
ATOM      7  C   UNL     1       1.619   7.089   1.620  1.00  0.00     0.093 A 
ATOM      8  C   UNL     1       1.967   5.749   1.809  1.00  0.00     0.123 A 
ATOM      9  C   UNL     1       3.054   5.208   1.114  1.00  0.00     0.094 A 
ATOM     10  C   UNL     1       3.794   6.001   0.233  1.00  0.00     0.146 A 
ATOM     11  O   UNL     1       4.819   5.462  -0.418  1.00  0.00    -0.452 OA
ENDROOT
BRANCH   1  12
ATOM     12  C   UNL     1       6.682   5.416  -1.949  1.00  0.00     0.025 A 
ATOM     13  C   UNL     1       6.443   4.545  -3.026  1.00  0.00     0.016 A 
ATOM     14  C   UNL     1       7.501   3.857  -3.626  1.00  0.00     0.051 A 
ATOM     15  C   UNL     1       8.807   4.017  -3.153  1.00  0.00     0.157 A 
ATOM     16  C   UNL     1       7.992   5.559  -1.463  1.00  0.00     0.062 A 
ATOM     17  C   UNL     1       9.055   4.870  -2.065  1.00  0.00     0.158 A 
BRANCH  15  18
ATOM     18  O   UNL     1       9.843   3.319  -3.775  1.00  0.00    -0.504 OA
ATOM     19  H   UNL     1      10.558   2.834  -3.246  1.00  0.00     0.293 HD
ENDBRANCH  15  18
BRANCH  17  20
ATOM     20  O   UNL     1      10.355   5.028  -1.584  1.00  0.00    -0.504 OA
ATOM     21  H   UNL     1      10.597   4.802  -0.627  1.00  0.00     0.293 HD
ENDBRANCH  17  20
ENDBRANCH   1  12
BRANCH   2  22
ATOM     22  O   UNL     1       6.147   8.237  -2.367  1.00  0.00    -0.502 OA
ATOM     23  H   UNL     1       6.710   9.013  -2.039  1.00  0.00     0.293 HD
ENDBRANCH   2  22
BRANCH   6  24
ATOM     24  O   UNL     1       1.977   9.236   0.576  1.00  0.00    -0.507 OA
ATOM     25  H   UNL     1       2.264   9.954   1.231  1.00  0.00     0.293 HD
ENDBRANCH   6  24
BRANCH   8  26
ATOM     26  O   UNL     1       1.225   4.963   2.688  1.00  0.00    -0.508 OA
ATOM     27  H   UNL     1       0.212   4.994   2.701  1.00  0.00     0.293 HD
ENDBRANCH   8  26
TORSDOF 6
ENDMDL
MODEL 4
REMARK VINA RESULT:    -5.786      1.761      7.195
REMARK INTER + INTRA:          -7.006
REMARK INTER:                  -6.868
REMARK INTRA:                  -0.138
REMARK UNBOUND:                -0.036
REMARK SMILES O=c1c(O)c(-c2ccc(O)c(O)c2)oc2cc(O)cc(O)c12
REMARK SMILES IDX 5 1 3 2 2 3 1 4 22 5 20 6 19 7 17 8 16 9 15 10 14 11 6 12
REMARK SMILES IDX 7 13 8 14 9 15 13 16 11 17 10 18 12 20 4 22 21 24 18 26
REMARK H PARENT 10 19 12 21 4 23 21 25 18 27
REMARK Flexibility Score: inf
ROOT
ATOM      1  C   UNL     1       4.045   5.702  -0.648  1.00  0.00     0.180 A 
ATOM      2  C   UNL     1       2.958   4.893  -1.031  1.00  0.00     0.208 A 
ATOM      3  C   UNL     1       1.700   5.132  -0.456  1.00  0.00     0.238 A 
ATOM      4  O   UNL     1       0.721   4.406  -0.783  1.00  0.00    -0.285 OA
ATOM      5  C   UNL     1       1.545   6.181   0.473  1.00  0.00     0.111 A 
ATOM      6  C   UNL     1       0.311   6.489   1.094  1.00  0.00     0.134 A 
ATOM      7  C   UNL     1       0.237   7.556   2.001  1.00  0.00     0.093 A 
ATOM      8  C   UNL     1       1.368   8.320   2.298  1.00  0.00     0.123 A 
ATOM      9  C   UNL     1       2.590   8.020   1.687  1.00  0.00     0.094 A 
ATOM     10  C   UNL     1       2.685   6.959   0.782  1.00  0.00     0.146 A 
ATOM     11  O   UNL     1       3.858   6.693   0.219  1.00  0.00    -0.452 OA
ENDROOT
BRANCH   1  12
ATOM     12  C   UNL     1       5.406   5.501  -1.195  1.00  0.00     0.025 A 
ATOM     13  C   UNL     1       6.091   4.285  -1.026  1.00  0.00     0.016 A 
ATOM     14  C   UNL     1       7.385   4.127  -1.531  1.00  0.00     0.051 A 
ATOM     15  C   UNL     1       8.018   5.181  -2.197  1.00  0.00     0.157 A 
ATOM     16  C   UNL     1       6.052   6.564  -1.847  1.00  0.00     0.062 A 
ATOM     17  C   UNL     1       7.350   6.407  -2.355  1.00  0.00     0.158 A 
BRANCH  15  18
ATOM     18  O   UNL     1       9.308   4.993  -2.692  1.00  0.00    -0.504 OA
ATOM     19  H   UNL     1      10.082   5.586  -2.416  1.00  0.00     0.293 HD
ENDBRANCH  15  18
BRANCH  17  20
ATOM     20  O   UNL     1       7.978   7.464  -3.012  1.00  0.00    -0.504 OA
ATOM     21  H   UNL     1       7.447   8.194  -3.473  1.00  0.00     0.293 HD
ENDBRANCH  17  20
ENDBRANCH   1  12
BRANCH   2  22
ATOM     22  O   UNL     1       3.127   3.891  -1.990  1.00  0.00    -0.502 OA
ATOM     23  H   UNL     1       3.070   2.906  -1.761  1.00  0.00     0.293 HD
ENDBRANCH   2  22
BRANCH   6  24
ATOM     24  O   UNL     1      -0.837   5.746   0.819  1.00  0.00    -0.507 OA
ATOM     25  H   UNL     1      -1.423   5.376   1.559  1.00  0.00     0.293 HD
ENDBRANCH   6  24
BRANCH   8  26
ATOM     26  O   UNL     1       1.267   9.376   3.202  1.00  0.00    -0.508 OA
ATOM     27  H   UNL     1       1.209   9.214   4.201  1.00  0.00     0.293 HD
ENDBRANCH   8  26
TORSDOF 6
ENDMDL
MODEL 5
REMARK VINA RESULT:    -5.689      1.730      2.938
REMARK INTER + INTRA:          -6.890
REMARK INTER:                  -6.684
REMARK INTRA:                  -0.206
REMARK UNBOUND:                -0.036
REMARK SMILES O=c1c(O)c(-c2ccc(O)c(O)c2)oc2cc(O)cc(O)c12
REMARK SMILES IDX 5 1 3 2 2 3 1 4 22 5 20 6 19 7 17 8 16 9 15 10 14 11 6 12
REMARK SMILES IDX 7 13 8 14 9 15 13 16 11 17 10 18 12 20 4 22 21 24 18 26
REMARK H PARENT 10 19 12 21 4 23 21 25 18 27
REMARK Flexibility Score: inf
ROOT
ATOM      1  C   UNL     1       4.837   5.305  -0.755  1.00  0.00     0.180 A 
ATOM      2  C   UNL     1       5.545   4.148  -0.375  1.00  0.00     0.208 A 
ATOM      3  C   UNL     1       6.811   3.914  -0.938  1.00  0.00     0.238 A 
ATOM      4  O   UNL     1       7.449   2.875  -0.614  1.00  0.00    -0.285 OA
ATOM      5  C   UNL     1       7.352   4.843  -1.848  1.00  0.00     0.111 A 
ATOM      6  C   UNL     1       8.621   4.683  -2.455  1.00  0.00     0.134 A 
ATOM      7  C   UNL     1       9.095   5.659  -3.345  1.00  0.00     0.093 A 
ATOM      8  C   UNL     1       8.328   6.788  -3.638  1.00  0.00     0.123 A 
ATOM      9  C   UNL     1       7.073   6.952  -3.042  1.00  0.00     0.094 A 
ATOM     10  C   UNL     1       6.583   5.990  -2.154  1.00  0.00     0.146 A 
ATOM     11  O   UNL     1       5.387   6.167  -1.605  1.00  0.00    -0.452 OA
ENDROOT
BRANCH   1  12
ATOM     12  C   UNL     1       3.490   5.613  -0.221  1.00  0.00     0.025 A 
ATOM     13  C   UNL     1       2.380   4.806  -0.525  1.00  0.00     0.016 A 
ATOM     14  C   UNL     1       1.114   5.130  -0.030  1.00  0.00     0.051 A 
ATOM     15  C   UNL     1       0.935   6.269   0.762  1.00  0.00     0.157 A 
ATOM     16  C   UNL     1       3.303   6.767   0.557  1.00  0.00     0.062 A 
ATOM     17  C   UNL     1       2.034   7.093   1.056  1.00  0.00     0.158 A 
BRANCH  15  18
ATOM     18  O   UNL     1      -0.340   6.565   1.244  1.00  0.00    -0.504 OA
ATOM     19  H   UNL     1      -0.507   7.329   1.887  1.00  0.00     0.293 HD
ENDBRANCH  15  18
BRANCH  17  20
ATOM     20  O   UNL     1       1.860   8.234   1.839  1.00  0.00    -0.504 OA
ATOM     21  H   UNL     1       1.422   8.189   2.752  1.00  0.00     0.293 HD
ENDBRANCH  17  20
ENDBRANCH   1  12
BRANCH   2  22
ATOM     22  O   UNL     1       5.007   3.268   0.566  1.00  0.00    -0.502 OA
ATOM     23  H   UNL     1       4.013   3.219   0.757  1.00  0.00     0.293 HD
ENDBRANCH   2  22
BRANCH   6  24
ATOM     24  O   UNL     1       9.412   3.566  -2.182  1.00  0.00    -0.507 OA
ATOM     25  H   UNL     1      10.402   3.650  -1.983  1.00  0.00     0.293 HD
ENDBRANCH   6  24
BRANCH   8  26
ATOM     26  O   UNL     1       8.822   7.743  -4.525  1.00  0.00    -0.508 OA
ATOM     27  H   UNL     1       8.960   7.533  -5.507  1.00  0.00     0.293 HD
ENDBRANCH   8  26
TORSDOF 6
ENDMDL
MODEL 6
REMARK VINA RESULT:    -5.478      2.111      4.095
REMARK INTER + INTRA:          -6.635
REMARK INTER:                  -6.551
REMARK INTRA:                  -0.084
REMARK UNBOUND:                -0.036
REMARK SMILES O=c1c(O)c(-c2ccc(O)c(O)c2)oc2cc(O)cc(O)c12
REMARK SMILES IDX 5 1 3 2 2 3 1 4 22 5 20 6 19 7 17 8 16 9 15 10 14 11 6 12
REMARK SMILES IDX 7 13 8 14 9 15 13 16 11 17 10 18 12 20 4 22 21 24 18 26
REMARK H PARENT 10 19 12 21 4 23 21 25 18 27
REMARK Flexibility Score: inf
ROOT
ATOM      1  C   UNL     1       6.238   5.672  -1.992  1.00  0.00     0.180 A 
ATOM      2  C   UNL     1       6.005   4.485  -2.712  1.00  0.00     0.208 A 
ATOM      3  C   UNL     1       7.054   3.932  -3.465  1.00  0.00     0.238 A 
ATOM      4  O   UNL     1       6.854   2.875  -4.123  1.00  0.00    -0.285 OA
ATOM      5  C   UNL     1       8.316   4.560  -3.468  1.00  0.00     0.111 A 
ATOM      6  C   UNL     1       9.425   4.065  -4.195  1.00  0.00     0.134 A 
ATOM      7  C   UNL     1      10.652   4.743  -4.139  1.00  0.00     0.093 A 
ATOM      8  C   UNL     1      10.792   5.901  -3.372  1.00  0.00     0.123 A 
ATOM      9  C   UNL     1       9.699   6.395  -2.651  1.00  0.00     0.094 A 
ATOM     10  C   UNL     1       8.469   5.735  -2.696  1.00  0.00     0.146 A 
ATOM     11  O   UNL     1       7.446   6.228  -2.006  1.00  0.00    -0.452 OA
ENDROOT
BRANCH   1  12
ATOM     12  C   UNL     1       5.178   6.326  -1.190  1.00  0.00     0.025 A 
ATOM     13  C   UNL     1       4.798   7.659  -1.428  1.00  0.00     0.016 A 
ATOM     14  C   UNL     1       3.812   8.263  -0.642  1.00  0.00     0.051 A 
ATOM     15  C   UNL     1       3.203   7.553   0.397  1.00  0.00     0.157 A 
ATOM     16  C   UNL     1       4.579   5.623  -0.133  1.00  0.00     0.062 A 
ATOM     17  C   UNL     1       3.589   6.227   0.656  1.00  0.00     0.158 A 
BRANCH  15  18
ATOM     18  O   UNL     1       2.221   8.182   1.162  1.00  0.00    -0.504 OA
ATOM     19  H   UNL     1       1.589   8.868   0.767  1.00  0.00     0.293 HD
ENDBRANCH  15  18
BRANCH  17  20
ATOM     20  O   UNL     1       2.991   5.517   1.696  1.00  0.00    -0.504 OA
ATOM     21  H   UNL     1       2.698   5.974   2.551  1.00  0.00     0.293 HD
ENDBRANCH  17  20
ENDBRANCH   1  12
BRANCH   2  22
ATOM     22  O   UNL     1       4.759   3.856  -2.653  1.00  0.00    -0.502 OA
ATOM     23  H   UNL     1       4.652   2.854  -2.761  1.00  0.00     0.293 HD
ENDBRANCH   2  22
BRANCH   6  24
ATOM     24  O   UNL     1       9.318   2.910  -4.970  1.00  0.00    -0.507 OA
ATOM     25  H   UNL     1       8.419   2.495  -5.187  1.00  0.00     0.293 HD
ENDBRANCH   6  24
BRANCH   8  26
ATOM     26  O   UNL     1      12.022   6.555  -3.333  1.00  0.00    -0.508 OA
ATOM     27  H   UNL     1      12.560   6.621  -2.477  1.00  0.00     0.293 HD
ENDBRANCH   8  26
TORSDOF 6
ENDMDL
MODEL 7
REMARK VINA RESULT:    -5.396      1.476      6.777
REMARK INTER + INTRA:          -6.536
REMARK INTER:                  -6.733
REMARK INTRA:                   0.197
REMARK UNBOUND:                -0.036
REMARK SMILES O=c1c(O)c(-c2ccc(O)c(O)c2)oc2cc(O)cc(O)c12
REMARK SMILES IDX 5 1 3 2 2 3 1 4 22 5 20 6 19 7 17 8 16 9 15 10 14 11 6 12
REMARK SMILES IDX 7 13 8 14 9 15 13 16 11 17 10 18 12 20 4 22 21 24 18 26
REMARK H PARENT 10 19 12 21 4 23 21 25 18 27
REMARK Flexibility Score: inf
ROOT
ATOM      1  C   UNL     1       3.875   6.410  -0.435  1.00  0.00     0.180 A 
ATOM      2  C   UNL     1       3.486   7.763  -0.442  1.00  0.00     0.208 A 
ATOM      3  C   UNL     1       2.463   8.178   0.426  1.00  0.00     0.238 A 
ATOM      4  O   UNL     1       2.099   9.386   0.421  1.00  0.00    -0.285 OA
ATOM      5  C   UNL     1       1.864   7.244   1.295  1.00  0.00     0.111 A 
ATOM      6  C   UNL     1       0.832   7.583   2.202  1.00  0.00     0.134 A 
ATOM      7  C   UNL     1       0.293   6.597   3.042  1.00  0.00     0.093 A 
ATOM      8  C   UNL     1       0.766   5.283   2.994  1.00  0.00     0.123 A 
ATOM      9  C   UNL     1       1.786   4.943   2.099  1.00  0.00     0.094 A 
ATOM     10  C   UNL     1       2.334   5.911   1.253  1.00  0.00     0.146 A 
ATOM     11  O   UNL     1       3.299   5.560   0.410  1.00  0.00    -0.452 OA
ENDROOT
BRANCH   1  12
ATOM     12  C   UNL     1       4.932   5.891  -1.334  1.00  0.00     0.025 A 
ATOM     13  C   UNL     1       4.836   4.616  -1.918  1.00  0.00     0.016 A 
ATOM     14  C   UNL     1       5.858   4.138  -2.743  1.00  0.00     0.051 A 
ATOM     15  C   UNL     1       6.994   4.917  -2.985  1.00  0.00     0.157 A 
ATOM     16  C   UNL     1       6.084   6.663  -1.563  1.00  0.00     0.062 A 
ATOM     17  C   UNL     1       7.110   6.185  -2.391  1.00  0.00     0.158 A 
BRANCH  15  18
ATOM     18  O   UNL     1       7.996   4.414  -3.815  1.00  0.00    -0.504 OA
ATOM     19  H   UNL     1       8.491   5.001  -4.476  1.00  0.00     0.293 HD
ENDBRANCH  15  18
BRANCH  17  20
ATOM     20  O   UNL     1       8.243   6.963  -2.623  1.00  0.00    -0.504 OA
ATOM     21  H   UNL     1       8.359   7.873  -2.191  1.00  0.00     0.293 HD
ENDBRANCH  17  20
ENDBRANCH   1  12
BRANCH   2  22
ATOM     22  O   UNL     1       4.129   8.679  -1.278  1.00  0.00    -0.502 OA
ATOM     23  H   UNL     1       3.634   9.434  -1.739  1.00  0.00     0.293 HD
ENDBRANCH   2  22
BRANCH   6  24
ATOM     24  O   UNL     1       0.338   8.886   2.276  1.00  0.00    -0.507 OA
ATOM     25  H   UNL     1      -0.196   9.296   1.519  1.00  0.00     0.293 HD
ENDBRANCH   6  24
BRANCH   8  26
ATOM     26  O   UNL     1       0.214   4.323   3.839  1.00  0.00    -0.508 OA
ATOM     27  H   UNL     1       0.054   3.372   3.528  1.00  0.00     0.293 HD
ENDBRANCH   8  26
TORSDOF 6
ENDMDL
MODEL 8
REMARK VINA RESULT:    -5.284      2.356      8.114
REMARK INTER + INTRA:          -6.401
REMARK INTER:                  -6.097
REMARK INTRA:                  -0.304
REMARK UNBOUND:                -0.036
REMARK SMILES O=c1c(O)c(-c2ccc(O)c(O)c2)oc2cc(O)cc(O)c12
REMARK SMILES IDX 5 1 3 2 2 3 1 4 22 5 20 6 19 7 17 8 16 9 15 10 14 11 6 12
REMARK SMILES IDX 7 13 8 14 9 15 13 16 11 17 10 18 12 20 4 22 21 24 18 26
REMARK H PARENT 10 19 12 21 4 23 21 25 18 27
REMARK Flexibility Score: inf
ROOT
ATOM      1  C   UNL     1       7.638   5.598  -3.237  1.00  0.00     0.180 A 
ATOM      2  C   UNL     1       7.087   4.303  -3.304  1.00  0.00     0.208 A 
ATOM      3  C   UNL     1       5.902   4.034  -2.600  1.00  0.00     0.238 A 
ATOM      4  O   UNL     1       5.406   2.875  -2.644  1.00  0.00    -0.285 OA
ATOM      5  C   UNL     1       5.281   5.062  -1.863  1.00  0.00     0.111 A 
ATOM      6  C   UNL     1       4.084   4.874  -1.130  1.00  0.00     0.134 A 
ATOM      7  C   UNL     1       3.522   5.951  -0.429  1.00  0.00     0.093 A 
ATOM      8  C   UNL     1       4.130   7.208  -0.445  1.00  0.00     0.123 A 
ATOM      9  C   UNL     1       5.313   7.399  -1.167  1.00  0.00     0.094 A 
ATOM     10  C   UNL     1       5.890   6.339  -1.871  1.00  0.00     0.146 A 
ATOM     11  O   UNL     1       7.016   6.546  -2.544  1.00  0.00    -0.452 OA
ENDROOT
BRANCH   1  12
ATOM     12  C   UNL     1       8.895   5.954  -3.936  1.00  0.00     0.025 A 
ATOM     13  C   UNL     1       8.905   6.278  -5.304  1.00  0.00     0.016 A 
ATOM     14  C   UNL     1      10.106   6.587  -5.948  1.00  0.00     0.051 A 
ATOM     15  C   UNL     1      11.313   6.564  -5.242  1.00  0.00     0.157 A 
ATOM     16  C   UNL     1      10.111   5.913  -3.235  1.00  0.00     0.062 A 
ATOM     17  C   UNL     1      11.317   6.223  -3.879  1.00  0.00     0.158 A 
BRANCH  15  18
ATOM     18  O   UNL     1      12.495   6.880  -5.911  1.00  0.00    -0.504 OA
ATOM     19  H   UNL     1      13.393   6.890  -5.441  1.00  0.00     0.293 HD
ENDBRANCH  15  18
BRANCH  17  20
ATOM     20  O   UNL     1      12.518   6.192  -3.171  1.00  0.00    -0.504 OA
ATOM     21  H   UNL     1      12.891   5.328  -2.796  1.00  0.00     0.293 HD
ENDBRANCH  17  20
ENDBRANCH   1  12
BRANCH   2  22
ATOM     22  O   UNL     1       7.697   3.316  -4.082  1.00  0.00    -0.502 OA
ATOM     23  H   UNL     1       7.918   2.397  -3.716  1.00  0.00     0.293 HD
ENDBRANCH   2  22
BRANCH   6  24
ATOM     24  O   UNL     1       3.451   3.631  -1.094  1.00  0.00    -0.507 OA
ATOM     25  H   UNL     1       3.978   2.765  -1.094  1.00  0.00     0.293 HD
ENDBRANCH   6  24
BRANCH   8  26
ATOM     26  O   UNL     1       3.551   8.261   0.260  1.00  0.00    -0.508 OA
ATOM     27  H   UNL     1       3.551   8.284   1.273  1.00  0.00     0.293 HD
ENDBRANCH   8  26
TORSDOF 6
ENDMDL
MODEL 9
REMARK VINA RESULT:    -5.184      2.580      4.519
REMARK INTER + INTRA:          -6.281
REMARK INTER:                  -5.966
REMARK INTRA:                  -0.315
REMARK UNBOUND:                -0.036
REMARK SMILES O=c1c(O)c(-c2ccc(O)c(O)c2)oc2cc(O)cc(O)c12
REMARK SMILES IDX 5 1 3 2 2 3 1 4 22 5 20 6 19 7 17 8 16 9 15 10 14 11 6 12
REMARK SMILES IDX 7 13 8 14 9 15 13 16 11 17 10 18 12 20 4 22 21 24 18 26
REMARK H PARENT 10 19 12 21 4 23 21 25 18 27
REMARK Flexibility Score: inf
ROOT
ATOM      1  C   UNL     1       7.231   5.234  -2.304  1.00  0.00     0.180 A 
ATOM      2  C   UNL     1       8.318   4.571  -1.704  1.00  0.00     0.208 A 
ATOM      3  C   UNL     1       9.573   4.621  -2.333  1.00  0.00     0.238 A 
ATOM      4  O   UNL     1      10.552   4.021  -1.811  1.00  0.00    -0.285 OA
ATOM      5  C   UNL     1       9.723   5.346  -3.533  1.00  0.00     0.111 A 
ATOM      6  C   UNL     1      10.953   5.449  -4.226  1.00  0.00     0.134 A 
ATOM      7  C   UNL     1      11.023   6.198  -5.410  1.00  0.00     0.093 A 
ATOM      8  C   UNL     1       9.892   6.844  -5.914  1.00  0.00     0.123 A 
ATOM      9  C   UNL     1       8.673   6.745  -5.232  1.00  0.00     0.094 A 
ATOM     10  C   UNL     1       8.583   6.003  -4.052  1.00  0.00     0.146 A 
ATOM     11  O   UNL     1       7.413   5.921  -3.428  1.00  0.00    -0.452 OA
ENDROOT
BRANCH   1  12
ATOM     12  C   UNL     1       5.873   5.212  -1.712  1.00  0.00     0.025 A 
ATOM     13  C   UNL     1       5.013   4.116  -1.895  1.00  0.00     0.016 A 
ATOM     14  C   UNL     1       3.727   4.128  -1.347  1.00  0.00     0.051 A 
ATOM     15  C   UNL     1       3.277   5.237  -0.624  1.00  0.00     0.157 A 
ATOM     16  C   UNL     1       5.411   6.333  -1.002  1.00  0.00     0.062 A 
ATOM     17  C   UNL     1       4.121   6.347  -0.452  1.00  0.00     0.158 A 
BRANCH  15  18
ATOM     18  O   UNL     1       1.990   5.219  -0.087  1.00  0.00    -0.504 OA
ATOM     19  H   UNL     1       1.292   4.547  -0.385  1.00  0.00     0.293 HD
ENDBRANCH  15  18
BRANCH  17  20
ATOM     20  O   UNL     1       3.676   7.458   0.263  1.00  0.00    -0.504 OA
ATOM     21  H   UNL     1       2.722   7.790   0.187  1.00  0.00     0.293 HD
ENDBRANCH  17  20
ENDBRANCH   1  12
BRANCH   2  22
ATOM     22  O   UNL     1       8.154   3.901  -0.490  1.00  0.00    -0.502 OA
ATOM     23  H   UNL     1       7.302   3.406  -0.254  1.00  0.00     0.293 HD
ENDBRANCH   2  22
BRANCH   6  24
ATOM     24  O   UNL     1      12.101   4.816  -3.750  1.00  0.00    -0.507 OA
ATOM     25  H   UNL     1      12.074   3.878  -3.368  1.00  0.00     0.293 HD
ENDBRANCH   6  24
BRANCH   8  26
ATOM     26  O   UNL     1       9.988   7.582  -7.092  1.00  0.00    -0.508 OA
ATOM     27  H   UNL     1       9.343   8.335  -7.299  1.00  0.00     0.293 HD
ENDBRANCH   8  26
TORSDOF 6
ENDMDL
