MODEL 1
REMARK VINA RESULT:    -5.954      0.000      0.000
REMARK INTER + INTRA:          -6.855
REMARK INTER:                  -6.650
REMARK INTRA:                  -0.205
REMARK UNBOUND:                -0.205
REMARK SMILES CC(C)c1ccc(C(=O)[O-])cc1
REMARK SMILES IDX 7 1 6 2 11 3 5 4 12 5 4 6 8 7 9 8 10 9 2 10 1 11 3 12
REMARK H PARENT
REMARK Flexibility Score: inf
ROOT
ATOM      1  C   UNL     1     -10.959 -13.407 -17.840  1.00  0.00    -0.003 A 
ATOM      2  C   UNL     1     -10.740 -12.643 -16.680  1.00  0.00     0.010 A 
ATOM      3  C   UNL     1     -11.913 -14.436 -17.807  1.00  0.00     0.010 A 
ATOM      4  C   UNL     1     -11.462 -12.905 -15.512  1.00  0.00     0.004 A 
ATOM      5  C   UNL     1     -12.635 -14.698 -16.639  1.00  0.00     0.004 A 
ATOM      6  C   UNL     1     -12.417 -13.935 -15.478  1.00  0.00    -0.045 A 
ENDROOT
BRANCH   1   7
ATOM      7  C   UNL     1     -10.197 -13.132 -19.079  1.00  0.00     0.071 C 
ATOM      8  O   UNL     1      -9.449 -14.013 -19.580  1.00  0.00    -0.545 OA
ATOM      9  O   UNL     1     -10.298 -11.896 -19.709  1.00  0.00    -0.545 OA
ENDBRANCH   1   7
BRANCH   6  10
ATOM     10  C   UNL     1     -13.194 -14.208 -14.203  1.00  0.00     0.013 C 
ATOM     11  C   UNL     1     -12.344 -14.992 -13.197  1.00  0.00     0.012 C 
ATOM     12  C   UNL     1     -13.719 -12.906 -13.587  1.00  0.00     0.012 C 
ENDBRANCH   6  10
TORSDOF 2
ENDMDL
MODEL 2
REMARK VINA RESULT:    -5.894      0.574      1.508
REMARK INTER + INTRA:          -6.788
REMARK INTER:                  -6.586
REMARK INTRA:                  -0.202
REMARK UNBOUND:                -0.205
REMARK SMILES CC(C)c1ccc(C(=O)[O-])cc1
REMARK SMILES IDX 7 1 6 2 11 3 5 4 12 5 4 6 8 7 9 8 10 9 2 10 1 11 3 12
REMARK H PARENT
REMARK Flexibility Score: inf
ROOT
ATOM      1  C   UNL     1     -10.982 -13.741 -17.756  1.00  0.00    -0.003 A 
ATOM      2  C   UNL     1     -12.010 -14.691 -17.630  1.00  0.00     0.010 A 
ATOM      3  C   UNL     1     -10.736 -12.860 -16.691  1.00  0.00     0.010 A 
ATOM      4  C   UNL     1     -12.776 -14.757 -16.462  1.00  0.00     0.004 A 
ATOM      5  C   UNL     1     -11.501 -12.926 -15.523  1.00  0.00     0.004 A 
ATOM      6  C   UNL     1     -12.530 -13.875 -15.396  1.00  0.00    -0.045 A 
ENDROOT
BRANCH   1   7
ATOM      7  C   UNL     1     -10.168 -13.669 -18.990  1.00  0.00     0.071 C 
ATOM      8  O   UNL     1      -8.947 -13.974 -18.971  1.00  0.00    -0.545 OA
ATOM      9  O   UNL     1     -10.743 -13.264 -20.190  1.00  0.00    -0.545 OA
ENDBRANCH   1   7
BRANCH   6  10
ATOM     10  C   UNL     1     -13.370 -13.958 -14.134  1.00  0.00     0.013 C 
ATOM     11  C   UNL     1     -12.675 -14.805 -13.063  1.00  0.00     0.012 C 
ATOM     12  C   UNL     1     -13.705 -12.559 -13.602  1.00  0.00     0.012 C 
ENDBRANCH   6  10
TORSDOF 2
ENDMDL
MODEL 3
REMARK VINA RESULT:    -5.832      4.641      5.698
REMARK INTER + INTRA:          -6.718
REMARK INTER:                  -6.515
REMARK INTRA:                  -0.204
REMARK UNBOUND:                -0.205
REMARK SMILES CC(C)c1ccc(C(=O)[O-])cc1
REMARK SMILES IDX 7 1 6 2 11 3 5 4 12 5 4 6 8 7 9 8 10 9 2 10 1 11 3 12
REMARK H PARENT
REMARK Flexibility Score: inf
ROOT
ATOM      1  C   UNL     1     -10.544 -16.140 -12.456  1.00  0.00    -0.003 A 
ATOM      2  C   UNL     1     -11.468 -15.462 -11.642  1.00  0.00     0.010 A 
ATOM      3  C   UNL     1     -10.184 -15.576 -13.691  1.00  0.00     0.010 A 
ATOM      4  C   UNL     1     -12.019 -14.246 -12.054  1.00  0.00     0.004 A 
ATOM      5  C   UNL     1     -10.735 -14.360 -14.104  1.00  0.00     0.004 A 
ATOM      6  C   UNL     1     -11.659 -13.681 -13.290  1.00  0.00    -0.045 A 
ENDROOT
BRANCH   1   7
ATOM      7  C   UNL     1      -9.957 -17.428 -12.022  1.00  0.00     0.071 C 
ATOM      8  O   UNL     1      -8.710 -17.557 -11.907  1.00  0.00    -0.545 OA
ATOM      9  O   UNL     1     -10.777 -18.514 -11.735  1.00  0.00    -0.545 OA
ENDBRANCH   1   7
BRANCH   6  10
ATOM     10  C   UNL     1     -12.266 -12.360 -13.725  1.00  0.00     0.013 C 
ATOM     11  C   UNL     1     -13.789 -12.471 -13.865  1.00  0.00     0.012 C 
ATOM     12  C   UNL     1     -11.880 -11.231 -12.763  1.00  0.00     0.012 C 
ENDBRANCH   6  10
TORSDOF 2
ENDMDL
MODEL 4
REMARK VINA RESULT:    -5.798      3.102      5.108
REMARK INTER + INTRA:          -6.680
REMARK INTER:                  -6.476
REMARK INTRA:                  -0.204
REMARK UNBOUND:                -0.205
REMARK SMILES CC(C)c1ccc(C(=O)[O-])cc1
REMARK SMILES IDX 7 1 6 2 11 3 5 4 12 5 4 6 8 7 9 8 10 9 2 10 1 11 3 12
REMARK H PARENT
REMARK Flexibility Score: inf
ROOT
ATOM      1  C   UNL     1     -12.538 -13.548 -15.177  1.00  0.00    -0.003 A 
ATOM      2  C   UNL     1     -11.491 -12.630 -15.370  1.00  0.00     0.010 A 
ATOM      3  C   UNL     1     -12.802 -14.499 -16.176  1.00  0.00     0.010 A 
ATOM      4  C   UNL     1     -10.724 -12.665 -16.538  1.00  0.00     0.004 A 
ATOM      5  C   UNL     1     -12.034 -14.534 -17.343  1.00  0.00     0.004 A 
ATOM      6  C   UNL     1     -10.987 -13.617 -17.537  1.00  0.00    -0.045 A 
ENDROOT
BRANCH   1   7
ATOM      7  C   UNL     1     -13.353 -13.515 -13.942  1.00  0.00     0.071 C 
ATOM      8  O   UNL     1     -14.002 -12.482 -13.630  1.00  0.00    -0.545 OA
ATOM      9  O   UNL     1     -13.413 -14.625 -13.107  1.00  0.00    -0.545 OA
ENDBRANCH   1   7
BRANCH   6  10
ATOM     10  C   UNL     1     -10.146 -13.643 -18.801  1.00  0.00     0.013 C 
ATOM     11  C   UNL     1     -10.047 -12.247 -19.427  1.00  0.00     0.012 C 
ATOM     12  C   UNL     1      -8.754 -14.225 -18.526  1.00  0.00     0.012 C 
ENDBRANCH   6  10
TORSDOF 2
ENDMDL
MODEL 5
REMARK VINA RESULT:    -5.698      1.452      2.151
REMARK INTER + INTRA:          -6.568
REMARK INTER:                  -6.356
REMARK INTRA:                  -0.212
REMARK UNBOUND:                -0.205
REMARK SMILES CC(C)c1ccc(C(=O)[O-])cc1
REMARK SMILES IDX 7 1 6 2 11 3 5 4 12 5 4 6 8 7 9 8 10 9 2 10 1 11 3 12
REMARK H PARENT
REMARK Flexibility Score: inf
ROOT
ATOM      1  C   UNL     1     -11.415 -14.146 -17.815  1.00  0.00    -0.003 A 
ATOM      2  C   UNL     1     -12.466 -14.703 -17.066  1.00  0.00     0.010 A 
ATOM      3  C   UNL     1     -10.667 -13.094 -17.260  1.00  0.00     0.010 A 
ATOM      4  C   UNL     1     -12.761 -14.219 -15.789  1.00  0.00     0.004 A 
ATOM      5  C   UNL     1     -10.963 -12.610 -15.983  1.00  0.00     0.004 A 
ATOM      6  C   UNL     1     -12.014 -13.167 -15.233  1.00  0.00    -0.045 A 
ENDROOT
BRANCH   1   7
ATOM      7  C   UNL     1     -11.098 -14.657 -19.168  1.00  0.00     0.071 C 
ATOM      8  O   UNL     1     -10.117 -15.426 -19.349  1.00  0.00    -0.545 OA
ATOM      9  O   UNL     1     -11.882 -14.296 -20.258  1.00  0.00    -0.545 OA
ENDBRANCH   1   7
BRANCH   6  10
ATOM     10  C   UNL     1     -12.346 -12.650 -13.845  1.00  0.00     0.013 C 
ATOM     11  C   UNL     1     -11.663 -11.304 -13.579  1.00  0.00     0.012 C 
ATOM     12  C   UNL     1     -13.862 -12.550 -13.641  1.00  0.00     0.012 C 
ENDBRANCH   6  10
TORSDOF 2
ENDMDL
MODEL 6
REMARK VINA RESULT:    -5.592      2.917      5.236
REMARK INTER + INTRA:          -6.451
REMARK INTER:                  -6.250
REMARK INTRA:                  -0.201
REMARK UNBOUND:                -0.205
REMARK SMILES CC(C)c1ccc(C(=O)[O-])cc1
REMARK SMILES IDX 7 1 6 2 11 3 5 4 12 5 4 6 8 7 9 8 10 9 2 10 1 11 3 12
REMARK H PARENT
REMARK Flexibility Score: inf
ROOT
ATOM      1  C   UNL     1     -12.469 -13.933 -15.829  1.00  0.00    -0.003 A 
ATOM      2  C   UNL     1     -12.840 -14.878 -16.800  1.00  0.00     0.010 A 
ATOM      3  C   UNL     1     -11.424 -13.039 -16.114  1.00  0.00     0.010 A 
ATOM      4  C   UNL     1     -12.180 -14.928 -18.031  1.00  0.00     0.004 A 
ATOM      5  C   UNL     1     -10.764 -13.088 -17.345  1.00  0.00     0.004 A 
ATOM      6  C   UNL     1     -11.135 -14.034 -18.317  1.00  0.00    -0.045 A 
ENDROOT
BRANCH   1   7
ATOM      7  C   UNL     1     -13.166 -13.877 -14.524  1.00  0.00     0.071 C 
ATOM      8  O   UNL     1     -13.144 -14.864 -13.743  1.00  0.00    -0.545 OA
ATOM      9  O   UNL     1     -13.855 -12.731 -14.142  1.00  0.00    -0.545 OA
ENDBRANCH   1   7
BRANCH   6  10
ATOM     10  C   UNL     1     -10.426 -14.099 -19.658  1.00  0.00     0.013 C 
ATOM     11  C   UNL     1     -10.596 -12.790 -20.437  1.00  0.00     0.012 C 
ATOM     12  C   UNL     1      -8.944 -14.449 -19.483  1.00  0.00     0.012 C 
ENDBRANCH   6  10
TORSDOF 2
ENDMDL
MODEL 7
REMARK VINA RESULT:    -5.557      8.894     10.590
REMARK INTER + INTRA:          -6.411
REMARK INTER:                  -6.196
REMARK INTRA:                  -0.215
REMARK UNBOUND:                -0.205
REMARK SMILES CC(C)c1ccc(C(=O)[O-])cc1
REMARK SMILES IDX 7 1 6 2 11 3 5 4 12 5 4 6 8 7 9 8 10 9 2 10 1 11 3 12
REMARK H PARENT
REMARK Flexibility Score: inf
ROOT
ATOM      1  C   UNL     1      -8.963 -20.522 -12.101  1.00  0.00    -0.003 A 
ATOM      2  C   UNL     1      -9.723 -21.661 -11.784  1.00  0.00     0.010 A 
ATOM      3  C   UNL     1      -7.678 -20.690 -12.640  1.00  0.00     0.010 A 
ATOM      4  C   UNL     1      -9.208 -22.941 -12.002  1.00  0.00     0.004 A 
ATOM      5  C   UNL     1      -7.162 -21.971 -12.858  1.00  0.00     0.004 A 
ATOM      6  C   UNL     1      -7.921 -23.111 -12.542  1.00  0.00    -0.045 A 
ENDROOT
BRANCH   1   7
ATOM      7  C   UNL     1      -9.507 -19.164 -11.872  1.00  0.00     0.071 C 
ATOM      8  O   UNL     1     -10.748 -18.979 -11.771  1.00  0.00    -0.545 OA
ATOM      9  O   UNL     1      -8.652 -18.072 -11.764  1.00  0.00    -0.545 OA
ENDBRANCH   1   7
BRANCH   6  10
ATOM     10  C   UNL     1      -7.373 -24.507 -12.773  1.00  0.00     0.013 C 
ATOM     11  C   UNL     1      -8.230 -25.276 -13.784  1.00  0.00     0.012 C 
ATOM     12  C   UNL     1      -5.906 -24.458 -13.216  1.00  0.00     0.012 C 
ENDBRANCH   6  10
TORSDOF 2
ENDMDL
MODEL 8
REMARK VINA RESULT:    -5.553     13.536     14.838
REMARK INTER + INTRA:          -6.407
REMARK INTER:                  -6.200
REMARK INTRA:                  -0.208
REMARK UNBOUND:                -0.205
REMARK SMILES CC(C)c1ccc(C(=O)[O-])cc1
REMARK SMILES IDX 7 1 6 2 11 3 5 4 12 5 4 6 8 7 9 8 10 9 2 10 1 11 3 12
REMARK H PARENT
REMARK Flexibility Score: inf
ROOT
ATOM      1  C   UNL     1     -14.756 -27.136 -15.369  1.00  0.00    -0.003 A 
ATOM      2  C   UNL     1     -15.792 -27.952 -15.854  1.00  0.00     0.010 A 
ATOM      3  C   UNL     1     -14.877 -26.573 -14.088  1.00  0.00     0.010 A 
ATOM      4  C   UNL     1     -16.925 -28.200 -15.074  1.00  0.00     0.004 A 
ATOM      5  C   UNL     1     -16.010 -26.821 -13.308  1.00  0.00     0.004 A 
ATOM      6  C   UNL     1     -17.047 -27.637 -13.793  1.00  0.00    -0.045 A 
ENDROOT
BRANCH   1   7
ATOM      7  C   UNL     1     -13.554 -26.872 -16.191  1.00  0.00     0.071 C 
ATOM      8  O   UNL     1     -13.661 -26.635 -17.424  1.00  0.00    -0.545 OA
ATOM      9  O   UNL     1     -12.290 -26.882 -15.614  1.00  0.00    -0.545 OA
ENDBRANCH   1   7
BRANCH   6  10
ATOM     10  C   UNL     1     -18.283 -27.914 -12.957  1.00  0.00     0.013 C 
ATOM     11  C   UNL     1     -19.559 -27.783 -13.796  1.00  0.00     0.012 C 
ATOM     12  C   UNL     1     -18.201 -29.292 -12.289  1.00  0.00     0.012 C 
ENDBRANCH   6  10
TORSDOF 2
ENDMDL
MODEL 9
REMARK VINA RESULT:    -5.513      3.870      5.509
REMARK INTER + INTRA:          -6.362
REMARK INTER:                  -6.147
REMARK INTRA:                  -0.214
REMARK UNBOUND:                -0.205
REMARK SMILES CC(C)c1ccc(C(=O)[O-])cc1
REMARK SMILES IDX 7 1 6 2 11 3 5 4 12 5 4 6 8 7 9 8 10 9 2 10 1 11 3 12
REMARK H PARENT
REMARK Flexibility Score: inf
ROOT
ATOM      1  C   UNL     1     -11.739 -14.784 -13.179  1.00  0.00    -0.003 A 
ATOM      2  C   UNL     1     -10.545 -14.913 -13.909  1.00  0.00     0.010 A 
ATOM      3  C   UNL     1     -12.920 -14.446 -13.860  1.00  0.00     0.010 A 
ATOM      4  C   UNL     1     -10.533 -14.708 -15.292  1.00  0.00     0.004 A 
ATOM      5  C   UNL     1     -12.908 -14.242 -15.243  1.00  0.00     0.004 A 
ATOM      6  C   UNL     1     -11.714 -14.370 -15.974  1.00  0.00    -0.045 A 
ENDROOT
BRANCH   1   7
ATOM      7  C   UNL     1     -11.756 -15.001 -11.715  1.00  0.00     0.071 C 
ATOM      8  O   UNL     1     -12.630 -14.449 -10.995  1.00  0.00    -0.545 OA
ATOM      9  O   UNL     1     -10.805 -15.819 -11.113  1.00  0.00    -0.545 OA
ENDBRANCH   1   7
BRANCH   6  10
ATOM     10  C   UNL     1     -11.687 -14.150 -17.476  1.00  0.00     0.013 C 
ATOM     11  C   UNL     1     -10.248 -14.094 -18.000  1.00  0.00     0.012 C 
ATOM     12  C   UNL     1     -12.500 -15.226 -18.206  1.00  0.00     0.012 C 
ENDBRANCH   6  10
TORSDOF 2
ENDMDL
