MODEL 1
REMARK VINA RESULT:    -4.123      0.000      0.000
REMARK INTER + INTRA:          -6.048
REMARK INTER:                  -5.569
REMARK INTRA:                  -0.479
REMARK UNBOUND:                -0.479
REMARK SMILES C[C@H](O)[C@@H](O)[C@@H](O)[C@H](O)C=O
REMARK SMILES IDX 4 1 2 2 1 3 3 4 6 6 8 7 10 8 11 9 9 10 7 12 5 14
REMARK H PARENT 3 5 9 11 7 13 5 15
REMARK Flexibility Score: inf
ROOT
ATOM      1  C   UNL     1       8.161  -2.465  -7.157  1.00  0.00     0.174 C 
ENDROOT
BRANCH   1   2
ATOM      2  C   UNL     1       8.314  -1.194  -6.278  1.00  0.00     0.142 C 
ATOM      3  C   UNL     1       6.952  -0.593  -5.909  1.00  0.00     0.041 C 
BRANCH   2   4
ATOM      4  O   UNL     1       9.125  -0.226  -6.897  1.00  0.00    -0.391 OA
ATOM      5  H   UNL     1       8.601   0.616  -6.950  1.00  0.00     0.211 HD
ENDBRANCH   2   4
ENDBRANCH   1   2
BRANCH   1   6
ATOM      6  C   UNL     1       9.097  -3.636  -6.744  1.00  0.00     0.181 C 
BRANCH   6   7
ATOM      7  C   UNL     1       8.716  -5.005  -7.367  1.00  0.00     0.209 C 
BRANCH   7   8
ATOM      8  C   UNL     1       8.950  -6.143  -6.407  1.00  0.00     0.258 C 
ATOM      9  O   UNL     1       8.227  -6.293  -5.435  1.00  0.00    -0.300 OA
ENDBRANCH   7   8
BRANCH   7  10
ATOM     10  O   UNL     1       7.370  -5.004  -7.774  1.00  0.00    -0.383 OA
ATOM     11  H   UNL     1       7.354  -4.985  -8.767  1.00  0.00     0.211 HD
ENDBRANCH   7  10
ENDBRANCH   6   7
BRANCH   6  12
ATOM     12  O   UNL     1       9.124  -3.743  -5.342  1.00  0.00    -0.387 OA
ATOM     13  H   UNL     1      10.053  -3.979  -5.084  1.00  0.00     0.211 HD
ENDBRANCH   6  12
ENDBRANCH   1   6
BRANCH   1  14
ATOM     14  O   UNL     1       8.400  -2.134  -8.503  1.00  0.00    -0.388 OA
ATOM     15  H   UNL     1       8.566  -2.986  -8.986  1.00  0.00     0.211 HD
ENDBRANCH   1  14
TORSDOF 8
ENDMDL
MODEL 2
REMARK VINA RESULT:    -3.779      1.621      4.365
REMARK INTER + INTRA:          -5.583
REMARK INTER:                  -5.136
REMARK INTRA:                  -0.447
REMARK UNBOUND:                -0.479
REMARK SMILES C[C@H](O)[C@@H](O)[C@@H](O)[C@H](O)C=O
REMARK SMILES IDX 4 1 2 2 1 3 3 4 6 6 8 7 10 8 11 9 9 10 7 12 5 14
REMARK H PARENT 3 5 9 11 7 13 5 15
REMARK Flexibility Score: inf
ROOT
ATOM      1  C   UNL     1       8.103  -3.981  -7.593  1.00  0.00     0.174 C 
ENDROOT
BRANCH   1   2
ATOM      2  C   UNL     1       7.884  -4.714  -8.943  1.00  0.00     0.142 C 
ATOM      3  C   UNL     1       7.389  -6.151  -8.734  1.00  0.00     0.041 C 
BRANCH   2   4
ATOM      4  O   UNL     1       9.046  -4.708  -9.736  1.00  0.00    -0.391 OA
ATOM      5  H   UNL     1       9.811  -4.947  -9.150  1.00  0.00     0.211 HD
ENDBRANCH   2   4
ENDBRANCH   1   2
BRANCH   1   6
ATOM      6  C   UNL     1       8.895  -2.648  -7.718  1.00  0.00     0.181 C 
BRANCH   6   7
ATOM      7  C   UNL     1       8.863  -1.768  -6.441  1.00  0.00     0.209 C 
BRANCH   7   8
ATOM      8  C   UNL     1       7.646  -0.879  -6.402  1.00  0.00     0.258 C 
ATOM      9  O   UNL     1       7.315  -0.327  -5.364  1.00  0.00    -0.300 OA
ENDBRANCH   7   8
BRANCH   7  10
ATOM     10  O   UNL     1       8.895  -2.570  -5.287  1.00  0.00    -0.383 OA
ATOM     11  H   UNL     1       9.066  -3.506  -5.573  1.00  0.00     0.211 HD
ENDBRANCH   7  10
ENDBRANCH   6   7
BRANCH   6  12
ATOM     12  O   UNL     1       8.407  -1.914  -8.813  1.00  0.00    -0.387 OA
ATOM     13  H   UNL     1       9.155  -1.352  -9.145  1.00  0.00     0.211 HD
ENDBRANCH   6  12
ENDBRANCH   1   6
BRANCH   1  14
ATOM     14  O   UNL     1       8.774  -4.836  -6.699  1.00  0.00    -0.388 OA
ATOM     15  H   UNL     1       8.095  -5.177  -6.059  1.00  0.00     0.211 HD
ENDBRANCH   1  14
TORSDOF 8
ENDMDL
MODEL 3
REMARK VINA RESULT:    -3.700     19.102     20.337
REMARK INTER + INTRA:          -5.477
REMARK INTER:                  -4.905
REMARK INTRA:                  -0.573
REMARK UNBOUND:                -0.479
REMARK SMILES C[C@H](O)[C@@H](O)[C@@H](O)[C@H](O)C=O
REMARK SMILES IDX 4 1 2 2 1 3 3 4 6 6 8 7 10 8 11 9 9 10 7 12 5 14
REMARK H PARENT 3 5 9 11 7 13 5 15
REMARK Flexibility Score: inf
ROOT
ATOM      1  C   UNL     1      -7.643   6.018  -0.607  1.00  0.00     0.174 C 
ENDROOT
BRANCH   1   2
ATOM      2  C   UNL     1      -7.578   7.198  -1.613  1.00  0.00     0.142 C 
ATOM      3  C   UNL     1      -8.690   7.105  -2.667  1.00  0.00     0.041 C 
BRANCH   2   4
ATOM      4  O   UNL     1      -6.320   7.285  -2.236  1.00  0.00    -0.391 OA
ATOM      5  H   UNL     1      -5.645   6.927  -1.602  1.00  0.00     0.211 HD
ENDBRANCH   2   4
ENDBRANCH   1   2
BRANCH   1   6
ATOM      6  C   UNL     1      -8.099   6.430   0.822  1.00  0.00     0.181 C 
BRANCH   6   7
ATOM      7  C   UNL     1      -7.310   7.624   1.421  1.00  0.00     0.209 C 
BRANCH   7   8
ATOM      8  C   UNL     1      -7.803   7.988   2.798  1.00  0.00     0.258 C 
ATOM      9  O   UNL     1      -7.558   7.268   3.754  1.00  0.00    -0.300 OA
ENDBRANCH   7   8
BRANCH   7  10
ATOM     10  O   UNL     1      -5.936   7.330   1.477  1.00  0.00    -0.383 OA
ATOM     11  H   UNL     1      -5.490   7.826   0.740  1.00  0.00     0.211 HD
ENDBRANCH   7  10
ENDBRANCH   6   7
BRANCH   6  12
ATOM     12  O   UNL     1      -8.008   5.321   1.681  1.00  0.00    -0.387 OA
ATOM     13  H   UNL     1      -7.386   4.673   1.260  1.00  0.00     0.211 HD
ENDBRANCH   6  12
ENDBRANCH   1   6
BRANCH   1  14
ATOM     14  O   UNL     1      -6.382   5.399  -0.529  1.00  0.00    -0.388 OA
ATOM     15  H   UNL     1      -5.847   5.912   0.131  1.00  0.00     0.211 HD
ENDBRANCH   1  14
TORSDOF 8
ENDMDL
MODEL 4
REMARK VINA RESULT:    -3.625     17.980     19.618
REMARK INTER + INTRA:          -5.376
REMARK INTER:                  -4.906
REMARK INTRA:                  -0.470
REMARK UNBOUND:                -0.479
REMARK SMILES C[C@H](O)[C@@H](O)[C@@H](O)[C@H](O)C=O
REMARK SMILES IDX 4 1 2 2 1 3 3 4 6 6 8 7 10 8 11 9 9 10 7 12 5 14
REMARK H PARENT 3 5 9 11 7 13 5 15
REMARK Flexibility Score: inf
ROOT
ATOM      1  C   UNL     1      -6.827   5.616  -1.037  1.00  0.00     0.174 C 
ENDROOT
BRANCH   1   2
ATOM      2  C   UNL     1      -6.653   6.331  -2.404  1.00  0.00     0.142 C 
ATOM      3  C   UNL     1      -5.444   5.788  -3.177  1.00  0.00     0.041 C 
BRANCH   2   4
ATOM      4  O   UNL     1      -6.553   7.725  -2.256  1.00  0.00    -0.391 OA
ATOM      5  H   UNL     1      -5.595   7.970  -2.343  1.00  0.00     0.211 HD
ENDBRANCH   2   4
ENDBRANCH   1   2
BRANCH   1   6
ATOM      6  C   UNL     1      -8.270   5.098  -0.773  1.00  0.00     0.181 C 
BRANCH   6   7
ATOM      7  C   UNL     1      -8.687   5.112   0.721  1.00  0.00     0.209 C 
BRANCH   7   8
ATOM      8  C   UNL     1     -10.173   4.928   0.891  1.00  0.00     0.258 C 
ATOM      9  O   UNL     1     -10.761   4.045   0.287  1.00  0.00    -0.300 OA
ENDBRANCH   7   8
BRANCH   7  10
ATOM     10  O   UNL     1      -8.006   4.110   1.433  1.00  0.00    -0.383 OA
ATOM     11  H   UNL     1      -7.310   3.731   0.834  1.00  0.00     0.211 HD
ENDBRANCH   7  10
ENDBRANCH   6   7
BRANCH   6  12
ATOM     12  O   UNL     1      -8.404   3.798  -1.292  1.00  0.00    -0.387 OA
ATOM     13  H   UNL     1      -9.375   3.624  -1.399  1.00  0.00     0.211 HD
ENDBRANCH   6  12
ENDBRANCH   1   6
BRANCH   1  14
ATOM     14  O   UNL     1      -6.453   6.490  -0.001  1.00  0.00    -0.388 OA
ATOM     15  H   UNL     1      -7.110   6.368   0.734  1.00  0.00     0.211 HD
ENDBRANCH   1  14
TORSDOF 8
ENDMDL
MODEL 5
REMARK VINA RESULT:    -3.618     13.162     14.690
REMARK INTER + INTRA:          -5.367
REMARK INTER:                  -4.784
REMARK INTRA:                  -0.583
REMARK UNBOUND:                -0.479
REMARK SMILES C[C@H](O)[C@@H](O)[C@@H](O)[C@H](O)C=O
REMARK SMILES IDX 4 1 2 2 1 3 3 4 6 6 8 7 10 8 11 9 9 10 7 12 5 14
REMARK H PARENT 3 5 9 11 7 13 5 15
REMARK Flexibility Score: inf
ROOT
ATOM      1  C   UNL     1       7.932  -9.515   6.766  1.00  0.00     0.174 C 
ENDROOT
BRANCH   1   2
ATOM      2  C   UNL     1       6.951  -9.298   7.950  1.00  0.00     0.142 C 
ATOM      3  C   UNL     1       6.577 -10.625   8.625  1.00  0.00     0.041 C 
BRANCH   2   4
ATOM      4  O   UNL     1       5.792  -8.609   7.549  1.00  0.00    -0.391 OA
ATOM      5  H   UNL     1       6.076  -7.856   6.967  1.00  0.00     0.211 HD
ENDBRANCH   2   4
ENDBRANCH   1   2
BRANCH   1   6
ATOM      6  C   UNL     1       7.276  -9.358   5.365  1.00  0.00     0.181 C 
BRANCH   6   7
ATOM      7  C   UNL     1       7.002 -10.700   4.637  1.00  0.00     0.209 C 
BRANCH   7   8
ATOM      8  C   UNL     1       5.551 -11.099   4.722  1.00  0.00     0.258 C 
ATOM      9  O   UNL     1       4.794 -10.522   5.487  1.00  0.00    -0.300 OA
ENDBRANCH   7   8
BRANCH   7  10
ATOM     10  O   UNL     1       7.387 -10.618   3.287  1.00  0.00    -0.383 OA
ATOM     11  H   UNL     1       8.273 -10.169   3.252  1.00  0.00     0.211 HD
ENDBRANCH   7  10
ENDBRANCH   6   7
BRANCH   6  12
ATOM     12  O   UNL     1       8.083  -8.536   4.559  1.00  0.00    -0.387 OA
ATOM     13  H   UNL     1       8.901  -9.053   4.339  1.00  0.00     0.211 HD
ENDBRANCH   6  12
ENDBRANCH   1   6
BRANCH   1  14
ATOM     14  O   UNL     1       8.510 -10.794   6.865  1.00  0.00    -0.388 OA
ATOM     15  H   UNL     1       7.783 -11.422   7.117  1.00  0.00     0.211 HD
ENDBRANCH   1  14
TORSDOF 8
ENDMDL
MODEL 6
REMARK VINA RESULT:    -3.597     18.500     20.199
REMARK INTER + INTRA:          -5.337
REMARK INTER:                  -4.708
REMARK INTRA:                  -0.630
REMARK UNBOUND:                -0.479
REMARK SMILES C[C@H](O)[C@@H](O)[C@@H](O)[C@H](O)C=O
REMARK SMILES IDX 4 1 2 2 1 3 3 4 6 6 8 7 10 8 11 9 9 10 7 12 5 14
REMARK H PARENT 3 5 9 11 7 13 5 15
REMARK Flexibility Score: inf
ROOT
ATOM      1  C   UNL     1      -8.754   6.074   1.009  1.00  0.00     0.174 C 
ENDROOT
BRANCH   1   2
ATOM      2  C   UNL     1      -9.142   4.571   1.028  1.00  0.00     0.142 C 
ATOM      3  C   UNL     1     -10.496   4.344   1.713  1.00  0.00     0.041 C 
BRANCH   2   4
ATOM      4  O   UNL     1      -8.148   3.782   1.636  1.00  0.00    -0.391 OA
ATOM      5  H   UNL     1      -8.545   3.370   2.447  1.00  0.00     0.211 HD
ENDBRANCH   2   4
ENDBRANCH   1   2
BRANCH   1   6
ATOM      6  C   UNL     1      -8.311   6.595  -0.388  1.00  0.00     0.181 C 
BRANCH   6   7
ATOM      7  C   UNL     1      -7.425   5.602  -1.185  1.00  0.00     0.209 C 
BRANCH   7   8
ATOM      8  C   UNL     1      -7.074   6.134  -2.551  1.00  0.00     0.258 C 
ATOM      9  O   UNL     1      -6.159   6.930  -2.689  1.00  0.00    -0.300 OA
ENDBRANCH   7   8
BRANCH   7  10
ATOM     10  O   UNL     1      -6.245   5.314  -0.477  1.00  0.00    -0.383 OA
ATOM     11  H   UNL     1      -5.788   6.176  -0.286  1.00  0.00     0.211 HD
ENDBRANCH   7  10
ENDBRANCH   6   7
BRANCH   6  12
ATOM     12  O   UNL     1      -7.637   7.820  -0.239  1.00  0.00    -0.387 OA
ATOM     13  H   UNL     1      -7.345   7.881   0.707  1.00  0.00     0.211 HD
ENDBRANCH   6  12
ENDBRANCH   1   6
BRANCH   1  14
ATOM     14  O   UNL     1      -7.721   6.302   1.937  1.00  0.00    -0.388 OA
ATOM     15  H   UNL     1      -7.953   7.132   2.432  1.00  0.00     0.211 HD
ENDBRANCH   1  14
TORSDOF 8
ENDMDL
MODEL 7
REMARK VINA RESULT:    -3.575     16.990     18.649
REMARK INTER + INTRA:          -5.308
REMARK INTER:                  -4.772
REMARK INTRA:                  -0.536
REMARK UNBOUND:                -0.479
REMARK SMILES C[C@H](O)[C@@H](O)[C@@H](O)[C@H](O)C=O
REMARK SMILES IDX 4 1 2 2 1 3 3 4 6 6 8 7 10 8 11 9 9 10 7 12 5 14
REMARK H PARENT 3 5 9 11 7 13 5 15
REMARK Flexibility Score: inf
ROOT
ATOM      1  C   UNL     1      -7.151   5.831  -1.360  1.00  0.00     0.174 C 
ENDROOT
BRANCH   1   2
ATOM      2  C   UNL     1      -8.114   4.615  -1.428  1.00  0.00     0.142 C 
ATOM      3  C   UNL     1      -9.398   4.953  -2.197  1.00  0.00     0.041 C 
BRANCH   2   4
ATOM      4  O   UNL     1      -8.426   4.123  -0.147  1.00  0.00    -0.391 OA
ATOM      5  H   UNL     1      -8.879   3.247  -0.263  1.00  0.00     0.211 HD
ENDBRANCH   2   4
ENDBRANCH   1   2
BRANCH   1   6
ATOM      6  C   UNL     1      -6.911   6.525  -2.731  1.00  0.00     0.181 C 
BRANCH   6   7
ATOM      7  C   UNL     1      -5.979   5.735  -3.688  1.00  0.00     0.209 C 
BRANCH   7   8
ATOM      8  C   UNL     1      -6.080   6.233  -5.107  1.00  0.00     0.258 C 
ATOM      9  O   UNL     1      -6.017   7.427  -5.350  1.00  0.00    -0.300 OA
ENDBRANCH   7   8
BRANCH   7  10
ATOM     10  O   UNL     1      -4.644   5.815  -3.256  1.00  0.00    -0.383 OA
ATOM     11  H   UNL     1      -4.334   6.748  -3.402  1.00  0.00     0.211 HD
ENDBRANCH   7  10
ENDBRANCH   6   7
BRANCH   6  12
ATOM     12  O   UNL     1      -6.391   7.814  -2.519  1.00  0.00    -0.387 OA
ATOM     13  H   UNL     1      -6.317   8.250  -3.408  1.00  0.00     0.211 HD
ENDBRANCH   6  12
ENDBRANCH   1   6
BRANCH   1  14
ATOM     14  O   UNL     1      -5.916   5.420  -0.826  1.00  0.00    -0.388 OA
ATOM     15  H   UNL     1      -5.707   4.535  -1.226  1.00  0.00     0.211 HD
ENDBRANCH   1  14
TORSDOF 8
ENDMDL
MODEL 8
REMARK VINA RESULT:    -3.511     12.124     13.928
REMARK INTER + INTRA:          -5.222
REMARK INTER:                  -4.908
REMARK INTRA:                  -0.314
REMARK UNBOUND:                -0.479
REMARK SMILES C[C@H](O)[C@@H](O)[C@@H](O)[C@H](O)C=O
REMARK SMILES IDX 4 1 2 2 1 3 3 4 6 6 8 7 10 8 11 9 9 10 7 12 5 14
REMARK H PARENT 3 5 9 11 7 13 5 15
REMARK Flexibility Score: inf
ROOT
ATOM      1  C   UNL     1       7.710  -9.618   6.170  1.00  0.00     0.174 C 
ENDROOT
BRANCH   1   2
ATOM      2  C   UNL     1       6.469 -10.001   5.320  1.00  0.00     0.142 C 
ATOM      3  C   UNL     1       5.256 -10.323   6.203  1.00  0.00     0.041 C 
BRANCH   2   4
ATOM      4  O   UNL     1       6.740 -11.072   4.451  1.00  0.00    -0.391 OA
ATOM      5  H   UNL     1       5.999 -11.121   3.792  1.00  0.00     0.211 HD
ENDBRANCH   2   4
ENDBRANCH   1   2
BRANCH   1   6
ATOM      6  C   UNL     1       8.757  -8.756   5.408  1.00  0.00     0.181 C 
BRANCH   6   7
ATOM      7  C   UNL     1       8.285  -7.310   5.100  1.00  0.00     0.209 C 
BRANCH   7   8
ATOM      8  C   UNL     1       8.696  -6.344   6.182  1.00  0.00     0.258 C 
ATOM      9  O   UNL     1       8.809  -5.152   5.938  1.00  0.00    -0.300 OA
ENDBRANCH   7   8
BRANCH   7  10
ATOM     10  O   UNL     1       8.796  -6.876   3.865  1.00  0.00    -0.383 OA
ATOM     11  H   UNL     1       8.647  -5.895   3.803  1.00  0.00     0.211 HD
ENDBRANCH   7  10
ENDBRANCH   6   7
BRANCH   6  12
ATOM     12  O   UNL     1       9.116  -9.402   4.213  1.00  0.00    -0.387 OA
ATOM     13  H   UNL     1       8.309  -9.424   3.636  1.00  0.00     0.211 HD
ENDBRANCH   6  12
ENDBRANCH   1   6
BRANCH   1  14
ATOM     14  O   UNL     1       8.332 -10.788   6.643  1.00  0.00    -0.388 OA
ATOM     15  H   UNL     1       9.162 -10.507   7.112  1.00  0.00     0.211 HD
ENDBRANCH   1  14
TORSDOF 8
ENDMDL
MODEL 9
REMARK VINA RESULT:    -3.490     17.505     19.226
REMARK INTER + INTRA:          -5.193
REMARK INTER:                  -4.471
REMARK INTRA:                  -0.723
REMARK UNBOUND:                -0.479
REMARK SMILES C[C@H](O)[C@@H](O)[C@@H](O)[C@H](O)C=O
REMARK SMILES IDX 4 1 2 2 1 3 3 4 6 6 8 7 10 8 11 9 9 10 7 12 5 14
REMARK H PARENT 3 5 9 11 7 13 5 15
REMARK Flexibility Score: inf
ROOT
ATOM      1  C   UNL     1      -7.490   6.326  -0.325  1.00  0.00     0.174 C 
ENDROOT
BRANCH   1   2
ATOM      2  C   UNL     1      -8.487   5.609   0.625  1.00  0.00     0.142 C 
ATOM      3  C   UNL     1      -8.730   6.418   1.906  1.00  0.00     0.041 C 
BRANCH   2   4
ATOM      4  O   UNL     1      -8.061   4.307   0.942  1.00  0.00    -0.391 OA
ATOM      5  H   UNL     1      -8.496   3.684   0.302  1.00  0.00     0.211 HD
ENDBRANCH   2   4
ENDBRANCH   1   2
BRANCH   1   6
ATOM      6  C   UNL     1      -6.936   5.420  -1.461  1.00  0.00     0.181 C 
BRANCH   6   7
ATOM      7  C   UNL     1      -6.158   6.187  -2.563  1.00  0.00     0.209 C 
BRANCH   7   8
ATOM      8  C   UNL     1      -6.606   5.790  -3.946  1.00  0.00     0.258 C 
ATOM      9  O   UNL     1      -6.200   4.757  -4.456  1.00  0.00    -0.300 OA
ENDBRANCH   7   8
BRANCH   7  10
ATOM     10  O   UNL     1      -6.311   7.575  -2.401  1.00  0.00    -0.383 OA
ATOM     11  H   UNL     1      -7.284   7.769  -2.350  1.00  0.00     0.211 HD
ENDBRANCH   7  10
ENDBRANCH   6   7
BRANCH   6  12
ATOM     12  O   UNL     1      -7.992   4.697  -2.041  1.00  0.00    -0.387 OA
ATOM     13  H   UNL     1      -8.818   4.935  -1.545  1.00  0.00     0.211 HD
ENDBRANCH   6  12
ENDBRANCH   1   6
BRANCH   1  14
ATOM     14  O   UNL     1      -6.415   6.838   0.424  1.00  0.00    -0.388 OA
ATOM     15  H   UNL     1      -5.792   7.269  -0.218  1.00  0.00     0.211 HD
ENDBRANCH   1  14
TORSDOF 8
ENDMDL
