MODEL 1
REMARK VINA RESULT:    -4.449      0.000      0.000
REMARK INTER + INTRA:          -7.185
REMARK INTER:                  -6.790
REMARK INTRA:                  -0.395
REMARK UNBOUND:                -0.395
REMARK SMILES CC1=CCC[C@@H](C)C(=O)C[C@H](C(C)C)C(=O)C1
REMARK SMILES IDX 8 1 9 2 6 3 7 4 5 5 4 6 3 7 2 8 1 9 10 11 11 12 15 13 16 14
REMARK SMILES IDX 17 15 12 17 13 18 14 19
REMARK H PARENT
REMARK Flexibility Score: 70.00
ROOT
ATOM      1  C   UNL     1      17.987 -12.776  67.245  1.00  0.00     0.136 C 
ATOM      2  O   UNL     1      17.351 -13.262  68.168  1.00  0.00    -0.299 OA
ENDROOT
BRANCH   1   3
ATOM      3  C   UNL     1      19.267 -12.010  67.590  1.00  0.00     0.053 C 
ATOM      4  C   UNL     1      20.113 -12.859  68.554  1.00  0.00     0.016 C 
BRANCH   3   5
ATOM      5  C   UNL     1      19.093 -10.595  68.200  1.00  0.00     0.015 C 
BRANCH   5   6
ATOM      6  C   UNL     1      19.109  -9.402  67.228  1.00  0.00     0.028 C 
BRANCH   6   7
ATOM      7  C   UNL     1      19.983  -9.590  66.012  1.00  0.00    -0.028 C 
ATOM      8  C   UNL     1      19.589  -9.585  64.713  1.00  0.00    -0.070 CG0
ATOM      9  C   UNL     1      20.680  -9.681  63.673  1.00  0.00     0.039 C 
ATOM     10  G   UNL     1      18.141  -9.599  64.228  1.00  0.00     0.000 G0
ENDBRANCH   6   7
ENDBRANCH   5   6
ENDBRANCH   3   5
ENDBRANCH   1   3
BRANCH   1  11
ATOM     11  C   UNL     1      17.429 -12.939  65.851  1.00  0.00     0.087 C 
BRANCH  11  12
ATOM     12  C   UNL     1      16.758 -11.675  65.227  1.00  0.00     0.066 C 
BRANCH  12  13
ATOM     13  C   UNL     1      17.538 -10.988  64.102  1.00  0.00     0.140 C 
ATOM     14  O   UNL     1      17.747 -11.614  63.073  1.00  0.00    -0.299 OA
BRANCH  13  15
ATOM     15  C   UNL     1      18.142  -9.608  64.224  1.00  0.00     0.106 CG0
ATOM     16  G   UNL     1      19.591  -9.567  64.705  1.00  0.00     0.000 G0
ENDBRANCH  13  15
ENDBRANCH  12  13
BRANCH  12  17
ATOM     17  C   UNL     1      15.221 -11.827  64.950  1.00  0.00    -0.006 C 
ATOM     18  C   UNL     1      14.430 -11.874  66.269  1.00  0.00     0.008 C 
ATOM     19  C   UNL     1      14.607 -10.749  64.042  1.00  0.00     0.008 C 
ENDBRANCH  12  17
ENDBRANCH  11  12
ENDBRANCH   1  11
TORSDOF 1
ENDMDL
MODEL 2
REMARK VINA RESULT:    -4.336      1.968      4.545
REMARK INTER + INTRA:          -7.012
REMARK INTER:                  -6.498
REMARK INTRA:                  -0.514
REMARK UNBOUND:                -0.395
REMARK SMILES CC1=CCC[C@@H](C)C(=O)C[C@H](C(C)C)C(=O)C1
REMARK SMILES IDX 8 1 9 2 6 3 7 4 5 5 4 6 3 7 2 8 1 9 10 11 11 12 15 13 16 14
REMARK SMILES IDX 17 15 12 17 13 18 14 19
REMARK H PARENT
REMARK Flexibility Score: 70.00
ROOT
ATOM      1  C   UNL     1      20.841 -11.077  65.583  1.00  0.00     0.136 C 
ATOM      2  O   UNL     1      21.930 -10.686  65.975  1.00  0.00    -0.299 OA
ENDROOT
BRANCH   1   3
ATOM      3  C   UNL     1      20.280 -10.454  64.303  1.00  0.00     0.053 C 
ATOM      4  C   UNL     1      21.430  -9.790  63.526  1.00  0.00     0.016 C 
BRANCH   3   5
ATOM      5  C   UNL     1      19.136  -9.420  64.470  1.00  0.00     0.015 C 
BRANCH   5   6
ATOM      6  C   UNL     1      17.783  -9.756  63.816  1.00  0.00     0.028 C 
BRANCH   6   7
ATOM      7  C   UNL     1      17.542 -11.228  63.585  1.00  0.00    -0.028 C 
ATOM      8  C   UNL     1      16.952 -12.103  64.439  1.00  0.00    -0.070 CG0
ATOM      9  C   UNL     1      16.725 -13.505  63.923  1.00  0.00     0.039 C 
ATOM     10  G   UNL     1      16.605 -11.818  65.898  1.00  0.00     0.000 G0
ENDBRANCH   6   7
ENDBRANCH   5   6
ENDBRANCH   3   5
ENDBRANCH   1   3
BRANCH   1  11
ATOM     11  C   UNL     1      20.129 -12.112  66.422  1.00  0.00     0.087 C 
BRANCH  11  12
ATOM     12  C   UNL     1      18.899 -11.604  67.239  1.00  0.00     0.066 C 
BRANCH  12  13
ATOM     13  C   UNL     1      17.567 -12.302  66.949  1.00  0.00     0.140 C 
ATOM     14  O   UNL     1      17.313 -13.341  67.542  1.00  0.00    -0.299 OA
BRANCH  13  15
ATOM     15  C   UNL     1      16.582 -11.828  65.905  1.00  0.00     0.106 CG0
ATOM     16  G   UNL     1      16.972 -12.117  64.458  1.00  0.00     0.000 G0
ENDBRANCH  13  15
ENDBRANCH  12  13
BRANCH  12  17
ATOM     17  C   UNL     1      19.187 -11.368  68.764  1.00  0.00    -0.006 C 
ATOM     18  C   UNL     1      20.438 -12.145  69.210  1.00  0.00     0.008 C 
ATOM     19  C   UNL     1      19.342  -9.896  69.183  1.00  0.00     0.008 C 
ENDBRANCH  12  17
ENDBRANCH  11  12
ENDBRANCH   1  11
TORSDOF 1
ENDMDL
MODEL 3
REMARK VINA RESULT:    -4.104      1.679      4.164
REMARK INTER + INTRA:          -6.658
REMARK INTER:                  -6.739
REMARK INTRA:                   0.081
REMARK UNBOUND:                -0.395
REMARK SMILES CC1=CCC[C@@H](C)C(=O)C[C@H](C(C)C)C(=O)C1
REMARK SMILES IDX 8 1 9 2 6 3 7 4 5 5 4 6 3 7 2 8 1 9 10 11 11 12 15 13 16 14
REMARK SMILES IDX 17 15 12 17 13 18 14 19
REMARK H PARENT
REMARK Flexibility Score: 70.00
ROOT
ATOM      1  C   UNL     1      16.135 -11.101  65.388  1.00  0.00     0.136 C 
ATOM      2  O   UNL     1      15.805 -12.259  65.184  1.00  0.00    -0.299 OA
ENDROOT
BRANCH   1   3
ATOM      3  C   UNL     1      16.046 -10.121  64.215  1.00  0.00     0.053 C 
ATOM      4  C   UNL     1      14.791 -10.446  63.387  1.00  0.00     0.016 C 
BRANCH   3   5
ATOM      5  C   UNL     1      17.266 -10.058  63.260  1.00  0.00     0.015 C 
BRANCH   5   6
ATOM      6  C   UNL     1      18.494  -9.261  63.738  1.00  0.00     0.028 C 
BRANCH   6   7
ATOM      7  C   UNL     1      19.723 -10.095  64.004  1.00  0.00    -0.028 C 
ATOM      8  C   UNL     1      20.386 -10.221  65.181  1.00  0.00    -0.070 CG0
ATOM      9  C   UNL     1      21.527 -11.210  65.215  1.00  0.00     0.039 C 
ATOM     10  G   UNL     1      20.145  -9.373  66.428  1.00  0.00     0.000 G0
ENDBRANCH   6   7
ENDBRANCH   5   6
ENDBRANCH   3   5
ENDBRANCH   1   3
BRANCH   1  11
ATOM     11  C   UNL     1      16.640 -10.752  66.767  1.00  0.00     0.087 C 
BRANCH  11  12
ATOM     12  C   UNL     1      18.140 -11.078  67.052  1.00  0.00     0.066 C 
BRANCH  12  13
ATOM     13  C   UNL     1      19.039  -9.880  67.373  1.00  0.00     0.140 C 
ATOM     14  O   UNL     1      18.813  -9.240  68.390  1.00  0.00    -0.299 OA
BRANCH  13  15
ATOM     15  C   UNL     1      20.137  -9.388  66.459  1.00  0.00     0.106 CG0
ATOM     16  G   UNL     1      20.359 -10.216  65.196  1.00  0.00     0.000 G0
ENDBRANCH  13  15
ENDBRANCH  12  13
BRANCH  12  17
ATOM     17  C   UNL     1      18.367 -12.324  67.979  1.00  0.00    -0.006 C 
ATOM     18  C   UNL     1      18.367 -13.625  67.156  1.00  0.00     0.008 C 
ATOM     19  C   UNL     1      19.643 -12.282  68.837  1.00  0.00     0.008 C 
ENDBRANCH  12  17
ENDBRANCH  11  12
ENDBRANCH   1  11
TORSDOF 1
ENDMDL
MODEL 4
REMARK VINA RESULT:    -4.047      1.815      4.501
REMARK INTER + INTRA:          -6.572
REMARK INTER:                  -6.494
REMARK INTRA:                  -0.078
REMARK UNBOUND:                -0.395
REMARK SMILES CC1=CCC[C@@H](C)C(=O)C[C@H](C(C)C)C(=O)C1
REMARK SMILES IDX 8 1 9 2 6 3 7 4 5 5 4 6 3 7 2 8 1 9 10 11 11 12 15 13 16 14
REMARK SMILES IDX 17 15 12 17 13 18 14 19
REMARK H PARENT
REMARK Flexibility Score: 70.00
ROOT
ATOM      1  C   UNL     1      16.497 -12.915  62.948  1.00  0.00     0.136 C 
ATOM      2  O   UNL     1      17.250 -13.041  61.994  1.00  0.00    -0.299 OA
ENDROOT
BRANCH   1   3
ATOM      3  C   UNL     1      15.223 -12.091  62.744  1.00  0.00     0.053 C 
ATOM      4  C   UNL     1      14.272 -12.865  61.815  1.00  0.00     0.016 C 
BRANCH   3   5
ATOM      5  C   UNL     1      15.400 -10.655  62.185  1.00  0.00     0.015 C 
BRANCH   5   6
ATOM      6  C   UNL     1      15.923  -9.581  63.156  1.00  0.00     0.028 C 
BRANCH   6   7
ATOM      7  C   UNL     1      17.423  -9.411  63.161  1.00  0.00    -0.028 C 
ATOM      8  C   UNL     1      18.273  -9.694  64.180  1.00  0.00    -0.070 CG0
ATOM      9  C   UNL     1      19.749  -9.543  63.894  1.00  0.00     0.039 C 
ATOM     10  G   UNL     1      17.860 -10.042  65.608  1.00  0.00     0.000 G0
ENDBRANCH   6   7
ENDBRANCH   5   6
ENDBRANCH   3   5
ENDBRANCH   1   3
BRANCH   1  11
ATOM     11  C   UNL     1      16.914 -13.550  64.254  1.00  0.00     0.087 C 
BRANCH  11  12
ATOM     12  C   UNL     1      17.854 -12.697  65.162  1.00  0.00     0.066 C 
BRANCH  12  13
ATOM     13  C   UNL     1      17.242 -11.425  65.755  1.00  0.00     0.140 C 
ATOM     14  O   UNL     1      16.157 -11.506  66.314  1.00  0.00    -0.299 OA
BRANCH  13  15
ATOM     15  C   UNL     1      17.860 -10.053  65.613  1.00  0.00     0.106 CG0
ATOM     16  G   UNL     1      18.295  -9.673  64.200  1.00  0.00     0.000 G0
ENDBRANCH  13  15
ENDBRANCH  12  13
BRANCH  12  17
ATOM     17  C   UNL     1      18.710 -13.536  66.176  1.00  0.00    -0.006 C 
ATOM     18  C   UNL     1      20.176 -13.065  66.173  1.00  0.00     0.008 C 
ATOM     19  C   UNL     1      18.195 -13.541  67.625  1.00  0.00     0.008 C 
ENDBRANCH  12  17
ENDBRANCH  11  12
ENDBRANCH   1  11
TORSDOF 1
ENDMDL
MODEL 5
REMARK VINA RESULT:    -3.920     12.511     13.936
REMARK INTER + INTRA:          -6.378
REMARK INTER:                  -5.999
REMARK INTRA:                  -0.379
REMARK UNBOUND:                -0.395
REMARK SMILES CC1=CCC[C@@H](C)C(=O)C[C@H](C(C)C)C(=O)C1
REMARK SMILES IDX 8 1 9 2 6 3 7 4 5 5 4 6 3 7 2 8 1 9 10 11 11 12 15 13 16 14
REMARK SMILES IDX 17 15 12 17 13 18 14 19
REMARK H PARENT
REMARK Flexibility Score: 70.00
ROOT
ATOM      1  C   UNL     1       7.064  -9.209  55.110  1.00  0.00     0.136 C 
ATOM      2  O   UNL     1       5.986  -9.785  55.126  1.00  0.00    -0.299 OA
ENDROOT
BRANCH   1   3
ATOM      3  C   UNL     1       8.280  -9.991  54.610  1.00  0.00     0.053 C 
ATOM      4  C   UNL     1       8.819 -10.864  55.756  1.00  0.00     0.016 C 
BRANCH   3   5
ATOM      5  C   UNL     1       9.454  -9.163  54.026  1.00  0.00     0.015 C 
BRANCH   5   6
ATOM      6  C   UNL     1      10.778  -9.167  54.813  1.00  0.00     0.028 C 
BRANCH   6   7
ATOM      7  C   UNL     1      11.393  -7.805  55.022  1.00  0.00    -0.028 C 
ATOM      8  C   UNL     1      11.277  -7.016  56.120  1.00  0.00    -0.070 CG0
ATOM      9  C   UNL     1      12.086  -5.740  56.127  1.00  0.00     0.039 C 
ATOM     10  G   UNL     1      10.321  -7.257  57.286  1.00  0.00     0.000 G0
ENDBRANCH   6   7
ENDBRANCH   5   6
ENDBRANCH   3   5
ENDBRANCH   1   3
BRANCH   1  11
ATOM     11  C   UNL     1       7.104  -7.790  55.626  1.00  0.00     0.087 C 
BRANCH  11  12
ATOM     12  C   UNL     1       7.684  -7.597  57.062  1.00  0.00     0.066 C 
BRANCH  12  13
ATOM     13  C   UNL     1       8.932  -6.715  57.170  1.00  0.00     0.140 C 
ATOM     14  O   UNL     1       8.799  -5.504  57.062  1.00  0.00    -0.299 OA
BRANCH  13  15
ATOM     15  C   UNL     1      10.334  -7.261  57.312  1.00  0.00     0.106 CG0
ATOM     16  G   UNL     1      11.265  -6.992  56.133  1.00  0.00     0.000 G0
ENDBRANCH  13  15
ENDBRANCH  12  13
BRANCH  12  17
ATOM     17  C   UNL     1       6.603  -7.325  58.167  1.00  0.00    -0.006 C 
ATOM     18  C   UNL     1       5.256  -6.941  57.530  1.00  0.00     0.008 C 
ATOM     19  C   UNL     1       6.371  -8.478  59.158  1.00  0.00     0.008 C 
ENDBRANCH  12  17
ENDBRANCH  11  12
ENDBRANCH   1  11
TORSDOF 1
ENDMDL
MODEL 6
REMARK VINA RESULT:    -3.892      2.237      4.014
REMARK INTER + INTRA:          -6.335
REMARK INTER:                  -5.965
REMARK INTRA:                  -0.369
REMARK UNBOUND:                -0.395
REMARK SMILES CC1=CCC[C@@H](C)C(=O)C[C@H](C(C)C)C(=O)C1
REMARK SMILES IDX 8 1 9 2 6 3 7 4 5 5 4 6 3 7 2 8 1 9 10 11 11 12 15 13 16 14
REMARK SMILES IDX 17 15 12 17 13 18 14 19
REMARK H PARENT
REMARK Flexibility Score: 70.00
ROOT
ATOM      1  C   UNL     1      20.166 -10.342  64.327  1.00  0.00     0.136 C 
ATOM      2  O   UNL     1      20.603 -10.251  63.189  1.00  0.00    -0.299 OA
ENDROOT
BRANCH   1   3
ATOM      3  C   UNL     1      21.029 -11.068  65.362  1.00  0.00     0.053 C 
ATOM      4  C   UNL     1      22.512 -10.808  65.047  1.00  0.00     0.016 C 
BRANCH   3   5
ATOM      5  C   UNL     1      20.814 -12.597  65.504  1.00  0.00     0.015 C 
BRANCH   5   6
ATOM      6  C   UNL     1      20.482 -13.134  66.908  1.00  0.00     0.028 C 
BRANCH   6   7
ATOM      7  C   UNL     1      20.330 -12.073  67.970  1.00  0.00    -0.028 C 
ATOM      8  C   UNL     1      19.174 -11.502  68.396  1.00  0.00    -0.070 CG0
ATOM      9  C   UNL     1      19.280 -10.541  69.557  1.00  0.00     0.039 C 
ATOM     10  G   UNL     1      17.809 -11.667  67.733  1.00  0.00     0.000 G0
ENDBRANCH   6   7
ENDBRANCH   5   6
ENDBRANCH   3   5
ENDBRANCH   1   3
BRANCH   1  11
ATOM     11  C   UNL     1      18.795  -9.767  64.596  1.00  0.00     0.087 C 
BRANCH  11  12
ATOM     12  C   UNL     1      17.746 -10.750  65.204  1.00  0.00     0.066 C 
BRANCH  12  13
ATOM     13  C   UNL     1      17.473 -10.597  66.703  1.00  0.00     0.140 C 
ATOM     14  O   UNL     1      17.026  -9.533  67.107  1.00  0.00    -0.299 OA
BRANCH  13  15
ATOM     15  C   UNL     1      17.807 -11.657  67.728  1.00  0.00     0.106 CG0
ATOM     16  G   UNL     1      19.172 -11.515  68.396  1.00  0.00     0.000 G0
ENDBRANCH  13  15
ENDBRANCH  12  13
BRANCH  12  17
ATOM     17  C   UNL     1      16.458 -10.945  64.328  1.00  0.00    -0.006 C 
ATOM     18  C   UNL     1      16.816 -11.546  62.957  1.00  0.00     0.008 C 
ATOM     19  C   UNL     1      15.351 -11.799  64.968  1.00  0.00     0.008 C 
ENDBRANCH  12  17
ENDBRANCH  11  12
ENDBRANCH   1  11
TORSDOF 1
ENDMDL
MODEL 7
REMARK VINA RESULT:    -3.789     15.042     17.117
REMARK INTER + INTRA:          -6.177
REMARK INTER:                  -5.828
REMARK INTRA:                  -0.349
REMARK UNBOUND:                -0.395
REMARK SMILES CC1=CCC[C@@H](C)C(=O)C[C@H](C(C)C)C(=O)C1
REMARK SMILES IDX 8 1 9 2 6 3 7 4 5 5 4 6 3 7 2 8 1 9 10 11 11 12 15 13 16 14
REMARK SMILES IDX 17 15 12 17 13 18 14 19
REMARK H PARENT
REMARK Flexibility Score: 70.00
ROOT
ATOM      1  C   UNL     1       8.861   0.756  62.498  1.00  0.00     0.136 C 
ATOM      2  O   UNL     1       8.774  -0.432  62.226  1.00  0.00    -0.299 OA
ENDROOT
BRANCH   1   3
ATOM      3  C   UNL     1       7.587   1.480  62.939  1.00  0.00     0.053 C 
ATOM      4  C   UNL     1       6.993   0.748  64.154  1.00  0.00     0.016 C 
BRANCH   3   5
ATOM      5  C   UNL     1       6.474   1.652  61.873  1.00  0.00     0.015 C 
BRANCH   5   6
ATOM      6  C   UNL     1       6.539   2.908  60.984  1.00  0.00     0.028 C 
BRANCH   6   7
ATOM      7  C   UNL     1       7.288   4.071  61.588  1.00  0.00    -0.028 C 
ATOM      8  C   UNL     1       8.444   4.621  61.138  1.00  0.00    -0.070 CG0
ATOM      9  C   UNL     1       8.933   5.856  61.857  1.00  0.00     0.039 C 
ATOM     10  G   UNL     1       9.337   4.035  60.047  1.00  0.00     0.000 G0
ENDBRANCH   6   7
ENDBRANCH   5   6
ENDBRANCH   3   5
ENDBRANCH   1   3
BRANCH   1  11
ATOM     11  C   UNL     1      10.212   1.411  62.332  1.00  0.00     0.087 C 
BRANCH  11  12
ATOM     12  C   UNL     1      10.608   1.809  60.875  1.00  0.00     0.066 C 
BRANCH  12  13
ATOM     13  C   UNL     1      10.582   3.307  60.557  1.00  0.00     0.140 C 
ATOM     14  O   UNL     1      11.583   3.969  60.792  1.00  0.00    -0.299 OA
BRANCH  13  15
ATOM     15  C   UNL     1       9.359   4.035  60.051  1.00  0.00     0.106 CG0
ATOM     16  G   UNL     1       8.451   4.620  61.130  1.00  0.00     0.000 G0
ENDBRANCH  13  15
ENDBRANCH  12  13
BRANCH  12  17
ATOM     17  C   UNL     1      11.863   1.050  60.315  1.00  0.00    -0.006 C 
ATOM     18  C   UNL     1      11.858  -0.421  60.765  1.00  0.00     0.008 C 
ATOM     19  C   UNL     1      12.034   1.100  58.787  1.00  0.00     0.008 C 
ENDBRANCH  12  17
ENDBRANCH  11  12
ENDBRANCH   1  11
TORSDOF 1
ENDMDL
MODEL 8
REMARK VINA RESULT:    -3.759      2.105      5.231
REMARK INTER + INTRA:          -6.132
REMARK INTER:                  -5.972
REMARK INTRA:                  -0.160
REMARK UNBOUND:                -0.395
REMARK SMILES CC1=CCC[C@@H](C)C(=O)C[C@H](C(C)C)C(=O)C1
REMARK SMILES IDX 8 1 9 2 6 3 7 4 5 5 4 6 3 7 2 8 1 9 10 11 11 12 15 13 16 14
REMARK SMILES IDX 17 15 12 17 13 18 14 19
REMARK H PARENT
REMARK Flexibility Score: 70.00
ROOT
ATOM      1  C   UNL     1      18.695 -10.171  63.894  1.00  0.00     0.136 C 
ATOM      2  O   UNL     1      19.478  -9.280  63.599  1.00  0.00    -0.299 OA
ENDROOT
BRANCH   1   3
ATOM      3  C   UNL     1      17.368 -10.231  63.134  1.00  0.00     0.053 C 
ATOM      4  C   UNL     1      16.594  -8.924  63.377  1.00  0.00     0.016 C 
BRANCH   3   5
ATOM      5  C   UNL     1      16.432 -11.426  63.452  1.00  0.00     0.015 C 
BRANCH   5   6
ATOM      6  C   UNL     1      15.427 -11.246  64.605  1.00  0.00     0.028 C 
BRANCH   6   7
ATOM      7  C   UNL     1      15.794 -11.964  65.880  1.00  0.00    -0.028 C 
ATOM      8  C   UNL     1      16.406 -11.435  66.969  1.00  0.00    -0.070 CG0
ATOM      9  C   UNL     1      16.561 -12.341  68.168  1.00  0.00     0.039 C 
ATOM     10  G   UNL     1      17.041 -10.048  67.041  1.00  0.00     0.000 G0
ENDBRANCH   6   7
ENDBRANCH   5   6
ENDBRANCH   3   5
ENDBRANCH   1   3
BRANCH   1  11
ATOM     11  C   UNL     1      19.091 -11.105  65.013  1.00  0.00     0.087 C 
BRANCH  11  12
ATOM     12  C   UNL     1      19.606 -10.430  66.322  1.00  0.00     0.066 C 
BRANCH  12  13
ATOM     13  C   UNL     1      18.532 -10.019  67.333  1.00  0.00     0.140 C 
ATOM     14  O   UNL     1      18.883  -9.713  68.464  1.00  0.00    -0.299 OA
BRANCH  13  15
ATOM     15  C   UNL     1      17.050 -10.055  67.041  1.00  0.00     0.106 CG0
ATOM     16  G   UNL     1      16.429 -11.448  66.971  1.00  0.00     0.000 G0
ENDBRANCH  13  15
ENDBRANCH  12  13
BRANCH  12  17
ATOM     17  C   UNL     1      20.862 -11.124  66.959  1.00  0.00    -0.006 C 
ATOM     18  C   UNL     1      20.583 -12.613  67.231  1.00  0.00     0.008 C 
ATOM     19  C   UNL     1      22.162 -11.005  66.147  1.00  0.00     0.008 C 
ENDBRANCH  12  17
ENDBRANCH  11  12
ENDBRANCH   1  11
TORSDOF 1
ENDMDL
MODEL 9
REMARK VINA RESULT:    -3.616      2.467      4.123
REMARK INTER + INTRA:          -5.914
REMARK INTER:                  -5.787
REMARK INTRA:                  -0.126
REMARK UNBOUND:                -0.395
REMARK SMILES CC1=CCC[C@@H](C)C(=O)C[C@H](C(C)C)C(=O)C1
REMARK SMILES IDX 8 1 9 2 6 3 7 4 5 5 4 6 3 7 2 8 1 9 10 11 11 12 15 13 16 14
REMARK SMILES IDX 17 15 12 17 13 18 14 19
REMARK H PARENT
REMARK Flexibility Score: 70.00
ROOT
ATOM      1  C   UNL     1      18.545  -9.738  64.291  1.00  0.00     0.136 C 
ATOM      2  O   UNL     1      19.372  -9.516  63.419  1.00  0.00    -0.299 OA
ENDROOT
BRANCH   1   3
ATOM      3  C   UNL     1      19.040 -10.369  65.595  1.00  0.00     0.053 C 
ATOM      4  C   UNL     1      20.289  -9.610  66.074  1.00  0.00     0.016 C 
BRANCH   3   5
ATOM      5  C   UNL     1      19.366 -11.885  65.560  1.00  0.00     0.015 C 
BRANCH   5   6
ATOM      6  C   UNL     1      18.196 -12.861  65.782  1.00  0.00     0.028 C 
BRANCH   6   7
ATOM      7  C   UNL     1      16.886 -12.205  66.143  1.00  0.00    -0.028 C 
ATOM      8  C   UNL     1      15.765 -12.146  65.381  1.00  0.00    -0.070 CG0
ATOM      9  C   UNL     1      14.542 -11.528  66.019  1.00  0.00     0.039 C 
ATOM     10  G   UNL     1      15.671 -12.549  63.911  1.00  0.00     0.000 G0
ENDBRANCH   6   7
ENDBRANCH   5   6
ENDBRANCH   3   5
ENDBRANCH   1   3
BRANCH   1  11
ATOM     11  C   UNL     1      17.103  -9.408  63.985  1.00  0.00     0.087 C 
BRANCH  11  12
ATOM     12  C   UNL     1      16.446 -10.216  62.821  1.00  0.00     0.066 C 
BRANCH  12  13
ATOM     13  C   UNL     1      16.511 -11.741  62.942  1.00  0.00     0.140 C 
ATOM     14  O   UNL     1      17.237 -12.355  62.173  1.00  0.00    -0.299 OA
BRANCH  13  15
ATOM     15  C   UNL     1      15.661 -12.542  63.901  1.00  0.00     0.106 CG0
ATOM     16  G   UNL     1      15.775 -12.142  65.370  1.00  0.00     0.000 G0
ENDBRANCH  13  15
ENDBRANCH  12  13
BRANCH  12  17
ATOM     17  C   UNL     1      15.053  -9.663  62.356  1.00  0.00    -0.006 C 
ATOM     18  C   UNL     1      15.154  -8.173  61.982  1.00  0.00     0.008 C 
ATOM     19  C   UNL     1      14.401 -10.423  61.189  1.00  0.00     0.008 C 
ENDBRANCH  12  17
ENDBRANCH  11  12
ENDBRANCH   1  11
TORSDOF 1
ENDMDL
