MODEL 1
REMARK VINA RESULT:    -3.813      0.000      0.000
REMARK INTER + INTRA:          -4.523
REMARK INTER:                  -4.481
REMARK INTRA:                  -0.042
REMARK UNBOUND:                -0.042
REMARK SMILES CCCCC(=O)[O-]
REMARK SMILES IDX 4 1 5 2 6 3 7 4 3 5 2 6 1 7
REMARK H PARENT
REMARK Flexibility Score: inf
ROOT
ATOM      1  C   UNL     1      -5.333  -2.414  29.295  1.00  0.00     0.053 C 
ENDROOT
BRANCH   1   2
ATOM      2  C   UNL     1      -4.997  -1.097  28.668  1.00  0.00     0.041 C 
ATOM      3  O   UNL     1      -4.210  -1.046  27.686  1.00  0.00    -0.550 OA
ATOM      4  O   UNL     1      -5.592   0.068  29.135  1.00  0.00    -0.550 OA
ENDBRANCH   1   2
BRANCH   1   5
ATOM      5  C   UNL     1      -5.691  -3.444  28.216  1.00  0.00     0.006 C 
BRANCH   5   6
ATOM      6  C   UNL     1      -4.916  -4.761  28.381  1.00  0.00    -0.003 C 
ATOM      7  C   UNL     1      -5.777  -5.993  28.098  1.00  0.00     0.004 C 
ENDBRANCH   5   6
ENDBRANCH   1   5
TORSDOF 3
ENDMDL
MODEL 2
REMARK VINA RESULT:    -3.566      2.450      3.989
REMARK INTER + INTRA:          -4.233
REMARK INTER:                  -4.130
REMARK INTRA:                  -0.103
REMARK UNBOUND:                -0.042
REMARK SMILES CCCCC(=O)[O-]
REMARK SMILES IDX 4 1 5 2 6 3 7 4 3 5 2 6 1 7
REMARK H PARENT
REMARK Flexibility Score: inf
ROOT
ATOM      1  C   UNL     1      -5.801  -3.385  28.206  1.00  0.00     0.053 C 
ENDROOT
BRANCH   1   2
ATOM      2  C   UNL     1      -5.027  -4.659  28.329  1.00  0.00     0.041 C 
ATOM      3  O   UNL     1      -3.793  -4.629  28.578  1.00  0.00    -0.550 OA
ATOM      4  O   UNL     1      -5.678  -5.882  28.221  1.00  0.00    -0.550 OA
ENDBRANCH   1   2
BRANCH   1   5
ATOM      5  C   UNL     1      -5.338  -2.372  29.261  1.00  0.00     0.006 C 
BRANCH   5   6
ATOM      6  C   UNL     1      -5.020  -0.996  28.656  1.00  0.00    -0.003 C 
ATOM      7  C   UNL     1      -3.692  -0.975  27.900  1.00  0.00     0.004 C 
ENDBRANCH   5   6
ENDBRANCH   1   5
TORSDOF 3
ENDMDL
MODEL 3
REMARK VINA RESULT:    -3.553      2.426      3.968
REMARK INTER + INTRA:          -4.218
REMARK INTER:                  -4.112
REMARK INTRA:                  -0.107
REMARK UNBOUND:                -0.042
REMARK SMILES CCCCC(=O)[O-]
REMARK SMILES IDX 4 1 5 2 6 3 7 4 3 5 2 6 1 7
REMARK H PARENT
REMARK Flexibility Score: inf
ROOT
ATOM      1  C   UNL     1      -5.845  -3.382  28.260  1.00  0.00     0.053 C 
ENDROOT
BRANCH   1   2
ATOM      2  C   UNL     1      -5.012  -4.621  28.357  1.00  0.00     0.041 C 
ATOM      3  O   UNL     1      -5.501  -5.740  28.049  1.00  0.00    -0.550 OA
ATOM      4  O   UNL     1      -3.679  -4.535  28.739  1.00  0.00    -0.550 OA
ENDBRANCH   1   2
BRANCH   1   5
ATOM      5  C   UNL     1      -5.349  -2.323  29.252  1.00  0.00     0.006 C 
BRANCH   5   6
ATOM      6  C   UNL     1      -5.014  -0.988  28.569  1.00  0.00    -0.003 C 
ATOM      7  C   UNL     1      -3.618  -0.977  27.945  1.00  0.00     0.004 C 
ENDBRANCH   5   6
ENDBRANCH   1   5
TORSDOF 3
ENDMDL
MODEL 4
REMARK VINA RESULT:    -3.513      1.629      2.054
REMARK INTER + INTRA:          -4.171
REMARK INTER:                  -4.087
REMARK INTRA:                  -0.084
REMARK UNBOUND:                -0.042
REMARK SMILES CCCCC(=O)[O-]
REMARK SMILES IDX 4 1 5 2 6 3 7 4 3 5 2 6 1 7
REMARK H PARENT
REMARK Flexibility Score: inf
ROOT
ATOM      1  C   UNL     1      -4.386  -1.507  29.032  1.00  0.00     0.053 C 
ENDROOT
BRANCH   1   2
ATOM      2  C   UNL     1      -3.025  -1.559  28.413  1.00  0.00     0.041 C 
ATOM      3  O   UNL     1      -2.240  -2.505  28.688  1.00  0.00    -0.550 OA
ATOM      4  O   UNL     1      -2.641  -0.592  27.494  1.00  0.00    -0.550 OA
ENDBRANCH   1   2
BRANCH   1   5
ATOM      5  C   UNL     1      -5.355  -2.423  28.273  1.00  0.00     0.006 C 
BRANCH   5   6
ATOM      6  C   UNL     1      -5.724  -3.682  29.073  1.00  0.00    -0.003 C 
ATOM      7  C   UNL     1      -5.356  -4.974  28.343  1.00  0.00     0.004 C 
ENDBRANCH   5   6
ENDBRANCH   1   5
TORSDOF 3
ENDMDL
MODEL 5
REMARK VINA RESULT:    -3.438      1.492      2.112
REMARK INTER + INTRA:          -4.082
REMARK INTER:                  -4.062
REMARK INTRA:                  -0.020
REMARK UNBOUND:                -0.042
REMARK SMILES CCCCC(=O)[O-]
REMARK SMILES IDX 4 1 5 2 6 3 7 4 3 5 2 6 1 7
REMARK H PARENT
REMARK Flexibility Score: inf
ROOT
ATOM      1  C   UNL     1      -3.747  -2.103  28.679  1.00  0.00     0.053 C 
ENDROOT
BRANCH   1   2
ATOM      2  C   UNL     1      -3.214  -0.733  28.398  1.00  0.00     0.041 C 
ATOM      3  O   UNL     1      -3.422   0.207  29.210  1.00  0.00    -0.550 OA
ATOM      4  O   UNL     1      -2.443  -0.505  27.265  1.00  0.00    -0.550 OA
ENDBRANCH   1   2
BRANCH   1   5
ATOM      5  C   UNL     1      -5.235  -2.183  28.316  1.00  0.00     0.006 C 
BRANCH   5   6
ATOM      6  C   UNL     1      -5.896  -3.474  28.825  1.00  0.00    -0.003 C 
ATOM      7  C   UNL     1      -5.205  -4.735  28.307  1.00  0.00     0.004 C 
ENDBRANCH   5   6
ENDBRANCH   1   5
TORSDOF 3
ENDMDL
MODEL 6
REMARK VINA RESULT:    -3.212      3.173      3.836
REMARK INTER + INTRA:          -3.817
REMARK INTER:                  -3.788
REMARK INTRA:                  -0.029
REMARK UNBOUND:                -0.042
REMARK SMILES CCCCC(=O)[O-]
REMARK SMILES IDX 4 1 5 2 6 3 7 4 3 5 2 6 1 7
REMARK H PARENT
REMARK Flexibility Score: inf
ROOT
ATOM      1  C   UNL     1      -2.012  -4.169  28.996  1.00  0.00     0.053 C 
ENDROOT
BRANCH   1   2
ATOM      2  C   UNL     1      -0.968  -3.121  28.775  1.00  0.00     0.041 C 
ATOM      3  O   UNL     1      -1.276  -2.023  28.239  1.00  0.00    -0.550 OA
ATOM      4  O   UNL     1       0.335  -3.334  29.207  1.00  0.00    -0.550 OA
ENDBRANCH   1   2
BRANCH   1   5
ATOM      5  C   UNL     1      -3.397  -3.525  29.136  1.00  0.00     0.006 C 
BRANCH   5   6
ATOM      6  C   UNL     1      -4.525  -4.437  28.627  1.00  0.00    -0.003 C 
ATOM      7  C   UNL     1      -5.802  -3.666  28.294  1.00  0.00     0.004 C 
ENDBRANCH   5   6
ENDBRANCH   1   5
TORSDOF 3
ENDMDL
MODEL 7
REMARK VINA RESULT:    -3.192      2.531      3.993
REMARK INTER + INTRA:          -3.794
REMARK INTER:                  -3.743
REMARK INTRA:                  -0.050
REMARK UNBOUND:                -0.042
REMARK SMILES CCCCC(=O)[O-]
REMARK SMILES IDX 4 1 5 2 6 3 7 4 3 5 2 6 1 7
REMARK H PARENT
REMARK Flexibility Score: inf
ROOT
ATOM      1  C   UNL     1      -4.645  -1.464  28.052  1.00  0.00     0.053 C 
ENDROOT
BRANCH   1   2
ATOM      2  C   UNL     1      -5.179  -2.637  28.813  1.00  0.00     0.041 C 
ATOM      3  O   UNL     1      -4.893  -2.785  30.031  1.00  0.00    -0.550 OA
ATOM      4  O   UNL     1      -6.033  -3.538  28.192  1.00  0.00    -0.550 OA
ENDBRANCH   1   2
BRANCH   1   5
ATOM      5  C   UNL     1      -3.490  -0.809  28.819  1.00  0.00     0.006 C 
BRANCH   5   6
ATOM      6  C   UNL     1      -2.113  -1.207  28.263  1.00  0.00    -0.003 C 
ATOM      7  C   UNL     1      -1.643  -0.288  27.136  1.00  0.00     0.004 C 
ENDBRANCH   5   6
ENDBRANCH   1   5
TORSDOF 3
ENDMDL
MODEL 8
REMARK VINA RESULT:    -3.166      3.400      4.078
REMARK INTER + INTRA:          -3.763
REMARK INTER:                  -3.735
REMARK INTRA:                  -0.027
REMARK UNBOUND:                -0.042
REMARK SMILES CCCCC(=O)[O-]
REMARK SMILES IDX 4 1 5 2 6 3 7 4 3 5 2 6 1 7
REMARK H PARENT
REMARK Flexibility Score: inf
ROOT
ATOM      1  C   UNL     1      -2.902  -1.422  28.537  1.00  0.00     0.053 C 
ENDROOT
BRANCH   1   2
ATOM      2  C   UNL     1      -1.794  -0.584  27.981  1.00  0.00     0.041 C 
ATOM      3  O   UNL     1      -1.680  -0.431  26.736  1.00  0.00    -0.550 OA
ATOM      4  O   UNL     1      -0.918   0.070  28.837  1.00  0.00    -0.550 OA
ENDBRANCH   1   2
BRANCH   1   5
ATOM      5  C   UNL     1      -4.247  -1.003  27.930  1.00  0.00     0.006 C 
BRANCH   5   6
ATOM      6  C   UNL     1      -5.356  -0.877  28.986  1.00  0.00    -0.003 C 
ATOM      7  C   UNL     1      -5.725   0.576  29.285  1.00  0.00     0.004 C 
ENDBRANCH   5   6
ENDBRANCH   1   5
TORSDOF 3
ENDMDL
MODEL 9
REMARK VINA RESULT:    -3.058      2.588      3.165
REMARK INTER + INTRA:          -3.636
REMARK INTER:                  -3.599
REMARK INTRA:                  -0.037
REMARK UNBOUND:                -0.042
REMARK SMILES CCCCC(=O)[O-]
REMARK SMILES IDX 4 1 5 2 6 3 7 4 3 5 2 6 1 7
REMARK H PARENT
REMARK Flexibility Score: inf
ROOT
ATOM      1  C   UNL     1      -3.438  -2.115  28.800  1.00  0.00     0.053 C 
ENDROOT
BRANCH   1   2
ATOM      2  C   UNL     1      -4.893  -1.862  28.561  1.00  0.00     0.041 C 
ATOM      3  O   UNL     1      -5.391  -0.735  28.823  1.00  0.00    -0.550 OA
ATOM      4  O   UNL     1      -5.689  -2.853  28.001  1.00  0.00    -0.550 OA
ENDBRANCH   1   2
BRANCH   1   5
ATOM      5  C   UNL     1      -3.194  -3.601  29.093  1.00  0.00     0.006 C 
BRANCH   5   6
ATOM      6  C   UNL     1      -1.710  -3.986  28.990  1.00  0.00    -0.003 C 
ATOM      7  C   UNL     1      -0.828  -2.823  28.535  1.00  0.00     0.004 C 
ENDBRANCH   5   6
ENDBRANCH   1   5
TORSDOF 3
ENDMDL
