MODEL 1
REMARK VINA RESULT:    -6.246      0.000      0.000
REMARK INTER + INTRA:          -7.649
REMARK INTER:                  -7.342
REMARK INTRA:                  -0.307
REMARK UNBOUND:                -0.307
REMARK SMILES O=c1c(O)c(-c2ccc(O)c(O)c2)oc2cc(O)ccc12
REMARK SMILES IDX 5 1 3 2 2 3 1 4 21 5 15 6 14 7 16 8 17 9 19 10 20 11 6 12
REMARK SMILES IDX 7 13 8 14 9 15 13 16 11 17 10 18 12 20 4 22 18 24
REMARK H PARENT 10 19 12 21 4 23 18 25
REMARK Flexibility Score: inf
ROOT
ATOM      1  C   UNL     1      27.857  10.631  66.397  1.00  0.00     0.180 A 
ATOM      2  C   UNL     1      28.834  11.642  66.514  1.00  0.00     0.208 A 
ATOM      3  C   UNL     1      29.137  12.425  65.389  1.00  0.00     0.235 A 
ATOM      4  O   UNL     1      30.015  13.327  65.466  1.00  0.00    -0.285 OA
ATOM      5  C   UNL     1      28.451  12.197  64.186  1.00  0.00     0.069 A 
ATOM      6  C   UNL     1      27.470  11.182  64.156  1.00  0.00     0.142 A 
ATOM      7  O   UNL     1      27.220  10.458  65.241  1.00  0.00    -0.452 OA
ATOM      8  C   UNL     1      26.757  10.932  62.978  1.00  0.00     0.094 A 
ATOM      9  C   UNL     1      27.014  11.685  61.824  1.00  0.00     0.119 A 
ATOM     10  C   UNL     1      27.987  12.690  61.851  1.00  0.00     0.047 A 
ATOM     11  C   UNL     1      28.703  12.949  63.023  1.00  0.00     0.020 A 
ENDROOT
BRANCH   1  12
ATOM     12  C   UNL     1      27.495   9.753  67.532  1.00  0.00     0.025 A 
ATOM     13  C   UNL     1      28.142   8.516  67.681  1.00  0.00     0.016 A 
ATOM     14  C   UNL     1      27.830   7.680  68.757  1.00  0.00     0.051 A 
ATOM     15  C   UNL     1      26.879   8.075  69.707  1.00  0.00     0.157 A 
ATOM     16  C   UNL     1      26.556  10.156  68.499  1.00  0.00     0.062 A 
ATOM     17  C   UNL     1      26.244   9.318  69.580  1.00  0.00     0.158 A 
BRANCH  15  18
ATOM     18  O   UNL     1      26.564   7.244  70.779  1.00  0.00    -0.504 OA
ATOM     19  H   UNL     1      25.604   7.090  71.066  1.00  0.00     0.293 HD
ENDBRANCH  15  18
BRANCH  17  20
ATOM     20  O   UNL     1      25.309   9.715  70.534  1.00  0.00    -0.504 OA
ATOM     21  H   UNL     1      25.508   9.664  71.526  1.00  0.00     0.293 HD
ENDBRANCH  17  20
ENDBRANCH   1  12
BRANCH   2  22
ATOM     22  O   UNL     1      29.466  11.877  67.738  1.00  0.00    -0.502 OA
ATOM     23  H   UNL     1      29.322  12.728  68.268  1.00  0.00     0.293 HD
ENDBRANCH   2  22
BRANCH   9  24
ATOM     24  O   UNL     1      26.310  11.442  60.647  1.00  0.00    -0.508 OA
ATOM     25  H   UNL     1      26.324  12.101  59.877  1.00  0.00     0.293 HD
ENDBRANCH   9  24
TORSDOF 5
ENDMDL
MODEL 2
REMARK VINA RESULT:    -6.152      4.315      8.720
REMARK INTER + INTRA:          -7.538
REMARK INTER:                  -7.319
REMARK INTRA:                  -0.219
REMARK UNBOUND:                -0.307
REMARK SMILES O=c1c(O)c(-c2ccc(O)c(O)c2)oc2cc(O)ccc12
REMARK SMILES IDX 5 1 3 2 2 3 1 4 21 5 15 6 14 7 16 8 17 9 19 10 20 11 6 12
REMARK SMILES IDX 7 13 8 14 9 15 13 16 11 17 10 18 12 20 4 22 18 24
REMARK H PARENT 10 19 12 21 4 23 18 25
REMARK Flexibility Score: inf
ROOT
ATOM      1  C   UNL     1      29.330  11.681  60.392  1.00  0.00     0.180 A 
ATOM      2  C   UNL     1      30.573  11.020  60.479  1.00  0.00     0.208 A 
ATOM      3  C   UNL     1      31.249  11.008  61.710  1.00  0.00     0.235 A 
ATOM      4  O   UNL     1      32.368  10.434  61.810  1.00  0.00    -0.285 OA
ATOM      5  C   UNL     1      30.665  11.633  62.823  1.00  0.00     0.069 A 
ATOM      6  C   UNL     1      29.407  12.252  62.661  1.00  0.00     0.142 A 
ATOM      7  O   UNL     1      28.805  12.249  61.476  1.00  0.00    -0.452 OA
ATOM      8  C   UNL     1      28.788  12.876  63.749  1.00  0.00     0.094 A 
ATOM      9  C   UNL     1      29.414  12.892  65.003  1.00  0.00     0.119 A 
ATOM     10  C   UNL     1      30.661  12.280  65.166  1.00  0.00     0.047 A 
ATOM     11  C   UNL     1      31.287  11.653  64.085  1.00  0.00     0.020 A 
ENDROOT
BRANCH   1  12
ATOM     12  C   UNL     1      28.566  11.754  59.127  1.00  0.00     0.025 A 
ATOM     13  C   UNL     1      27.323  11.108  59.033  1.00  0.00     0.016 A 
ATOM     14  C   UNL     1      26.575  11.180  57.855  1.00  0.00     0.051 A 
ATOM     15  C   UNL     1      27.051  11.913  56.760  1.00  0.00     0.157 A 
ATOM     16  C   UNL     1      29.031  12.506  58.032  1.00  0.00     0.062 A 
ATOM     17  C   UNL     1      28.279  12.581  56.851  1.00  0.00     0.158 A 
BRANCH  15  18
ATOM     18  O   UNL     1      26.309  11.986  55.583  1.00  0.00    -0.504 OA
ATOM     19  H   UNL     1      25.522  12.619  55.491  1.00  0.00     0.293 HD
ENDBRANCH  15  18
BRANCH  17  20
ATOM     20  O   UNL     1      28.744  13.321  55.765  1.00  0.00    -0.504 OA
ATOM     21  H   UNL     1      28.370  13.187  54.833  1.00  0.00     0.293 HD
ENDBRANCH  17  20
ENDBRANCH   1  12
BRANCH   2  22
ATOM     22  O   UNL     1      31.107  10.366  59.366  1.00  0.00    -0.502 OA
ATOM     23  H   UNL     1      30.660   9.561  58.944  1.00  0.00     0.293 HD
ENDBRANCH   2  22
BRANCH   9  24
ATOM     24  O   UNL     1      28.805  13.511  66.092  1.00  0.00    -0.508 OA
ATOM     25  H   UNL     1      27.898  13.956  66.009  1.00  0.00     0.293 HD
ENDBRANCH   9  24
TORSDOF 5
ENDMDL
MODEL 3
REMARK VINA RESULT:    -6.071      4.150      6.050
REMARK INTER + INTRA:          -7.443
REMARK INTER:                  -7.289
REMARK INTRA:                  -0.154
REMARK UNBOUND:                -0.307
REMARK SMILES O=c1c(O)c(-c2ccc(O)c(O)c2)oc2cc(O)ccc12
REMARK SMILES IDX 5 1 3 2 2 3 1 4 21 5 15 6 14 7 16 8 17 9 19 10 20 11 6 12
REMARK SMILES IDX 7 13 8 14 9 15 13 16 11 17 10 18 12 20 4 22 18 24
REMARK H PARENT 10 19 12 21 4 23 18 25
REMARK Flexibility Score: inf
ROOT
ATOM      1  C   UNL     1      29.460  12.240  61.153  1.00  0.00     0.180 A 
ATOM      2  C   UNL     1      30.417  12.699  60.224  1.00  0.00     0.208 A 
ATOM      3  C   UNL     1      30.079  12.725  58.861  1.00  0.00     0.235 A 
ATOM      4  O   UNL     1      30.921  13.120  58.010  1.00  0.00    -0.285 OA
ATOM      5  C   UNL     1      28.798  12.314  58.460  1.00  0.00     0.069 A 
ATOM      6  C   UNL     1      27.889  11.891  59.454  1.00  0.00     0.142 A 
ATOM      7  O   UNL     1      28.251  11.873  60.732  1.00  0.00    -0.452 OA
ATOM      8  C   UNL     1      26.599  11.484  59.096  1.00  0.00     0.094 A 
ATOM      9  C   UNL     1      26.204  11.493  57.751  1.00  0.00     0.119 A 
ATOM     10  C   UNL     1      27.104  11.910  56.764  1.00  0.00     0.047 A 
ATOM     11  C   UNL     1      28.394  12.320  57.113  1.00  0.00     0.020 A 
ENDROOT
BRANCH   1  12
ATOM     12  C   UNL     1      29.746  12.165  62.603  1.00  0.00     0.025 A 
ATOM     13  C   UNL     1      30.744  11.293  63.067  1.00  0.00     0.016 A 
ATOM     14  C   UNL     1      31.044  11.222  64.430  1.00  0.00     0.051 A 
ATOM     15  C   UNL     1      30.363  12.033  65.347  1.00  0.00     0.157 A 
ATOM     16  C   UNL     1      29.079  12.993  63.525  1.00  0.00     0.062 A 
ATOM     17  C   UNL     1      29.382  12.924  64.893  1.00  0.00     0.158 A 
BRANCH  15  18
ATOM     18  O   UNL     1      30.658  11.964  66.706  1.00  0.00    -0.504 OA
ATOM     19  H   UNL     1      31.603  11.802  67.036  1.00  0.00     0.293 HD
ENDBRANCH  15  18
BRANCH  17  20
ATOM     20  O   UNL     1      28.715  13.740  65.805  1.00  0.00    -0.504 OA
ATOM     21  H   UNL     1      27.806  13.489  66.175  1.00  0.00     0.293 HD
ENDBRANCH  17  20
ENDBRANCH   1  12
BRANCH   2  22
ATOM     22  O   UNL     1      31.667  13.146  60.657  1.00  0.00    -0.502 OA
ATOM     23  H   UNL     1      32.526  12.660  60.430  1.00  0.00     0.293 HD
ENDBRANCH   2  22
BRANCH   9  24
ATOM     24  O   UNL     1      24.923  11.089  57.385  1.00  0.00    -0.508 OA
ATOM     25  H   UNL     1      24.546  11.292  56.466  1.00  0.00     0.293 HD
ENDBRANCH   9  24
TORSDOF 5
ENDMDL
MODEL 4
REMARK VINA RESULT:    -5.938      2.780      7.892
REMARK INTER + INTRA:          -7.287
REMARK INTER:                  -7.095
REMARK INTRA:                  -0.192
REMARK UNBOUND:                -0.307
REMARK SMILES O=c1c(O)c(-c2ccc(O)c(O)c2)oc2cc(O)ccc12
REMARK SMILES IDX 5 1 3 2 2 3 1 4 21 5 15 6 14 7 16 8 17 9 19 10 20 11 6 12
REMARK SMILES IDX 7 13 8 14 9 15 13 16 11 17 10 18 12 20 4 22 18 24
REMARK H PARENT 10 19 12 21 4 23 18 25
REMARK Flexibility Score: inf
ROOT
ATOM      1  C   UNL     1      28.322  11.818  61.730  1.00  0.00     0.180 A 
ATOM      2  C   UNL     1      28.559  12.828  62.686  1.00  0.00     0.208 A 
ATOM      3  C   UNL     1      28.519  12.493  64.049  1.00  0.00     0.235 A 
ATOM      4  O   UNL     1      28.717  13.381  64.923  1.00  0.00    -0.285 OA
ATOM      5  C   UNL     1      28.266  11.164  64.425  1.00  0.00     0.069 A 
ATOM      6  C   UNL     1      28.063  10.207  63.407  1.00  0.00     0.142 A 
ATOM      7  O   UNL     1      28.100  10.568  62.129  1.00  0.00    -0.452 OA
ATOM      8  C   UNL     1      27.818   8.871  63.742  1.00  0.00     0.094 A 
ATOM      9  C   UNL     1      27.771   8.477  65.087  1.00  0.00     0.119 A 
ATOM     10  C   UNL     1      27.971   9.424  66.097  1.00  0.00     0.047 A 
ATOM     11  C   UNL     1      28.218  10.761  65.772  1.00  0.00     0.020 A 
ENDROOT
BRANCH   1  12
ATOM     12  C   UNL     1      28.328  12.095  60.276  1.00  0.00     0.025 A 
ATOM     13  C   UNL     1      29.540  12.401  59.637  1.00  0.00     0.016 A 
ATOM     14  C   UNL     1      29.573  12.646  58.261  1.00  0.00     0.051 A 
ATOM     15  C   UNL     1      28.397  12.573  57.503  1.00  0.00     0.157 A 
ATOM     16  C   UNL     1      27.153  12.003  59.507  1.00  0.00     0.062 A 
ATOM     17  C   UNL     1      27.186  12.246  58.127  1.00  0.00     0.158 A 
BRANCH  15  18
ATOM     18  O   UNL     1      28.425  12.818  56.132  1.00  0.00    -0.504 OA
ATOM     19  H   UNL     1      28.985  12.253  55.503  1.00  0.00     0.293 HD
ENDBRANCH  15  18
BRANCH  17  20
ATOM     20  O   UNL     1      26.020  12.160  57.367  1.00  0.00    -0.504 OA
ATOM     21  H   UNL     1      25.368  12.933  57.307  1.00  0.00     0.293 HD
ENDBRANCH  17  20
ENDBRANCH   1  12
BRANCH   2  22
ATOM     22  O   UNL     1      28.856  14.131  62.280  1.00  0.00    -0.502 OA
ATOM     23  H   UNL     1      29.805  14.447  62.124  1.00  0.00     0.293 HD
ENDBRANCH   2  22
BRANCH   9  24
ATOM     24  O   UNL     1      27.528   7.150  65.429  1.00  0.00    -0.508 OA
ATOM     25  H   UNL     1      27.587   6.831  66.390  1.00  0.00     0.293 HD
ENDBRANCH   9  24
TORSDOF 5
ENDMDL
MODEL 5
REMARK VINA RESULT:    -5.856      3.215      8.235
REMARK INTER + INTRA:          -7.190
REMARK INTER:                  -6.874
REMARK INTRA:                  -0.316
REMARK UNBOUND:                -0.307
REMARK SMILES O=c1c(O)c(-c2ccc(O)c(O)c2)oc2cc(O)ccc12
REMARK SMILES IDX 5 1 3 2 2 3 1 4 21 5 15 6 14 7 16 8 17 9 19 10 20 11 6 12
REMARK SMILES IDX 7 13 8 14 9 15 13 16 11 17 10 18 12 20 4 22 18 24
REMARK H PARENT 10 19 12 21 4 23 18 25
REMARK Flexibility Score: inf
ROOT
ATOM      1  C   UNL     1      27.863  11.418  60.433  1.00  0.00     0.180 A 
ATOM      2  C   UNL     1      28.697  12.555  60.402  1.00  0.00     0.208 A 
ATOM      3  C   UNL     1      29.138  13.105  61.616  1.00  0.00     0.235 A 
ATOM      4  O   UNL     1      29.875  14.129  61.614  1.00  0.00    -0.285 OA
ATOM      5  C   UNL     1      28.759  12.500  62.825  1.00  0.00     0.069 A 
ATOM      6  C   UNL     1      27.943  11.349  62.771  1.00  0.00     0.142 A 
ATOM      7  O   UNL     1      27.539  10.867  61.600  1.00  0.00    -0.452 OA
ATOM      8  C   UNL     1      27.552  10.712  63.953  1.00  0.00     0.094 A 
ATOM      9  C   UNL     1      27.966  11.213  65.195  1.00  0.00     0.119 A 
ATOM     10  C   UNL     1      28.773  12.354  65.251  1.00  0.00     0.047 A 
ATOM     11  C   UNL     1      29.171  12.996  64.075  1.00  0.00     0.020 A 
ENDROOT
BRANCH   1  12
ATOM     12  C   UNL     1      27.342  10.792  59.197  1.00  0.00     0.025 A 
ATOM     13  C   UNL     1      26.115  11.223  58.669  1.00  0.00     0.016 A 
ATOM     14  C   UNL     1      25.613  10.660  57.493  1.00  0.00     0.051 A 
ATOM     15  C   UNL     1      26.339   9.670  56.818  1.00  0.00     0.157 A 
ATOM     16  C   UNL     1      28.078   9.812  58.506  1.00  0.00     0.062 A 
ATOM     17  C   UNL     1      27.576   9.249  57.323  1.00  0.00     0.158 A 
BRANCH  15  18
ATOM     18  O   UNL     1      25.842   9.105  55.646  1.00  0.00    -0.504 OA
ATOM     19  H   UNL     1      25.565   8.131  55.603  1.00  0.00     0.293 HD
ENDBRANCH  15  18
BRANCH  17  20
ATOM     20  O   UNL     1      28.303   8.273  56.643  1.00  0.00    -0.504 OA
ATOM     21  H   UNL     1      28.768   8.474  55.765  1.00  0.00     0.293 HD
ENDBRANCH  17  20
ENDBRANCH   1  12
BRANCH   2  22
ATOM     22  O   UNL     1      29.097  13.107  59.182  1.00  0.00    -0.502 OA
ATOM     23  H   UNL     1      28.436  13.358  58.458  1.00  0.00     0.293 HD
ENDBRANCH   2  22
BRANCH   9  24
ATOM     24  O   UNL     1      27.581  10.586  66.377  1.00  0.00    -0.508 OA
ATOM     25  H   UNL     1      26.620  10.308  66.541  1.00  0.00     0.293 HD
ENDBRANCH   9  24
TORSDOF 5
ENDMDL
MODEL 6
REMARK VINA RESULT:    -5.836      4.847      8.133
REMARK INTER + INTRA:          -7.167
REMARK INTER:                  -7.187
REMARK INTRA:                   0.020
REMARK UNBOUND:                -0.307
REMARK SMILES O=c1c(O)c(-c2ccc(O)c(O)c2)oc2cc(O)ccc12
REMARK SMILES IDX 5 1 3 2 2 3 1 4 21 5 15 6 14 7 16 8 17 9 19 10 20 11 6 12
REMARK SMILES IDX 7 13 8 14 9 15 13 16 11 17 10 18 12 20 4 22 18 24
REMARK H PARENT 10 19 12 21 4 23 18 25
REMARK Flexibility Score: inf
ROOT
ATOM      1  C   UNL     1      26.785  10.812  59.340  1.00  0.00     0.180 A 
ATOM      2  C   UNL     1      27.365  11.002  58.068  1.00  0.00     0.208 A 
ATOM      3  C   UNL     1      26.839  10.298  56.973  1.00  0.00     0.235 A 
ATOM      4  O   UNL     1      27.348  10.442  55.827  1.00  0.00    -0.285 OA
ATOM      5  C   UNL     1      25.742   9.444  57.164  1.00  0.00     0.069 A 
ATOM      6  C   UNL     1      25.203   9.327  58.464  1.00  0.00     0.142 A 
ATOM      7  O   UNL     1      25.737  10.003  59.475  1.00  0.00    -0.452 OA
ATOM      8  C   UNL     1      24.104   8.493  58.693  1.00  0.00     0.094 A 
ATOM      9  C   UNL     1      23.534   7.769  57.636  1.00  0.00     0.119 A 
ATOM     10  C   UNL     1      24.068   7.882  56.348  1.00  0.00     0.047 A 
ATOM     11  C   UNL     1      25.165   8.714  56.108  1.00  0.00     0.020 A 
ENDROOT
BRANCH   1  12
ATOM     12  C   UNL     1      27.293  11.503  60.546  1.00  0.00     0.025 A 
ATOM     13  C   UNL     1      27.619  10.751  61.686  1.00  0.00     0.016 A 
ATOM     14  C   UNL     1      28.119  11.380  62.830  1.00  0.00     0.051 A 
ATOM     15  C   UNL     1      28.317  12.767  62.843  1.00  0.00     0.157 A 
ATOM     16  C   UNL     1      27.513  12.893  60.557  1.00  0.00     0.062 A 
ATOM     17  C   UNL     1      28.018  13.524  61.703  1.00  0.00     0.158 A 
BRANCH  15  18
ATOM     18  O   UNL     1      28.815  13.398  63.981  1.00  0.00    -0.504 OA
ATOM     19  H   UNL     1      29.296  12.880  64.708  1.00  0.00     0.293 HD
ENDBRANCH  15  18
BRANCH  17  20
ATOM     20  O   UNL     1      28.228  14.902  61.714  1.00  0.00    -0.504 OA
ATOM     21  H   UNL     1      29.156  15.297  61.619  1.00  0.00     0.293 HD
ENDBRANCH  17  20
ENDBRANCH   1  12
BRANCH   2  22
ATOM     22  O   UNL     1      28.425  11.896  57.899  1.00  0.00    -0.502 OA
ATOM     23  H   UNL     1      28.323  12.892  58.047  1.00  0.00     0.293 HD
ENDBRANCH   2  22
BRANCH   9  24
ATOM     24  O   UNL     1      22.440   6.936  57.855  1.00  0.00    -0.508 OA
ATOM     25  H   UNL     1      21.923   6.960  58.726  1.00  0.00     0.293 HD
ENDBRANCH   9  24
TORSDOF 5
ENDMDL
MODEL 7
REMARK VINA RESULT:    -5.796      4.582      8.559
REMARK INTER + INTRA:          -7.120
REMARK INTER:                  -6.809
REMARK INTRA:                  -0.311
REMARK UNBOUND:                -0.307
REMARK SMILES O=c1c(O)c(-c2ccc(O)c(O)c2)oc2cc(O)ccc12
REMARK SMILES IDX 5 1 3 2 2 3 1 4 21 5 15 6 14 7 16 8 17 9 19 10 20 11 6 12
REMARK SMILES IDX 7 13 8 14 9 15 13 16 11 17 10 18 12 20 4 22 18 24
REMARK H PARENT 10 19 12 21 4 23 18 25
REMARK Flexibility Score: inf
ROOT
ATOM      1  C   UNL     1      26.104   9.564  59.916  1.00  0.00     0.180 A 
ATOM      2  C   UNL     1      26.125   8.899  61.160  1.00  0.00     0.208 A 
ATOM      3  C   UNL     1      26.622   9.580  62.283  1.00  0.00     0.235 A 
ATOM      4  O   UNL     1      26.662   9.003  63.404  1.00  0.00    -0.285 OA
ATOM      5  C   UNL     1      27.063  10.906  62.146  1.00  0.00     0.069 A 
ATOM      6  C   UNL     1      26.987  11.509  60.872  1.00  0.00     0.142 A 
ATOM      7  O   UNL     1      26.519  10.826  59.833  1.00  0.00    -0.452 OA
ATOM      8  C   UNL     1      27.408  12.831  60.697  1.00  0.00     0.094 A 
ATOM      9  C   UNL     1      27.909  13.562  61.784  1.00  0.00     0.119 A 
ATOM     10  C   UNL     1      27.987  12.966  63.047  1.00  0.00     0.047 A 
ATOM     11  C   UNL     1      27.567  11.645  63.232  1.00  0.00     0.020 A 
ENDROOT
BRANCH   1  12
ATOM     12  C   UNL     1      25.614   8.909  58.683  1.00  0.00     0.025 A 
ATOM     13  C   UNL     1      26.485   8.099  57.938  1.00  0.00     0.016 A 
ATOM     14  C   UNL     1      26.037   7.454  56.782  1.00  0.00     0.051 A 
ATOM     15  C   UNL     1      24.708   7.596  56.363  1.00  0.00     0.157 A 
ATOM     16  C   UNL     1      24.274   9.033  58.271  1.00  0.00     0.062 A 
ATOM     17  C   UNL     1      23.823   8.383  57.112  1.00  0.00     0.158 A 
BRANCH  15  18
ATOM     18  O   UNL     1      24.258   6.957  55.210  1.00  0.00    -0.504 OA
ATOM     19  H   UNL     1      24.897   6.480  54.585  1.00  0.00     0.293 HD
ENDBRANCH  15  18
BRANCH  17  20
ATOM     20  O   UNL     1      22.497   8.513  56.701  1.00  0.00    -0.504 OA
ATOM     21  H   UNL     1      21.746   8.026  57.174  1.00  0.00     0.293 HD
ENDBRANCH  17  20
ENDBRANCH   1  12
BRANCH   2  22
ATOM     22  O   UNL     1      25.634   7.597  61.275  1.00  0.00    -0.502 OA
ATOM     23  H   UNL     1      24.724   7.393  61.668  1.00  0.00     0.293 HD
ENDBRANCH   2  22
BRANCH   9  24
ATOM     24  O   UNL     1      28.331  14.879  61.619  1.00  0.00    -0.508 OA
ATOM     25  H   UNL     1      28.259  15.350  60.725  1.00  0.00     0.293 HD
ENDBRANCH   9  24
TORSDOF 5
ENDMDL
MODEL 8
REMARK VINA RESULT:    -5.789      3.158      8.217
REMARK INTER + INTRA:          -7.111
REMARK INTER:                  -7.372
REMARK INTRA:                   0.260
REMARK UNBOUND:                -0.307
REMARK SMILES O=c1c(O)c(-c2ccc(O)c(O)c2)oc2cc(O)ccc12
REMARK SMILES IDX 5 1 3 2 2 3 1 4 21 5 15 6 14 7 16 8 17 9 19 10 20 11 6 12
REMARK SMILES IDX 7 13 8 14 9 15 13 16 11 17 10 18 12 20 4 22 18 24
REMARK H PARENT 10 19 12 21 4 23 18 25
REMARK Flexibility Score: inf
ROOT
ATOM      1  C   UNL     1      27.616  11.434  61.446  1.00  0.00     0.180 A 
ATOM      2  C   UNL     1      26.896  10.362  62.013  1.00  0.00     0.208 A 
ATOM      3  C   UNL     1      26.972  10.154  63.399  1.00  0.00     0.235 A 
ATOM      4  O   UNL     1      26.346   9.195  63.928  1.00  0.00    -0.285 OA
ATOM      5  C   UNL     1      27.741  11.025  64.187  1.00  0.00     0.069 A 
ATOM      6  C   UNL     1      28.412  12.089  63.547  1.00  0.00     0.142 A 
ATOM      7  O   UNL     1      28.323  12.246  62.231  1.00  0.00    -0.452 OA
ATOM      8  C   UNL     1      29.180  12.985  64.298  1.00  0.00     0.094 A 
ATOM      9  C   UNL     1      29.289  12.829  65.688  1.00  0.00     0.119 A 
ATOM     10  C   UNL     1      28.626  11.774  66.323  1.00  0.00     0.047 A 
ATOM     11  C   UNL     1      27.854  10.875  65.581  1.00  0.00     0.020 A 
ENDROOT
BRANCH   1  12
ATOM     12  C   UNL     1      27.603  11.708  59.992  1.00  0.00     0.025 A 
ATOM     13  C   UNL     1      28.756  12.217  59.374  1.00  0.00     0.016 A 
ATOM     14  C   UNL     1      28.772  12.465  57.999  1.00  0.00     0.051 A 
ATOM     15  C   UNL     1      27.642  12.190  57.218  1.00  0.00     0.157 A 
ATOM     16  C   UNL     1      26.476  11.415  59.201  1.00  0.00     0.062 A 
ATOM     17  C   UNL     1      26.493  11.659  57.820  1.00  0.00     0.158 A 
BRANCH  15  18
ATOM     18  O   UNL     1      27.653  12.436  55.847  1.00  0.00    -0.504 OA
ATOM     19  H   UNL     1      27.311  11.751  55.183  1.00  0.00     0.293 HD
ENDBRANCH  15  18
BRANCH  17  20
ATOM     20  O   UNL     1      25.374  11.374  57.040  1.00  0.00    -0.504 OA
ATOM     21  H   UNL     1      25.462  11.049  56.084  1.00  0.00     0.293 HD
ENDBRANCH  17  20
ENDBRANCH   1  12
BRANCH   2  22
ATOM     22  O   UNL     1      26.101   9.541  61.210  1.00  0.00    -0.502 OA
ATOM     23  H   UNL     1      25.838   8.603  61.487  1.00  0.00     0.293 HD
ENDBRANCH   2  22
BRANCH   9  24
ATOM     24  O   UNL     1      30.052  13.715  66.444  1.00  0.00    -0.508 OA
ATOM     25  H   UNL     1      29.790  14.690  66.540  1.00  0.00     0.293 HD
ENDBRANCH   9  24
TORSDOF 5
ENDMDL
MODEL 9
REMARK VINA RESULT:    -5.683      1.529      6.654
REMARK INTER + INTRA:          -6.987
REMARK INTER:                  -6.823
REMARK INTRA:                  -0.164
REMARK UNBOUND:                -0.307
REMARK SMILES O=c1c(O)c(-c2ccc(O)c(O)c2)oc2cc(O)ccc12
REMARK SMILES IDX 5 1 3 2 2 3 1 4 21 5 15 6 14 7 16 8 17 9 19 10 20 11 6 12
REMARK SMILES IDX 7 13 8 14 9 15 13 16 11 17 10 18 12 20 4 22 18 24
REMARK H PARENT 10 19 12 21 4 23 18 25
REMARK Flexibility Score: inf
ROOT
ATOM      1  C   UNL     1      28.320  10.995  65.598  1.00  0.00     0.180 A 
ATOM      2  C   UNL     1      29.646  10.847  66.055  1.00  0.00     0.208 A 
ATOM      3  C   UNL     1      29.863  10.460  67.388  1.00  0.00     0.235 A 
ATOM      4  O   UNL     1      31.040  10.332  67.824  1.00  0.00    -0.285 OA
ATOM      5  C   UNL     1      28.762  10.212  68.222  1.00  0.00     0.069 A 
ATOM      6  C   UNL     1      27.466  10.360  67.682  1.00  0.00     0.142 A 
ATOM      7  O   UNL     1      27.304  10.737  66.418  1.00  0.00    -0.452 OA
ATOM      8  C   UNL     1      26.343  10.112  68.478  1.00  0.00     0.094 A 
ATOM      9  C   UNL     1      26.498   9.720  69.815  1.00  0.00     0.119 A 
ATOM     10  C   UNL     1      27.781   9.575  70.353  1.00  0.00     0.047 A 
ATOM     11  C   UNL     1      28.909   9.818  69.564  1.00  0.00     0.020 A 
ENDROOT
BRANCH   1  12
ATOM     12  C   UNL     1      28.010  11.417  64.214  1.00  0.00     0.025 A 
ATOM     13  C   UNL     1      27.259  10.568  63.385  1.00  0.00     0.016 A 
ATOM     14  C   UNL     1      26.937  10.954  62.081  1.00  0.00     0.051 A 
ATOM     15  C   UNL     1      27.346  12.202  61.593  1.00  0.00     0.157 A 
ATOM     16  C   UNL     1      28.401  12.678  63.726  1.00  0.00     0.062 A 
ATOM     17  C   UNL     1      28.075  13.067  62.419  1.00  0.00     0.158 A 
BRANCH  15  18
ATOM     18  O   UNL     1      27.028  12.591  60.293  1.00  0.00    -0.504 OA
ATOM     19  H   UNL     1      27.354  12.067  59.489  1.00  0.00     0.293 HD
ENDBRANCH  15  18
BRANCH  17  20
ATOM     20  O   UNL     1      28.469  14.314  61.936  1.00  0.00    -0.504 OA
ATOM     21  H   UNL     1      28.039  14.725  61.115  1.00  0.00     0.293 HD
ENDBRANCH  17  20
ENDBRANCH   1  12
BRANCH   2  22
ATOM     22  O   UNL     1      30.722  11.053  65.189  1.00  0.00    -0.502 OA
ATOM     23  H   UNL     1      31.030  10.349  64.530  1.00  0.00     0.293 HD
ENDBRANCH   2  22
BRANCH   9  24
ATOM     24  O   UNL     1      25.386   9.472  70.616  1.00  0.00    -0.508 OA
ATOM     25  H   UNL     1      24.673   8.806  70.340  1.00  0.00     0.293 HD
ENDBRANCH   9  24
TORSDOF 5
ENDMDL
