MODEL 1
REMARK VINA RESULT:    -5.413      0.000      0.000
REMARK INTER + INTRA:          -8.115
REMARK INTER:                  -6.679
REMARK INTRA:                  -1.436
REMARK UNBOUND:                -1.436
REMARK SMILES CC(C)=CCC[C@H](C)c1ccc(C)cc1
REMARK SMILES IDX 6 1 7 2 8 3 9 4 13 5 12 6 11 7 14 8 10 9 15 10 5 11 4 12
REMARK SMILES IDX 2 13 1 14 3 15
REMARK H PARENT
REMARK Flexibility Score: inf
ROOT
ATOM      1  C   UNL     1     -95.301 194.130 -15.285  1.00  0.00     0.012 C 
ENDROOT
BRANCH   1   2
ATOM      2  C   UNL     1     -96.784 194.238 -14.852  1.00  0.00     0.016 C 
ATOM      3  C   UNL     1     -97.756 193.707 -15.917  1.00  0.00     0.013 C 
BRANCH   2   4
ATOM      4  C   UNL     1     -97.124 195.675 -14.497  1.00  0.00    -0.045 A 
ATOM      5  C   UNL     1     -98.045 199.781 -13.522  1.00  0.00     0.044 C 
ATOM      6  C   UNL     1     -97.733 198.347 -13.833  1.00  0.00    -0.051 A 
ATOM      7  C   UNL     1     -96.438 197.847 -13.639  1.00  0.00     0.004 A 
ATOM      8  C   UNL     1     -98.716 197.514 -14.386  1.00  0.00     0.004 A 
ATOM      9  C   UNL     1     -96.136 196.521 -13.962  1.00  0.00     0.004 A 
ATOM     10  C   UNL     1     -98.417 196.188 -14.710  1.00  0.00     0.004 A 
ENDBRANCH   2   4
ENDBRANCH   1   2
BRANCH   1  11
ATOM     11  C   UNL     1     -95.061 194.478 -16.767  1.00  0.00     0.028 C 
BRANCH  11  12
ATOM     12  C   UNL     1     -94.057 195.594 -16.947  1.00  0.00    -0.028 C 
ATOM     13  C   UNL     1     -94.404 196.846 -17.316  1.00  0.00    -0.080 C 
ATOM     14  C   UNL     1     -93.320 197.882 -17.468  1.00  0.00     0.039 C 
ATOM     15  C   UNL     1     -95.843 197.223 -17.577  1.00  0.00     0.039 C 
ENDBRANCH  11  12
ENDBRANCH   1  11
TORSDOF 4
ENDMDL
MODEL 2
REMARK VINA RESULT:    -5.270      1.252      2.693
REMARK INTER + INTRA:          -7.938
REMARK INTER:                  -6.797
REMARK INTRA:                  -1.141
REMARK UNBOUND:                -1.436
REMARK SMILES CC(C)=CCC[C@H](C)c1ccc(C)cc1
REMARK SMILES IDX 6 1 7 2 8 3 9 4 13 5 12 6 11 7 14 8 10 9 15 10 5 11 4 12
REMARK SMILES IDX 2 13 1 14 3 15
REMARK H PARENT
REMARK Flexibility Score: inf
ROOT
ATOM      1  C   UNL     1     -98.258 194.911 -14.753  1.00  0.00     0.012 C 
ENDROOT
BRANCH   1   2
ATOM      2  C   UNL     1     -98.837 196.346 -14.815  1.00  0.00     0.016 C 
ATOM      3  C   UNL     1     -99.167 196.794 -16.247  1.00  0.00     0.013 C 
BRANCH   2   4
ATOM      4  C   UNL     1     -97.877 197.327 -14.165  1.00  0.00    -0.045 A 
ATOM      5  C   UNL     1     -95.184 200.124 -12.271  1.00  0.00     0.044 C 
ATOM      6  C   UNL     1     -96.111 199.164 -12.955  1.00  0.00    -0.051 A 
ATOM      7  C   UNL     1     -97.451 199.510 -13.175  1.00  0.00     0.004 A 
ATOM      8  C   UNL     1     -95.663 197.885 -13.317  1.00  0.00     0.004 A 
ATOM      9  C   UNL     1     -98.327 198.603 -13.780  1.00  0.00     0.004 A 
ATOM     10  C   UNL     1     -96.535 196.977 -13.922  1.00  0.00     0.004 A 
ENDBRANCH   2   4
ENDBRANCH   1   2
BRANCH   1  11
ATOM     11  C   UNL     1     -97.707 194.406 -16.100  1.00  0.00     0.028 C 
BRANCH  11  12
ATOM     12  C   UNL     1     -96.218 194.147 -16.058  1.00  0.00    -0.028 C 
ATOM     13  C   UNL     1     -95.314 194.945 -16.665  1.00  0.00    -0.080 C 
ATOM     14  C   UNL     1     -93.853 194.592 -16.561  1.00  0.00     0.039 C 
ATOM     15  C   UNL     1     -95.735 196.172 -17.439  1.00  0.00     0.039 C 
ENDBRANCH  11  12
ENDBRANCH   1  11
TORSDOF 4
ENDMDL
MODEL 3
REMARK VINA RESULT:    -5.102      1.732      4.790
REMARK INTER + INTRA:          -7.731
REMARK INTER:                  -6.187
REMARK INTRA:                  -1.544
REMARK UNBOUND:                -1.436
REMARK SMILES CC(C)=CCC[C@H](C)c1ccc(C)cc1
REMARK SMILES IDX 6 1 7 2 8 3 9 4 13 5 12 6 11 7 14 8 10 9 15 10 5 11 4 12
REMARK SMILES IDX 2 13 1 14 3 15
REMARK H PARENT
REMARK Flexibility Score: inf
ROOT
ATOM      1  C   UNL     1     -97.609 197.891 -13.974  1.00  0.00     0.012 C 
ENDROOT
BRANCH   1   2
ATOM      2  C   UNL     1     -96.365 196.981 -13.823  1.00  0.00     0.016 C 
ATOM      3  C   UNL     1     -95.085 197.625 -14.379  1.00  0.00     0.013 C 
BRANCH   2   4
ATOM      4  C   UNL     1     -96.613 195.639 -14.489  1.00  0.00    -0.045 A 
ATOM      5  C   UNL     1     -97.363 191.846 -16.414  1.00  0.00     0.044 C 
ATOM      6  C   UNL     1     -97.095 193.148 -15.720  1.00  0.00    -0.051 A 
ATOM      7  C   UNL     1     -98.123 193.810 -15.036  1.00  0.00     0.004 A 
ATOM      8  C   UNL     1     -95.831 193.749 -15.810  1.00  0.00     0.004 A 
ATOM      9  C   UNL     1     -97.884 195.043 -14.420  1.00  0.00     0.004 A 
ATOM     10  C   UNL     1     -95.589 194.980 -15.196  1.00  0.00     0.004 A 
ENDBRANCH   2   4
ENDBRANCH   1   2
BRANCH   1  11
ATOM     11  C   UNL     1     -97.727 198.556 -15.359  1.00  0.00     0.028 C 
BRANCH  11  12
ATOM     12  C   UNL     1     -98.923 198.062 -16.141  1.00  0.00    -0.028 C 
ATOM     13  C   UNL     1     -98.815 197.306 -17.254  1.00  0.00    -0.080 C 
ATOM     14  C   UNL     1    -100.075 196.870 -17.957  1.00  0.00     0.039 C 
ATOM     15  C   UNL     1     -97.470 196.892 -17.802  1.00  0.00     0.039 C 
ENDBRANCH  11  12
ENDBRANCH   1  11
TORSDOF 4
ENDMDL
MODEL 4
REMARK VINA RESULT:    -5.020      1.760      4.392
REMARK INTER + INTRA:          -7.629
REMARK INTER:                  -6.419
REMARK INTRA:                  -1.210
REMARK UNBOUND:                -1.436
REMARK SMILES CC(C)=CCC[C@H](C)c1ccc(C)cc1
REMARK SMILES IDX 6 1 7 2 8 3 9 4 13 5 12 6 11 7 14 8 10 9 15 10 5 11 4 12
REMARK SMILES IDX 2 13 1 14 3 15
REMARK H PARENT
REMARK Flexibility Score: inf
ROOT
ATOM      1  C   UNL     1     -97.353 197.486 -13.972  1.00  0.00     0.012 C 
ENDROOT
BRANCH   1   2
ATOM      2  C   UNL     1     -97.572 197.210 -15.480  1.00  0.00     0.016 C 
ATOM      3  C   UNL     1     -98.855 197.857 -16.024  1.00  0.00     0.013 C 
BRANCH   2   4
ATOM      4  C   UNL     1     -97.585 195.713 -15.742  1.00  0.00    -0.045 A 
ATOM      5  C   UNL     1     -97.567 191.462 -16.504  1.00  0.00     0.044 C 
ATOM      6  C   UNL     1     -97.602 192.939 -16.249  1.00  0.00    -0.051 A 
ATOM      7  C   UNL     1     -97.173 193.837 -17.237  1.00  0.00     0.004 A 
ATOM      8  C   UNL     1     -97.997 193.432 -14.997  1.00  0.00     0.004 A 
ATOM      9  C   UNL     1     -97.170 195.213 -16.989  1.00  0.00     0.004 A 
ATOM     10  C   UNL     1     -97.994 194.806 -14.746  1.00  0.00     0.004 A 
ENDBRANCH   2   4
ENDBRANCH   1   2
BRANCH   1  11
ATOM     11  C   UNL     1     -95.868 197.575 -13.568  1.00  0.00     0.028 C 
BRANCH  11  12
ATOM     12  C   UNL     1     -94.937 197.147 -14.679  1.00  0.00    -0.028 C 
ATOM     13  C   UNL     1     -94.283 195.965 -14.678  1.00  0.00    -0.080 C 
ATOM     14  C   UNL     1     -93.376 195.640 -15.836  1.00  0.00     0.039 C 
ATOM     15  C   UNL     1     -94.442 194.974 -13.549  1.00  0.00     0.039 C 
ENDBRANCH  11  12
ENDBRANCH   1  11
TORSDOF 4
ENDMDL
MODEL 5
REMARK VINA RESULT:    -4.958      1.717      4.551
REMARK INTER + INTRA:          -7.553
REMARK INTER:                  -6.129
REMARK INTRA:                  -1.424
REMARK UNBOUND:                -1.436
REMARK SMILES CC(C)=CCC[C@H](C)c1ccc(C)cc1
REMARK SMILES IDX 6 1 7 2 8 3 9 4 13 5 12 6 11 7 14 8 10 9 15 10 5 11 4 12
REMARK SMILES IDX 2 13 1 14 3 15
REMARK H PARENT
REMARK Flexibility Score: inf
ROOT
ATOM      1  C   UNL     1     -95.207 197.238 -13.750  1.00  0.00     0.012 C 
ENDROOT
BRANCH   1   2
ATOM      2  C   UNL     1     -95.025 195.705 -13.634  1.00  0.00     0.016 C 
ATOM      3  C   UNL     1     -93.551 195.274 -13.686  1.00  0.00     0.013 C 
BRANCH   2   4
ATOM      4  C   UNL     1     -95.818 195.000 -14.721  1.00  0.00    -0.045 A 
ATOM      5  C   UNL     1     -98.023 192.972 -17.833  1.00  0.00     0.044 C 
ATOM      6  C   UNL     1     -97.277 193.699 -16.754  1.00  0.00    -0.051 A 
ATOM      7  C   UNL     1     -96.196 194.529 -17.079  1.00  0.00     0.004 A 
ATOM      8  C   UNL     1     -97.610 193.500 -15.406  1.00  0.00     0.004 A 
ATOM      9  C   UNL     1     -95.475 195.180 -16.073  1.00  0.00     0.004 A 
ATOM     10  C   UNL     1     -96.891 194.148 -14.399  1.00  0.00     0.004 A 
ENDBRANCH   2   4
ENDBRANCH   1   2
BRANCH   1  11
ATOM     11  C   UNL     1     -96.673 197.700 -13.628  1.00  0.00     0.028 C 
BRANCH  11  12
ATOM     12  C   UNL     1     -97.232 198.209 -14.937  1.00  0.00    -0.028 C 
ATOM     13  C   UNL     1     -98.389 197.761 -15.468  1.00  0.00    -0.080 C 
ATOM     14  C   UNL     1     -98.853 198.337 -16.781  1.00  0.00     0.039 C 
ATOM     15  C   UNL     1     -99.219 196.703 -14.779  1.00  0.00     0.039 C 
ENDBRANCH  11  12
ENDBRANCH   1  11
TORSDOF 4
ENDMDL
MODEL 6
REMARK VINA RESULT:    -4.747      2.318      4.193
REMARK INTER + INTRA:          -7.293
REMARK INTER:                  -6.830
REMARK INTRA:                  -0.463
REMARK UNBOUND:                -1.436
REMARK SMILES CC(C)=CCC[C@H](C)c1ccc(C)cc1
REMARK SMILES IDX 6 1 7 2 8 3 9 4 13 5 12 6 11 7 14 8 10 9 15 10 5 11 4 12
REMARK SMILES IDX 2 13 1 14 3 15
REMARK H PARENT
REMARK Flexibility Score: inf
ROOT
ATOM      1  C   UNL     1     -98.610 196.079 -14.537  1.00  0.00     0.012 C 
ENDROOT
BRANCH   1   2
ATOM      2  C   UNL     1     -98.333 197.601 -14.616  1.00  0.00     0.016 C 
ATOM      3  C   UNL     1     -98.301 198.126 -16.060  1.00  0.00     0.013 C 
BRANCH   2   4
ATOM      4  C   UNL     1     -97.033 197.934 -13.905  1.00  0.00    -0.045 A 
ATOM      5  C   UNL     1     -93.366 198.892 -11.833  1.00  0.00     0.044 C 
ATOM      6  C   UNL     1     -94.628 198.573 -12.577  1.00  0.00    -0.051 A 
ATOM      7  C   UNL     1     -95.719 199.451 -12.527  1.00  0.00     0.004 A 
ATOM      8  C   UNL     1     -94.753 197.361 -13.271  1.00  0.00     0.004 A 
ATOM      9  C   UNL     1     -96.910 199.139 -13.190  1.00  0.00     0.004 A 
ATOM     10  C   UNL     1     -95.941 197.046 -13.934  1.00  0.00     0.004 A 
ENDBRANCH   2   4
ENDBRANCH   1   2
BRANCH   1  11
ATOM     11  C   UNL     1     -98.180 195.304 -15.798  1.00  0.00     0.028 C 
BRANCH  11  12
ATOM     12  C   UNL     1     -97.756 193.886 -15.492  1.00  0.00    -0.028 C 
ATOM     13  C   UNL     1     -97.677 192.921 -16.433  1.00  0.00    -0.080 C 
ATOM     14  C   UNL     1     -97.245 191.538 -16.017  1.00  0.00     0.039 C 
ATOM     15  C   UNL     1     -98.011 193.197 -17.880  1.00  0.00     0.039 C 
ENDBRANCH  11  12
ENDBRANCH   1  11
TORSDOF 4
ENDMDL
MODEL 7
REMARK VINA RESULT:    -4.636      1.514      2.588
REMARK INTER + INTRA:          -7.156
REMARK INTER:                  -5.657
REMARK INTRA:                  -1.499
REMARK UNBOUND:                -1.436
REMARK SMILES CC(C)=CCC[C@H](C)c1ccc(C)cc1
REMARK SMILES IDX 6 1 7 2 8 3 9 4 13 5 12 6 11 7 14 8 10 9 15 10 5 11 4 12
REMARK SMILES IDX 2 13 1 14 3 15
REMARK H PARENT
REMARK Flexibility Score: inf
ROOT
ATOM      1  C   UNL     1     -97.605 193.791 -15.840  1.00  0.00     0.012 C 
ENDROOT
BRANCH   1   2
ATOM      2  C   UNL     1     -97.920 194.977 -16.785  1.00  0.00     0.016 C 
ATOM      3  C   UNL     1     -96.949 195.065 -17.973  1.00  0.00     0.013 C 
BRANCH   2   4
ATOM      4  C   UNL     1     -97.921 196.281 -16.007  1.00  0.00    -0.045 A 
ATOM      5  C   UNL     1     -97.914 199.961 -13.746  1.00  0.00     0.044 C 
ATOM      6  C   UNL     1     -97.939 198.695 -14.549  1.00  0.00    -0.051 A 
ATOM      7  C   UNL     1     -98.749 197.622 -14.152  1.00  0.00     0.004 A 
ATOM      8  C   UNL     1     -97.098 198.547 -15.662  1.00  0.00     0.004 A 
ATOM      9  C   UNL     1     -98.746 196.427 -14.878  1.00  0.00     0.004 A 
ATOM     10  C   UNL     1     -97.093 197.354 -16.388  1.00  0.00     0.004 A 
ENDBRANCH   2   4
ENDBRANCH   1   2
BRANCH   1  11
ATOM     11  C   UNL     1     -96.102 193.608 -15.554  1.00  0.00     0.028 C 
BRANCH  11  12
ATOM     12  C   UNL     1     -95.619 194.470 -14.409  1.00  0.00    -0.028 C 
ATOM     13  C   UNL     1     -94.616 195.365 -14.533  1.00  0.00    -0.080 C 
ATOM     14  C   UNL     1     -94.213 196.171 -13.325  1.00  0.00     0.039 C 
ATOM     15  C   UNL     1     -93.897 195.571 -15.845  1.00  0.00     0.039 C 
ENDBRANCH  11  12
ENDBRANCH   1  11
TORSDOF 4
ENDMDL
MODEL 8
REMARK VINA RESULT:    -4.629      1.575      2.171
REMARK INTER + INTRA:          -7.147
REMARK INTER:                  -5.722
REMARK INTRA:                  -1.424
REMARK UNBOUND:                -1.436
REMARK SMILES CC(C)=CCC[C@H](C)c1ccc(C)cc1
REMARK SMILES IDX 6 1 7 2 8 3 9 4 13 5 12 6 11 7 14 8 10 9 15 10 5 11 4 12
REMARK SMILES IDX 2 13 1 14 3 15
REMARK H PARENT
REMARK Flexibility Score: inf
ROOT
ATOM      1  C   UNL     1     -96.090 194.462 -14.163  1.00  0.00     0.012 C 
ENDROOT
BRANCH   1   2
ATOM      2  C   UNL     1     -97.528 194.447 -14.736  1.00  0.00     0.016 C 
ATOM      3  C   UNL     1     -97.751 193.323 -15.759  1.00  0.00     0.013 C 
BRANCH   2   4
ATOM      4  C   UNL     1     -97.860 195.795 -15.353  1.00  0.00    -0.045 A 
ATOM      5  C   UNL     1     -98.853 199.603 -17.134  1.00  0.00     0.044 C 
ATOM      6  C   UNL     1     -98.479 198.286 -16.521  1.00  0.00    -0.051 A 
ATOM      7  C   UNL     1     -98.428 197.128 -17.309  1.00  0.00     0.004 A 
ATOM      8  C   UNL     1     -98.246 198.190 -15.141  1.00  0.00     0.004 A 
ATOM      9  C   UNL     1     -98.116 195.893 -16.733  1.00  0.00     0.004 A 
ATOM     10  C   UNL     1     -97.934 196.957 -14.563  1.00  0.00     0.004 A 
ENDBRANCH   2   4
ENDBRANCH   1   2
BRANCH   1  11
ATOM     11  C   UNL     1     -94.998 194.208 -15.220  1.00  0.00     0.028 C 
BRANCH  11  12
ATOM     12  C   UNL     1     -94.416 195.489 -15.774  1.00  0.00    -0.028 C 
ATOM     13  C   UNL     1     -94.372 195.767 -17.095  1.00  0.00    -0.080 C 
ATOM     14  C   UNL     1     -93.767 197.075 -17.538  1.00  0.00     0.039 C 
ATOM     15  C   UNL     1     -94.910 194.804 -18.125  1.00  0.00     0.039 C 
ENDBRANCH  11  12
ENDBRANCH   1  11
TORSDOF 4
ENDMDL
MODEL 9
REMARK VINA RESULT:    -4.425      1.686      3.525
REMARK INTER + INTRA:          -6.895
REMARK INTER:                  -5.327
REMARK INTRA:                  -1.568
REMARK UNBOUND:                -1.436
REMARK SMILES CC(C)=CCC[C@H](C)c1ccc(C)cc1
REMARK SMILES IDX 6 1 7 2 8 3 9 4 13 5 12 6 11 7 14 8 10 9 15 10 5 11 4 12
REMARK SMILES IDX 2 13 1 14 3 15
REMARK H PARENT
REMARK Flexibility Score: inf
ROOT
ATOM      1  C   UNL     1     -94.341 195.041 -13.711  1.00  0.00     0.012 C 
ENDROOT
BRANCH   1   2
ATOM      2  C   UNL     1     -94.739 194.488 -15.102  1.00  0.00     0.016 C 
ATOM      3  C   UNL     1     -93.623 194.642 -16.146  1.00  0.00     0.013 C 
BRANCH   2   4
ATOM      4  C   UNL     1     -96.012 195.161 -15.589  1.00  0.00    -0.045 A 
ATOM      5  C   UNL     1     -99.630 197.037 -17.019  1.00  0.00     0.044 C 
ATOM      6  C   UNL     1     -98.364 196.412 -16.511  1.00  0.00    -0.051 A 
ATOM      7  C   UNL     1     -97.239 196.321 -17.342  1.00  0.00     0.004 A 
ATOM      8  C   UNL     1     -98.319 195.851 -15.227  1.00  0.00     0.004 A 
ATOM      9  C   UNL     1     -96.069 195.706 -16.883  1.00  0.00     0.004 A 
ATOM     10  C   UNL     1     -97.152 195.236 -14.767  1.00  0.00     0.004 A 
ENDBRANCH   2   4
ENDBRANCH   1   2
BRANCH   1  11
ATOM     11  C   UNL     1     -93.857 196.503 -13.740  1.00  0.00     0.028 C 
BRANCH  11  12
ATOM     12  C   UNL     1     -94.817 197.447 -13.051  1.00  0.00    -0.028 C 
ATOM     13  C   UNL     1     -95.437 198.463 -13.689  1.00  0.00    -0.080 C 
ATOM     14  C   UNL     1     -96.374 199.345 -12.904  1.00  0.00     0.039 C 
ATOM     15  C   UNL     1     -95.210 198.730 -15.158  1.00  0.00     0.039 C 
ENDBRANCH  11  12
ENDBRANCH   1  11
TORSDOF 4
ENDMDL
