MODEL 1
REMARK VINA RESULT:    -4.738      0.000      0.000
REMARK INTER + INTRA:          -7.393
REMARK INTER:                  -6.815
REMARK INTRA:                  -0.578
REMARK UNBOUND:                -0.578
REMARK SMILES CC(C)=CCCC(C)=CCCC(C)=CCO
REMARK SMILES IDX 10 1 9 2 7 3 8 4 6 5 5 6 4 7 1 8 2 9 3 10 11 11 12 12 14 13
REMARK SMILES IDX 13 14 15 15 16 16
REMARK H PARENT 16 17
REMARK Flexibility Score: inf
ROOT
ATOM      1  C   UNL     1     408.396 -86.196 114.862  1.00  0.00     0.032 C 
ENDROOT
BRANCH   1   2
ATOM      2  C   UNL     1     409.824 -85.734 115.023  1.00  0.00    -0.028 C 
ATOM      3  C   UNL     1     410.418 -84.790 114.258  1.00  0.00    -0.077 C 
ATOM      4  C   UNL     1     409.668 -84.047 113.178  1.00  0.00     0.039 C 
BRANCH   3   5
ATOM      5  C   UNL     1     411.865 -84.427 114.521  1.00  0.00     0.034 C 
BRANCH   5   6
ATOM      6  C   UNL     1     412.497 -85.336 115.582  1.00  0.00     0.032 C 
BRANCH   6   7
ATOM      7  C   UNL     1     413.180 -84.530 116.664  1.00  0.00    -0.028 C 
ATOM      8  C   UNL     1     414.708 -84.078 118.533  1.00  0.00     0.039 C 
ATOM      9  C   UNL     1     414.060 -85.029 117.558  1.00  0.00    -0.080 C 
ATOM     10  C   UNL     1     414.414 -86.496 117.607  1.00  0.00     0.039 C 
ENDBRANCH   6   7
ENDBRANCH   5   6
ENDBRANCH   3   5
ENDBRANCH   1   2
BRANCH   1  11
ATOM     11  C   UNL     1     407.401 -85.222 115.508  1.00  0.00     0.034 C 
BRANCH  11  12
ATOM     12  C   UNL     1     406.003 -85.401 114.956  1.00  0.00    -0.075 C 
ATOM     13  C   UNL     1     405.816 -86.167 113.857  1.00  0.00    -0.000 C 
ATOM     14  C   UNL     1     404.844 -84.767 115.688  1.00  0.00     0.039 C 
BRANCH  13  15
ATOM     15  C   UNL     1     404.468 -86.441 113.246  1.00  0.00     0.183 C 
BRANCH  15  16
ATOM     16  O   UNL     1     404.626 -86.884 111.927  1.00  0.00    -0.392 OA
ATOM     17  H   UNL     1     404.522 -87.872 111.955  1.00  0.00     0.210 HD
ENDBRANCH  15  16
ENDBRANCH  13  15
ENDBRANCH  11  12
ENDBRANCH   1  11
TORSDOF 8
ENDMDL
MODEL 2
REMARK VINA RESULT:    -4.429      3.381      8.208
REMARK INTER + INTRA:          -6.948
REMARK INTER:                  -6.229
REMARK INTRA:                  -0.719
REMARK UNBOUND:                -0.578
REMARK SMILES CC(C)=CCCC(C)=CCCC(C)=CCO
REMARK SMILES IDX 10 1 9 2 7 3 8 4 6 5 5 6 4 7 1 8 2 9 3 10 11 11 12 12 14 13
REMARK SMILES IDX 13 14 15 15 16 16
REMARK H PARENT 16 17
REMARK Flexibility Score: inf
ROOT
ATOM      1  C   UNL     1     411.589 -84.862 114.371  1.00  0.00     0.032 C 
ENDROOT
BRANCH   1   2
ATOM      2  C   UNL     1     410.165 -84.445 114.093  1.00  0.00    -0.028 C 
ATOM      3  C   UNL     1     409.071 -85.144 114.472  1.00  0.00    -0.077 C 
ATOM      4  C   UNL     1     409.174 -86.414 115.282  1.00  0.00     0.039 C 
BRANCH   3   5
ATOM      5  C   UNL     1     407.696 -84.615 114.118  1.00  0.00     0.034 C 
BRANCH   5   6
ATOM      6  C   UNL     1     406.582 -85.456 114.753  1.00  0.00     0.032 C 
BRANCH   6   7
ATOM      7  C   UNL     1     405.767 -86.177 113.703  1.00  0.00    -0.028 C 
ATOM      8  C   UNL     1     403.933 -86.543 112.111  1.00  0.00     0.039 C 
ATOM      9  C   UNL     1     404.590 -85.741 113.206  1.00  0.00    -0.080 C 
ATOM     10  C   UNL     1     403.921 -84.483 113.707  1.00  0.00     0.039 C 
ENDBRANCH   6   7
ENDBRANCH   5   6
ENDBRANCH   3   5
ENDBRANCH   1   2
BRANCH   1  11
ATOM     11  C   UNL     1     412.281 -83.919 115.364  1.00  0.00     0.034 C 
BRANCH  11  12
ATOM     12  C   UNL     1     413.113 -84.680 116.374  1.00  0.00    -0.075 C 
ATOM     13  C   UNL     1     413.869 -83.995 117.263  1.00  0.00    -0.000 C 
ATOM     14  C   UNL     1     413.028 -86.187 116.400  1.00  0.00     0.039 C 
BRANCH  13  15
ATOM     15  C   UNL     1     414.704 -84.648 118.330  1.00  0.00     0.183 C 
BRANCH  15  16
ATOM     16  O   UNL     1     415.948 -85.014 117.802  1.00  0.00    -0.392 OA
ATOM     17  H   UNL     1     416.457 -85.417 118.554  1.00  0.00     0.210 HD
ENDBRANCH  15  16
ENDBRANCH  13  15
ENDBRANCH  11  12
ENDBRANCH   1  11
TORSDOF 8
ENDMDL
MODEL 3
REMARK VINA RESULT:    -4.074      2.883      7.842
REMARK INTER + INTRA:          -6.439
REMARK INTER:                  -5.635
REMARK INTRA:                  -0.803
REMARK UNBOUND:                -0.578
REMARK SMILES CC(C)=CCCC(C)=CCCC(C)=CCO
REMARK SMILES IDX 10 1 9 2 7 3 8 4 6 5 5 6 4 7 1 8 2 9 3 10 11 11 12 12 14 13
REMARK SMILES IDX 13 14 15 15 16 16
REMARK H PARENT 16 17
REMARK Flexibility Score: inf
ROOT
ATOM      1  C   UNL     1     408.714 -85.907 115.422  1.00  0.00     0.032 C 
ENDROOT
BRANCH   1   2
ATOM      2  C   UNL     1     407.209 -85.883 115.305  1.00  0.00    -0.028 C 
ATOM      3  C   UNL     1     406.402 -85.009 115.947  1.00  0.00    -0.077 C 
ATOM      4  C   UNL     1     406.950 -83.904 116.819  1.00  0.00     0.039 C 
BRANCH   3   5
ATOM      5  C   UNL     1     404.903 -85.103 115.749  1.00  0.00     0.034 C 
BRANCH   5   6
ATOM      6  C   UNL     1     404.442 -84.334 114.504  1.00  0.00     0.032 C 
BRANCH   6   7
ATOM      7  C   UNL     1     404.009 -85.275 113.402  1.00  0.00    -0.028 C 
ATOM      8  C   UNL     1     403.876 -86.198 111.130  1.00  0.00     0.039 C 
ATOM      9  C   UNL     1     404.330 -85.134 112.098  1.00  0.00    -0.080 C 
ATOM     10  C   UNL     1     405.124 -83.956 111.587  1.00  0.00     0.039 C 
ENDBRANCH   6   7
ENDBRANCH   5   6
ENDBRANCH   3   5
ENDBRANCH   1   2
BRANCH   1  11
ATOM     11  C   UNL     1     409.395 -85.311 114.183  1.00  0.00     0.034 C 
BRANCH  11  12
ATOM     12  C   UNL     1     410.855 -85.003 114.440  1.00  0.00    -0.075 C 
ATOM     13  C   UNL     1     411.362 -85.175 115.683  1.00  0.00    -0.000 C 
ATOM     14  C   UNL     1     411.723 -84.571 113.283  1.00  0.00     0.039 C 
BRANCH  13  15
ATOM     15  C   UNL     1     412.803 -84.935 116.041  1.00  0.00     0.183 C 
BRANCH  15  16
ATOM     16  O   UNL     1     413.494 -86.152 116.073  1.00  0.00    -0.392 OA
ATOM     17  H   UNL     1     413.982 -86.214 115.211  1.00  0.00     0.210 HD
ENDBRANCH  15  16
ENDBRANCH  13  15
ENDBRANCH  11  12
ENDBRANCH   1  11
TORSDOF 8
ENDMDL
MODEL 4
REMARK VINA RESULT:    -3.786      2.376      2.947
REMARK INTER + INTRA:          -6.024
REMARK INTER:                  -6.301
REMARK INTRA:                   0.277
REMARK UNBOUND:                -0.578
REMARK SMILES CC(C)=CCCC(C)=CCCC(C)=CCO
REMARK SMILES IDX 10 1 9 2 7 3 8 4 6 5 5 6 4 7 1 8 2 9 3 10 11 11 12 12 14 13
REMARK SMILES IDX 13 14 15 15 16 16
REMARK H PARENT 16 17
REMARK Flexibility Score: inf
ROOT
ATOM      1  C   UNL     1     407.358 -85.331 114.216  1.00  0.00     0.032 C 
ENDROOT
BRANCH   1   2
ATOM      2  C   UNL     1     408.616 -85.783 114.917  1.00  0.00    -0.028 C 
ATOM      3  C   UNL     1     409.864 -85.375 114.595  1.00  0.00    -0.077 C 
ATOM      4  C   UNL     1     410.118 -84.355 113.511  1.00  0.00     0.039 C 
BRANCH   3   5
ATOM      5  C   UNL     1     411.044 -85.916 115.376  1.00  0.00     0.034 C 
BRANCH   5   6
ATOM      6  C   UNL     1     412.320 -85.106 115.116  1.00  0.00     0.032 C 
BRANCH   6   7
ATOM      7  C   UNL     1     412.955 -84.646 116.409  1.00  0.00    -0.028 C 
ATOM      8  C   UNL     1     414.351 -84.786 118.425  1.00  0.00     0.039 C 
ATOM      9  C   UNL     1     413.735 -85.414 117.201  1.00  0.00    -0.080 C 
ATOM     10  C   UNL     1     414.008 -86.867 116.896  1.00  0.00     0.039 C 
ENDBRANCH   6   7
ENDBRANCH   5   6
ENDBRANCH   3   5
ENDBRANCH   1   2
BRANCH   1  11
ATOM     11  C   UNL     1     406.117 -85.489 115.105  1.00  0.00     0.034 C 
BRANCH  11  12
ATOM     12  C   UNL     1     406.281 -84.776 116.430  1.00  0.00    -0.075 C 
ATOM     13  C   UNL     1     405.389 -85.002 117.422  1.00  0.00    -0.000 C 
ATOM     14  C   UNL     1     407.477 -83.875 116.629  1.00  0.00     0.039 C 
BRANCH  13  15
ATOM     15  C   UNL     1     405.477 -84.376 118.786  1.00  0.00     0.183 C 
BRANCH  15  16
ATOM     16  O   UNL     1     406.491 -84.994 119.528  1.00  0.00    -0.392 OA
ATOM     17  H   UNL     1     407.197 -85.242 118.875  1.00  0.00     0.210 HD
ENDBRANCH  15  16
ENDBRANCH  13  15
ENDBRANCH  11  12
ENDBRANCH   1  11
TORSDOF 8
ENDMDL
MODEL 5
REMARK VINA RESULT:    -3.687      4.040      6.145
REMARK INTER + INTRA:          -5.881
REMARK INTER:                  -5.250
REMARK INTRA:                  -0.631
REMARK UNBOUND:                -0.578
REMARK SMILES CC(C)=CCCC(C)=CCCC(C)=CCO
REMARK SMILES IDX 10 1 9 2 7 3 8 4 6 5 5 6 4 7 1 8 2 9 3 10 11 11 12 12 14 13
REMARK SMILES IDX 13 14 15 15 16 16
REMARK H PARENT 16 17
REMARK Flexibility Score: inf
ROOT
ATOM      1  C   UNL     1     405.207 -85.139 117.663  1.00  0.00     0.032 C 
ENDROOT
BRANCH   1   2
ATOM      2  C   UNL     1     406.123 -84.850 116.499  1.00  0.00    -0.028 C 
ATOM      3  C   UNL     1     405.790 -85.015 115.199  1.00  0.00    -0.077 C 
ATOM      4  C   UNL     1     404.410 -85.461 114.777  1.00  0.00     0.039 C 
BRANCH   3   5
ATOM      5  C   UNL     1     406.812 -84.697 114.127  1.00  0.00     0.034 C 
BRANCH   5   6
ATOM      6  C   UNL     1     408.137 -84.215 114.728  1.00  0.00     0.032 C 
BRANCH   6   7
ATOM      7  C   UNL     1     409.142 -83.875 113.650  1.00  0.00    -0.028 C 
ATOM      8  C   UNL     1     411.179 -84.099 112.296  1.00  0.00     0.039 C 
ATOM      9  C   UNL     1     410.317 -84.514 113.461  1.00  0.00    -0.080 C 
ATOM     10  C   UNL     1     410.785 -85.623 114.372  1.00  0.00     0.039 C 
ENDBRANCH   6   7
ENDBRANCH   5   6
ENDBRANCH   3   5
ENDBRANCH   1   2
BRANCH   1  11
ATOM     11  C   UNL     1     404.897 -83.875 118.477  1.00  0.00     0.034 C 
BRANCH  11  12
ATOM     12  C   UNL     1     405.419 -83.979 119.894  1.00  0.00    -0.075 C 
ATOM     13  C   UNL     1     404.555 -83.875 120.930  1.00  0.00    -0.000 C 
ATOM     14  C   UNL     1     406.887 -84.258 120.111  1.00  0.00     0.039 C 
BRANCH  13  15
ATOM     15  C   UNL     1     404.959 -83.999 122.373  1.00  0.00     0.183 C 
BRANCH  15  16
ATOM     16  O   UNL     1     404.832 -85.330 122.790  1.00  0.00    -0.392 OA
ATOM     17  H   UNL     1     405.609 -85.508 123.382  1.00  0.00     0.210 HD
ENDBRANCH  15  16
ENDBRANCH  13  15
ENDBRANCH  11  12
ENDBRANCH   1  11
TORSDOF 8
ENDMDL
MODEL 6
REMARK VINA RESULT:    -3.565     12.795     15.112
REMARK INTER + INTRA:          -5.706
REMARK INTER:                  -4.350
REMARK INTRA:                  -1.355
REMARK UNBOUND:                -0.578
REMARK SMILES CC(C)=CCCC(C)=CCCC(C)=CCO
REMARK SMILES IDX 10 1 9 2 7 3 8 4 6 5 5 6 4 7 1 8 2 9 3 10 11 11 12 12 14 13
REMARK SMILES IDX 13 14 15 15 16 16
REMARK H PARENT 16 17
REMARK Flexibility Score: inf
ROOT
ATOM      1  C   UNL     1     422.317 -87.014 120.546  1.00  0.00     0.032 C 
ENDROOT
BRANCH   1   2
ATOM      2  C   UNL     1     422.366 -86.628 122.004  1.00  0.00    -0.028 C 
ATOM      3  C   UNL     1     421.467 -87.022 122.935  1.00  0.00    -0.077 C 
ATOM      4  C   UNL     1     420.332 -87.960 122.604  1.00  0.00     0.039 C 
BRANCH   3   5
ATOM      5  C   UNL     1     421.629 -86.550 124.366  1.00  0.00     0.034 C 
BRANCH   5   6
ATOM      6  C   UNL     1     421.244 -85.074 124.526  1.00  0.00     0.032 C 
BRANCH   6   7
ATOM      7  C   UNL     1     419.771 -84.918 124.829  1.00  0.00    -0.028 C 
ATOM      8  C   UNL     1     417.398 -84.470 124.378  1.00  0.00     0.039 C 
ATOM      9  C   UNL     1     418.840 -84.509 123.939  1.00  0.00    -0.080 C 
ATOM     10  C   UNL     1     419.198 -84.099 122.531  1.00  0.00     0.039 C 
ENDBRANCH   6   7
ENDBRANCH   5   6
ENDBRANCH   3   5
ENDBRANCH   1   2
BRANCH   1  11
ATOM     11  C   UNL     1     423.453 -87.973 120.167  1.00  0.00     0.034 C 
BRANCH  11  12
ATOM     12  C   UNL     1     423.283 -89.330 120.818  1.00  0.00    -0.075 C 
ATOM     13  C   UNL     1     422.427 -90.225 120.274  1.00  0.00    -0.000 C 
ATOM     14  C   UNL     1     424.123 -89.669 122.026  1.00  0.00     0.039 C 
BRANCH  13  15
ATOM     15  C   UNL     1     422.208 -91.611 120.816  1.00  0.00     0.183 C 
BRANCH  15  16
ATOM     16  O   UNL     1     421.381 -92.335 119.948  1.00  0.00    -0.392 OA
ATOM     17  H   UNL     1     420.983 -93.063 120.493  1.00  0.00     0.210 HD
ENDBRANCH  15  16
ENDBRANCH  13  15
ENDBRANCH  11  12
ENDBRANCH   1  11
TORSDOF 8
ENDMDL
MODEL 7
REMARK VINA RESULT:    -3.505     13.350     14.914
REMARK INTER + INTRA:          -5.620
REMARK INTER:                  -4.567
REMARK INTRA:                  -1.053
REMARK UNBOUND:                -0.578
REMARK SMILES CC(C)=CCCC(C)=CCCC(C)=CCO
REMARK SMILES IDX 10 1 9 2 7 3 8 4 6 5 5 6 4 7 1 8 2 9 3 10 11 11 12 12 14 13
REMARK SMILES IDX 13 14 15 15 16 16
REMARK H PARENT 16 17
REMARK Flexibility Score: inf
ROOT
ATOM      1  C   UNL     1     420.664 -88.178 121.698  1.00  0.00     0.032 C 
ENDROOT
BRANCH   1   2
ATOM      2  C   UNL     1     420.010 -86.875 122.088  1.00  0.00    -0.028 C 
ATOM      3  C   UNL     1     419.841 -86.450 123.360  1.00  0.00    -0.077 C 
ATOM      4  C   UNL     1     420.358 -87.235 124.542  1.00  0.00     0.039 C 
BRANCH   3   5
ATOM      5  C   UNL     1     419.157 -85.122 123.612  1.00  0.00     0.034 C 
BRANCH   5   6
ATOM      6  C   UNL     1     420.167 -84.009 123.914  1.00  0.00     0.032 C 
BRANCH   6   7
ATOM      7  C   UNL     1     421.189 -83.875 122.808  1.00  0.00    -0.028 C 
ATOM      8  C   UNL     1     423.375 -84.067 121.704  1.00  0.00     0.039 C 
ATOM      9  C   UNL     1     422.497 -84.192 122.923  1.00  0.00    -0.080 C 
ATOM     10  C   UNL     1     423.097 -84.668 124.224  1.00  0.00     0.039 C 
ENDBRANCH   6   7
ENDBRANCH   5   6
ENDBRANCH   3   5
ENDBRANCH   1   2
BRANCH   1  11
ATOM     11  C   UNL     1     422.113 -87.978 121.235  1.00  0.00     0.034 C 
BRANCH  11  12
ATOM     12  C   UNL     1     422.701 -89.252 120.665  1.00  0.00    -0.075 C 
ATOM     13  C   UNL     1     422.051 -90.424 120.850  1.00  0.00    -0.000 C 
ATOM     14  C   UNL     1     423.969 -89.168 119.850  1.00  0.00     0.039 C 
BRANCH  13  15
ATOM     15  C   UNL     1     422.525 -91.740 120.297  1.00  0.00     0.183 C 
BRANCH  15  16
ATOM     16  O   UNL     1     421.426 -92.517 119.912  1.00  0.00    -0.392 OA
ATOM     17  H   UNL     1     421.776 -93.435 119.766  1.00  0.00     0.210 HD
ENDBRANCH  15  16
ENDBRANCH  13  15
ENDBRANCH  11  12
ENDBRANCH   1  11
TORSDOF 8
ENDMDL
MODEL 8
REMARK VINA RESULT:    -2.716      2.338      4.687
REMARK INTER + INTRA:          -4.484
REMARK INTER:                  -3.876
REMARK INTRA:                  -0.608
REMARK UNBOUND:                -0.578
REMARK SMILES CC(C)=CCCC(C)=CCCC(C)=CCO
REMARK SMILES IDX 10 1 9 2 7 3 8 4 6 5 5 6 4 7 1 8 2 9 3 10 11 11 12 12 14 13
REMARK SMILES IDX 13 14 15 15 16 16
REMARK H PARENT 16 17
REMARK Flexibility Score: inf
ROOT
ATOM      1  C   UNL     1     412.068 -85.636 115.729  1.00  0.00     0.032 C 
ENDROOT
BRANCH   1   2
ATOM      2  C   UNL     1     412.919 -84.884 116.724  1.00  0.00    -0.028 C 
ATOM      3  C   UNL     1     413.933 -85.426 117.434  1.00  0.00    -0.077 C 
ATOM      4  C   UNL     1     414.361 -86.863 117.248  1.00  0.00     0.039 C 
BRANCH   3   5
ATOM      5  C   UNL     1     414.701 -84.559 118.410  1.00  0.00     0.034 C 
BRANCH   5   6
ATOM      6  C   UNL     1     415.901 -83.875 117.743  1.00  0.00     0.032 C 
BRANCH   6   7
ATOM      7  C   UNL     1     417.113 -83.881 118.647  1.00  0.00    -0.028 C 
ATOM      8  C   UNL     1     419.452 -84.245 119.303  1.00  0.00     0.039 C 
ATOM      9  C   UNL     1     418.324 -84.376 118.311  1.00  0.00    -0.080 C 
ATOM     10  C   UNL     1     418.578 -85.045 116.982  1.00  0.00     0.039 C 
ENDBRANCH   6   7
ENDBRANCH   5   6
ENDBRANCH   3   5
ENDBRANCH   1   2
BRANCH   1  11
ATOM     11  C   UNL     1     411.893 -84.856 114.418  1.00  0.00     0.034 C 
BRANCH  11  12
ATOM     12  C   UNL     1     410.437 -84.760 114.014  1.00  0.00    -0.075 C 
ATOM     13  C   UNL     1     409.499 -85.393 114.754  1.00  0.00    -0.000 C 
ATOM     14  C   UNL     1     410.066 -83.904 112.826  1.00  0.00     0.039 C 
BRANCH  13  15
ATOM     15  C   UNL     1     408.024 -85.334 114.465  1.00  0.00     0.183 C 
BRANCH  15  16
ATOM     16  O   UNL     1     407.302 -85.762 115.586  1.00  0.00    -0.392 OA
ATOM     17  H   UNL     1     406.672 -86.456 115.258  1.00  0.00     0.210 HD
ENDBRANCH  15  16
ENDBRANCH  13  15
ENDBRANCH  11  12
ENDBRANCH   1  11
TORSDOF 8
ENDMDL
