MODEL 1
REMARK VINA RESULT:    -2.084      0.000      0.000
REMARK INTER + INTRA:          -2.084
REMARK INTER:                  -2.084
REMARK INTRA:                   0.000
REMARK UNBOUND:                 0.000
REMARK SMILES CC(=O)[O-]
REMARK SMILES IDX 1 1 2 2 3 3 4 4
REMARK H PARENT
REMARK Flexibility Score: inf
ROOT
ATOM      1  C   UNL     1     106.718  10.876  16.160  1.00  0.00     0.063 C 
ATOM      2  C   UNL     1     105.790  11.749  15.385  1.00  0.00     0.038 C 
ATOM      3  O   UNL     1     105.171  11.286  14.391  1.00  0.00    -0.550 OA
ATOM      4  O   UNL     1     105.647  13.087  15.724  1.00  0.00    -0.550 OA
ENDROOT
TORSDOF 0
ENDMDL
MODEL 2
REMARK VINA RESULT:    -2.069      0.105      1.621
REMARK INTER + INTRA:          -2.069
REMARK INTER:                  -2.069
REMARK INTRA:                   0.000
REMARK UNBOUND:                 0.000
REMARK SMILES CC(=O)[O-]
REMARK SMILES IDX 1 1 2 2 3 3 4 4
REMARK H PARENT
REMARK Flexibility Score: inf
ROOT
ATOM      1  C   UNL     1     106.743  10.848  16.156  1.00  0.00     0.063 C 
ATOM      2  C   UNL     1     105.821  11.729  15.382  1.00  0.00     0.038 C 
ATOM      3  O   UNL     1     105.658  12.929  15.725  1.00  0.00    -0.550 OA
ATOM      4  O   UNL     1     105.101  11.214  14.313  1.00  0.00    -0.550 OA
ENDROOT
TORSDOF 0
ENDMDL
MODEL 3
REMARK VINA RESULT:    -2.014      1.640      1.884
REMARK INTER + INTRA:          -2.014
REMARK INTER:                  -2.014
REMARK INTRA:                   0.000
REMARK UNBOUND:                 0.000
REMARK SMILES CC(=O)[O-]
REMARK SMILES IDX 1 1 2 2 3 3 4 4
REMARK H PARENT
REMARK Flexibility Score: inf
ROOT
ATOM      1  C   UNL     1     105.276  11.298  14.861  1.00  0.00     0.063 C 
ATOM      2  C   UNL     1     106.255  11.366  15.984  1.00  0.00     0.038 C 
ATOM      3  O   UNL     1     107.041  10.405  16.194  1.00  0.00    -0.550 OA
ATOM      4  O   UNL     1     106.267  12.464  16.833  1.00  0.00    -0.550 OA
ENDROOT
TORSDOF 0
ENDMDL
MODEL 4
REMARK VINA RESULT:    -1.959     15.374     15.564
REMARK INTER + INTRA:          -1.959
REMARK INTER:                  -1.959
REMARK INTRA:                   0.000
REMARK UNBOUND:                 0.000
REMARK SMILES CC(=O)[O-]
REMARK SMILES IDX 1 1 2 2 3 3 4 4
REMARK H PARENT
REMARK Flexibility Score: inf
ROOT
ATOM      1  C   UNL     1      96.901   3.014  25.552  1.00  0.00     0.063 C 
ATOM      2  C   UNL     1      96.331   3.092  24.176  1.00  0.00     0.038 C 
ATOM      3  O   UNL     1      95.928   2.047  23.601  1.00  0.00    -0.550 OA
ATOM      4  O   UNL     1      96.291   4.306  23.506  1.00  0.00    -0.550 OA
ENDROOT
TORSDOF 0
ENDMDL
MODEL 5
REMARK VINA RESULT:    -1.923     15.182     15.349
REMARK INTER + INTRA:          -1.923
REMARK INTER:                  -1.923
REMARK INTRA:                   0.000
REMARK UNBOUND:                 0.000
REMARK SMILES CC(=O)[O-]
REMARK SMILES IDX 1 1 2 2 3 3 4 4
REMARK H PARENT
REMARK Flexibility Score: inf
ROOT
ATOM      1  C   UNL     1      96.163   2.479  23.975  1.00  0.00     0.063 C 
ATOM      2  C   UNL     1      96.120   3.945  24.246  1.00  0.00     0.038 C 
ATOM      3  O   UNL     1      95.751   4.368  25.372  1.00  0.00    -0.550 OA
ATOM      4  O   UNL     1      96.437   4.848  23.240  1.00  0.00    -0.550 OA
ENDROOT
TORSDOF 0
ENDMDL
MODEL 6
REMARK VINA RESULT:    -1.894     15.581     15.842
REMARK INTER + INTRA:          -1.894
REMARK INTER:                  -1.894
REMARK INTRA:                   0.000
REMARK UNBOUND:                 0.000
REMARK SMILES CC(=O)[O-]
REMARK SMILES IDX 1 1 2 2 3 3 4 4
REMARK H PARENT
REMARK Flexibility Score: inf
ROOT
ATOM      1  C   UNL     1      96.325   4.357  23.705  1.00  0.00     0.063 C 
ATOM      2  C   UNL     1      96.277   2.997  24.314  1.00  0.00     0.038 C 
ATOM      3  O   UNL     1      96.616   2.831  25.516  1.00  0.00    -0.550 OA
ATOM      4  O   UNL     1      95.912   1.901  23.545  1.00  0.00    -0.550 OA
ENDROOT
TORSDOF 0
ENDMDL
MODEL 7
REMARK VINA RESULT:    -1.857     15.629     15.824
REMARK INTER + INTRA:          -1.857
REMARK INTER:                  -1.857
REMARK INTRA:                   0.000
REMARK UNBOUND:                 0.000
REMARK SMILES CC(=O)[O-]
REMARK SMILES IDX 1 1 2 2 3 3 4 4
REMARK H PARENT
REMARK Flexibility Score: inf
ROOT
ATOM      1  C   UNL     1      95.407   5.263  25.574  1.00  0.00     0.063 C 
ATOM      2  C   UNL     1      96.162   4.064  25.108  1.00  0.00     0.038 C 
ATOM      3  O   UNL     1      96.848   3.394  25.925  1.00  0.00    -0.550 OA
ATOM      4  O   UNL     1      96.155   3.714  23.765  1.00  0.00    -0.550 OA
ENDROOT
TORSDOF 0
ENDMDL
MODEL 8
REMARK VINA RESULT:    -1.788      1.893      2.331
REMARK INTER + INTRA:          -1.788
REMARK INTER:                  -1.788
REMARK INTRA:                   0.000
REMARK UNBOUND:                 0.000
REMARK SMILES CC(=O)[O-]
REMARK SMILES IDX 1 1 2 2 3 3 4 4
REMARK H PARENT
REMARK Flexibility Score: inf
ROOT
ATOM      1  C   UNL     1     105.481  11.333  15.038  1.00  0.00     0.063 C 
ATOM      2  C   UNL     1     104.115  11.741  15.477  1.00  0.00     0.038 C 
ATOM      3  O   UNL     1     103.810  11.714  16.698  1.00  0.00    -0.550 OA
ATOM      4  O   UNL     1     103.160  12.102  14.537  1.00  0.00    -0.550 OA
ENDROOT
TORSDOF 0
ENDMDL
MODEL 9
REMARK VINA RESULT:    -1.779     13.000     13.319
REMARK INTER + INTRA:          -1.779
REMARK INTER:                  -1.779
REMARK INTRA:                   0.000
REMARK UNBOUND:                 0.000
REMARK SMILES CC(=O)[O-]
REMARK SMILES IDX 1 1 2 2 3 3 4 4
REMARK H PARENT
REMARK Flexibility Score: inf
ROOT
ATOM      1  C   UNL     1      99.479   4.386  23.133  1.00  0.00     0.063 C 
ATOM      2  C   UNL     1      99.998   3.000  23.321  1.00  0.00     0.038 C 
ATOM      3  O   UNL     1     101.149   2.697  22.912  1.00  0.00    -0.550 OA
ATOM      4  O   UNL     1      99.193   2.028  23.899  1.00  0.00    -0.550 OA
ENDROOT
TORSDOF 0
ENDMDL
