MODEL 1
REMARK VINA RESULT:    -2.566      0.000      0.000
REMARK INTER + INTRA:          -2.566
REMARK INTER:                  -2.566
REMARK INTRA:                   0.000
REMARK UNBOUND:                 0.000
REMARK SMILES CC(=O)[O-]
REMARK SMILES IDX 1 1 2 2 3 3 4 4
REMARK H PARENT
REMARK Flexibility Score: inf
ROOT
ATOM      1  C   UNL     1      -8.372  -5.392  -3.090  1.00  0.00     0.063 C 
ATOM      2  C   UNL     1      -7.718  -4.095  -3.427  1.00  0.00     0.038 C 
ATOM      3  O   UNL     1      -7.079  -3.462  -2.547  1.00  0.00    -0.550 OA
ATOM      4  O   UNL     1      -7.767  -3.609  -4.728  1.00  0.00    -0.550 OA
ENDROOT
TORSDOF 0
ENDMDL
MODEL 2
REMARK VINA RESULT:    -2.557      0.105      1.622
REMARK INTER + INTRA:          -2.557
REMARK INTER:                  -2.557
REMARK INTRA:                   0.000
REMARK UNBOUND:                 0.000
REMARK SMILES CC(=O)[O-]
REMARK SMILES IDX 1 1 2 2 3 3 4 4
REMARK H PARENT
REMARK Flexibility Score: inf
ROOT
ATOM      1  C   UNL     1      -8.495  -5.342  -3.137  1.00  0.00     0.063 C 
ATOM      2  C   UNL     1      -7.772  -4.091  -3.505  1.00  0.00     0.038 C 
ATOM      3  O   UNL     1      -7.839  -3.644  -4.681  1.00  0.00    -0.550 OA
ATOM      4  O   UNL     1      -7.067  -3.384  -2.539  1.00  0.00    -0.550 OA
ENDROOT
TORSDOF 0
ENDMDL
MODEL 3
REMARK VINA RESULT:    -2.505      7.055      7.473
REMARK INTER + INTRA:          -2.505
REMARK INTER:                  -2.505
REMARK INTRA:                   0.000
REMARK UNBOUND:                 0.000
REMARK SMILES CC(=O)[O-]
REMARK SMILES IDX 1 1 2 2 3 3 4 4
REMARK H PARENT
REMARK Flexibility Score: inf
ROOT
ATOM      1  C   UNL     1     -10.067   1.865  -3.420  1.00  0.00     0.063 C 
ATOM      2  C   UNL     1      -9.509   2.892  -4.346  1.00  0.00     0.038 C 
ATOM      3  O   UNL     1      -9.590   2.731  -5.592  1.00  0.00    -0.550 OA
ATOM      4  O   UNL     1      -8.945   4.056  -3.837  1.00  0.00    -0.550 OA
ENDROOT
TORSDOF 0
ENDMDL
MODEL 4
REMARK VINA RESULT:    -2.420      9.102      9.619
REMARK INTER + INTRA:          -2.420
REMARK INTER:                  -2.420
REMARK INTRA:                   0.000
REMARK UNBOUND:                 0.000
REMARK SMILES CC(=O)[O-]
REMARK SMILES IDX 1 1 2 2 3 3 4 4
REMARK H PARENT
REMARK Flexibility Score: inf
ROOT
ATOM      1  C   UNL     1      -8.058  -7.928   4.682  1.00  0.00     0.063 C 
ATOM      2  C   UNL     1      -9.212  -8.872   4.662  1.00  0.00     0.038 C 
ATOM      3  O   UNL     1      -9.875  -9.082   5.712  1.00  0.00    -0.550 OA
ATOM      4  O   UNL     1      -9.593  -9.482   3.473  1.00  0.00    -0.550 OA
ENDROOT
TORSDOF 0
ENDMDL
MODEL 5
REMARK VINA RESULT:    -2.366      1.645      2.418
REMARK INTER + INTRA:          -2.366
REMARK INTER:                  -2.366
REMARK INTRA:                   0.000
REMARK UNBOUND:                 0.000
REMARK SMILES CC(=O)[O-]
REMARK SMILES IDX 1 1 2 2 3 3 4 4
REMARK H PARENT
REMARK Flexibility Score: inf
ROOT
ATOM      1  C   UNL     1      -8.821  -2.855  -1.584  1.00  0.00     0.063 C 
ATOM      2  C   UNL     1      -7.583  -3.224  -2.328  1.00  0.00     0.038 C 
ATOM      3  O   UNL     1      -7.662  -3.713  -3.485  1.00  0.00    -0.550 OA
ATOM      4  O   UNL     1      -6.335  -2.979  -1.767  1.00  0.00    -0.550 OA
ENDROOT
TORSDOF 0
ENDMDL
MODEL 6
REMARK VINA RESULT:    -2.301      7.288      7.673
REMARK INTER + INTRA:          -2.301
REMARK INTER:                  -2.301
REMARK INTRA:                   0.000
REMARK UNBOUND:                 0.000
REMARK SMILES CC(=O)[O-]
REMARK SMILES IDX 1 1 2 2 3 3 4 4
REMARK H PARENT
REMARK Flexibility Score: inf
ROOT
ATOM      1  C   UNL     1      -9.101   4.530  -3.801  1.00  0.00     0.063 C 
ATOM      2  C   UNL     1      -9.299   3.092  -4.144  1.00  0.00     0.038 C 
ATOM      3  O   UNL     1      -9.275   2.217  -3.239  1.00  0.00    -0.550 OA
ATOM      4  O   UNL     1      -9.563   2.720  -5.456  1.00  0.00    -0.550 OA
ENDROOT
TORSDOF 0
ENDMDL
MODEL 7
REMARK VINA RESULT:    -2.204      9.174      9.327
REMARK INTER + INTRA:          -2.204
REMARK INTER:                  -2.204
REMARK INTRA:                   0.000
REMARK UNBOUND:                 0.000
REMARK SMILES CC(=O)[O-]
REMARK SMILES IDX 1 1 2 2 3 3 4 4
REMARK H PARENT
REMARK Flexibility Score: inf
ROOT
ATOM      1  C   UNL     1      -9.323  -9.141   4.113  1.00  0.00     0.063 C 
ATOM      2  C   UNL     1      -8.737  -8.007   4.883  1.00  0.00     0.038 C 
ATOM      3  O   UNL     1      -7.491  -7.825   4.891  1.00  0.00    -0.550 OA
ATOM      4  O   UNL     1      -9.568  -7.115   5.550  1.00  0.00    -0.550 OA
ENDROOT
TORSDOF 0
ENDMDL
MODEL 8
REMARK VINA RESULT:    -2.144     11.039     11.609
REMARK INTER + INTRA:          -2.144
REMARK INTER:                  -2.144
REMARK INTRA:                   0.000
REMARK UNBOUND:                 0.000
REMARK SMILES CC(=O)[O-]
REMARK SMILES IDX 1 1 2 2 3 3 4 4
REMARK H PARENT
REMARK Flexibility Score: inf
ROOT
ATOM      1  C   UNL     1     -10.031  -2.964   7.686  1.00  0.00     0.063 C 
ATOM      2  C   UNL     1      -9.630  -4.399   7.755  1.00  0.00     0.038 C 
ATOM      3  O   UNL     1      -9.904  -5.178   6.805  1.00  0.00    -0.550 OA
ATOM      4  O   UNL     1      -8.905  -4.867   8.844  1.00  0.00    -0.550 OA
ENDROOT
TORSDOF 0
ENDMDL
MODEL 9
REMARK VINA RESULT:    -2.069     14.237     14.856
REMARK INTER + INTRA:          -2.069
REMARK INTER:                  -2.069
REMARK INTRA:                   0.000
REMARK UNBOUND:                 0.000
REMARK SMILES CC(=O)[O-]
REMARK SMILES IDX 1 1 2 2 3 3 4 4
REMARK H PARENT
REMARK Flexibility Score: inf
ROOT
ATOM      1  C   UNL     1      -3.873   3.150   9.749  1.00  0.00     0.063 C 
ATOM      2  C   UNL     1      -3.212   1.976   9.111  1.00  0.00     0.038 C 
ATOM      3  O   UNL     1      -3.904   1.098   8.533  1.00  0.00    -0.550 OA
ATOM      4  O   UNL     1      -1.826   1.874   9.106  1.00  0.00    -0.550 OA
ENDROOT
TORSDOF 0
ENDMDL
