MODEL 1
REMARK VINA RESULT:    -3.586      0.000      0.000
REMARK INTER + INTRA:          -5.034
REMARK INTER:                  -4.844
REMARK INTRA:                  -0.190
REMARK UNBOUND:                -0.190
REMARK SMILES CCCCCCCC(=O)[O-]
REMARK SMILES IDX 5 1 6 2 7 3 8 4 9 5 10 6 4 7 3 8 2 9 1 10
REMARK H PARENT
REMARK Flexibility Score: inf
ROOT
ATOM      1  C   UNL     1     -20.939  -0.174   6.413  1.00  0.00     0.000 C 
ENDROOT
BRANCH   1   2
ATOM      2  C   UNL     1     -20.603   1.104   7.201  1.00  0.00     0.006 C 
BRANCH   2   3
ATOM      3  C   UNL     1     -21.701   2.169   7.107  1.00  0.00     0.053 C 
BRANCH   3   4
ATOM      4  C   UNL     1     -22.085   2.647   8.472  1.00  0.00     0.041 C 
ATOM      5  O   UNL     1     -22.138   1.837   9.435  1.00  0.00    -0.550 OA
ATOM      6  O   UNL     1     -22.432   3.977   8.671  1.00  0.00    -0.550 OA
ENDBRANCH   3   4
ENDBRANCH   2   3
ENDBRANCH   1   2
BRANCH   1   7
ATOM      7  C   UNL     1     -20.993  -1.444   7.289  1.00  0.00     0.000 C 
BRANCH   7   8
ATOM      8  C   UNL     1     -20.980  -1.113   8.791  1.00  0.00    -0.000 C 
BRANCH   8   9
ATOM      9  C   UNL     1     -20.336  -2.224   9.634  1.00  0.00    -0.003 C 
ATOM     10  C   UNL     1     -20.548  -2.021  11.135  1.00  0.00     0.004 C 
ENDBRANCH   8   9
ENDBRANCH   7   8
ENDBRANCH   1   7
TORSDOF 6
ENDMDL
MODEL 2
REMARK VINA RESULT:    -3.548      2.629      4.382
REMARK INTER + INTRA:          -4.982
REMARK INTER:                  -5.017
REMARK INTRA:                   0.035
REMARK UNBOUND:                -0.190
REMARK SMILES CCCCCCCC(=O)[O-]
REMARK SMILES IDX 5 1 6 2 7 3 8 4 9 5 10 6 4 7 3 8 2 9 1 10
REMARK H PARENT
REMARK Flexibility Score: inf
ROOT
ATOM      1  C   UNL     1     -20.656  -0.357   6.175  1.00  0.00     0.000 C 
ENDROOT
BRANCH   1   2
ATOM      2  C   UNL     1     -21.024  -1.529   7.102  1.00  0.00     0.006 C 
BRANCH   2   3
ATOM      3  C   UNL     1     -21.053  -1.134   8.582  1.00  0.00     0.053 C 
BRANCH   3   4
ATOM      4  C   UNL     1     -20.394  -2.185   9.418  1.00  0.00     0.041 C 
ATOM      5  O   UNL     1     -20.195  -1.985  10.645  1.00  0.00    -0.550 OA
ATOM      6  O   UNL     1     -19.954  -3.365   8.832  1.00  0.00    -0.550 OA
ENDBRANCH   3   4
ENDBRANCH   2   3
ENDBRANCH   1   2
BRANCH   1   7
ATOM      7  C   UNL     1     -21.572   0.874   6.342  1.00  0.00     0.000 C 
BRANCH   7   8
ATOM      8  C   UNL     1     -20.998   1.892   7.341  1.00  0.00    -0.000 C 
BRANCH   8   9
ATOM      9  C   UNL     1     -22.074   2.479   8.268  1.00  0.00    -0.003 C 
ATOM     10  C   UNL     1     -22.040   1.870   9.670  1.00  0.00     0.004 C 
ENDBRANCH   8   9
ENDBRANCH   7   8
ENDBRANCH   1   7
TORSDOF 6
ENDMDL
MODEL 3
REMARK VINA RESULT:    -3.524      1.107      1.710
REMARK INTER + INTRA:          -4.950
REMARK INTER:                  -5.128
REMARK INTRA:                   0.178
REMARK UNBOUND:                -0.190
REMARK SMILES CCCCCCCC(=O)[O-]
REMARK SMILES IDX 5 1 6 2 7 3 8 4 9 5 10 6 4 7 3 8 2 9 1 10
REMARK H PARENT
REMARK Flexibility Score: inf
ROOT
ATOM      1  C   UNL     1     -21.400   0.529   6.132  1.00  0.00     0.000 C 
ENDROOT
BRANCH   1   2
ATOM      2  C   UNL     1     -21.323   1.591   7.242  1.00  0.00     0.006 C 
BRANCH   2   3
ATOM      3  C   UNL     1     -21.386   0.990   8.650  1.00  0.00     0.053 C 
BRANCH   3   4
ATOM      4  C   UNL     1     -22.066   1.932   9.592  1.00  0.00     0.041 C 
ATOM      5  O   UNL     1     -22.495   3.042   9.178  1.00  0.00    -0.550 OA
ATOM      6  O   UNL     1     -22.182   1.608  10.937  1.00  0.00    -0.550 OA
ENDBRANCH   3   4
ENDBRANCH   2   3
ENDBRANCH   1   2
BRANCH   1   7
ATOM      7  C   UNL     1     -20.483  -0.689   6.378  1.00  0.00     0.000 C 
BRANCH   7   8
ATOM      8  C   UNL     1     -21.209  -1.819   7.127  1.00  0.00    -0.000 C 
BRANCH   8   9
ATOM      9  C   UNL     1     -20.312  -2.511   8.163  1.00  0.00    -0.003 C 
ATOM     10  C   UNL     1     -20.581  -2.030   9.590  1.00  0.00     0.004 C 
ENDBRANCH   8   9
ENDBRANCH   7   8
ENDBRANCH   1   7
TORSDOF 6
ENDMDL
MODEL 4
REMARK VINA RESULT:    -3.488      2.679      4.660
REMARK INTER + INTRA:          -4.901
REMARK INTER:                  -4.577
REMARK INTRA:                  -0.324
REMARK UNBOUND:                -0.190
REMARK SMILES CCCCCCCC(=O)[O-]
REMARK SMILES IDX 5 1 6 2 7 3 8 4 9 5 10 6 4 7 3 8 2 9 1 10
REMARK H PARENT
REMARK Flexibility Score: inf
ROOT
ATOM      1  C   UNL     1     -21.160   0.422   6.399  1.00  0.00     0.000 C 
ENDROOT
BRANCH   1   2
ATOM      2  C   UNL     1     -21.643  -0.858   7.103  1.00  0.00     0.006 C 
BRANCH   2   3
ATOM      3  C   UNL     1     -20.661  -2.026   6.960  1.00  0.00     0.053 C 
BRANCH   3   4
ATOM      4  C   UNL     1     -20.384  -2.644   8.294  1.00  0.00     0.041 C 
ATOM      5  O   UNL     1     -20.009  -3.844   8.370  1.00  0.00    -0.550 OA
ATOM      6  O   UNL     1     -20.587  -1.911   9.456  1.00  0.00    -0.550 OA
ENDBRANCH   3   4
ENDBRANCH   2   3
ENDBRANCH   1   2
BRANCH   1   7
ATOM      7  C   UNL     1     -21.234   1.682   7.288  1.00  0.00     0.000 C 
BRANCH   7   8
ATOM      8  C   UNL     1     -21.593   1.343   8.745  1.00  0.00    -0.000 C 
BRANCH   8   9
ATOM      9  C   UNL     1     -22.399   2.457   9.429  1.00  0.00    -0.003 C 
ATOM     10  C   UNL     1     -22.401   3.759   8.627  1.00  0.00     0.004 C 
ENDBRANCH   8   9
ENDBRANCH   7   8
ENDBRANCH   1   7
TORSDOF 6
ENDMDL
MODEL 5
REMARK VINA RESULT:    -3.277      2.363      4.746
REMARK INTER + INTRA:          -4.617
REMARK INTER:                  -4.421
REMARK INTRA:                  -0.196
REMARK UNBOUND:                -0.190
REMARK SMILES CCCCCCCC(=O)[O-]
REMARK SMILES IDX 5 1 6 2 7 3 8 4 9 5 10 6 4 7 3 8 2 9 1 10
REMARK H PARENT
REMARK Flexibility Score: inf
ROOT
ATOM      1  C   UNL     1     -20.684  -1.958   9.849  1.00  0.00     0.000 C 
ENDROOT
BRANCH   1   2
ATOM      2  C   UNL     1     -20.304  -1.519  11.275  1.00  0.00     0.006 C 
BRANCH   2   3
ATOM      3  C   UNL     1     -21.359  -1.902  12.318  1.00  0.00     0.053 C 
BRANCH   3   4
ATOM      4  C   UNL     1     -21.648  -0.744  13.220  1.00  0.00     0.041 C 
ATOM      5  O   UNL     1     -21.823  -0.930  14.453  1.00  0.00    -0.550 OA
ATOM      6  O   UNL     1     -21.773   0.535  12.692  1.00  0.00    -0.550 OA
ENDBRANCH   3   4
ENDBRANCH   2   3
ENDBRANCH   1   2
BRANCH   1   7
ATOM      7  C   UNL     1     -21.081  -0.785   8.927  1.00  0.00     0.000 C 
BRANCH   7   8
ATOM      8  C   UNL     1     -21.102  -1.195   7.445  1.00  0.00    -0.000 C 
BRANCH   8   9
ATOM      9  C   UNL     1     -21.053   0.014   6.498  1.00  0.00    -0.003 C 
ATOM     10  C   UNL     1     -21.122   1.348   7.242  1.00  0.00     0.004 C 
ENDBRANCH   8   9
ENDBRANCH   7   8
ENDBRANCH   1   7
TORSDOF 6
ENDMDL
MODEL 6
REMARK VINA RESULT:    -3.214      3.014      4.696
REMARK INTER + INTRA:          -4.531
REMARK INTER:                  -4.332
REMARK INTRA:                  -0.199
REMARK UNBOUND:                -0.190
REMARK SMILES CCCCCCCC(=O)[O-]
REMARK SMILES IDX 5 1 6 2 7 3 8 4 9 5 10 6 4 7 3 8 2 9 1 10
REMARK H PARENT
REMARK Flexibility Score: inf
ROOT
ATOM      1  C   UNL     1     -21.813   1.640  10.024  1.00  0.00     0.000 C 
ENDROOT
BRANCH   1   2
ATOM      2  C   UNL     1     -22.465   1.015  11.270  1.00  0.00     0.006 C 
BRANCH   2   3
ATOM      3  C   UNL     1     -21.652   1.244  12.548  1.00  0.00     0.053 C 
BRANCH   3   4
ATOM      4  C   UNL     1     -21.398  -0.054  13.247  1.00  0.00     0.041 C 
ATOM      5  O   UNL     1     -21.274  -0.085  14.500  1.00  0.00    -0.550 OA
ATOM      6  O   UNL     1     -21.248  -1.223  12.511  1.00  0.00    -0.550 OA
ENDBRANCH   3   4
ENDBRANCH   2   3
ENDBRANCH   1   2
BRANCH   1   7
ATOM      7  C   UNL     1     -21.408   0.605   8.953  1.00  0.00     0.000 C 
BRANCH   7   8
ATOM      8  C   UNL     1     -21.266   1.239   7.559  1.00  0.00    -0.000 C 
BRANCH   8   9
ATOM      9  C   UNL     1     -21.050   0.193   6.454  1.00  0.00    -0.003 C 
ATOM     10  C   UNL     1     -21.186  -1.241   6.967  1.00  0.00     0.004 C 
ENDBRANCH   8   9
ENDBRANCH   7   8
ENDBRANCH   1   7
TORSDOF 6
ENDMDL
MODEL 7
REMARK VINA RESULT:    -2.863      2.253      3.570
REMARK INTER + INTRA:          -4.057
REMARK INTER:                  -3.877
REMARK INTRA:                  -0.180
REMARK UNBOUND:                -0.190
REMARK SMILES CCCCCCCC(=O)[O-]
REMARK SMILES IDX 5 1 6 2 7 3 8 4 9 5 10 6 4 7 3 8 2 9 1 10
REMARK H PARENT
REMARK Flexibility Score: inf
ROOT
ATOM      1  C   UNL     1     -20.459  -2.241   9.875  1.00  0.00     0.000 C 
ENDROOT
BRANCH   1   2
ATOM      2  C   UNL     1     -20.658  -1.720   8.441  1.00  0.00     0.006 C 
BRANCH   2   3
ATOM      3  C   UNL     1     -21.330  -0.343   8.394  1.00  0.00     0.053 C 
BRANCH   3   4
ATOM      4  C   UNL     1     -21.011   0.352   7.108  1.00  0.00     0.041 C 
ATOM      5  O   UNL     1     -20.620  -0.310   6.110  1.00  0.00    -0.550 OA
ATOM      6  O   UNL     1     -21.097   1.736   7.026  1.00  0.00    -0.550 OA
ENDBRANCH   3   4
ENDBRANCH   2   3
ENDBRANCH   1   2
BRANCH   1   7
ATOM      7  C   UNL     1     -20.753  -1.186  10.962  1.00  0.00     0.000 C 
BRANCH   7   8
ATOM      8  C   UNL     1     -21.040  -1.828  12.330  1.00  0.00    -0.000 C 
BRANCH   8   9
ATOM      9  C   UNL     1     -21.818  -0.894  13.269  1.00  0.00    -0.003 C 
ATOM     10  C   UNL     1     -20.968  -0.392  14.437  1.00  0.00     0.004 C 
ENDBRANCH   8   9
ENDBRANCH   7   8
ENDBRANCH   1   7
TORSDOF 6
ENDMDL
MODEL 8
REMARK VINA RESULT:    -2.833      2.325      3.143
REMARK INTER + INTRA:          -4.017
REMARK INTER:                  -3.794
REMARK INTRA:                  -0.223
REMARK UNBOUND:                -0.190
REMARK SMILES CCCCCCCC(=O)[O-]
REMARK SMILES IDX 5 1 6 2 7 3 8 4 9 5 10 6 4 7 3 8 2 9 1 10
REMARK H PARENT
REMARK Flexibility Score: inf
ROOT
ATOM      1  C   UNL     1     -20.621  -1.707   9.772  1.00  0.00     0.000 C 
ENDROOT
BRANCH   1   2
ATOM      2  C   UNL     1     -21.144  -1.037   8.489  1.00  0.00     0.006 C 
BRANCH   2   3
ATOM      3  C   UNL     1     -21.339   0.475   8.642  1.00  0.00     0.053 C 
BRANCH   3   4
ATOM      4  C   UNL     1     -21.198   1.158   7.318  1.00  0.00     0.041 C 
ATOM      5  O   UNL     1     -20.883   0.495   6.294  1.00  0.00    -0.550 OA
ATOM      6  O   UNL     1     -21.366   2.533   7.224  1.00  0.00    -0.550 OA
ENDBRANCH   3   4
ENDBRANCH   2   3
ENDBRANCH   1   2
BRANCH   1   7
ATOM      7  C   UNL     1     -19.833  -3.009   9.512  1.00  0.00     0.000 C 
BRANCH   7   8
ATOM      8  C   UNL     1     -20.105  -3.581   8.110  1.00  0.00    -0.000 C 
BRANCH   8   9
ATOM      9  C   UNL     1     -19.856  -5.095   8.032  1.00  0.00    -0.003 C 
ATOM     10  C   UNL     1     -21.103  -5.915   8.364  1.00  0.00     0.004 C 
ENDBRANCH   8   9
ENDBRANCH   7   8
ENDBRANCH   1   7
TORSDOF 6
ENDMDL
MODEL 9
REMARK VINA RESULT:    -2.739      2.939      4.011
REMARK INTER + INTRA:          -3.889
REMARK INTER:                  -3.722
REMARK INTRA:                  -0.167
REMARK UNBOUND:                -0.190
REMARK SMILES CCCCCCCC(=O)[O-]
REMARK SMILES IDX 5 1 6 2 7 3 8 4 9 5 10 6 4 7 3 8 2 9 1 10
REMARK H PARENT
REMARK Flexibility Score: inf
ROOT
ATOM      1  C   UNL     1     -22.121   1.989   9.258  1.00  0.00     0.000 C 
ENDROOT
BRANCH   1   2
ATOM      2  C   UNL     1     -21.363   0.810   8.624  1.00  0.00     0.006 C 
BRANCH   2   3
ATOM      3  C   UNL     1     -21.184   0.961   7.109  1.00  0.00     0.053 C 
BRANCH   3   4
ATOM      4  C   UNL     1     -20.841  -0.357   6.489  1.00  0.00     0.041 C 
ATOM      5  O   UNL     1     -20.042  -0.410   5.517  1.00  0.00    -0.550 OA
ATOM      6  O   UNL     1     -21.442  -1.521   6.951  1.00  0.00    -0.550 OA
ENDBRANCH   3   4
ENDBRANCH   2   3
ENDBRANCH   1   2
BRANCH   1   7
ATOM      7  C   UNL     1     -22.657   1.688  10.674  1.00  0.00     0.000 C 
BRANCH   7   8
ATOM      8  C   UNL     1     -21.770   0.684  11.429  1.00  0.00    -0.000 C 
BRANCH   8   9
ATOM      9  C   UNL     1     -21.735   0.949  12.942  1.00  0.00    -0.003 C 
ATOM     10  C   UNL     1     -21.689  -0.340  13.764  1.00  0.00     0.004 C 
ENDBRANCH   8   9
ENDBRANCH   7   8
ENDBRANCH   1   7
TORSDOF 6
ENDMDL
