MODEL 1
REMARK VINA RESULT:    -3.154      0.000      0.000
REMARK INTER + INTRA:          -4.250
REMARK INTER:                  -4.445
REMARK INTRA:                   0.195
REMARK UNBOUND:                 0.195
REMARK SMILES CC1=CCC(=C(C)C)C(=O)CC(C)=CCC1
REMARK SMILES IDX 12 1 14 2 13 3 15 4 16 5 2 6 1 7 3 8 11 10 9 11 10 12 5 13
REMARK SMILES IDX 6 14 7 15 8 16 4 17
REMARK H PARENT
REMARK Flexibility Score: 60.00
ROOT
ATOM      1  C   UNL     1     -35.239  -6.583  45.475  1.00  0.00    -0.070 C 
ATOM      2  C   UNL     1     -35.044  -5.253  45.623  1.00  0.00    -0.027 C 
ATOM      3  C   UNL     1     -34.316  -7.337  44.551  1.00  0.00     0.039 C 
ENDROOT
BRANCH   2   4
ATOM      4  C   UNL     1     -35.845  -4.344  46.527  1.00  0.00     0.032 C 
BRANCH   4   5
ATOM      5  C   UNL     1     -35.328  -4.388  47.978  1.00  0.00     0.034 C 
BRANCH   5   6
ATOM      6  C   UNL     1     -36.459  -4.476  48.988  1.00  0.00    -0.077 C 
ATOM      7  C   UNL     1     -37.386  -3.295  49.140  1.00  0.00     0.039 C 
ATOM      8  C   UNL     1     -36.684  -5.559  49.768  1.00  0.00    -0.023 CG0
ATOM      9  G   UNL     1     -35.906  -6.852  49.730  1.00  0.00     0.000 G0
ENDBRANCH   5   6
ENDBRANCH   4   5
ENDBRANCH   2   4
BRANCH   1  10
ATOM     10  C   UNL     1     -36.318  -7.345  46.219  1.00  0.00     0.111 C 
BRANCH  10  11
ATOM     11  C   UNL     1     -35.791  -8.011  47.462  1.00  0.00     0.163 C 
ATOM     12  O   UNL     1     -34.721  -8.674  47.396  1.00  0.00    -0.294 OA
BRANCH  11  13
ATOM     13  C   UNL     1     -36.470  -7.868  48.774  1.00  0.00    -0.002 C 
ATOM     14  C   UNL     1     -37.483  -8.709  49.118  1.00  0.00    -0.069 C 
ATOM     15  C   UNL     1     -38.105  -8.672  50.494  1.00  0.00     0.039 C 
ATOM     16  C   UNL     1     -38.032  -9.709  48.127  1.00  0.00     0.039 C 
BRANCH  13  17
ATOM     17  C   UNL     1     -35.897  -6.852  49.751  1.00  0.00     0.066 CG0
ATOM     18  G   UNL     1     -36.689  -5.567  49.744  1.00  0.00     0.000 G0
ENDBRANCH  13  17
ENDBRANCH  11  13
ENDBRANCH  10  11
ENDBRANCH   1  10
TORSDOF 0
ENDMDL
MODEL 2
REMARK VINA RESULT:    -3.126      2.150      4.161
REMARK INTER + INTRA:          -4.210
REMARK INTER:                  -4.440
REMARK INTRA:                   0.230
REMARK UNBOUND:                 0.195
REMARK SMILES CC1=CCC(=C(C)C)C(=O)CC(C)=CCC1
REMARK SMILES IDX 12 1 14 2 13 3 15 4 16 5 2 6 1 7 3 8 11 10 9 11 10 12 5 13
REMARK SMILES IDX 6 14 7 15 8 16 4 17
REMARK H PARENT
REMARK Flexibility Score: 60.00
ROOT
ATOM      1  C   UNL     1     -32.960  -7.947  44.854  1.00  0.00    -0.070 C 
ATOM      2  C   UNL     1     -32.364  -8.945  45.546  1.00  0.00    -0.027 C 
ATOM      3  C   UNL     1     -33.118  -8.111  43.364  1.00  0.00     0.039 C 
ENDROOT
BRANCH   2   4
ATOM      4  C   UNL     1     -32.149  -8.970  47.041  1.00  0.00     0.032 C 
BRANCH   4   5
ATOM      5  C   UNL     1     -33.334  -9.629  47.774  1.00  0.00     0.034 C 
BRANCH   5   6
ATOM      6  C   UNL     1     -33.714  -8.883  49.041  1.00  0.00    -0.077 C 
ATOM      7  C   UNL     1     -32.815  -8.999  50.247  1.00  0.00     0.039 C 
ATOM      8  C   UNL     1     -34.823  -8.115  49.153  1.00  0.00    -0.023 CG0
ATOM      9  G   UNL     1     -35.816  -7.830  48.052  1.00  0.00     0.000 G0
ENDBRANCH   5   6
ENDBRANCH   4   5
ENDBRANCH   2   4
BRANCH   1  10
ATOM     10  C   UNL     1     -33.499  -6.694  45.517  1.00  0.00     0.111 C 
BRANCH  10  11
ATOM     11  C   UNL     1     -34.958  -6.817  45.866  1.00  0.00     0.163 C 
ATOM     12  O   UNL     1     -35.776  -7.164  44.972  1.00  0.00    -0.294 OA
BRANCH  11  13
ATOM     13  C   UNL     1     -35.454  -6.590  47.247  1.00  0.00    -0.002 C 
ATOM     14  C   UNL     1     -35.662  -5.325  47.702  1.00  0.00    -0.069 C 
ATOM     15  C   UNL     1     -36.286  -5.065  49.052  1.00  0.00     0.039 C 
ATOM     16  C   UNL     1     -35.263  -4.126  46.872  1.00  0.00     0.039 C 
BRANCH  13  17
ATOM     17  C   UNL     1     -35.846  -7.815  48.060  1.00  0.00     0.066 CG0
ATOM     18  G   UNL     1     -34.834  -8.110  49.142  1.00  0.00     0.000 G0
ENDBRANCH  13  17
ENDBRANCH  11  13
ENDBRANCH  10  11
ENDBRANCH   1  10
TORSDOF 0
ENDMDL
MODEL 3
REMARK VINA RESULT:    -2.893      1.381      4.084
REMARK INTER + INTRA:          -3.882
REMARK INTER:                  -4.443
REMARK INTRA:                   0.562
REMARK UNBOUND:                 0.195
REMARK SMILES CC1=CCC(=C(C)C)C(=O)CC(C)=CCC1
REMARK SMILES IDX 12 1 14 2 13 3 15 4 16 5 2 6 1 7 3 8 11 10 9 11 10 12 5 13
REMARK SMILES IDX 6 14 7 15 8 16 4 17
REMARK H PARENT
REMARK Flexibility Score: 60.00
ROOT
ATOM      1  C   UNL     1     -38.496  -9.263  47.928  1.00  0.00    -0.070 C 
ATOM      2  C   UNL     1     -39.190  -8.641  48.907  1.00  0.00    -0.027 C 
ATOM      3  C   UNL     1     -38.424 -10.770  47.955  1.00  0.00     0.039 C 
ENDROOT
BRANCH   2   4
ATOM      4  C   UNL     1     -39.398  -7.148  49.023  1.00  0.00     0.032 C 
BRANCH   4   5
ATOM      5  C   UNL     1     -38.844  -6.600  50.353  1.00  0.00     0.034 C 
BRANCH   5   6
ATOM      6  C   UNL     1     -37.381  -6.953  50.555  1.00  0.00    -0.077 C 
ATOM      7  C   UNL     1     -36.994  -7.774  51.761  1.00  0.00     0.039 C 
ATOM      8  C   UNL     1     -36.395  -6.568  49.712  1.00  0.00    -0.023 CG0
ATOM      9  G   UNL     1     -36.580  -5.791  48.430  1.00  0.00     0.000 G0
ENDBRANCH   5   6
ENDBRANCH   4   5
ENDBRANCH   2   4
BRANCH   1  10
ATOM     10  C   UNL     1     -37.820  -8.516  46.795  1.00  0.00     0.111 C 
BRANCH  10  11
ATOM     11  C   UNL     1     -36.451  -8.019  47.177  1.00  0.00     0.163 C 
ATOM     12  O   UNL     1     -35.547  -8.856  47.444  1.00  0.00    -0.294 OA
BRANCH  11  13
ATOM     13  C   UNL     1     -36.122  -6.572  47.200  1.00  0.00    -0.002 C 
ATOM     14  C   UNL     1     -35.560  -5.978  46.112  1.00  0.00    -0.069 C 
ATOM     15  C   UNL     1     -35.334  -4.486  46.058  1.00  0.00     0.039 C 
ATOM     16  C   UNL     1     -35.132  -6.796  44.916  1.00  0.00     0.039 C 
BRANCH  13  17
ATOM     17  C   UNL     1     -36.563  -5.774  48.418  1.00  0.00     0.066 CG0
ATOM     18  G   UNL     1     -36.377  -6.559  49.694  1.00  0.00     0.000 G0
ENDBRANCH  13  17
ENDBRANCH  11  13
ENDBRANCH  10  11
ENDBRANCH   1  10
TORSDOF 0
ENDMDL
MODEL 4
REMARK VINA RESULT:    -2.891      1.902      3.827
REMARK INTER + INTRA:          -3.878
REMARK INTER:                  -4.130
REMARK INTRA:                   0.251
REMARK UNBOUND:                 0.195
REMARK SMILES CC1=CCC(=C(C)C)C(=O)CC(C)=CCC1
REMARK SMILES IDX 12 1 14 2 13 3 15 4 16 5 2 6 1 7 3 8 11 10 9 11 10 12 5 13
REMARK SMILES IDX 6 14 7 15 8 16 4 17
REMARK H PARENT
REMARK Flexibility Score: 60.00
ROOT
ATOM      1  C   UNL     1     -36.225  -4.151  48.136  1.00  0.00    -0.070 C 
ATOM      2  C   UNL     1     -35.756  -4.398  46.892  1.00  0.00    -0.027 C 
ATOM      3  C   UNL     1     -36.997  -2.875  48.364  1.00  0.00     0.039 C 
ENDROOT
BRANCH   2   4
ATOM      4  C   UNL     1     -34.994  -5.633  46.471  1.00  0.00     0.032 C 
BRANCH   4   5
ATOM      5  C   UNL     1     -35.943  -6.809  46.169  1.00  0.00     0.034 C 
BRANCH   5   6
ATOM      6  C   UNL     1     -35.472  -8.105  46.805  1.00  0.00    -0.077 C 
ATOM      7  C   UNL     1     -34.171  -8.710  46.338  1.00  0.00     0.039 C 
ATOM      8  C   UNL     1     -36.158  -8.757  47.773  1.00  0.00    -0.023 CG0
ATOM      9  G   UNL     1     -37.445  -8.291  48.410  1.00  0.00     0.000 G0
ENDBRANCH   5   6
ENDBRANCH   4   5
ENDBRANCH   2   4
BRANCH   1  10
ATOM     10  C   UNL     1     -36.038  -5.113  49.293  1.00  0.00     0.111 C 
BRANCH  10  11
ATOM     11  C   UNL     1     -37.252  -5.973  49.522  1.00  0.00     0.163 C 
ATOM     12  O   UNL     1     -38.390  -5.432  49.555  1.00  0.00    -0.294 OA
BRANCH  11  13
ATOM     13  C   UNL     1     -37.152  -7.447  49.661  1.00  0.00    -0.002 C 
ATOM     14  C   UNL     1     -36.931  -8.008  50.881  1.00  0.00    -0.069 C 
ATOM     15  C   UNL     1     -36.952  -9.506  51.075  1.00  0.00     0.039 C 
ATOM     16  C   UNL     1     -36.644  -7.148  52.090  1.00  0.00     0.039 C 
BRANCH  13  17
ATOM     17  C   UNL     1     -37.442  -8.288  48.427  1.00  0.00     0.066 CG0
ATOM     18  G   UNL     1     -36.171  -8.749  47.756  1.00  0.00     0.000 G0
ENDBRANCH  13  17
ENDBRANCH  11  13
ENDBRANCH  10  11
ENDBRANCH   1  10
TORSDOF 0
ENDMDL
MODEL 5
REMARK VINA RESULT:    -2.818      2.062      4.132
REMARK INTER + INTRA:          -3.776
REMARK INTER:                  -3.969
REMARK INTRA:                   0.193
REMARK UNBOUND:                 0.195
REMARK SMILES CC1=CCC(=C(C)C)C(=O)CC(C)=CCC1
REMARK SMILES IDX 12 1 14 2 13 3 15 4 16 5 2 6 1 7 3 8 11 10 9 11 10 12 5 13
REMARK SMILES IDX 6 14 7 15 8 16 4 17
REMARK H PARENT
REMARK Flexibility Score: 60.00
ROOT
ATOM      1  C   UNL     1     -33.250  -9.211  47.034  1.00  0.00    -0.070 C 
ATOM      2  C   UNL     1     -33.549 -10.083  48.023  1.00  0.00    -0.027 C 
ATOM      3  C   UNL     1     -32.536  -9.737  45.814  1.00  0.00     0.039 C 
ENDROOT
BRANCH   2   4
ATOM      4  C   UNL     1     -34.287  -9.745  49.298  1.00  0.00     0.032 C 
BRANCH   4   5
ATOM      5  C   UNL     1     -35.813  -9.871  49.120  1.00  0.00     0.034 C 
BRANCH   5   6
ATOM      6  C   UNL     1     -36.558  -8.677  49.690  1.00  0.00    -0.077 C 
ATOM      7  C   UNL     1     -36.643  -8.525  51.189  1.00  0.00     0.039 C 
ATOM      8  C   UNL     1     -37.157  -7.734  48.927  1.00  0.00    -0.023 CG0
ATOM      9  G   UNL     1     -37.142  -7.677  47.418  1.00  0.00     0.000 G0
ENDBRANCH   5   6
ENDBRANCH   4   5
ENDBRANCH   2   4
BRANCH   1  10
ATOM     10  C   UNL     1     -33.632  -7.744  47.087  1.00  0.00     0.111 C 
BRANCH  10  11
ATOM     11  C   UNL     1     -34.872  -7.448  46.287  1.00  0.00     0.163 C 
ATOM     12  O   UNL     1     -34.930  -7.823  45.084  1.00  0.00    -0.294 OA
BRANCH  11  13
ATOM     13  C   UNL     1     -36.048  -6.771  46.887  1.00  0.00    -0.002 C 
ATOM     14  C   UNL     1     -36.154  -5.415  46.847  1.00  0.00    -0.069 C 
ATOM     15  C   UNL     1     -37.397  -4.707  47.333  1.00  0.00     0.039 C 
ATOM     16  C   UNL     1     -35.022  -4.563  46.320  1.00  0.00     0.039 C 
BRANCH  13  17
ATOM     17  C   UNL     1     -37.171  -7.654  47.412  1.00  0.00     0.066 CG0
ATOM     18  G   UNL     1     -37.152  -7.739  48.920  1.00  0.00     0.000 G0
ENDBRANCH  13  17
ENDBRANCH  11  13
ENDBRANCH  10  11
ENDBRANCH   1  10
TORSDOF 0
ENDMDL
MODEL 6
REMARK VINA RESULT:    -2.749      1.546      3.777
REMARK INTER + INTRA:          -3.678
REMARK INTER:                  -4.103
REMARK INTRA:                   0.425
REMARK UNBOUND:                 0.195
REMARK SMILES CC1=CCC(=C(C)C)C(=O)CC(C)=CCC1
REMARK SMILES IDX 12 1 14 2 13 3 15 4 16 5 2 6 1 7 3 8 11 10 9 11 10 12 5 13
REMARK SMILES IDX 6 14 7 15 8 16 4 17
REMARK H PARENT
REMARK Flexibility Score: 60.00
ROOT
ATOM      1  C   UNL     1     -34.861  -7.006  45.736  1.00  0.00    -0.070 C 
ATOM      2  C   UNL     1     -34.824  -8.159  46.442  1.00  0.00    -0.027 C 
ATOM      3  C   UNL     1     -33.727  -6.720  44.783  1.00  0.00     0.039 C 
ENDROOT
BRANCH   2   4
ATOM      4  C   UNL     1     -35.882  -8.628  47.414  1.00  0.00     0.032 C 
BRANCH   4   5
ATOM      5  C   UNL     1     -35.758  -7.916  48.775  1.00  0.00     0.034 C 
BRANCH   5   6
ATOM      6  C   UNL     1     -37.080  -7.330  49.240  1.00  0.00    -0.077 C 
ATOM      7  C   UNL     1     -38.207  -8.272  49.587  1.00  0.00     0.039 C 
ATOM      8  C   UNL     1     -37.309  -6.002  49.361  1.00  0.00    -0.023 CG0
ATOM      9  G   UNL     1     -36.302  -4.905  49.114  1.00  0.00     0.000 G0
ENDBRANCH   5   6
ENDBRANCH   4   5
ENDBRANCH   2   4
BRANCH   1  10
ATOM     10  C   UNL     1     -36.004  -6.015  45.838  1.00  0.00     0.111 C 
BRANCH  10  11
ATOM     11  C   UNL     1     -35.626  -4.790  46.627  1.00  0.00     0.163 C 
ATOM     12  O   UNL     1     -34.576  -4.162  46.322  1.00  0.00    -0.294 OA
BRANCH  11  13
ATOM     13  C   UNL     1     -36.481  -4.271  47.724  1.00  0.00    -0.002 C 
ATOM     14  C   UNL     1     -37.463  -3.368  47.461  1.00  0.00    -0.069 C 
ATOM     15  C   UNL     1     -38.431  -2.920  48.531  1.00  0.00     0.039 C 
ATOM     16  C   UNL     1     -37.617  -2.768  46.082  1.00  0.00     0.039 C 
BRANCH  13  17
ATOM     17  C   UNL     1     -36.302  -4.890  49.103  1.00  0.00     0.066 CG0
ATOM     18  G   UNL     1     -37.291  -6.006  49.343  1.00  0.00     0.000 G0
ENDBRANCH  13  17
ENDBRANCH  11  13
ENDBRANCH  10  11
ENDBRANCH   1  10
TORSDOF 0
ENDMDL
MODEL 7
REMARK VINA RESULT:    -2.706      1.966      3.710
REMARK INTER + INTRA:          -3.618
REMARK INTER:                  -4.078
REMARK INTRA:                   0.459
REMARK UNBOUND:                 0.195
REMARK SMILES CC1=CCC(=C(C)C)C(=O)CC(C)=CCC1
REMARK SMILES IDX 12 1 14 2 13 3 15 4 16 5 2 6 1 7 3 8 11 10 9 11 10 12 5 13
REMARK SMILES IDX 6 14 7 15 8 16 4 17
REMARK H PARENT
REMARK Flexibility Score: 60.00
ROOT
ATOM      1  C   UNL     1     -37.057  -4.487  47.450  1.00  0.00    -0.070 C 
ATOM      2  C   UNL     1     -36.525  -4.357  46.214  1.00  0.00    -0.027 C 
ATOM      3  C   UNL     1     -38.451  -3.960  47.683  1.00  0.00     0.039 C 
ENDROOT
BRANCH   2   4
ATOM      4  C   UNL     1     -35.162  -4.852  45.788  1.00  0.00     0.032 C 
BRANCH   4   5
ATOM      5  C   UNL     1     -35.209  -6.326  45.340  1.00  0.00     0.034 C 
BRANCH   5   6
ATOM      6  C   UNL     1     -34.259  -7.200  46.140  1.00  0.00    -0.077 C 
ATOM      7  C   UNL     1     -32.778  -7.090  45.877  1.00  0.00     0.039 C 
ATOM      8  C   UNL     1     -34.668  -8.081  47.083  1.00  0.00    -0.023 CG0
ATOM      9  G   UNL     1     -36.094  -8.301  47.529  1.00  0.00     0.000 G0
ENDBRANCH   5   6
ENDBRANCH   4   5
ENDBRANCH   2   4
BRANCH   1  10
ATOM     10  C   UNL     1     -36.328  -5.167  48.593  1.00  0.00     0.111 C 
BRANCH  10  11
ATOM     11  C   UNL     1     -37.011  -6.434  49.032  1.00  0.00     0.163 C 
ATOM     12  O   UNL     1     -38.196  -6.377  49.457  1.00  0.00    -0.294 OA
BRANCH  11  13
ATOM     13  C   UNL     1     -36.346  -7.757  48.932  1.00  0.00    -0.002 C 
ATOM     14  C   UNL     1     -36.088  -8.482  50.054  1.00  0.00    -0.069 C 
ATOM     15  C   UNL     1     -35.531  -9.884  49.977  1.00  0.00     0.039 C 
ATOM     16  C   UNL     1     -36.342  -7.904  51.427  1.00  0.00     0.039 C 
BRANCH  13  17
ATOM     17  C   UNL     1     -36.099  -8.313  47.537  1.00  0.00     0.066 CG0
ATOM     18  G   UNL     1     -34.676  -8.080  47.090  1.00  0.00     0.000 G0
ENDBRANCH  13  17
ENDBRANCH  11  13
ENDBRANCH  10  11
ENDBRANCH   1  10
TORSDOF 0
ENDMDL
MODEL 8
REMARK VINA RESULT:    -2.611      2.221      5.047
REMARK INTER + INTRA:          -3.484
REMARK INTER:                  -4.130
REMARK INTRA:                   0.646
REMARK UNBOUND:                 0.195
REMARK SMILES CC1=CCC(=C(C)C)C(=O)CC(C)=CCC1
REMARK SMILES IDX 12 1 14 2 13 3 15 4 16 5 2 6 1 7 3 8 11 10 9 11 10 12 5 13
REMARK SMILES IDX 6 14 7 15 8 16 4 17
REMARK H PARENT
REMARK Flexibility Score: 60.00
ROOT
ATOM      1  C   UNL     1     -36.140  -7.284  50.669  1.00  0.00    -0.070 C 
ATOM      2  C   UNL     1     -35.534  -8.280  49.984  1.00  0.00    -0.027 C 
ATOM      3  C   UNL     1     -36.836  -7.633  51.961  1.00  0.00     0.039 C 
ENDROOT
BRANCH   2   4
ATOM      4  C   UNL     1     -34.763  -8.116  48.694  1.00  0.00     0.032 C 
BRANCH   4   5
ATOM      5  C   UNL     1     -35.411  -8.906  47.541  1.00  0.00     0.034 C 
BRANCH   5   6
ATOM      6  C   UNL     1     -36.902  -8.639  47.426  1.00  0.00    -0.077 C 
ATOM      7  C   UNL     1     -37.863  -9.768  47.705  1.00  0.00     0.039 C 
ATOM      8  C   UNL     1     -37.423  -7.438  47.084  1.00  0.00    -0.023 CG0
ATOM      9  G   UNL     1     -36.636  -6.176  46.819  1.00  0.00     0.000 G0
ENDBRANCH   5   6
ENDBRANCH   4   5
ENDBRANCH   2   4
BRANCH   1  10
ATOM     10  C   UNL     1     -36.119  -5.839  50.212  1.00  0.00     0.111 C 
BRANCH  10  11
ATOM     11  C   UNL     1     -37.220  -5.535  49.231  1.00  0.00     0.163 C 
ATOM     12  O   UNL     1     -38.419  -5.624  49.607  1.00  0.00    -0.294 OA
BRANCH  11  13
ATOM     13  C   UNL     1     -36.932  -5.088  47.845  1.00  0.00    -0.002 C 
ATOM     14  C   UNL     1     -36.821  -3.761  47.561  1.00  0.00    -0.069 C 
ATOM     15  C   UNL     1     -36.403  -3.280  46.192  1.00  0.00     0.039 C 
ATOM     16  C   UNL     1     -37.126  -2.715  48.609  1.00  0.00     0.039 C 
BRANCH  13  17
ATOM     17  C   UNL     1     -36.632  -6.162  46.810  1.00  0.00     0.066 CG0
ATOM     18  G   UNL     1     -37.419  -7.423  47.075  1.00  0.00     0.000 G0
ENDBRANCH  13  17
ENDBRANCH  11  13
ENDBRANCH  10  11
ENDBRANCH   1  10
TORSDOF 0
ENDMDL
MODEL 9
REMARK VINA RESULT:    -2.603     13.016     15.382
REMARK INTER + INTRA:          -3.473
REMARK INTER:                  -4.185
REMARK INTRA:                   0.713
REMARK UNBOUND:                 0.195
REMARK SMILES CC1=CCC(=C(C)C)C(=O)CC(C)=CCC1
REMARK SMILES IDX 12 1 14 2 13 3 15 4 16 5 2 6 1 7 3 8 11 10 9 11 10 12 5 13
REMARK SMILES IDX 6 14 7 15 8 16 4 17
REMARK H PARENT
REMARK Flexibility Score: 60.00
ROOT
ATOM      1  C   UNL     1     -34.714   4.127  55.973  1.00  0.00    -0.070 C 
ATOM      2  C   UNL     1     -33.768   3.235  55.602  1.00  0.00    -0.027 C 
ATOM      3  C   UNL     1     -34.818   5.416  55.197  1.00  0.00     0.039 C 
ENDROOT
BRANCH   2   4
ATOM      4  C   UNL     1     -33.539   1.884  56.238  1.00  0.00     0.032 C 
BRANCH   4   5
ATOM      5  C   UNL     1     -32.323   1.901  57.186  1.00  0.00     0.034 C 
BRANCH   5   6
ATOM      6  C   UNL     1     -32.731   2.033  58.642  1.00  0.00    -0.077 C 
ATOM      7  C   UNL     1     -32.946   0.778  59.451  1.00  0.00     0.039 C 
ATOM      8  C   UNL     1     -32.917   3.222  59.262  1.00  0.00    -0.023 CG0
ATOM      9  G   UNL     1     -32.704   4.584  58.646  1.00  0.00     0.000 G0
ENDBRANCH   5   6
ENDBRANCH   4   5
ENDBRANCH   2   4
BRANCH   1  10
ATOM     10  C   UNL     1     -35.687   3.873  57.108  1.00  0.00     0.111 C 
BRANCH  10  11
ATOM     11  C   UNL     1     -35.265   4.550  58.384  1.00  0.00     0.163 C 
ATOM     12  O   UNL     1     -35.969   4.402  59.419  1.00  0.00    -0.294 OA
BRANCH  11  13
ATOM     13  C   UNL     1     -34.017   5.349  58.470  1.00  0.00    -0.002 C 
ATOM     14  C   UNL     1     -34.075   6.707  58.536  1.00  0.00    -0.069 C 
ATOM     15  C   UNL     1     -32.833   7.539  58.754  1.00  0.00     0.039 C 
ATOM     16  C   UNL     1     -35.389   7.437  58.382  1.00  0.00     0.039 C 
BRANCH  13  17
ATOM     17  C   UNL     1     -32.709   4.588  58.622  1.00  0.00     0.066 CG0
ATOM     18  G   UNL     1     -32.924   3.233  59.252  1.00  0.00     0.000 G0
ENDBRANCH  13  17
ENDBRANCH  11  13
ENDBRANCH  10  11
ENDBRANCH   1  10
TORSDOF 0
ENDMDL
