MODEL 1
REMARK VINA RESULT:    -7.156      0.000      0.000
REMARK INTER + INTRA:          -8.927
REMARK INTER:                  -8.620
REMARK INTRA:                  -0.306
REMARK UNBOUND:                -0.306
REMARK SMILES O=c1c(O)c(-c2ccc(O)c(O)c2)oc2cc(O)cc(O)c12
REMARK SMILES IDX 5 1 3 2 2 3 1 4 22 5 20 6 19 7 17 8 16 9 15 10 14 11 6 12
REMARK SMILES IDX 7 13 8 14 9 15 13 16 11 17 10 18 12 20 4 22 21 24 18 26
REMARK H PARENT 10 19 12 21 4 23 21 25 18 27
REMARK Flexibility Score: inf
ROOT
ATOM      1  C   UNL     1      17.558  -4.441  -6.277  1.00  0.00     0.180 A 
ATOM      2  C   UNL     1      17.045  -5.742  -6.442  1.00  0.00     0.208 A 
ATOM      3  C   UNL     1      16.871  -6.243  -7.741  1.00  0.00     0.238 A 
ATOM      4  O   UNL     1      16.423  -7.411  -7.901  1.00  0.00    -0.285 OA
ATOM      5  C   UNL     1      17.192  -5.432  -8.849  1.00  0.00     0.111 A 
ATOM      6  C   UNL     1      17.042  -5.860 -10.191  1.00  0.00     0.134 A 
ATOM      7  C   UNL     1      17.375  -4.991 -11.239  1.00  0.00     0.093 A 
ATOM      8  C   UNL     1      17.853  -3.703 -10.973  1.00  0.00     0.123 A 
ATOM      9  C   UNL     1      18.003  -3.277  -9.652  1.00  0.00     0.094 A 
ATOM     10  C   UNL     1      17.678  -4.129  -8.592  1.00  0.00     0.146 A 
ATOM     11  O   UNL     1      17.835  -3.700  -7.346  1.00  0.00    -0.452 OA
ENDROOT
BRANCH   1  12
ATOM     12  C   UNL     1      17.787  -3.849  -4.939  1.00  0.00     0.025 A 
ATOM     13  C   UNL     1      18.918  -4.183  -4.177  1.00  0.00     0.016 A 
ATOM     14  C   UNL     1      19.125  -3.593  -2.928  1.00  0.00     0.051 A 
ATOM     15  C   UNL     1      18.221  -2.652  -2.423  1.00  0.00     0.157 A 
ATOM     16  C   UNL     1      16.891  -2.889  -4.445  1.00  0.00     0.062 A 
ATOM     17  C   UNL     1      17.090  -2.292  -3.193  1.00  0.00     0.158 A 
BRANCH  15  18
ATOM     18  O   UNL     1      18.484  -2.103  -1.167  1.00  0.00    -0.504 OA
ATOM     19  H   UNL     1      19.003  -2.576  -0.441  1.00  0.00     0.293 HD
ENDBRANCH  15  18
BRANCH  17  20
ATOM     20  O   UNL     1      16.150  -1.355  -2.761  1.00  0.00    -0.504 OA
ATOM     21  H   UNL     1      15.631  -1.433  -1.899  1.00  0.00     0.293 HD
ENDBRANCH  17  20
ENDBRANCH   1  12
BRANCH   2  22
ATOM     22  O   UNL     1      16.689  -6.506  -5.328  1.00  0.00    -0.502 OA
ATOM     23  H   UNL     1      16.114  -7.337  -5.401  1.00  0.00     0.293 HD
ENDBRANCH   2  22
BRANCH   6  24
ATOM     24  O   UNL     1      16.566  -7.139 -10.488  1.00  0.00    -0.507 OA
ATOM     25  H   UNL     1      17.196  -7.917 -10.650  1.00  0.00     0.293 HD
ENDBRANCH   6  24
BRANCH   8  26
ATOM     26  O   UNL     1      18.183  -2.838 -12.015  1.00  0.00    -0.508 OA
ATOM     27  H   UNL     1      17.726  -2.897 -12.917  1.00  0.00     0.293 HD
ENDBRANCH   8  26
TORSDOF 6
ENDMDL
MODEL 2
REMARK VINA RESULT:    -7.043      2.680      4.902
REMARK INTER + INTRA:          -8.790
REMARK INTER:                  -8.476
REMARK INTRA:                  -0.314
REMARK UNBOUND:                -0.306
REMARK SMILES O=c1c(O)c(-c2ccc(O)c(O)c2)oc2cc(O)cc(O)c12
REMARK SMILES IDX 5 1 3 2 2 3 1 4 22 5 20 6 19 7 17 8 16 9 15 10 14 11 6 12
REMARK SMILES IDX 7 13 8 14 9 15 13 16 11 17 10 18 12 20 4 22 21 24 18 26
REMARK H PARENT 10 19 12 21 4 23 21 25 18 27
REMARK Flexibility Score: inf
ROOT
ATOM      1  C   UNL     1      17.078  -5.794  -5.946  1.00  0.00     0.180 A 
ATOM      2  C   UNL     1      16.942  -6.198  -7.287  1.00  0.00     0.208 A 
ATOM      3  C   UNL     1      16.779  -7.563  -7.571  1.00  0.00     0.238 A 
ATOM      4  O   UNL     1      16.644  -7.936  -8.769  1.00  0.00    -0.285 OA
ATOM      5  C   UNL     1      16.777  -8.499  -6.517  1.00  0.00     0.111 A 
ATOM      6  C   UNL     1      16.623  -9.892  -6.718  1.00  0.00     0.134 A 
ATOM      7  C   UNL     1      16.640 -10.760  -5.617  1.00  0.00     0.093 A 
ATOM      8  C   UNL     1      16.809 -10.262  -4.319  1.00  0.00     0.123 A 
ATOM      9  C   UNL     1      16.961  -8.890  -4.117  1.00  0.00     0.094 A 
ATOM     10  C   UNL     1      16.945  -8.008  -5.201  1.00  0.00     0.146 A 
ATOM     11  O   UNL     1      17.087  -6.707  -4.978  1.00  0.00    -0.452 OA
ENDROOT
BRANCH   1  12
ATOM     12  C   UNL     1      17.236  -4.372  -5.564  1.00  0.00     0.025 A 
ATOM     13  C   UNL     1      18.506  -3.803  -5.376  1.00  0.00     0.016 A 
ATOM     14  C   UNL     1      18.630  -2.453  -5.039  1.00  0.00     0.051 A 
ATOM     15  C   UNL     1      17.498  -1.644  -4.898  1.00  0.00     0.157 A 
ATOM     16  C   UNL     1      16.100  -3.557  -5.445  1.00  0.00     0.062 A 
ATOM     17  C   UNL     1      16.214  -2.203  -5.107  1.00  0.00     0.158 A 
BRANCH  15  18
ATOM     18  O   UNL     1      17.691  -0.305  -4.556  1.00  0.00    -0.504 OA
ATOM     19  H   UNL     1      17.384   0.106  -3.686  1.00  0.00     0.293 HD
ENDBRANCH  15  18
BRANCH  17  20
ATOM     20  O   UNL     1      15.040  -1.457  -4.993  1.00  0.00    -0.504 OA
ATOM     21  H   UNL     1      14.727  -1.023  -4.137  1.00  0.00     0.293 HD
ENDBRANCH  17  20
ENDBRANCH   1  12
BRANCH   2  22
ATOM     22  O   UNL     1      16.997  -5.256  -8.317  1.00  0.00    -0.502 OA
ATOM     23  H   UNL     1      17.116  -5.519  -9.288  1.00  0.00     0.293 HD
ENDBRANCH   2  22
BRANCH   6  24
ATOM     24  O   UNL     1      16.453 -10.418  -8.000  1.00  0.00    -0.507 OA
ATOM     25  H   UNL     1      16.451 -11.417  -8.170  1.00  0.00     0.293 HD
ENDBRANCH   6  24
BRANCH   8  26
ATOM     26  O   UNL     1      16.828 -11.125  -3.225  1.00  0.00    -0.508 OA
ATOM     27  H   UNL     1      16.439 -10.854  -2.330  1.00  0.00     0.293 HD
ENDBRANCH   8  26
TORSDOF 6
ENDMDL
MODEL 3
REMARK VINA RESULT:    -6.942      2.010      3.911
REMARK INTER + INTRA:          -8.669
REMARK INTER:                  -8.962
REMARK INTRA:                   0.293
REMARK UNBOUND:                -0.306
REMARK SMILES O=c1c(O)c(-c2ccc(O)c(O)c2)oc2cc(O)cc(O)c12
REMARK SMILES IDX 5 1 3 2 2 3 1 4 22 5 20 6 19 7 17 8 16 9 15 10 14 11 6 12
REMARK SMILES IDX 7 13 8 14 9 15 13 16 11 17 10 18 12 20 4 22 21 24 18 26
REMARK H PARENT 10 19 12 21 4 23 21 25 18 27
REMARK Flexibility Score: inf
ROOT
ATOM      1  C   UNL     1      17.370  -4.042  -5.626  1.00  0.00     0.180 A 
ATOM      2  C   UNL     1      17.045  -3.949  -6.993  1.00  0.00     0.208 A 
ATOM      3  C   UNL     1      16.862  -5.130  -7.729  1.00  0.00     0.238 A 
ATOM      4  O   UNL     1      16.559  -5.058  -8.952  1.00  0.00    -0.285 OA
ATOM      5  C   UNL     1      17.029  -6.379  -7.097  1.00  0.00     0.111 A 
ATOM      6  C   UNL     1      16.868  -7.615  -7.768  1.00  0.00     0.134 A 
ATOM      7  C   UNL     1      17.060  -8.816  -7.070  1.00  0.00     0.093 A 
ATOM      8  C   UNL     1      17.410  -8.804  -5.715  1.00  0.00     0.123 A 
ATOM      9  C   UNL     1      17.569  -7.588  -5.049  1.00  0.00     0.094 A 
ATOM     10  C   UNL     1      17.381  -6.380  -5.726  1.00  0.00     0.146 A 
ATOM     11  O   UNL     1      17.534  -5.238  -5.067  1.00  0.00    -0.452 OA
ENDROOT
BRANCH   1  12
ATOM     12  C   UNL     1      17.560  -2.844  -4.778  1.00  0.00     0.025 A 
ATOM     13  C   UNL     1      17.997  -1.626  -5.323  1.00  0.00     0.016 A 
ATOM     14  C   UNL     1      18.146  -0.502  -4.507  1.00  0.00     0.051 A 
ATOM     15  C   UNL     1      17.850  -0.566  -3.142  1.00  0.00     0.157 A 
ATOM     16  C   UNL     1      17.242  -2.904  -3.413  1.00  0.00     0.062 A 
ATOM     17  C   UNL     1      17.389  -1.783  -2.587  1.00  0.00     0.158 A 
BRANCH  15  18
ATOM     18  O   UNL     1      18.025   0.592  -2.381  1.00  0.00    -0.504 OA
ATOM     19  H   UNL     1      17.848   0.648  -1.389  1.00  0.00     0.293 HD
ENDBRANCH  15  18
BRANCH  17  20
ATOM     20  O   UNL     1      17.065  -1.921  -1.236  1.00  0.00    -0.504 OA
ATOM     21  H   UNL     1      17.125  -2.791  -0.727  1.00  0.00     0.293 HD
ENDBRANCH  17  20
ENDBRANCH   1  12
BRANCH   2  22
ATOM     22  O   UNL     1      16.933  -2.700  -7.608  1.00  0.00    -0.502 OA
ATOM     23  H   UNL     1      16.040  -2.307  -7.881  1.00  0.00     0.293 HD
ENDBRANCH   2  22
BRANCH   6  24
ATOM     24  O   UNL     1      16.520  -7.658  -9.119  1.00  0.00    -0.507 OA
ATOM     25  H   UNL     1      16.626  -8.502  -9.670  1.00  0.00     0.293 HD
ENDBRANCH   6  24
BRANCH   8  26
ATOM     26  O   UNL     1      17.602  -9.998  -5.021  1.00  0.00    -0.508 OA
ATOM     27  H   UNL     1      17.990 -10.817  -5.473  1.00  0.00     0.293 HD
ENDBRANCH   8  26
TORSDOF 6
ENDMDL
MODEL 4
REMARK VINA RESULT:    -6.722      2.633      5.886
REMARK INTER + INTRA:          -8.403
REMARK INTER:                  -8.145
REMARK INTRA:                  -0.259
REMARK UNBOUND:                -0.306
REMARK SMILES O=c1c(O)c(-c2ccc(O)c(O)c2)oc2cc(O)cc(O)c12
REMARK SMILES IDX 5 1 3 2 2 3 1 4 22 5 20 6 19 7 17 8 16 9 15 10 14 11 6 12
REMARK SMILES IDX 7 13 8 14 9 15 13 16 11 17 10 18 12 20 4 22 21 24 18 26
REMARK H PARENT 10 19 12 21 4 23 21 25 18 27
REMARK Flexibility Score: inf
ROOT
ATOM      1  C   UNL     1      17.062  -5.670  -5.580  1.00  0.00     0.180 A 
ATOM      2  C   UNL     1      17.023  -5.285  -6.933  1.00  0.00     0.208 A 
ATOM      3  C   UNL     1      17.187  -3.930  -7.257  1.00  0.00     0.238 A 
ATOM      4  O   UNL     1      17.166  -3.574  -8.468  1.00  0.00    -0.285 OA
ATOM      5  C   UNL     1      17.364  -2.983  -6.228  1.00  0.00     0.111 A 
ATOM      6  C   UNL     1      17.532  -1.597  -6.469  1.00  0.00     0.134 A 
ATOM      7  C   UNL     1      17.694  -0.718  -5.390  1.00  0.00     0.093 A 
ATOM      8  C   UNL     1      17.691  -1.196  -4.074  1.00  0.00     0.123 A 
ATOM      9  C   UNL     1      17.527  -2.560  -3.832  1.00  0.00     0.094 A 
ATOM     10  C   UNL     1      17.365  -3.454  -4.894  1.00  0.00     0.146 A 
ATOM     11  O   UNL     1      17.216  -4.747  -4.634  1.00  0.00    -0.452 OA
ENDROOT
BRANCH   1  12
ATOM     12  C   UNL     1      16.915  -7.082  -5.158  1.00  0.00     0.025 A 
ATOM     13  C   UNL     1      15.669  -7.728  -5.189  1.00  0.00     0.016 A 
ATOM     14  C   UNL     1      15.559  -9.067  -4.809  1.00  0.00     0.051 A 
ATOM     15  C   UNL     1      16.686  -9.790  -4.407  1.00  0.00     0.157 A 
ATOM     16  C   UNL     1      18.051  -7.812  -4.775  1.00  0.00     0.062 A 
ATOM     17  C   UNL     1      17.951  -9.155  -4.392  1.00  0.00     0.158 A 
BRANCH  15  18
ATOM     18  O   UNL     1      16.507 -11.124  -4.035  1.00  0.00    -0.504 OA
ATOM     19  H   UNL     1      16.141 -11.838  -4.649  1.00  0.00     0.293 HD
ENDBRANCH  15  18
BRANCH  17  20
ATOM     20  O   UNL     1      19.121  -9.814  -4.011  1.00  0.00    -0.504 OA
ATOM     21  H   UNL     1      19.245 -10.276  -3.122  1.00  0.00     0.293 HD
ENDBRANCH  17  20
ENDBRANCH   1  12
BRANCH   2  22
ATOM     22  O   UNL     1      16.798  -6.236  -7.931  1.00  0.00    -0.502 OA
ATOM     23  H   UNL     1      16.069  -6.936  -7.859  1.00  0.00     0.293 HD
ENDBRANCH   2  22
BRANCH   6  24
ATOM     24  O   UNL     1      17.539  -1.092  -7.771  1.00  0.00    -0.507 OA
ATOM     25  H   UNL     1      16.854  -0.412  -8.082  1.00  0.00     0.293 HD
ENDBRANCH   6  24
BRANCH   8  26
ATOM     26  O   UNL     1      17.850  -0.321  -3.001  1.00  0.00    -0.508 OA
ATOM     27  H   UNL     1      17.914  -0.658  -2.048  1.00  0.00     0.293 HD
ENDBRANCH   8  26
TORSDOF 6
ENDMDL
MODEL 5
REMARK VINA RESULT:    -6.654      2.886      6.644
REMARK INTER + INTRA:          -8.321
REMARK INTER:                  -8.208
REMARK INTRA:                  -0.114
REMARK UNBOUND:                -0.306
REMARK SMILES O=c1c(O)c(-c2ccc(O)c(O)c2)oc2cc(O)cc(O)c12
REMARK SMILES IDX 5 1 3 2 2 3 1 4 22 5 20 6 19 7 17 8 16 9 15 10 14 11 6 12
REMARK SMILES IDX 7 13 8 14 9 15 13 16 11 17 10 18 12 20 4 22 21 24 18 26
REMARK H PARENT 10 19 12 21 4 23 21 25 18 27
REMARK Flexibility Score: inf
ROOT
ATOM      1  C   UNL     1      17.589  -4.785  -5.037  1.00  0.00     0.180 A 
ATOM      2  C   UNL     1      17.540  -3.904  -6.133  1.00  0.00     0.208 A 
ATOM      3  C   UNL     1      17.637  -2.523  -5.899  1.00  0.00     0.238 A 
ATOM      4  O   UNL     1      17.605  -1.724  -6.875  1.00  0.00    -0.285 OA
ATOM      5  C   UNL     1      17.758  -2.048  -4.577  1.00  0.00     0.111 A 
ATOM      6  C   UNL     1      17.856  -0.672  -4.254  1.00  0.00     0.134 A 
ATOM      7  C   UNL     1      17.966  -0.278  -2.914  1.00  0.00     0.093 A 
ATOM      8  C   UNL     1      17.979  -1.232  -1.889  1.00  0.00     0.123 A 
ATOM      9  C   UNL     1      17.883  -2.589  -2.202  1.00  0.00     0.094 A 
ATOM     10  C   UNL     1      17.774  -3.002  -3.533  1.00  0.00     0.146 A 
ATOM     11  O   UNL     1      17.690  -4.299  -3.802  1.00  0.00    -0.452 OA
ENDROOT
BRANCH   1  12
ATOM     12  C   UNL     1      17.512  -6.255  -5.204  1.00  0.00     0.025 A 
ATOM     13  C   UNL     1      18.545  -7.095  -4.757  1.00  0.00     0.016 A 
ATOM     14  C   UNL     1      18.440  -8.480  -4.904  1.00  0.00     0.051 A 
ATOM     15  C   UNL     1      17.302  -9.053  -5.482  1.00  0.00     0.157 A 
ATOM     16  C   UNL     1      16.361  -6.829  -5.764  1.00  0.00     0.062 A 
ATOM     17  C   UNL     1      16.246  -8.216  -5.916  1.00  0.00     0.158 A 
BRANCH  15  18
ATOM     18  O   UNL     1      17.262 -10.443  -5.603  1.00  0.00    -0.504 OA
ATOM     19  H   UNL     1      17.832 -10.971  -6.248  1.00  0.00     0.293 HD
ENDBRANCH  15  18
BRANCH  17  20
ATOM     20  O   UNL     1      15.078  -8.715  -6.493  1.00  0.00    -0.504 OA
ATOM     21  H   UNL     1      14.758  -9.667  -6.389  1.00  0.00     0.293 HD
ENDBRANCH  17  20
ENDBRANCH   1  12
BRANCH   2  22
ATOM     22  O   UNL     1      17.370  -4.398  -7.429  1.00  0.00    -0.502 OA
ATOM     23  H   UNL     1      16.808  -5.217  -7.628  1.00  0.00     0.293 HD
ENDBRANCH   2  22
BRANCH   6  24
ATOM     24  O   UNL     1      17.846   0.302  -5.254  1.00  0.00    -0.507 OA
ATOM     25  H   UNL     1      17.537   0.095  -6.197  1.00  0.00     0.293 HD
ENDBRANCH   6  24
BRANCH   8  26
ATOM     26  O   UNL     1      18.087  -0.841  -0.556  1.00  0.00    -0.508 OA
ATOM     27  H   UNL     1      17.345  -0.330  -0.092  1.00  0.00     0.293 HD
ENDBRANCH   8  26
TORSDOF 6
ENDMDL
MODEL 6
REMARK VINA RESULT:    -6.635      1.617      2.259
REMARK INTER + INTRA:          -8.298
REMARK INTER:                  -8.006
REMARK INTRA:                  -0.292
REMARK UNBOUND:                -0.306
REMARK SMILES O=c1c(O)c(-c2ccc(O)c(O)c2)oc2cc(O)cc(O)c12
REMARK SMILES IDX 5 1 3 2 2 3 1 4 22 5 20 6 19 7 17 8 16 9 15 10 14 11 6 12
REMARK SMILES IDX 7 13 8 14 9 15 13 16 11 17 10 18 12 20 4 22 21 24 18 26
REMARK H PARENT 10 19 12 21 4 23 21 25 18 27
REMARK Flexibility Score: inf
ROOT
ATOM      1  C   UNL     1      17.605  -3.659  -8.325  1.00  0.00     0.180 A 
ATOM      2  C   UNL     1      17.184  -4.964  -8.647  1.00  0.00     0.208 A 
ATOM      3  C   UNL     1      17.171  -5.359  -9.993  1.00  0.00     0.238 A 
ATOM      4  O   UNL     1      16.807  -6.530 -10.293  1.00  0.00    -0.285 OA
ATOM      5  C   UNL     1      17.555  -4.442 -10.993  1.00  0.00     0.111 A 
ATOM      6  C   UNL     1      17.565  -4.760 -12.373  1.00  0.00     0.134 A 
ATOM      7  C   UNL     1      17.952  -3.789 -13.308  1.00  0.00     0.093 A 
ATOM      8  C   UNL     1      18.328  -2.507 -12.890  1.00  0.00     0.123 A 
ATOM      9  C   UNL     1      18.320  -2.190 -11.531  1.00  0.00     0.094 A 
ATOM     10  C   UNL     1      17.939  -3.144 -10.583  1.00  0.00     0.146 A 
ATOM     11  O   UNL     1      17.946  -2.816  -9.297  1.00  0.00    -0.452 OA
ENDROOT
BRANCH   1  12
ATOM     12  C   UNL     1      17.664  -3.173  -6.928  1.00  0.00     0.025 A 
ATOM     13  C   UNL     1      18.884  -3.079  -6.239  1.00  0.00     0.016 A 
ATOM     14  C   UNL     1      18.919  -2.595  -4.930  1.00  0.00     0.051 A 
ATOM     15  C   UNL     1      17.746  -2.184  -4.289  1.00  0.00     0.157 A 
ATOM     16  C   UNL     1      16.489  -2.741  -6.294  1.00  0.00     0.062 A 
ATOM     17  C   UNL     1      16.514  -2.255  -4.981  1.00  0.00     0.158 A 
BRANCH  15  18
ATOM     18  O   UNL     1      17.849  -1.714  -2.978  1.00  0.00    -0.504 OA
ATOM     19  H   UNL     1      17.584  -0.784  -2.688  1.00  0.00     0.293 HD
ENDBRANCH  15  18
BRANCH  17  20
ATOM     20  O   UNL     1      15.304  -1.855  -4.411  1.00  0.00    -0.504 OA
ATOM     21  H   UNL     1      14.650  -2.486  -3.972  1.00  0.00     0.293 HD
ENDBRANCH  17  20
ENDBRANCH   1  12
BRANCH   2  22
ATOM     22  O   UNL     1      16.762  -5.837  -7.642  1.00  0.00    -0.502 OA
ATOM     23  H   UNL     1      17.028  -6.814  -7.625  1.00  0.00     0.293 HD
ENDBRANCH   2  22
BRANCH   6  24
ATOM     24  O   UNL     1      17.194  -6.029 -12.820  1.00  0.00    -0.507 OA
ATOM     25  H   UNL     1      16.447  -6.553 -12.378  1.00  0.00     0.293 HD
ENDBRANCH   6  24
BRANCH   8  26
ATOM     26  O   UNL     1      18.711  -1.541 -13.818  1.00  0.00    -0.508 OA
ATOM     27  H   UNL     1      18.400  -0.580 -13.743  1.00  0.00     0.293 HD
ENDBRANCH   8  26
TORSDOF 6
ENDMDL
MODEL 7
REMARK VINA RESULT:    -6.367      1.732      7.010
REMARK INTER + INTRA:          -7.976
REMARK INTER:                  -8.206
REMARK INTRA:                   0.229
REMARK UNBOUND:                -0.306
REMARK SMILES O=c1c(O)c(-c2ccc(O)c(O)c2)oc2cc(O)cc(O)c12
REMARK SMILES IDX 5 1 3 2 2 3 1 4 22 5 20 6 19 7 17 8 16 9 15 10 14 11 6 12
REMARK SMILES IDX 7 13 8 14 9 15 13 16 11 17 10 18 12 20 4 22 21 24 18 26
REMARK H PARENT 10 19 12 21 4 23 21 25 18 27
REMARK Flexibility Score: inf
ROOT
ATOM      1  C   UNL     1      17.548  -3.770  -9.579  1.00  0.00     0.180 A 
ATOM      2  C   UNL     1      17.290  -5.109  -9.226  1.00  0.00     0.208 A 
ATOM      3  C   UNL     1      17.036  -5.418  -7.881  1.00  0.00     0.238 A 
ATOM      4  O   UNL     1      16.792  -6.613  -7.554  1.00  0.00    -0.285 OA
ATOM      5  C   UNL     1      17.065  -4.394  -6.912  1.00  0.00     0.111 A 
ATOM      6  C   UNL     1      16.824  -4.623  -5.535  1.00  0.00     0.134 A 
ATOM      7  C   UNL     1      16.880  -3.553  -4.632  1.00  0.00     0.093 A 
ATOM      8  C   UNL     1      17.172  -2.258  -5.078  1.00  0.00     0.123 A 
ATOM      9  C   UNL     1      17.409  -2.028  -6.434  1.00  0.00     0.094 A 
ATOM     10  C   UNL     1      17.357  -3.082  -7.351  1.00  0.00     0.146 A 
ATOM     11  O   UNL     1      17.582  -2.833  -8.635  1.00  0.00    -0.452 OA
ENDROOT
BRANCH   1  12
ATOM     12  C   UNL     1      17.807  -3.361 -10.978  1.00  0.00     0.025 A 
ATOM     13  C   UNL     1      18.762  -2.378 -11.286  1.00  0.00     0.016 A 
ATOM     14  C   UNL     1      19.006  -2.025 -12.615  1.00  0.00     0.051 A 
ATOM     15  C   UNL     1      18.317  -2.651 -13.659  1.00  0.00     0.157 A 
ATOM     16  C   UNL     1      17.131  -4.006 -12.025  1.00  0.00     0.062 A 
ATOM     17  C   UNL     1      17.369  -3.658 -13.360  1.00  0.00     0.158 A 
BRANCH  15  18
ATOM     18  O   UNL     1      18.605  -2.249 -14.964  1.00  0.00    -0.504 OA
ATOM     19  H   UNL     1      19.524  -2.299 -15.382  1.00  0.00     0.293 HD
ENDBRANCH  15  18
BRANCH  17  20
ATOM     20  O   UNL     1      16.650  -4.333 -14.348  1.00  0.00    -0.504 OA
ATOM     21  H   UNL     1      15.646  -4.296 -14.441  1.00  0.00     0.293 HD
ENDBRANCH  17  20
ENDBRANCH   1  12
BRANCH   2  22
ATOM     22  O   UNL     1      17.315  -6.112 -10.197  1.00  0.00    -0.502 OA
ATOM     23  H   UNL     1      18.003  -6.130 -10.941  1.00  0.00     0.293 HD
ENDBRANCH   2  22
BRANCH   6  24
ATOM     24  O   UNL     1      16.531  -5.903  -5.061  1.00  0.00    -0.507 OA
ATOM     25  H   UNL     1      16.911  -6.248  -4.187  1.00  0.00     0.293 HD
ENDBRANCH   6  24
BRANCH   8  26
ATOM     26  O   UNL     1      17.228  -1.194  -4.180  1.00  0.00    -0.508 OA
ATOM     27  H   UNL     1      17.139  -0.234  -4.490  1.00  0.00     0.293 HD
ENDBRANCH   8  26
TORSDOF 6
ENDMDL
MODEL 8
REMARK VINA RESULT:    -6.049      1.491      6.725
REMARK INTER + INTRA:          -7.593
REMARK INTER:                  -7.509
REMARK INTRA:                  -0.084
REMARK UNBOUND:                -0.306
REMARK SMILES O=c1c(O)c(-c2ccc(O)c(O)c2)oc2cc(O)cc(O)c12
REMARK SMILES IDX 5 1 3 2 2 3 1 4 22 5 20 6 19 7 17 8 16 9 15 10 14 11 6 12
REMARK SMILES IDX 7 13 8 14 9 15 13 16 11 17 10 18 12 20 4 22 21 24 18 26
REMARK H PARENT 10 19 12 21 4 23 21 25 18 27
REMARK Flexibility Score: inf
ROOT
ATOM      1  C   UNL     1      17.708  -3.762  -7.079  1.00  0.00     0.180 A 
ATOM      2  C   UNL     1      17.834  -4.914  -6.280  1.00  0.00     0.208 A 
ATOM      3  C   UNL     1      17.938  -4.766  -4.888  1.00  0.00     0.238 A 
ATOM      4  O   UNL     1      18.039  -5.792  -4.161  1.00  0.00    -0.285 OA
ATOM      5  C   UNL     1      17.937  -3.474  -4.322  1.00  0.00     0.111 A 
ATOM      6  C   UNL     1      18.042  -3.238  -2.930  1.00  0.00     0.134 A 
ATOM      7  C   UNL     1      18.043  -1.923  -2.446  1.00  0.00     0.093 A 
ATOM      8  C   UNL     1      17.940  -0.839  -3.326  1.00  0.00     0.123 A 
ATOM      9  C   UNL     1      17.835  -1.067  -4.698  1.00  0.00     0.094 A 
ATOM     10  C   UNL     1      17.832  -2.371  -5.202  1.00  0.00     0.146 A 
ATOM     11  O   UNL     1      17.726  -2.558  -6.511  1.00  0.00    -0.452 OA
ENDROOT
BRANCH   1  12
ATOM     12  C   UNL     1      17.575  -3.835  -8.552  1.00  0.00     0.025 A 
ATOM     13  C   UNL     1      18.518  -3.235  -9.401  1.00  0.00     0.016 A 
ATOM     14  C   UNL     1      18.385  -3.337 -10.787  1.00  0.00     0.051 A 
ATOM     15  C   UNL     1      17.322  -4.050 -11.352  1.00  0.00     0.157 A 
ATOM     16  C   UNL     1      16.521  -4.569  -9.116  1.00  0.00     0.062 A 
ATOM     17  C   UNL     1      16.378  -4.678 -10.505  1.00  0.00     0.158 A 
BRANCH  15  18
ATOM     18  O   UNL     1      17.244  -4.111 -12.745  1.00  0.00    -0.504 OA
ATOM     19  H   UNL     1      17.937  -3.720 -13.367  1.00  0.00     0.293 HD
ENDBRANCH  15  18
BRANCH  17  20
ATOM     20  O   UNL     1      15.298  -5.413 -10.995  1.00  0.00    -0.504 OA
ATOM     21  H   UNL     1      14.617  -5.051 -11.647  1.00  0.00     0.293 HD
ENDBRANCH  17  20
ENDBRANCH   1  12
BRANCH   2  22
ATOM     22  O   UNL     1      17.881  -6.179  -6.869  1.00  0.00    -0.502 OA
ATOM     23  H   UNL     1      17.802  -7.033  -6.329  1.00  0.00     0.293 HD
ENDBRANCH   2  22
BRANCH   6  24
ATOM     24  O   UNL     1      18.146  -4.299  -2.028  1.00  0.00    -0.507 OA
ATOM     25  H   UNL     1      17.341  -4.648  -1.521  1.00  0.00     0.293 HD
ENDBRANCH   6  24
BRANCH   8  26
ATOM     26  O   UNL     1      17.942   0.469  -2.844  1.00  0.00    -0.508 OA
ATOM     27  H   UNL     1      17.093   0.915  -2.520  1.00  0.00     0.293 HD
ENDBRANCH   8  26
TORSDOF 6
ENDMDL
MODEL 9
REMARK VINA RESULT:    -5.935      3.217      5.692
REMARK INTER + INTRA:          -7.455
REMARK INTER:                  -7.139
REMARK INTRA:                  -0.316
REMARK UNBOUND:                -0.306
REMARK SMILES O=c1c(O)c(-c2ccc(O)c(O)c2)oc2cc(O)cc(O)c12
REMARK SMILES IDX 5 1 3 2 2 3 1 4 22 5 20 6 19 7 17 8 16 9 15 10 14 11 6 12
REMARK SMILES IDX 7 13 8 14 9 15 13 16 11 17 10 18 12 20 4 22 21 24 18 26
REMARK H PARENT 10 19 12 21 4 23 21 25 18 27
REMARK Flexibility Score: inf
ROOT
ATOM      1  C   UNL     1      17.006  -6.182  -5.298  1.00  0.00     0.180 A 
ATOM      2  C   UNL     1      18.059  -6.789  -4.587  1.00  0.00     0.208 A 
ATOM      3  C   UNL     1      18.003  -8.169  -4.341  1.00  0.00     0.238 A 
ATOM      4  O   UNL     1      18.946  -8.727  -3.714  1.00  0.00    -0.285 OA
ATOM      5  C   UNL     1      16.892  -8.913  -4.787  1.00  0.00     0.111 A 
ATOM      6  C   UNL     1      16.757 -10.307  -4.576  1.00  0.00     0.134 A 
ATOM      7  C   UNL     1      15.616 -10.974  -5.044  1.00  0.00     0.093 A 
ATOM      8  C   UNL     1      14.608 -10.275  -5.719  1.00  0.00     0.123 A 
ATOM      9  C   UNL     1      14.738  -8.902  -5.930  1.00  0.00     0.094 A 
ATOM     10  C   UNL     1      15.867  -8.218  -5.472  1.00  0.00     0.146 A 
ATOM     11  O   UNL     1      15.966  -6.913  -5.691  1.00  0.00    -0.452 OA
ENDROOT
BRANCH   1  12
ATOM     12  C   UNL     1      17.001  -4.735  -5.614  1.00  0.00     0.025 A 
ATOM     13  C   UNL     1      16.535  -3.788  -4.688  1.00  0.00     0.016 A 
ATOM     14  C   UNL     1      16.561  -2.427  -4.998  1.00  0.00     0.051 A 
ATOM     15  C   UNL     1      17.063  -1.984  -6.226  1.00  0.00     0.157 A 
ATOM     16  C   UNL     1      17.525  -4.291  -6.837  1.00  0.00     0.062 A 
ATOM     17  C   UNL     1      17.555  -2.928  -7.158  1.00  0.00     0.158 A 
BRANCH  15  18
ATOM     18  O   UNL     1      17.057  -0.610  -6.476  1.00  0.00    -0.504 OA
ATOM     19  H   UNL     1      16.397   0.036  -6.068  1.00  0.00     0.293 HD
ENDBRANCH  15  18
BRANCH  17  20
ATOM     20  O   UNL     1      18.078  -2.562  -8.398  1.00  0.00    -0.504 OA
ATOM     21  H   UNL     1      19.042  -2.300  -8.550  1.00  0.00     0.293 HD
ENDBRANCH  17  20
ENDBRANCH   1  12
BRANCH   2  22
ATOM     22  O   UNL     1      19.125  -6.021  -4.113  1.00  0.00    -0.502 OA
ATOM     23  H   UNL     1      19.174  -5.018  -4.247  1.00  0.00     0.293 HD
ENDBRANCH   2  22
BRANCH   6  24
ATOM     24  O   UNL     1      17.745 -11.031  -3.906  1.00  0.00    -0.507 OA
ATOM     25  H   UNL     1      17.566 -11.955  -3.530  1.00  0.00     0.293 HD
ENDBRANCH   6  24
BRANCH   8  26
ATOM     26  O   UNL     1      13.473 -10.938  -6.183  1.00  0.00    -0.508 OA
ATOM     27  H   UNL     1      13.126 -10.798  -7.124  1.00  0.00     0.293 HD
ENDBRANCH   8  26
TORSDOF 6
ENDMDL
