MODEL 1
REMARK VINA RESULT:    -4.656      0.000      0.000
REMARK INTER + INTRA:         -10.891
REMARK INTER:                  -8.467
REMARK INTRA:                  -2.425
REMARK UNBOUND:                -2.425
REMARK SMILES CCCCCCCCCCCCCCCC(=O)[O-]
REMARK SMILES IDX 9 1 10 2 11 3 12 4 13 5 14 6 15 7 16 8 17 9 18 10 8 11 7 12
REMARK SMILES IDX 6 13 5 14 4 15 3 16 2 17 1 18
REMARK H PARENT
REMARK Flexibility Score: inf
ROOT
ATOM      1  C   UNL     1      -3.734 -48.785  16.705  1.00  0.00     0.000 C 
ENDROOT
BRANCH   1   2
ATOM      2  C   UNL     1      -4.915 -48.702  17.685  1.00  0.00     0.000 C 
BRANCH   2   3
ATOM      3  C   UNL     1      -4.484 -48.909  19.148  1.00  0.00     0.000 C 
BRANCH   3   4
ATOM      4  C   UNL     1      -4.634 -47.636  19.997  1.00  0.00     0.000 C 
BRANCH   4   5
ATOM      5  C   UNL     1      -5.364 -46.509  19.247  1.00  0.00     0.000 C 
BRANCH   5   6
ATOM      6  C   UNL     1      -5.323 -45.167  20.002  1.00  0.00     0.006 C 
BRANCH   6   7
ATOM      7  C   UNL     1      -6.621 -44.817  20.747  1.00  0.00     0.053 C 
BRANCH   7   8
ATOM      8  C   UNL     1      -7.393 -43.737  20.055  1.00  0.00     0.041 C 
ATOM      9  O   UNL     1      -8.529 -43.398  20.480  1.00  0.00    -0.550 OA
ATOM     10  O   UNL     1      -6.872 -43.128  18.920  1.00  0.00    -0.550 OA
ENDBRANCH   7   8
ENDBRANCH   6   7
ENDBRANCH   5   6
ENDBRANCH   4   5
ENDBRANCH   3   4
ENDBRANCH   2   3
ENDBRANCH   1   2
BRANCH   1  11
ATOM     11  C   UNL     1      -2.386 -48.977  17.423  1.00  0.00     0.000 C 
BRANCH  11  12
ATOM     12  C   UNL     1      -1.459 -47.761  17.275  1.00  0.00    -0.000 C 
BRANCH  12  13
ATOM     13  C   UNL     1      -1.647 -46.734  18.402  1.00  0.00    -0.000 C 
BRANCH  13  14
ATOM     14  C   UNL     1      -2.077 -45.374  17.840  1.00  0.00    -0.000 C 
BRANCH  14  15
ATOM     15  C   UNL     1      -1.719 -45.255  16.351  1.00  0.00    -0.000 C 
BRANCH  15  16
ATOM     16  C   UNL     1      -2.942 -44.970  15.460  1.00  0.00    -0.000 C 
BRANCH  16  17
ATOM     17  C   UNL     1      -4.253 -44.718  16.224  1.00  0.00    -0.003 C 
ATOM     18  C   UNL     1      -5.425 -45.541  15.690  1.00  0.00     0.004 C 
ENDBRANCH  16  17
ENDBRANCH  15  16
ENDBRANCH  14  15
ENDBRANCH  13  14
ENDBRANCH  12  13
ENDBRANCH  11  12
ENDBRANCH   1  11
TORSDOF 14
ENDMDL
MODEL 2
REMARK VINA RESULT:    -4.590      1.624      4.341
REMARK INTER + INTRA:         -10.772
REMARK INTER:                  -8.312
REMARK INTRA:                  -2.460
REMARK UNBOUND:                -2.425
REMARK SMILES CCCCCCCCCCCCCCCC(=O)[O-]
REMARK SMILES IDX 9 1 10 2 11 3 12 4 13 5 14 6 15 7 16 8 17 9 18 10 8 11 7 12
REMARK SMILES IDX 6 13 5 14 4 15 3 16 2 17 1 18
REMARK H PARENT
REMARK Flexibility Score: inf
ROOT
ATOM      1  C   UNL     1      -1.530 -46.770  18.242  1.00  0.00     0.000 C 
ENDROOT
BRANCH   1   2
ATOM      2  C   UNL     1      -2.270 -45.519  17.743  1.00  0.00     0.000 C 
BRANCH   2   3
ATOM      3  C   UNL     1      -1.912 -45.163  16.289  1.00  0.00     0.000 C 
BRANCH   3   4
ATOM      4  C   UNL     1      -3.148 -45.062  15.381  1.00  0.00     0.000 C 
BRANCH   4   5
ATOM      5  C   UNL     1      -4.442 -44.809  16.172  1.00  0.00     0.000 C 
BRANCH   5   6
ATOM      6  C   UNL     1      -5.659 -45.538  15.571  1.00  0.00     0.006 C 
BRANCH   6   7
ATOM      7  C   UNL     1      -6.892 -45.580  16.489  1.00  0.00     0.053 C 
BRANCH   7   8
ATOM      8  C   UNL     1      -8.097 -44.973  15.841  1.00  0.00     0.041 C 
ATOM      9  O   UNL     1      -8.417 -45.298  14.667  1.00  0.00    -0.550 OA
ATOM     10  O   UNL     1      -8.849 -44.022  16.521  1.00  0.00    -0.550 OA
ENDBRANCH   7   8
ENDBRANCH   6   7
ENDBRANCH   5   6
ENDBRANCH   4   5
ENDBRANCH   3   4
ENDBRANCH   2   3
ENDBRANCH   1   2
BRANCH   1  11
ATOM     11  C   UNL     1      -1.519 -47.902  17.199  1.00  0.00     0.000 C 
BRANCH  11  12
ATOM     12  C   UNL     1      -2.559 -48.993  17.501  1.00  0.00    -0.000 C 
BRANCH  12  13
ATOM     13  C   UNL     1      -3.910 -48.725  16.822  1.00  0.00    -0.000 C 
BRANCH  13  14
ATOM     14  C   UNL     1      -5.004 -48.457  17.862  1.00  0.00    -0.000 C 
BRANCH  14  15
ATOM     15  C   UNL     1      -4.486 -48.717  19.284  1.00  0.00    -0.000 C 
BRANCH  15  16
ATOM     16  C   UNL     1      -4.579 -47.477  20.193  1.00  0.00    -0.000 C 
BRANCH  16  17
ATOM     17  C   UNL     1      -5.245 -46.250  19.545  1.00  0.00    -0.003 C 
ATOM     18  C   UNL     1      -6.049 -45.411  20.537  1.00  0.00     0.004 C 
ENDBRANCH  16  17
ENDBRANCH  15  16
ENDBRANCH  14  15
ENDBRANCH  13  14
ENDBRANCH  12  13
ENDBRANCH  11  12
ENDBRANCH   1  11
TORSDOF 14
ENDMDL
MODEL 3
REMARK VINA RESULT:    -4.565      1.167      2.481
REMARK INTER + INTRA:         -10.726
REMARK INTER:                  -8.473
REMARK INTRA:                  -2.253
REMARK UNBOUND:                -2.425
REMARK SMILES CCCCCCCCCCCCCCCC(=O)[O-]
REMARK SMILES IDX 9 1 10 2 11 3 12 4 13 5 14 6 15 7 16 8 17 9 18 10 8 11 7 12
REMARK SMILES IDX 6 13 5 14 4 15 3 16 2 17 1 18
REMARK H PARENT
REMARK Flexibility Score: inf
ROOT
ATOM      1  C   UNL     1      -1.467 -47.855  17.333  1.00  0.00     0.000 C 
ENDROOT
BRANCH   1   2
ATOM      2  C   UNL     1      -2.459 -49.006  17.568  1.00  0.00     0.000 C 
BRANCH   2   3
ATOM      3  C   UNL     1      -3.788 -48.800  16.819  1.00  0.00     0.000 C 
BRANCH   3   4
ATOM      4  C   UNL     1      -4.976 -48.577  17.769  1.00  0.00     0.000 C 
BRANCH   4   5
ATOM      5  C   UNL     1      -4.583 -48.717  19.249  1.00  0.00     0.000 C 
BRANCH   5   6
ATOM      6  C   UNL     1      -4.616 -47.374  20.003  1.00  0.00     0.006 C 
BRANCH   6   7
ATOM      7  C   UNL     1      -5.377 -46.255  19.275  1.00  0.00     0.053 C 
BRANCH   7   8
ATOM      8  C   UNL     1      -5.398 -44.983  20.065  1.00  0.00     0.041 C 
ATOM      9  O   UNL     1      -6.146 -44.874  21.072  1.00  0.00    -0.550 OA
ATOM     10  O   UNL     1      -4.617 -43.904  19.668  1.00  0.00    -0.550 OA
ENDBRANCH   7   8
ENDBRANCH   6   7
ENDBRANCH   5   6
ENDBRANCH   4   5
ENDBRANCH   3   4
ENDBRANCH   2   3
ENDBRANCH   1   2
BRANCH   1  11
ATOM     11  C   UNL     1      -1.605 -46.736  18.381  1.00  0.00     0.000 C 
BRANCH  11  12
ATOM     12  C   UNL     1      -2.077 -45.408  17.768  1.00  0.00    -0.000 C 
BRANCH  12  13
ATOM     13  C   UNL     1      -1.647 -45.247  16.302  1.00  0.00    -0.000 C 
BRANCH  13  14
ATOM     14  C   UNL     1      -2.754 -44.585  15.474  1.00  0.00    -0.000 C 
BRANCH  14  15
ATOM     15  C   UNL     1      -4.052 -45.404  15.534  1.00  0.00    -0.000 C 
BRANCH  15  16
ATOM     16  C   UNL     1      -5.277 -44.559  15.929  1.00  0.00    -0.000 C 
BRANCH  16  17
ATOM     17  C   UNL     1      -6.612 -45.325  15.944  1.00  0.00    -0.003 C 
ATOM     18  C   UNL     1      -7.561 -44.895  14.826  1.00  0.00     0.004 C 
ENDBRANCH  16  17
ENDBRANCH  15  16
ENDBRANCH  14  15
ENDBRANCH  13  14
ENDBRANCH  12  13
ENDBRANCH  11  12
ENDBRANCH   1  11
TORSDOF 14
ENDMDL
MODEL 4
REMARK VINA RESULT:    -4.551      2.669      5.331
REMARK INTER + INTRA:         -10.700
REMARK INTER:                  -8.338
REMARK INTRA:                  -2.362
REMARK UNBOUND:                -2.425
REMARK SMILES CCCCCCCCCCCCCCCC(=O)[O-]
REMARK SMILES IDX 9 1 10 2 11 3 12 4 13 5 14 6 15 7 16 8 17 9 18 10 8 11 7 12
REMARK SMILES IDX 6 13 5 14 4 15 3 16 2 17 1 18
REMARK H PARENT
REMARK Flexibility Score: inf
ROOT
ATOM      1  C   UNL     1      -1.631 -46.738  18.392  1.00  0.00     0.000 C 
ENDROOT
BRANCH   1   2
ATOM      2  C   UNL     1      -2.039 -45.380  17.800  1.00  0.00     0.000 C 
BRANCH   2   3
ATOM      3  C   UNL     1      -1.627 -45.232  16.324  1.00  0.00     0.000 C 
BRANCH   3   4
ATOM      4  C   UNL     1      -2.684 -44.498  15.483  1.00  0.00     0.000 C 
BRANCH   4   5
ATOM      5  C   UNL     1      -4.105 -44.664  16.046  1.00  0.00     0.000 C 
BRANCH   5   6
ATOM      6  C   UNL     1      -4.920 -45.734  15.296  1.00  0.00     0.006 C 
BRANCH   6   7
ATOM      7  C   UNL     1      -4.218 -46.319  14.061  1.00  0.00     0.053 C 
BRANCH   7   8
ATOM      8  C   UNL     1      -4.878 -45.897  12.785  1.00  0.00     0.041 C 
ATOM      9  O   UNL     1      -6.124 -45.720  12.744  1.00  0.00    -0.550 OA
ATOM     10  O   UNL     1      -4.121 -45.733  11.631  1.00  0.00    -0.550 OA
ENDBRANCH   7   8
ENDBRANCH   6   7
ENDBRANCH   5   6
ENDBRANCH   4   5
ENDBRANCH   3   4
ENDBRANCH   2   3
ENDBRANCH   1   2
BRANCH   1  11
ATOM     11  C   UNL     1      -1.480 -47.827  17.316  1.00  0.00     0.000 C 
BRANCH  11  12
ATOM     12  C   UNL     1      -2.402 -49.032  17.561  1.00  0.00    -0.000 C 
BRANCH  12  13
ATOM     13  C   UNL     1      -3.711 -48.946  16.762  1.00  0.00    -0.000 C 
BRANCH  13  14
ATOM     14  C   UNL     1      -4.906 -48.697  17.691  1.00  0.00    -0.000 C 
BRANCH  14  15
ATOM     15  C   UNL     1      -4.485 -48.788  19.165  1.00  0.00    -0.000 C 
BRANCH  15  16
ATOM     16  C   UNL     1      -4.690 -47.467  19.929  1.00  0.00    -0.000 C 
BRANCH  16  17
ATOM     17  C   UNL     1      -5.362 -46.347  19.116  1.00  0.00    -0.003 C 
ATOM     18  C   UNL     1      -6.193 -45.397  19.977  1.00  0.00     0.004 C 
ENDBRANCH  16  17
ENDBRANCH  15  16
ENDBRANCH  14  15
ENDBRANCH  13  14
ENDBRANCH  12  13
ENDBRANCH  11  12
ENDBRANCH   1  11
TORSDOF 14
ENDMDL
MODEL 5
REMARK VINA RESULT:    -4.540      1.380      2.591
REMARK INTER + INTRA:         -10.680
REMARK INTER:                  -8.122
REMARK INTRA:                  -2.558
REMARK UNBOUND:                -2.425
REMARK SMILES CCCCCCCCCCCCCCCC(=O)[O-]
REMARK SMILES IDX 9 1 10 2 11 3 12 4 13 5 14 6 15 7 16 8 17 9 18 10 8 11 7 12
REMARK SMILES IDX 6 13 5 14 4 15 3 16 2 17 1 18
REMARK H PARENT
REMARK Flexibility Score: inf
ROOT
ATOM      1  C   UNL     1      -1.289 -47.742  17.488  1.00  0.00     0.000 C 
ENDROOT
BRANCH   1   2
ATOM      2  C   UNL     1      -2.136 -49.000  17.734  1.00  0.00     0.000 C 
BRANCH   2   3
ATOM      3  C   UNL     1      -3.285 -48.753  18.728  1.00  0.00     0.000 C 
BRANCH   3   4
ATOM      4  C   UNL     1      -4.654 -48.641  18.037  1.00  0.00     0.000 C 
BRANCH   4   5
ATOM      5  C   UNL     1      -5.412 -47.363  18.434  1.00  0.00     0.000 C 
BRANCH   5   6
ATOM      6  C   UNL     1      -4.970 -46.809  19.802  1.00  0.00     0.006 C 
BRANCH   6   7
ATOM      7  C   UNL     1      -5.060 -45.280  19.928  1.00  0.00     0.053 C 
BRANCH   7   8
ATOM      8  C   UNL     1      -6.471 -44.789  19.825  1.00  0.00     0.041 C 
ATOM      9  O   UNL     1      -7.253 -44.895  20.805  1.00  0.00    -0.550 OA
ATOM     10  O   UNL     1      -6.932 -44.244  18.632  1.00  0.00    -0.550 OA
ENDBRANCH   7   8
ENDBRANCH   6   7
ENDBRANCH   5   6
ENDBRANCH   4   5
ENDBRANCH   3   4
ENDBRANCH   2   3
ENDBRANCH   1   2
BRANCH   1  11
ATOM     11  C   UNL     1      -1.622 -46.606  18.472  1.00  0.00     0.000 C 
BRANCH  11  12
ATOM     12  C   UNL     1      -2.067 -45.319  17.760  1.00  0.00    -0.000 C 
BRANCH  12  13
ATOM     13  C   UNL     1      -1.832 -45.371  16.243  1.00  0.00    -0.000 C 
BRANCH  13  14
ATOM     14  C   UNL     1      -3.133 -45.107  15.477  1.00  0.00    -0.000 C 
BRANCH  14  15
ATOM     15  C   UNL     1      -3.935 -46.404  15.290  1.00  0.00    -0.000 C 
BRANCH  15  16
ATOM     16  C   UNL     1      -3.583 -47.144  13.986  1.00  0.00    -0.000 C 
BRANCH  16  17
ATOM     17  C   UNL     1      -2.748 -48.423  14.175  1.00  0.00    -0.003 C 
ATOM     18  C   UNL     1      -3.603 -49.664  14.424  1.00  0.00     0.004 C 
ENDBRANCH  16  17
ENDBRANCH  15  16
ENDBRANCH  14  15
ENDBRANCH  13  14
ENDBRANCH  12  13
ENDBRANCH  11  12
ENDBRANCH   1  11
TORSDOF 14
ENDMDL
MODEL 6
REMARK VINA RESULT:    -4.455      1.711      4.358
REMARK INTER + INTRA:         -10.526
REMARK INTER:                  -8.116
REMARK INTRA:                  -2.410
REMARK UNBOUND:                -2.425
REMARK SMILES CCCCCCCCCCCCCCCC(=O)[O-]
REMARK SMILES IDX 9 1 10 2 11 3 12 4 13 5 14 6 15 7 16 8 17 9 18 10 8 11 7 12
REMARK SMILES IDX 6 13 5 14 4 15 3 16 2 17 1 18
REMARK H PARENT
REMARK Flexibility Score: inf
ROOT
ATOM      1  C   UNL     1      -2.381 -48.993  17.557  1.00  0.00     0.000 C 
ENDROOT
BRANCH   1   2
ATOM      2  C   UNL     1      -1.493 -47.772  17.272  1.00  0.00     0.000 C 
BRANCH   2   3
ATOM      3  C   UNL     1      -1.648 -46.669  18.336  1.00  0.00     0.000 C 
BRANCH   3   4
ATOM      4  C   UNL     1      -2.051 -45.314  17.732  1.00  0.00     0.000 C 
BRANCH   4   5
ATOM      5  C   UNL     1      -1.784 -45.240  16.219  1.00  0.00     0.000 C 
BRANCH   5   6
ATOM      6  C   UNL     1      -3.075 -45.072  15.395  1.00  0.00     0.006 C 
BRANCH   6   7
ATOM      7  C   UNL     1      -4.355 -44.955  16.236  1.00  0.00     0.053 C 
BRANCH   7   8
ATOM      8  C   UNL     1      -5.582 -45.288  15.445  1.00  0.00     0.041 C 
ATOM      9  O   UNL     1      -6.669 -45.529  16.031  1.00  0.00    -0.550 OA
ATOM     10  O   UNL     1      -5.516 -45.364  14.059  1.00  0.00    -0.550 OA
ENDBRANCH   7   8
ENDBRANCH   6   7
ENDBRANCH   5   6
ENDBRANCH   4   5
ENDBRANCH   3   4
ENDBRANCH   2   3
ENDBRANCH   1   2
BRANCH   1  11
ATOM     11  C   UNL     1      -3.742 -48.911  16.843  1.00  0.00     0.000 C 
BRANCH  11  12
ATOM     12  C   UNL     1      -4.882 -48.501  17.788  1.00  0.00    -0.000 C 
BRANCH  12  13
ATOM     13  C   UNL     1      -4.523 -48.703  19.268  1.00  0.00    -0.000 C 
BRANCH  13  14
ATOM     14  C   UNL     1      -4.653 -47.389  20.049  1.00  0.00    -0.000 C 
BRANCH  14  15
ATOM     15  C   UNL     1      -5.546 -46.389  19.299  1.00  0.00    -0.000 C 
BRANCH  15  16
ATOM     16  C   UNL     1      -5.973 -45.195  20.171  1.00  0.00    -0.000 C 
BRANCH  16  17
ATOM     17  C   UNL     1      -5.831 -43.819  19.497  1.00  0.00    -0.003 C 
ATOM     18  C   UNL     1      -4.426 -43.232  19.625  1.00  0.00     0.004 C 
ENDBRANCH  16  17
ENDBRANCH  15  16
ENDBRANCH  14  15
ENDBRANCH  13  14
ENDBRANCH  12  13
ENDBRANCH  11  12
ENDBRANCH   1  11
TORSDOF 14
ENDMDL
MODEL 7
REMARK VINA RESULT:    -4.412      1.203      3.890
REMARK INTER + INTRA:         -10.448
REMARK INTER:                  -7.911
REMARK INTRA:                  -2.536
REMARK UNBOUND:                -2.425
REMARK SMILES CCCCCCCCCCCCCCCC(=O)[O-]
REMARK SMILES IDX 9 1 10 2 11 3 12 4 13 5 14 6 15 7 16 8 17 9 18 10 8 11 7 12
REMARK SMILES IDX 6 13 5 14 4 15 3 16 2 17 1 18
REMARK H PARENT
REMARK Flexibility Score: inf
ROOT
ATOM      1  C   UNL     1      -2.282 -45.398  17.840  1.00  0.00     0.000 C 
ENDROOT
BRANCH   1   2
ATOM      2  C   UNL     1      -1.887 -45.167  16.373  1.00  0.00     0.000 C 
BRANCH   2   3
ATOM      3  C   UNL     1      -3.109 -44.996  15.453  1.00  0.00     0.000 C 
BRANCH   3   4
ATOM      4  C   UNL     1      -4.351 -45.740  15.971  1.00  0.00     0.000 C 
BRANCH   4   5
ATOM      5  C   UNL     1      -5.608 -44.854  15.979  1.00  0.00     0.000 C 
BRANCH   5   6
ATOM      6  C   UNL     1      -5.301 -43.389  16.344  1.00  0.00     0.006 C 
BRANCH   6   7
ATOM      7  C   UNL     1      -6.202 -42.807  17.445  1.00  0.00     0.053 C 
BRANCH   7   8
ATOM      8  C   UNL     1      -5.932 -43.428  18.780  1.00  0.00     0.041 C 
ATOM      9  O   UNL     1      -6.848 -44.039  19.392  1.00  0.00    -0.550 OA
ATOM     10  O   UNL     1      -4.678 -43.303  19.365  1.00  0.00    -0.550 OA
ENDBRANCH   7   8
ENDBRANCH   6   7
ENDBRANCH   5   6
ENDBRANCH   4   5
ENDBRANCH   3   4
ENDBRANCH   2   3
ENDBRANCH   1   2
BRANCH   1  11
ATOM     11  C   UNL     1      -1.621 -46.652  18.438  1.00  0.00     0.000 C 
BRANCH  11  12
ATOM     12  C   UNL     1      -1.420 -47.766  17.399  1.00  0.00    -0.000 C 
BRANCH  12  13
ATOM     13  C   UNL     1      -2.278 -49.007  17.690  1.00  0.00    -0.000 C 
BRANCH  13  14
ATOM     14  C   UNL     1      -3.461 -49.096  16.718  1.00  0.00    -0.000 C 
BRANCH  14  15
ATOM     15  C   UNL     1      -4.797 -49.075  17.475  1.00  0.00    -0.000 C 
BRANCH  15  16
ATOM     16  C   UNL     1      -4.653 -48.608  18.935  1.00  0.00    -0.000 C 
BRANCH  16  17
ATOM     17  C   UNL     1      -5.154 -47.179  19.208  1.00  0.00    -0.003 C 
ATOM     18  C   UNL     1      -4.715 -46.640  20.569  1.00  0.00     0.004 C 
ENDBRANCH  16  17
ENDBRANCH  15  16
ENDBRANCH  14  15
ENDBRANCH  13  14
ENDBRANCH  12  13
ENDBRANCH  11  12
ENDBRANCH   1  11
TORSDOF 14
ENDMDL
MODEL 8
REMARK VINA RESULT:    -4.403      1.901      4.358
REMARK INTER + INTRA:         -10.431
REMARK INTER:                  -7.832
REMARK INTRA:                  -2.599
REMARK UNBOUND:                -2.425
REMARK SMILES CCCCCCCCCCCCCCCC(=O)[O-]
REMARK SMILES IDX 9 1 10 2 11 3 12 4 13 5 14 6 15 7 16 8 17 9 18 10 8 11 7 12
REMARK SMILES IDX 6 13 5 14 4 15 3 16 2 17 1 18
REMARK H PARENT
REMARK Flexibility Score: inf
ROOT
ATOM      1  C   UNL     1      -2.268 -46.255  18.818  1.00  0.00     0.000 C 
ENDROOT
BRANCH   1   2
ATOM      2  C   UNL     1      -2.291 -44.979  17.961  1.00  0.00     0.000 C 
BRANCH   2   3
ATOM      3  C   UNL     1      -1.712 -45.203  16.553  1.00  0.00     0.000 C 
BRANCH   3   4
ATOM      4  C   UNL     1      -2.715 -44.867  15.438  1.00  0.00     0.000 C 
BRANCH   4   5
ATOM      5  C   UNL     1      -3.717 -46.006  15.184  1.00  0.00     0.000 C 
BRANCH   5   6
ATOM      6  C   UNL     1      -5.181 -45.527  15.212  1.00  0.00     0.006 C 
BRANCH   6   7
ATOM      7  C   UNL     1      -5.545 -44.665  16.431  1.00  0.00     0.053 C 
BRANCH   7   8
ATOM      8  C   UNL     1      -6.080 -45.487  17.563  1.00  0.00     0.041 C 
ATOM      9  O   UNL     1      -5.737 -45.235  18.748  1.00  0.00    -0.550 OA
ATOM     10  O   UNL     1      -6.932 -46.554  17.305  1.00  0.00    -0.550 OA
ENDBRANCH   7   8
ENDBRANCH   6   7
ENDBRANCH   5   6
ENDBRANCH   4   5
ENDBRANCH   3   4
ENDBRANCH   2   3
ENDBRANCH   1   2
BRANCH   1  11
ATOM     11  C   UNL     1      -1.575 -47.429  18.105  1.00  0.00     0.000 C 
BRANCH  11  12
ATOM     12  C   UNL     1      -2.360 -48.745  18.234  1.00  0.00    -0.000 C 
BRANCH  12  13
ATOM     13  C   UNL     1      -3.880 -48.534  18.170  1.00  0.00    -0.000 C 
BRANCH  13  14
ATOM     14  C   UNL     1      -4.455 -49.072  16.854  1.00  0.00    -0.000 C 
BRANCH  14  15
ATOM     15  C   UNL     1      -3.393 -49.856  16.069  1.00  0.00    -0.000 C 
BRANCH  15  16
ATOM     16  C   UNL     1      -3.385 -49.517  14.567  1.00  0.00    -0.000 C 
BRANCH  16  17
ATOM     17  C   UNL     1      -2.008 -49.132  13.999  1.00  0.00    -0.003 C 
ATOM     18  C   UNL     1      -0.866 -49.369  14.986  1.00  0.00     0.004 C 
ENDBRANCH  16  17
ENDBRANCH  15  16
ENDBRANCH  14  15
ENDBRANCH  13  14
ENDBRANCH  12  13
ENDBRANCH  11  12
ENDBRANCH   1  11
TORSDOF 14
ENDMDL
MODEL 9
REMARK VINA RESULT:    -4.298      1.603      4.619
REMARK INTER + INTRA:         -10.241
REMARK INTER:                  -7.322
REMARK INTRA:                  -2.919
REMARK UNBOUND:                -2.425
REMARK SMILES CCCCCCCCCCCCCCCC(=O)[O-]
REMARK SMILES IDX 9 1 10 2 11 3 12 4 13 5 14 6 15 7 16 8 17 9 18 10 8 11 7 12
REMARK SMILES IDX 6 13 5 14 4 15 3 16 2 17 1 18
REMARK H PARENT
REMARK Flexibility Score: inf
ROOT
ATOM      1  C   UNL     1      -3.640 -44.549  18.596  1.00  0.00     0.000 C 
ENDROOT
BRANCH   1   2
ATOM      2  C   UNL     1      -2.360 -45.391  18.476  1.00  0.00     0.000 C 
BRANCH   2   3
ATOM      3  C   UNL     1      -1.774 -45.374  17.053  1.00  0.00     0.000 C 
BRANCH   3   4
ATOM      4  C   UNL     1      -2.770 -44.847  16.007  1.00  0.00     0.000 C 
BRANCH   4   5
ATOM      5  C   UNL     1      -3.378 -45.972  15.152  1.00  0.00     0.000 C 
BRANCH   5   6
ATOM      6  C   UNL     1      -4.901 -45.824  14.972  1.00  0.00     0.006 C 
BRANCH   6   7
ATOM      7  C   UNL     1      -5.460 -44.454  15.385  1.00  0.00     0.053 C 
BRANCH   7   8
ATOM      8  C   UNL     1      -6.708 -44.579  16.204  1.00  0.00     0.041 C 
ATOM      9  O   UNL     1      -7.556 -45.470  15.936  1.00  0.00    -0.550 OA
ATOM     10  O   UNL     1      -6.949 -43.690  17.244  1.00  0.00    -0.550 OA
ENDBRANCH   7   8
ENDBRANCH   6   7
ENDBRANCH   5   6
ENDBRANCH   4   5
ENDBRANCH   3   4
ENDBRANCH   2   3
ENDBRANCH   1   2
BRANCH   1  11
ATOM     11  C   UNL     1      -4.691 -45.202  19.509  1.00  0.00     0.000 C 
BRANCH  11  12
ATOM     12  C   UNL     1      -4.644 -46.738  19.461  1.00  0.00    -0.000 C 
BRANCH  12  13
ATOM     13  C   UNL     1      -5.380 -47.313  18.241  1.00  0.00    -0.000 C 
BRANCH  13  14
ATOM     14  C   UNL     1      -4.688 -48.583  17.731  1.00  0.00    -0.000 C 
BRANCH  14  15
ATOM     15  C   UNL     1      -3.474 -48.936  18.602  1.00  0.00    -0.000 C 
BRANCH  15  16
ATOM     16  C   UNL     1      -2.156 -48.975  17.806  1.00  0.00    -0.000 C 
BRANCH  16  17
ATOM     17  C   UNL     1      -2.310 -49.336  16.318  1.00  0.00    -0.003 C 
ATOM     18  C   UNL     1      -1.089 -48.957  15.481  1.00  0.00     0.004 C 
ENDBRANCH  16  17
ENDBRANCH  15  16
ENDBRANCH  14  15
ENDBRANCH  13  14
ENDBRANCH  12  13
ENDBRANCH  11  12
ENDBRANCH   1  11
TORSDOF 14
ENDMDL
