MODEL 1
REMARK VINA RESULT:    -5.782      0.000      0.000
REMARK INTER + INTRA:          -7.931
REMARK INTER:                  -8.148
REMARK INTRA:                   0.218
REMARK UNBOUND:                 0.218
REMARK SMILES CC1=CCC(=C(C)C)C(=O)CC(C)=CCC1
REMARK SMILES IDX 12 1 14 2 13 3 15 4 16 5 2 6 1 7 3 8 11 10 9 11 10 12 5 13
REMARK SMILES IDX 6 14 7 15 8 16 4 17
REMARK H PARENT
REMARK Flexibility Score: 60.00
ROOT
ATOM      1  C   UNL     1      27.170  57.992 142.163  1.00  0.00    -0.070 C 
ATOM      2  C   UNL     1      26.365  56.940 141.901  1.00  0.00    -0.027 C 
ATOM      3  C   UNL     1      28.165  57.855 143.289  1.00  0.00     0.039 C 
ENDROOT
BRANCH   2   4
ATOM      4  C   UNL     1      25.244  56.918 140.883  1.00  0.00     0.032 C 
BRANCH   4   5
ATOM      5  C   UNL     1      25.691  57.141 139.423  1.00  0.00     0.034 C 
BRANCH   5   6
ATOM      6  C   UNL     1      26.902  56.311 139.036  1.00  0.00    -0.077 C 
ATOM      7  C   UNL     1      26.752  54.811 139.031  1.00  0.00     0.039 C 
ATOM      8  C   UNL     1      28.125  56.827 138.761  1.00  0.00    -0.023 CG0
ATOM      9  G   UNL     1      28.504  58.293 138.688  1.00  0.00     0.000 G0
ENDBRANCH   5   6
ENDBRANCH   4   5
ENDBRANCH   2   4
BRANCH   1  10
ATOM     10  C   UNL     1      27.059  59.323 141.450  1.00  0.00     0.111 C 
BRANCH  10  11
ATOM     11  C   UNL     1      28.365  59.726 140.818  1.00  0.00     0.163 C 
ATOM     12  O   UNL     1      28.763  60.912 140.980  1.00  0.00    -0.294 OA
BRANCH  11  13
ATOM     13  C   UNL     1      29.163  58.797 139.964  1.00  0.00    -0.002 C 
ATOM     14  C   UNL     1      30.452  58.479 140.291  1.00  0.00    -0.069 C 
ATOM     15  C   UNL     1      31.336  57.669 139.368  1.00  0.00     0.039 C 
ATOM     16  C   UNL     1      31.061  58.926 141.602  1.00  0.00     0.039 C 
BRANCH  13  17
ATOM     17  C   UNL     1      28.515  58.304 138.680  1.00  0.00     0.066 CG0
ATOM     18  G   UNL     1      28.128  56.840 138.754  1.00  0.00     0.000 G0
ENDBRANCH  13  17
ENDBRANCH  11  13
ENDBRANCH  10  11
ENDBRANCH   1  10
TORSDOF 0
ENDMDL
MODEL 2
REMARK VINA RESULT:    -5.748      2.097      3.655
REMARK INTER + INTRA:          -7.883
REMARK INTER:                  -8.827
REMARK INTRA:                   0.944
REMARK UNBOUND:                 0.218
REMARK SMILES CC1=CCC(=C(C)C)C(=O)CC(C)=CCC1
REMARK SMILES IDX 12 1 14 2 13 3 15 4 16 5 2 6 1 7 3 8 11 10 9 11 10 12 5 13
REMARK SMILES IDX 6 14 7 15 8 16 4 17
REMARK H PARENT
REMARK Flexibility Score: 60.00
ROOT
ATOM      1  C   UNL     1      25.033  56.287 139.923  1.00  0.00    -0.070 C 
ATOM      2  C   UNL     1      24.935  57.274 139.006  1.00  0.00    -0.027 C 
ATOM      3  C   UNL     1      24.027  55.164 139.861  1.00  0.00     0.039 C 
ENDROOT
BRANCH   2   4
ATOM      4  C   UNL     1      25.783  58.527 138.963  1.00  0.00     0.032 C 
BRANCH   4   5
ATOM      5  C   UNL     1      27.060  58.416 138.103  1.00  0.00     0.034 C 
BRANCH   5   6
ATOM      6  C   UNL     1      28.203  59.274 138.617  1.00  0.00    -0.077 C 
ATOM      7  C   UNL     1      28.184  60.743 138.280  1.00  0.00     0.039 C 
ATOM      8  C   UNL     1      29.270  58.793 139.300  1.00  0.00    -0.023 CG0
ATOM      9  G   UNL     1      29.493  57.368 139.764  1.00  0.00     0.000 G0
ENDBRANCH   5   6
ENDBRANCH   4   5
ENDBRANCH   2   4
BRANCH   1  10
ATOM     10  C   UNL     1      26.036  56.302 141.057  1.00  0.00     0.111 C 
BRANCH  10  11
ATOM     11  C   UNL     1      27.438  56.062 140.562  1.00  0.00     0.163 C 
ATOM     12  O   UNL     1      27.656  55.028 139.873  1.00  0.00    -0.294 OA
BRANCH  11  13
ATOM     13  C   UNL     1      28.576  56.965 140.907  1.00  0.00    -0.002 C 
ATOM     14  C   UNL     1      28.713  57.467 142.171  1.00  0.00    -0.069 C 
ATOM     15  C   UNL     1      29.760  58.504 142.512  1.00  0.00     0.039 C 
ATOM     16  C   UNL     1      27.816  57.005 143.299  1.00  0.00     0.039 C 
BRANCH  13  17
ATOM     17  C   UNL     1      29.509  57.371 139.776  1.00  0.00     0.066 CG0
ATOM     18  G   UNL     1      29.265  58.792 139.310  1.00  0.00     0.000 G0
ENDBRANCH  13  17
ENDBRANCH  11  13
ENDBRANCH  10  11
ENDBRANCH   1  10
TORSDOF 0
ENDMDL
MODEL 3
REMARK VINA RESULT:    -5.599      1.843      3.947
REMARK INTER + INTRA:          -7.673
REMARK INTER:                  -8.136
REMARK INTRA:                   0.463
REMARK UNBOUND:                 0.218
REMARK SMILES CC1=CCC(=C(C)C)C(=O)CC(C)=CCC1
REMARK SMILES IDX 12 1 14 2 13 3 15 4 16 5 2 6 1 7 3 8 11 10 9 11 10 12 5 13
REMARK SMILES IDX 6 14 7 15 8 16 4 17
REMARK H PARENT
REMARK Flexibility Score: 60.00
ROOT
ATOM      1  C   UNL     1      26.242  56.839 140.436  1.00  0.00    -0.070 C 
ATOM      2  C   UNL     1      26.378  57.328 141.689  1.00  0.00    -0.027 C 
ATOM      3  C   UNL     1      24.918  57.039 139.741  1.00  0.00     0.039 C 
ENDROOT
BRANCH   2   4
ATOM      4  C   UNL     1      27.587  57.145 142.582  1.00  0.00     0.032 C 
BRANCH   4   5
ATOM      5  C   UNL     1      28.588  58.319 142.565  1.00  0.00     0.034 C 
BRANCH   5   6
ATOM      6  C   UNL     1      28.009  59.589 141.967  1.00  0.00    -0.077 C 
ATOM      7  C   UNL     1      27.074  60.406 142.823  1.00  0.00     0.039 C 
ATOM      8  C   UNL     1      28.223  59.998 140.693  1.00  0.00    -0.023 CG0
ATOM      9  G   UNL     1      29.130  59.353 139.664  1.00  0.00     0.000 G0
ENDBRANCH   5   6
ENDBRANCH   4   5
ENDBRANCH   2   4
BRANCH   1  10
ATOM     10  C   UNL     1      27.313  56.026 139.740  1.00  0.00     0.111 C 
BRANCH  10  11
ATOM     11  C   UNL     1      28.534  56.855 139.442  1.00  0.00     0.163 C 
ATOM     12  O   UNL     1      29.664  56.373 139.728  1.00  0.00    -0.294 OA
BRANCH  11  13
ATOM     13  C   UNL     1      28.449  58.237 138.883  1.00  0.00    -0.002 C 
ATOM     14  C   UNL     1      27.846  58.469 137.678  1.00  0.00    -0.069 C 
ATOM     15  C   UNL     1      27.881  59.827 137.013  1.00  0.00     0.039 C 
ATOM     16  C   UNL     1      27.109  57.368 136.946  1.00  0.00     0.039 C 
BRANCH  13  17
ATOM     17  C   UNL     1      29.140  59.346 139.662  1.00  0.00     0.066 CG0
ATOM     18  G   UNL     1      28.221  59.998 140.675  1.00  0.00     0.000 G0
ENDBRANCH  13  17
ENDBRANCH  11  13
ENDBRANCH  10  11
ENDBRANCH   1  10
TORSDOF 0
ENDMDL
MODEL 4
REMARK VINA RESULT:    -5.494      1.980      3.633
REMARK INTER + INTRA:          -7.524
REMARK INTER:                  -7.741
REMARK INTRA:                   0.217
REMARK UNBOUND:                 0.218
REMARK SMILES CC1=CCC(=C(C)C)C(=O)CC(C)=CCC1
REMARK SMILES IDX 12 1 14 2 13 3 15 4 16 5 2 6 1 7 3 8 11 10 9 11 10 12 5 13
REMARK SMILES IDX 6 14 7 15 8 16 4 17
REMARK H PARENT
REMARK Flexibility Score: 60.00
ROOT
ATOM      1  C   UNL     1      27.518  59.453 137.736  1.00  0.00    -0.070 C 
ATOM      2  C   UNL     1      27.115  58.327 137.108  1.00  0.00    -0.027 C 
ATOM      3  C   UNL     1      28.463  60.372 137.000  1.00  0.00     0.039 C 
ENDROOT
BRANCH   2   4
ATOM      4  C   UNL     1      26.253  57.239 137.712  1.00  0.00     0.032 C 
BRANCH   4   5
ATOM      5  C   UNL     1      27.012  56.230 138.599  1.00  0.00     0.034 C 
BRANCH   5   6
ATOM      6  C   UNL     1      26.270  55.884 139.878  1.00  0.00    -0.077 C 
ATOM      7  C   UNL     1      24.979  55.114 139.754  1.00  0.00     0.039 C 
ATOM      8  C   UNL     1      26.656  56.278 141.116  1.00  0.00    -0.023 CG0
ATOM      9  G   UNL     1      27.916  57.037 141.483  1.00  0.00     0.000 G0
ENDBRANCH   5   6
ENDBRANCH   4   5
ENDBRANCH   2   4
BRANCH   1  10
ATOM     10  C   UNL     1      27.145  59.788 139.165  1.00  0.00     0.111 C 
BRANCH  10  11
ATOM     11  C   UNL     1      28.147  59.234 140.144  1.00  0.00     0.163 C 
ATOM     12  O   UNL     1      29.370  59.307 139.847  1.00  0.00    -0.294 OA
BRANCH  11  13
ATOM     13  C   UNL     1      27.740  58.554 141.410  1.00  0.00    -0.002 C 
ATOM     14  C   UNL     1      27.304  59.278 142.484  1.00  0.00    -0.069 C 
ATOM     15  C   UNL     1      27.035  58.636 143.827  1.00  0.00     0.039 C 
ATOM     16  C   UNL     1      27.068  60.770 142.380  1.00  0.00     0.039 C 
BRANCH  13  17
ATOM     17  C   UNL     1      27.922  57.046 141.478  1.00  0.00     0.066 CG0
ATOM     18  G   UNL     1      26.655  56.295 141.117  1.00  0.00     0.000 G0
ENDBRANCH  13  17
ENDBRANCH  11  13
ENDBRANCH  10  11
ENDBRANCH   1  10
TORSDOF 0
ENDMDL
MODEL 5
REMARK VINA RESULT:    -5.460      1.659      3.452
REMARK INTER + INTRA:          -7.478
REMARK INTER:                  -8.063
REMARK INTRA:                   0.586
REMARK UNBOUND:                 0.218
REMARK SMILES CC1=CCC(=C(C)C)C(=O)CC(C)=CCC1
REMARK SMILES IDX 12 1 14 2 13 3 15 4 16 5 2 6 1 7 3 8 11 10 9 11 10 12 5 13
REMARK SMILES IDX 6 14 7 15 8 16 4 17
REMARK H PARENT
REMARK Flexibility Score: 60.00
ROOT
ATOM      1  C   UNL     1      27.778  60.176 140.663  1.00  0.00    -0.070 C 
ATOM      2  C   UNL     1      27.644  59.551 141.854  1.00  0.00    -0.027 C 
ATOM      3  C   UNL     1      26.566  60.868 140.090  1.00  0.00     0.039 C 
ENDROOT
BRANCH   2   4
ATOM      4  C   UNL     1      28.709  58.724 142.541  1.00  0.00     0.032 C 
BRANCH   4   5
ATOM      5  C   UNL     1      28.507  57.197 142.445  1.00  0.00     0.034 C 
BRANCH   5   6
ATOM      6  C   UNL     1      27.198  56.810 141.779  1.00  0.00    -0.077 C 
ATOM      7  C   UNL     1      25.964  56.742 142.643  1.00  0.00     0.039 C 
ATOM      8  C   UNL     1      27.080  56.456 140.476  1.00  0.00    -0.023 CG0
ATOM      9  G   UNL     1      28.169  56.468 139.422  1.00  0.00     0.000 G0
ENDBRANCH   5   6
ENDBRANCH   4   5
ENDBRANCH   2   4
BRANCH   1  10
ATOM     10  C   UNL     1      29.048  60.135 139.840  1.00  0.00     0.111 C 
BRANCH  10  11
ATOM     11  C   UNL     1      29.389  58.732 139.413  1.00  0.00     0.163 C 
ATOM     12  O   UNL     1      30.579  58.340 139.557  1.00  0.00    -0.294 OA
BRANCH  11  13
ATOM     13  C   UNL     1      28.391  57.823 138.776  1.00  0.00    -0.002 C 
ATOM     14  C   UNL     1      27.645  58.240 137.709  1.00  0.00    -0.069 C 
ATOM     15  C   UNL     1      26.519  57.403 137.142  1.00  0.00     0.039 C 
ATOM     16  C   UNL     1      27.912  59.570 137.039  1.00  0.00     0.039 C 
BRANCH  13  17
ATOM     17  C   UNL     1      28.178  56.462 139.422  1.00  0.00     0.066 CG0
ATOM     18  G   UNL     1      27.079  56.485 140.466  1.00  0.00     0.000 G0
ENDBRANCH  13  17
ENDBRANCH  11  13
ENDBRANCH  10  11
ENDBRANCH   1  10
TORSDOF 0
ENDMDL
MODEL 6
REMARK VINA RESULT:    -5.426      1.516      2.198
REMARK INTER + INTRA:          -7.429
REMARK INTER:                  -8.168
REMARK INTRA:                   0.739
REMARK UNBOUND:                 0.218
REMARK SMILES CC1=CCC(=C(C)C)C(=O)CC(C)=CCC1
REMARK SMILES IDX 12 1 14 2 13 3 15 4 16 5 2 6 1 7 3 8 11 10 9 11 10 12 5 13
REMARK SMILES IDX 6 14 7 15 8 16 4 17
REMARK H PARENT
REMARK Flexibility Score: 60.00
ROOT
ATOM      1  C   UNL     1      26.692  59.082 140.853  1.00  0.00    -0.070 C 
ATOM      2  C   UNL     1      25.979  59.024 139.707  1.00  0.00    -0.027 C 
ATOM      3  C   UNL     1      27.460  60.348 141.144  1.00  0.00     0.039 C 
ENDROOT
BRANCH   2   4
ATOM      4  C   UNL     1      25.227  57.814 139.194  1.00  0.00     0.032 C 
BRANCH   4   5
ATOM      5  C   UNL     1      26.117  56.708 138.591  1.00  0.00     0.034 C 
BRANCH   5   6
ATOM      6  C   UNL     1      27.419  57.236 138.014  1.00  0.00    -0.077 C 
ATOM      7  C   UNL     1      27.358  57.956 136.690  1.00  0.00     0.039 C 
ATOM      8  C   UNL     1      28.637  57.045 138.576  1.00  0.00    -0.023 CG0
ATOM      9  G   UNL     1      28.937  56.373 139.902  1.00  0.00     0.000 G0
ENDBRANCH   5   6
ENDBRANCH   4   5
ENDBRANCH   2   4
BRANCH   1  10
ATOM     10  C   UNL     1      26.833  57.912 141.805  1.00  0.00     0.111 C 
BRANCH  10  11
ATOM     11  C   UNL     1      28.278  57.599 142.091  1.00  0.00     0.163 C 
ATOM     12  O   UNL     1      28.653  57.576 143.295  1.00  0.00    -0.294 OA
BRANCH  11  13
ATOM     13  C   UNL     1      29.280  57.378 141.007  1.00  0.00    -0.002 C 
ATOM     14  C   UNL     1      30.428  58.119 140.954  1.00  0.00    -0.069 C 
ATOM     15  C   UNL     1      31.385  58.030 139.786  1.00  0.00     0.039 C 
ATOM     16  C   UNL     1      30.799  59.071 142.071  1.00  0.00     0.039 C 
BRANCH  13  17
ATOM     17  C   UNL     1      28.924  56.371 139.925  1.00  0.00     0.066 CG0
ATOM     18  G   UNL     1      28.633  57.034 138.593  1.00  0.00     0.000 G0
ENDBRANCH  13  17
ENDBRANCH  11  13
ENDBRANCH  10  11
ENDBRANCH   1  10
TORSDOF 0
ENDMDL
MODEL 7
REMARK VINA RESULT:    -5.332      2.335      4.137
REMARK INTER + INTRA:          -7.296
REMARK INTER:                  -8.049
REMARK INTRA:                   0.753
REMARK UNBOUND:                 0.218
REMARK SMILES CC1=CCC(=C(C)C)C(=O)CC(C)=CCC1
REMARK SMILES IDX 12 1 14 2 13 3 15 4 16 5 2 6 1 7 3 8 11 10 9 11 10 12 5 13
REMARK SMILES IDX 6 14 7 15 8 16 4 17
REMARK H PARENT
REMARK Flexibility Score: 60.00
ROOT
ATOM      1  C   UNL     1      27.599  56.729 140.923  1.00  0.00    -0.070 C 
ATOM      2  C   UNL     1      28.331  57.163 141.973  1.00  0.00    -0.027 C 
ATOM      3  C   UNL     1      28.311  55.958 139.839  1.00  0.00     0.039 C 
ENDROOT
BRANCH   2   4
ATOM      4  C   UNL     1      27.822  58.031 143.105  1.00  0.00     0.032 C 
BRANCH   4   5
ATOM      5  C   UNL     1      27.577  59.507 142.729  1.00  0.00     0.034 C 
BRANCH   5   6
ATOM      6  C   UNL     1      28.490  60.000 141.620  1.00  0.00    -0.077 C 
ATOM      7  C   UNL     1      29.932  60.270 141.966  1.00  0.00     0.039 C 
ATOM      8  C   UNL     1      28.078  60.277 140.359  1.00  0.00    -0.023 CG0
ATOM      9  G   UNL     1      26.692  60.068 139.782  1.00  0.00     0.000 G0
ENDBRANCH   5   6
ENDBRANCH   4   5
ENDBRANCH   2   4
BRANCH   1  10
ATOM     10  C   UNL     1      26.132  57.056 140.739  1.00  0.00     0.111 C 
BRANCH  10  11
ATOM     11  C   UNL     1      25.866  57.670 139.390  1.00  0.00     0.163 C 
ATOM     12  O   UNL     1      25.001  57.126 138.650  1.00  0.00    -0.294 OA
BRANCH  11  13
ATOM     13  C   UNL     1      26.626  58.850 138.881  1.00  0.00    -0.002 C 
ATOM     14  C   UNL     1      27.302  58.789 137.694  1.00  0.00    -0.069 C 
ATOM     15  C   UNL     1      28.207  59.908 137.229  1.00  0.00     0.039 C 
ATOM     16  C   UNL     1      27.176  57.587 136.782  1.00  0.00     0.039 C 
BRANCH  13  17
ATOM     17  C   UNL     1      26.691  60.075 139.780  1.00  0.00     0.066 CG0
ATOM     18  G   UNL     1      28.073  60.288 140.366  1.00  0.00     0.000 G0
ENDBRANCH  13  17
ENDBRANCH  11  13
ENDBRANCH  10  11
ENDBRANCH   1  10
TORSDOF 0
ENDMDL
MODEL 8
REMARK VINA RESULT:    -5.192      1.943      3.217
REMARK INTER + INTRA:          -7.099
REMARK INTER:                  -7.589
REMARK INTRA:                   0.491
REMARK UNBOUND:                 0.218
REMARK SMILES CC1=CCC(=C(C)C)C(=O)CC(C)=CCC1
REMARK SMILES IDX 12 1 14 2 13 3 15 4 16 5 2 6 1 7 3 8 11 10 9 11 10 12 5 13
REMARK SMILES IDX 6 14 7 15 8 16 4 17
REMARK H PARENT
REMARK Flexibility Score: 60.00
ROOT
ATOM      1  C   UNL     1      28.091  59.795 139.429  1.00  0.00    -0.070 C 
ATOM      2  C   UNL     1      27.134  59.381 138.569  1.00  0.00    -0.027 C 
ATOM      3  C   UNL     1      27.748  60.915 140.380  1.00  0.00     0.039 C 
ENDROOT
BRANCH   2   4
ATOM      4  C   UNL     1      27.314  58.345 137.480  1.00  0.00     0.032 C 
BRANCH   4   5
ATOM      5  C   UNL     1      26.856  56.921 137.859  1.00  0.00     0.034 C 
BRANCH   5   6
ATOM      6  C   UNL     1      25.989  56.885 139.105  1.00  0.00    -0.077 C 
ATOM      7  C   UNL     1      24.547  57.304 138.970  1.00  0.00     0.039 C 
ATOM      8  C   UNL     1      26.443  56.566 140.342  1.00  0.00    -0.023 CG0
ATOM      9  G   UNL     1      27.837  56.100 140.713  1.00  0.00     0.000 G0
ENDBRANCH   5   6
ENDBRANCH   4   5
ENDBRANCH   2   4
BRANCH   1  10
ATOM     10  C   UNL     1      29.507  59.257 139.419  1.00  0.00     0.111 C 
BRANCH  10  11
ATOM     11  C   UNL     1      29.554  57.810 139.832  1.00  0.00     0.163 C 
ATOM     12  O   UNL     1      30.243  57.016 139.133  1.00  0.00    -0.294 OA
BRANCH  11  13
ATOM     13  C   UNL     1      28.774  57.279 140.988  1.00  0.00    -0.002 C 
ATOM     14  C   UNL     1      28.966  57.773 142.248  1.00  0.00    -0.069 C 
ATOM     15  C   UNL     1      28.309  57.152 143.461  1.00  0.00     0.039 C 
ATOM     16  C   UNL     1      29.854  58.975 142.491  1.00  0.00     0.039 C 
BRANCH  13  17
ATOM     17  C   UNL     1      27.837  56.112 140.718  1.00  0.00     0.066 CG0
ATOM     18  G   UNL     1      26.442  56.568 140.339  1.00  0.00     0.000 G0
ENDBRANCH  13  17
ENDBRANCH  11  13
ENDBRANCH  10  11
ENDBRANCH   1  10
TORSDOF 0
ENDMDL
MODEL 9
REMARK VINA RESULT:    -5.119      2.014      4.722
REMARK INTER + INTRA:          -6.996
REMARK INTER:                  -7.433
REMARK INTRA:                   0.437
REMARK UNBOUND:                 0.218
REMARK SMILES CC1=CCC(=C(C)C)C(=O)CC(C)=CCC1
REMARK SMILES IDX 12 1 14 2 13 3 15 4 16 5 2 6 1 7 3 8 11 10 9 11 10 12 5 13
REMARK SMILES IDX 6 14 7 15 8 16 4 17
REMARK H PARENT
REMARK Flexibility Score: 60.00
ROOT
ATOM      1  C   UNL     1      27.591  59.623 138.251  1.00  0.00    -0.070 C 
ATOM      2  C   UNL     1      28.625  60.264 138.839  1.00  0.00    -0.027 C 
ATOM      3  C   UNL     1      27.523  59.630 136.744  1.00  0.00     0.039 C 
ENDROOT
BRANCH   2   4
ATOM      4  C   UNL     1      28.815  60.452 140.329  1.00  0.00     0.032 C 
BRANCH   4   5
ATOM      5  C   UNL     1      30.110  59.836 140.899  1.00  0.00     0.034 C 
BRANCH   5   6
ATOM      6  C   UNL     1      30.273  58.366 140.556  1.00  0.00    -0.077 C 
ATOM      7  C   UNL     1      31.483  57.963 139.750  1.00  0.00     0.039 C 
ATOM      8  C   UNL     1      29.370  57.404 140.867  1.00  0.00    -0.023 CG0
ATOM      9  G   UNL     1      28.102  57.569 141.680  1.00  0.00     0.000 G0
ENDBRANCH   5   6
ENDBRANCH   4   5
ENDBRANCH   2   4
BRANCH   1  10
ATOM     10  C   UNL     1      26.458  58.986 139.027  1.00  0.00     0.111 C 
BRANCH  10  11
ATOM     11  C   UNL     1      26.800  57.584 139.458  1.00  0.00     0.163 C 
ATOM     12  O   UNL     1      26.990  56.717 138.562  1.00  0.00    -0.294 OA
BRANCH  11  13
ATOM     13  C   UNL     1      26.858  57.178 140.893  1.00  0.00    -0.002 C 
ATOM     14  C   UNL     1      25.794  56.560 141.490  1.00  0.00    -0.069 C 
ATOM     15  C   UNL     1      25.762  56.279 142.976  1.00  0.00     0.039 C 
ATOM     16  C   UNL     1      24.588  56.126 140.686  1.00  0.00     0.039 C 
BRANCH  13  17
ATOM     17  C   UNL     1      28.104  57.564 141.675  1.00  0.00     0.066 CG0
ATOM     18  G   UNL     1      29.372  57.392 140.862  1.00  0.00     0.000 G0
ENDBRANCH  13  17
ENDBRANCH  11  13
ENDBRANCH  10  11
ENDBRANCH   1  10
TORSDOF 0
ENDMDL
