MODEL 1
REMARK VINA RESULT:    -3.516      0.000      0.000
REMARK INTER + INTRA:          -6.144
REMARK INTER:                  -5.365
REMARK INTRA:                  -0.778
REMARK UNBOUND:                -0.778
REMARK SMILES O=C([O-])CCCCCCCCC(=O)[O-]
REMARK SMILES IDX 7 1 6 2 5 3 4 4 2 5 1 6 3 7 8 8 9 9 10 10 11 11 12 12 13 13
REMARK SMILES IDX 14 14
REMARK H PARENT
REMARK Flexibility Score: inf
ROOT
ATOM      1  C   UNL     1      -8.385  -6.411   6.879  1.00  0.00     0.000 C 
ENDROOT
BRANCH   1   2
ATOM      2  C   UNL     1      -9.889  -6.133   6.737  1.00  0.00     0.000 C 
BRANCH   2   3
ATOM      3  C   UNL     1     -10.193  -4.666   6.380  1.00  0.00     0.006 C 
BRANCH   3   4
ATOM      4  C   UNL     1      -9.597  -3.641   7.358  1.00  0.00     0.053 C 
BRANCH   4   5
ATOM      5  C   UNL     1      -8.831  -2.567   6.649  1.00  0.00     0.041 C 
ATOM      6  O   UNL     1      -8.868  -2.487   5.393  1.00  0.00    -0.550 OA
ATOM      7  O   UNL     1      -8.051  -1.675   7.373  1.00  0.00    -0.550 OA
ENDBRANCH   4   5
ENDBRANCH   3   4
ENDBRANCH   2   3
ENDBRANCH   1   2
BRANCH   1   8
ATOM      8  C   UNL     1      -8.106  -7.315   8.085  1.00  0.00     0.000 C 
BRANCH   8   9
ATOM      9  C   UNL     1      -8.816  -6.794   9.341  1.00  0.00     0.000 C 
BRANCH   9  10
ATOM     10  C   UNL     1      -8.062  -5.601   9.945  1.00  0.00     0.006 C 
BRANCH  10  11
ATOM     11  C   UNL     1      -6.541  -5.809   9.934  1.00  0.00     0.053 C 
BRANCH  11  12
ATOM     12  C   UNL     1      -5.811  -4.554   9.565  1.00  0.00     0.041 C 
ATOM     13  O   UNL     1      -6.428  -3.459   9.495  1.00  0.00    -0.550 OA
ATOM     14  O   UNL     1      -4.455  -4.600   9.264  1.00  0.00    -0.550 OA
ENDBRANCH  11  12
ENDBRANCH  10  11
ENDBRANCH   9  10
ENDBRANCH   8   9
ENDBRANCH   1   8
TORSDOF 9
ENDMDL
MODEL 2
REMARK VINA RESULT:    -3.493      0.927      4.218
REMARK INTER + INTRA:          -6.109
REMARK INTER:                  -5.335
REMARK INTRA:                  -0.774
REMARK UNBOUND:                -0.778
REMARK SMILES O=C([O-])CCCCCCCCC(=O)[O-]
REMARK SMILES IDX 7 1 6 2 5 3 4 4 2 5 1 6 3 7 8 8 9 9 10 10 11 11 12 12 13 13
REMARK SMILES IDX 14 14
REMARK H PARENT
REMARK Flexibility Score: inf
ROOT
ATOM      1  C   UNL     1      -8.260  -6.913   6.532  1.00  0.00     0.000 C 
ENDROOT
BRANCH   1   2
ATOM      2  C   UNL     1      -7.239  -6.066   7.307  1.00  0.00     0.000 C 
BRANCH   2   3
ATOM      3  C   UNL     1      -7.597  -5.916   8.797  1.00  0.00     0.006 C 
BRANCH   3   4
ATOM      4  C   UNL     1      -6.392  -5.631   9.709  1.00  0.00     0.053 C 
BRANCH   4   5
ATOM      5  C   UNL     1      -5.839  -4.255   9.496  1.00  0.00     0.041 C 
ATOM      6  O   UNL     1      -4.596  -4.077   9.418  1.00  0.00    -0.550 OA
ATOM      7  O   UNL     1      -6.697  -3.166   9.418  1.00  0.00    -0.550 OA
ENDBRANCH   4   5
ENDBRANCH   3   4
ENDBRANCH   2   3
ENDBRANCH   1   2
BRANCH   1   8
ATOM      8  C   UNL     1      -9.682  -6.670   7.051  1.00  0.00     0.000 C 
BRANCH   8   9
ATOM      9  C   UNL     1     -10.592  -6.138   5.938  1.00  0.00     0.000 C 
BRANCH   9  10
ATOM     10  C   UNL     1     -10.361  -4.637   5.708  1.00  0.00     0.006 C 
BRANCH  10  11
ATOM     11  C   UNL     1     -10.058  -3.890   7.014  1.00  0.00     0.053 C 
BRANCH  11  12
ATOM     12  C   UNL     1      -9.145  -2.723   6.789  1.00  0.00     0.041 C 
ATOM     13  O   UNL     1      -8.164  -2.829   6.007  1.00  0.00    -0.550 OA
ATOM     14  O   UNL     1      -9.357  -1.530   7.469  1.00  0.00    -0.550 OA
ENDBRANCH  11  12
ENDBRANCH  10  11
ENDBRANCH   9  10
ENDBRANCH   8   9
ENDBRANCH   1   8
TORSDOF 9
ENDMDL
MODEL 3
REMARK VINA RESULT:    -3.358      2.057      3.757
REMARK INTER + INTRA:          -5.904
REMARK INTER:                  -5.165
REMARK INTRA:                  -0.739
REMARK UNBOUND:                -0.778
REMARK SMILES O=C([O-])CCCCCCCCC(=O)[O-]
REMARK SMILES IDX 7 1 6 2 5 3 4 4 2 5 1 6 3 7 8 8 9 9 10 10 11 11 12 12 13 13
REMARK SMILES IDX 14 14
REMARK H PARENT
REMARK Flexibility Score: inf
ROOT
ATOM      1  C   UNL     1      -7.937  -5.862   7.016  1.00  0.00     0.000 C 
ENDROOT
BRANCH   1   2
ATOM      2  C   UNL     1      -8.514  -7.142   6.392  1.00  0.00     0.000 C 
BRANCH   2   3
ATOM      3  C   UNL     1      -9.890  -7.520   6.969  1.00  0.00     0.006 C 
BRANCH   3   4
ATOM      4  C   UNL     1     -11.011  -7.610   5.921  1.00  0.00     0.053 C 
BRANCH   4   5
ATOM      5  C   UNL     1     -10.932  -6.501   4.917  1.00  0.00     0.041 C 
ATOM      6  O   UNL     1     -10.709  -6.758   3.705  1.00  0.00    -0.550 OA
ATOM      7  O   UNL     1     -11.070  -5.182   5.327  1.00  0.00    -0.550 OA
ENDBRANCH   4   5
ENDBRANCH   3   4
ENDBRANCH   2   3
ENDBRANCH   1   2
BRANCH   1   8
ATOM      8  C   UNL     1      -7.738  -6.029   8.527  1.00  0.00     0.000 C 
BRANCH   8   9
ATOM      9  C   UNL     1      -8.508  -4.957   9.307  1.00  0.00     0.000 C 
BRANCH   9  10
ATOM     10  C   UNL     1      -9.517  -4.235   8.402  1.00  0.00     0.006 C 
BRANCH  10  11
ATOM     11  C   UNL     1      -9.400  -2.708   8.503  1.00  0.00     0.053 C 
BRANCH  11  12
ATOM     12  C   UNL     1      -8.652  -2.129   7.342  1.00  0.00     0.041 C 
ATOM     13  O   UNL     1      -8.997  -2.407   6.163  1.00  0.00    -0.550 OA
ATOM     14  O   UNL     1      -7.551  -1.309   7.560  1.00  0.00    -0.550 OA
ENDBRANCH  11  12
ENDBRANCH  10  11
ENDBRANCH   9  10
ENDBRANCH   8   9
ENDBRANCH   1   8
TORSDOF 9
ENDMDL
MODEL 4
REMARK VINA RESULT:    -3.312     19.983     20.905
REMARK INTER + INTRA:          -5.833
REMARK INTER:                  -4.846
REMARK INTRA:                  -0.987
REMARK UNBOUND:                -0.778
REMARK SMILES O=C([O-])CCCCCCCCC(=O)[O-]
REMARK SMILES IDX 7 1 6 2 5 3 4 4 2 5 1 6 3 7 8 8 9 9 10 10 11 11 12 12 13 13
REMARK SMILES IDX 14 14
REMARK H PARENT
REMARK Flexibility Score: inf
ROOT
ATOM      1  C   UNL     1       4.609  -7.251  -8.380  1.00  0.00     0.000 C 
ENDROOT
BRANCH   1   2
ATOM      2  C   UNL     1       5.171  -6.103  -9.232  1.00  0.00     0.000 C 
BRANCH   2   3
ATOM      3  C   UNL     1       5.295  -4.783  -8.449  1.00  0.00     0.006 C 
BRANCH   3   4
ATOM      4  C   UNL     1       6.626  -4.619  -7.697  1.00  0.00     0.053 C 
BRANCH   4   5
ATOM      5  C   UNL     1       6.443  -4.678  -6.211  1.00  0.00     0.041 C 
ATOM      6  O   UNL     1       5.288  -4.622  -5.713  1.00  0.00    -0.550 OA
ATOM      7  O   UNL     1       7.550  -4.762  -5.377  1.00  0.00    -0.550 OA
ENDBRANCH   4   5
ENDBRANCH   3   4
ENDBRANCH   2   3
ENDBRANCH   1   2
BRANCH   1   8
ATOM      8  C   UNL     1       5.446  -8.523  -8.555  1.00  0.00     0.000 C 
BRANCH   8   9
ATOM      9  C   UNL     1       6.932  -8.188  -8.723  1.00  0.00     0.000 C 
BRANCH   9  10
ATOM     10  C   UNL     1       7.614  -8.011  -7.358  1.00  0.00     0.006 C 
BRANCH  10  11
ATOM     11  C   UNL     1       6.975  -8.885  -6.271  1.00  0.00     0.053 C 
BRANCH  11  12
ATOM     12  C   UNL     1       6.750  -8.121  -5.003  1.00  0.00     0.041 C 
ATOM     13  O   UNL     1       7.718  -7.857  -4.242  1.00  0.00    -0.550 OA
ATOM     14  O   UNL     1       5.466  -7.728  -4.643  1.00  0.00    -0.550 OA
ENDBRANCH  11  12
ENDBRANCH  10  11
ENDBRANCH   9  10
ENDBRANCH   8   9
ENDBRANCH   1   8
TORSDOF 9
ENDMDL
MODEL 5
REMARK VINA RESULT:    -3.271      2.213      3.736
REMARK INTER + INTRA:          -5.771
REMARK INTER:                  -4.826
REMARK INTRA:                  -0.944
REMARK UNBOUND:                -0.778
REMARK SMILES O=C([O-])CCCCCCCCC(=O)[O-]
REMARK SMILES IDX 7 1 6 2 5 3 4 4 2 5 1 6 3 7 8 8 9 9 10 10 11 11 12 12 13 13
REMARK SMILES IDX 14 14
REMARK H PARENT
REMARK Flexibility Score: inf
ROOT
ATOM      1  C   UNL     1     -10.753  -4.894   6.076  1.00  0.00     0.000 C 
ENDROOT
BRANCH   1   2
ATOM      2  C   UNL     1     -10.379  -6.281   5.531  1.00  0.00     0.000 C 
BRANCH   2   3
ATOM      3  C   UNL     1      -9.915  -7.251   6.634  1.00  0.00     0.006 C 
BRANCH   3   4
ATOM      4  C   UNL     1      -8.394  -7.463   6.687  1.00  0.00     0.053 C 
BRANCH   4   5
ATOM      5  C   UNL     1      -7.693  -6.333   7.377  1.00  0.00     0.041 C 
ATOM      6  O   UNL     1      -7.798  -6.189   8.623  1.00  0.00    -0.550 OA
ATOM      7  O   UNL     1      -6.951  -5.422   6.638  1.00  0.00    -0.550 OA
ENDBRANCH   4   5
ENDBRANCH   3   4
ENDBRANCH   2   3
ENDBRANCH   1   2
BRANCH   1   8
ATOM      8  C   UNL     1     -11.114  -4.968   7.564  1.00  0.00     0.000 C 
BRANCH   8   9
ATOM      9  C   UNL     1     -10.443  -3.836   8.351  1.00  0.00     0.000 C 
BRANCH   9  10
ATOM     10  C   UNL     1      -9.437  -3.076   7.474  1.00  0.00     0.006 C 
BRANCH  10  11
ATOM     11  C   UNL     1      -9.179  -1.653   7.987  1.00  0.00     0.053 C 
BRANCH  11  12
ATOM     12  C   UNL     1      -7.905  -1.567   8.771  1.00  0.00     0.041 C 
ATOM     13  O   UNL     1      -7.501  -0.456   9.204  1.00  0.00    -0.550 OA
ATOM     14  O   UNL     1      -7.145  -2.709   8.994  1.00  0.00    -0.550 OA
ENDBRANCH  11  12
ENDBRANCH  10  11
ENDBRANCH   9  10
ENDBRANCH   8   9
ENDBRANCH   1   8
TORSDOF 9
ENDMDL
MODEL 6
REMARK VINA RESULT:    -3.163     20.344     21.600
REMARK INTER + INTRA:          -5.605
REMARK INTER:                  -4.628
REMARK INTRA:                  -0.976
REMARK UNBOUND:                -0.778
REMARK SMILES O=C([O-])CCCCCCCCC(=O)[O-]
REMARK SMILES IDX 7 1 6 2 5 3 4 4 2 5 1 6 3 7 8 8 9 9 10 10 11 11 12 12 13 13
REMARK SMILES IDX 14 14
REMARK H PARENT
REMARK Flexibility Score: inf
ROOT
ATOM      1  C   UNL     1       5.467  -6.906  -6.821  1.00  0.00     0.000 C 
ENDROOT
BRANCH   1   2
ATOM      2  C   UNL     1       5.398  -5.490  -6.230  1.00  0.00     0.000 C 
BRANCH   2   3
ATOM      3  C   UNL     1       6.726  -4.723  -6.362  1.00  0.00     0.006 C 
BRANCH   3   4
ATOM      4  C   UNL     1       7.960  -5.622  -6.533  1.00  0.00     0.053 C 
BRANCH   4   5
ATOM      5  C   UNL     1       8.618  -5.930  -5.222  1.00  0.00     0.041 C 
ATOM      6  O   UNL     1       9.075  -7.081  -4.998  1.00  0.00    -0.550 OA
ATOM      7  O   UNL     1       8.694  -4.954  -4.237  1.00  0.00    -0.550 OA
ENDBRANCH   4   5
ENDBRANCH   3   4
ENDBRANCH   2   3
ENDBRANCH   1   2
BRANCH   1   8
ATOM      8  C   UNL     1       4.772  -6.965  -8.186  1.00  0.00     0.000 C 
BRANCH   8   9
ATOM      9  C   UNL     1       5.792  -6.884  -9.328  1.00  0.00     0.000 C 
BRANCH   9  10
ATOM     10  C   UNL     1       5.624  -5.582 -10.125  1.00  0.00     0.006 C 
BRANCH  10  11
ATOM     11  C   UNL     1       4.323  -4.848  -9.771  1.00  0.00     0.053 C 
BRANCH  11  12
ATOM     12  C   UNL     1       4.576  -3.424  -9.382  1.00  0.00     0.041 C 
ATOM     13  O   UNL     1       5.673  -2.875  -9.665  1.00  0.00    -0.550 OA
ATOM     14  O   UNL     1       3.613  -2.712  -8.677  1.00  0.00    -0.550 OA
ENDBRANCH  11  12
ENDBRANCH  10  11
ENDBRANCH   9  10
ENDBRANCH   8   9
ENDBRANCH   1   8
TORSDOF 9
ENDMDL
MODEL 7
REMARK VINA RESULT:    -3.139     20.509     21.377
REMARK INTER + INTRA:          -5.568
REMARK INTER:                  -4.813
REMARK INTRA:                  -0.755
REMARK UNBOUND:                -0.778
REMARK SMILES O=C([O-])CCCCCCCCC(=O)[O-]
REMARK SMILES IDX 7 1 6 2 5 3 4 4 2 5 1 6 3 7 8 8 9 9 10 10 11 11 12 12 13 13
REMARK SMILES IDX 14 14
REMARK H PARENT
REMARK Flexibility Score: inf
ROOT
ATOM      1  C   UNL     1       7.244  -4.364  -8.049  1.00  0.00     0.000 C 
ENDROOT
BRANCH   1   2
ATOM      2  C   UNL     1       7.574  -3.508  -9.281  1.00  0.00     0.000 C 
BRANCH   2   3
ATOM      3  C   UNL     1       6.330  -3.173 -10.125  1.00  0.00     0.006 C 
BRANCH   3   4
ATOM      4  C   UNL     1       4.996  -3.355  -9.383  1.00  0.00     0.053 C 
BRANCH   4   5
ATOM      5  C   UNL     1       4.163  -2.110  -9.413  1.00  0.00     0.041 C 
ATOM      6  O   UNL     1       4.512  -1.131 -10.122  1.00  0.00    -0.550 OA
ATOM      7  O   UNL     1       3.019  -2.021  -8.630  1.00  0.00    -0.550 OA
ENDBRANCH   4   5
ENDBRANCH   3   4
ENDBRANCH   2   3
ENDBRANCH   1   2
BRANCH   1   8
ATOM      8  C   UNL     1       8.198  -5.559  -7.940  1.00  0.00     0.000 C 
BRANCH   8   9
ATOM      9  C   UNL     1       7.425  -6.861  -7.696  1.00  0.00     0.000 C 
BRANCH   9  10
ATOM     10  C   UNL     1       6.011  -6.782  -8.290  1.00  0.00     0.006 C 
BRANCH  10  11
ATOM     11  C   UNL     1       4.938  -7.256  -7.300  1.00  0.00     0.053 C 
BRANCH  11  12
ATOM     12  C   UNL     1       5.185  -6.730  -5.919  1.00  0.00     0.041 C 
ATOM     13  O   UNL     1       5.546  -7.510  -4.999  1.00  0.00    -0.550 OA
ATOM     14  O   UNL     1       4.981  -5.384  -5.639  1.00  0.00    -0.550 OA
ENDBRANCH  11  12
ENDBRANCH  10  11
ENDBRANCH   9  10
ENDBRANCH   8   9
ENDBRANCH   1   8
TORSDOF 9
ENDMDL
MODEL 8
REMARK VINA RESULT:    -3.125      1.396      4.430
REMARK INTER + INTRA:          -5.548
REMARK INTER:                  -4.868
REMARK INTRA:                  -0.680
REMARK UNBOUND:                -0.778
REMARK SMILES O=C([O-])CCCCCCCCC(=O)[O-]
REMARK SMILES IDX 7 1 6 2 5 3 4 4 2 5 1 6 3 7 8 8 9 9 10 10 11 11 12 12 13 13
REMARK SMILES IDX 14 14
REMARK H PARENT
REMARK Flexibility Score: inf
ROOT
ATOM      1  C   UNL     1      -9.541  -6.376   9.460  1.00  0.00     0.000 C 
ENDROOT
BRANCH   1   2
ATOM      2  C   UNL     1      -8.389  -6.534   8.456  1.00  0.00     0.000 C 
BRANCH   2   3
ATOM      3  C   UNL     1      -7.278  -5.485   8.651  1.00  0.00     0.006 C 
BRANCH   3   4
ATOM      4  C   UNL     1      -6.416  -5.705   9.905  1.00  0.00     0.053 C 
BRANCH   4   5
ATOM      5  C   UNL     1      -5.052  -5.104   9.760  1.00  0.00     0.041 C 
ATOM      6  O   UNL     1      -4.918  -3.938   9.305  1.00  0.00    -0.550 OA
ATOM      7  O   UNL     1      -3.927  -5.845  10.097  1.00  0.00    -0.550 OA
ENDBRANCH   4   5
ENDBRANCH   3   4
ENDBRANCH   2   3
ENDBRANCH   1   2
BRANCH   1   8
ATOM      8  C   UNL     1      -9.904  -4.899   9.651  1.00  0.00     0.000 C 
BRANCH   8   9
ATOM      9  C   UNL     1     -10.971  -4.459   8.642  1.00  0.00     0.000 C 
BRANCH   9  10
ATOM     10  C   UNL     1     -10.839  -2.964   8.318  1.00  0.00     0.006 C 
BRANCH  10  11
ATOM     11  C   UNL     1      -9.466  -2.403   8.714  1.00  0.00     0.053 C 
BRANCH  11  12
ATOM     12  C   UNL     1      -8.674  -1.974   7.517  1.00  0.00     0.041 C 
ATOM     13  O   UNL     1      -9.075  -2.257   6.357  1.00  0.00    -0.550 OA
ATOM     14  O   UNL     1      -7.474  -1.292   7.682  1.00  0.00    -0.550 OA
ENDBRANCH  11  12
ENDBRANCH  10  11
ENDBRANCH   9  10
ENDBRANCH   8   9
ENDBRANCH   1   8
TORSDOF 9
ENDMDL
MODEL 9
REMARK VINA RESULT:    -3.113     13.115     15.256
REMARK INTER + INTRA:          -5.529
REMARK INTER:                  -4.700
REMARK INTRA:                  -0.830
REMARK UNBOUND:                -0.778
REMARK SMILES O=C([O-])CCCCCCCCC(=O)[O-]
REMARK SMILES IDX 7 1 6 2 5 3 4 4 2 5 1 6 3 7 8 8 9 9 10 10 11 11 12 12 13 13
REMARK SMILES IDX 14 14
REMARK H PARENT
REMARK Flexibility Score: inf
ROOT
ATOM      1  C   UNL     1       6.654  -6.841   4.579  1.00  0.00     0.000 C 
ENDROOT
BRANCH   1   2
ATOM      2  C   UNL     1       7.893  -6.333   5.332  1.00  0.00     0.000 C 
BRANCH   2   3
ATOM      3  C   UNL     1       8.187  -7.140   6.610  1.00  0.00     0.006 C 
BRANCH   3   4
ATOM      4  C   UNL     1       6.933  -7.652   7.336  1.00  0.00     0.053 C 
BRANCH   4   5
ATOM      5  C   UNL     1       6.610  -6.831   8.547  1.00  0.00     0.041 C 
ATOM      6  O   UNL     1       7.513  -6.174   9.126  1.00  0.00    -0.550 OA
ATOM      7  O   UNL     1       5.317  -6.821   9.054  1.00  0.00    -0.550 OA
ENDBRANCH   4   5
ENDBRANCH   3   4
ENDBRANCH   2   3
ENDBRANCH   1   2
BRANCH   1   8
ATOM      8  C   UNL     1       7.044  -7.880   3.522  1.00  0.00     0.000 C 
BRANCH   8   9
ATOM      9  C   UNL     1       6.058  -9.055   3.513  1.00  0.00     0.000 C 
BRANCH   9  10
ATOM     10  C   UNL     1       4.872  -8.785   4.452  1.00  0.00     0.006 C 
BRANCH  10  11
ATOM     11  C   UNL     1       3.526  -8.834   3.716  1.00  0.00     0.053 C 
BRANCH  11  12
ATOM     12  C   UNL     1       3.500  -7.904   2.541  1.00  0.00     0.041 C 
ATOM     13  O   UNL     1       3.634  -6.664   2.712  1.00  0.00    -0.550 OA
ATOM     14  O   UNL     1       3.293  -8.403   1.261  1.00  0.00    -0.550 OA
ENDBRANCH  11  12
ENDBRANCH  10  11
ENDBRANCH   9  10
ENDBRANCH   8   9
ENDBRANCH   1   8
TORSDOF 9
ENDMDL
