MODEL 1
REMARK VINA RESULT:    -2.098      0.000      0.000
REMARK INTER + INTRA:          -2.328
REMARK INTER:                  -2.588
REMARK INTRA:                   0.260
REMARK UNBOUND:                 0.260
REMARK SMILES C=C1[C@@H]2CC[C@H]3[C@H]2C(C)(C)CCC[C@@]13C
REMARK SMILES IDX 14 1 6 2 7 3 3 4 2 5 1 6 4 7 5 8 15 9 8 10 9 11 10 12 11 13
REMARK SMILES IDX 13 15 12 16
REMARK H PARENT
REMARK Flexibility Score: 80.00
ROOT
ATOM      1  C   UNL     1     168.342 173.871 138.483  1.00  0.00    -0.008 C 
ATOM      2  C   UNL     1     167.049 173.346 139.101  1.00  0.00     0.003 C 
ATOM      3  C   UNL     1     167.286 173.847 140.534  1.00  0.00     0.006 C 
ATOM      4  C   UNL     1     168.457 172.909 140.783  1.00  0.00     0.019 C 
ATOM      5  C   UNL     1     169.304 173.330 139.557  1.00  0.00    -0.068 C 
ATOM      6  C   UNL     1     170.638 173.299 139.489  1.00  0.00     0.009 C 
ATOM      7  C   UNL     1     167.885 171.534 140.479  1.00  0.00     0.008 C 
ATOM      8  C   UNL     1     166.970 171.810 139.286  1.00  0.00     0.005 C 
ATOM      9  C   UNL     1     168.625 173.291 137.084  1.00  0.00     0.016 C 
ENDROOT
BRANCH   3  10
ATOM     10  C   UNL     1     166.118 174.721 141.038  1.00  0.00    -0.032 C 
ATOM     11  C   UNL     1     164.739 174.042 140.858  1.00  0.00     0.011 C 
ATOM     12  C   UNL     1     166.296 174.998 142.552  1.00  0.00     0.011 C 
BRANCH  10  13
ATOM     13  C   UNL     1     166.189 176.096 140.216  1.00  0.00     0.007 CG0
ATOM     14  G   UNL     1     166.825 176.108 138.754  1.00  0.00     0.000 G0
ENDBRANCH  10  13
ENDBRANCH   3  10
BRANCH   1  15
ATOM     15  C   UNL     1     168.233 175.471 138.449  1.00  0.00     0.011 C 
BRANCH  15  16
ATOM     16  C   UNL     1     166.807 176.124 138.750  1.00  0.00     0.001 CG0
ATOM     17  G   UNL     1     166.182 176.084 140.216  1.00  0.00     0.000 G0
ENDBRANCH  15  16
ENDBRANCH   1  15
TORSDOF 0
ENDMDL
MODEL 2
REMARK VINA RESULT:    -2.072     14.876     17.003
REMARK INTER + INTRA:          -2.297
REMARK INTER:                  -2.568
REMARK INTRA:                   0.271
REMARK UNBOUND:                 0.260
REMARK SMILES C=C1[C@@H]2CC[C@H]3[C@H]2C(C)(C)CCC[C@@]13C
REMARK SMILES IDX 14 1 6 2 7 3 3 4 2 5 1 6 4 7 5 8 15 9 8 10 9 11 10 12 11 13
REMARK SMILES IDX 13 15 12 16
REMARK H PARENT
REMARK Flexibility Score: 80.00
ROOT
ATOM      1  C   UNL     1     163.593 158.198 138.455  1.00  0.00    -0.008 C 
ATOM      2  C   UNL     1     164.859 158.747 139.108  1.00  0.00     0.003 C 
ATOM      3  C   UNL     1     164.616 158.200 140.524  1.00  0.00     0.006 C 
ATOM      4  C   UNL     1     163.412 159.093 140.778  1.00  0.00     0.019 C 
ATOM      5  C   UNL     1     162.598 158.679 139.528  1.00  0.00    -0.068 C 
ATOM      6  C   UNL     1     161.265 158.670 139.439  1.00  0.00     0.009 C 
ATOM      7  C   UNL     1     163.944 160.494 140.520  1.00  0.00     0.008 C 
ATOM      8  C   UNL     1     164.886 160.279 139.336  1.00  0.00     0.005 C 
ATOM      9  C   UNL     1     163.313 158.808 137.068  1.00  0.00     0.016 C 
ENDROOT
BRANCH   3  10
ATOM     10  C   UNL     1     165.804 157.349 141.023  1.00  0.00    -0.032 C 
ATOM     11  C   UNL     1     167.166 158.066 140.858  1.00  0.00     0.011 C 
ATOM     12  C   UNL     1     165.625 157.050 142.532  1.00  0.00     0.011 C 
BRANCH  10  13
ATOM     13  C   UNL     1     165.772 155.984 140.183  1.00  0.00     0.007 CG0
ATOM     14  G   UNL     1     165.199 155.985 138.696  1.00  0.00     0.000 G0
ENDBRANCH  10  13
ENDBRANCH   3  10
BRANCH   1  15
ATOM     15  C   UNL     1     163.754 156.604 138.380  1.00  0.00     0.011 C 
BRANCH  15  16
ATOM     16  C   UNL     1     165.194 155.988 138.689  1.00  0.00     0.001 CG0
ATOM     17  G   UNL     1     165.778 155.977 140.173  1.00  0.00     0.000 G0
ENDBRANCH  15  16
ENDBRANCH   1  15
TORSDOF 0
ENDMDL
MODEL 3
REMARK VINA RESULT:    -2.021      1.895      4.247
REMARK INTER + INTRA:          -2.234
REMARK INTER:                  -2.493
REMARK INTRA:                   0.259
REMARK UNBOUND:                 0.260
REMARK SMILES C=C1[C@@H]2CC[C@H]3[C@H]2C(C)(C)CCC[C@@]13C
REMARK SMILES IDX 14 1 6 2 7 3 3 4 2 5 1 6 4 7 5 8 15 9 8 10 9 11 10 12 11 13
REMARK SMILES IDX 13 15 12 16
REMARK H PARENT
REMARK Flexibility Score: 80.00
ROOT
ATOM      1  C   UNL     1     165.437 174.746 139.784  1.00  0.00    -0.008 C 
ATOM      2  C   UNL     1     166.499 174.683 138.689  1.00  0.00     0.003 C 
ATOM      3  C   UNL     1     167.533 173.840 139.453  1.00  0.00     0.006 C 
ATOM      4  C   UNL     1     167.829 174.930 140.470  1.00  0.00     0.019 C 
ATOM      5  C   UNL     1     166.371 175.160 140.937  1.00  0.00    -0.068 C 
ATOM      6  C   UNL     1     166.002 175.567 142.155  1.00  0.00     0.009 C 
ATOM      7  C   UNL     1     168.216 176.125 139.613  1.00  0.00     0.008 C 
ATOM      8  C   UNL     1     167.266 176.003 138.422  1.00  0.00     0.005 C 
ATOM      9  C   UNL     1     164.339 175.790 139.505  1.00  0.00     0.016 C 
ENDROOT
BRANCH   3  10
ATOM     10  C   UNL     1     167.932 172.572 138.667  1.00  0.00    -0.032 C 
ATOM     11  C   UNL     1     168.354 172.877 137.210  1.00  0.00     0.011 C 
ATOM     12  C   UNL     1     169.141 171.896 139.361  1.00  0.00     0.011 C 
BRANCH  10  13
ATOM     13  C   UNL     1     166.662 171.595 138.702  1.00  0.00     0.007 CG0
ATOM     14  G   UNL     1     165.195 172.211 138.811  1.00  0.00     0.000 G0
ENDBRANCH  10  13
ENDBRANCH   3  10
BRANCH   1  15
ATOM     15  C   UNL     1     164.827 173.270 139.935  1.00  0.00     0.011 C 
BRANCH  15  16
ATOM     16  C   UNL     1     165.189 172.199 138.807  1.00  0.00     0.001 CG0
ATOM     17  G   UNL     1     166.656 171.584 138.704  1.00  0.00     0.000 G0
ENDBRANCH  15  16
ENDBRANCH   1  15
TORSDOF 0
ENDMDL
MODEL 4
REMARK VINA RESULT:    -2.014      1.741      3.366
REMARK INTER + INTRA:          -2.225
REMARK INTER:                  -2.486
REMARK INTRA:                   0.261
REMARK UNBOUND:                 0.260
REMARK SMILES C=C1[C@@H]2CC[C@H]3[C@H]2C(C)(C)CCC[C@@]13C
REMARK SMILES IDX 14 1 6 2 7 3 3 4 2 5 1 6 4 7 5 8 15 9 8 10 9 11 10 12 11 13
REMARK SMILES IDX 13 15 12 16
REMARK H PARENT
REMARK Flexibility Score: 80.00
ROOT
ATOM      1  C   UNL     1     169.097 172.908 139.484  1.00  0.00    -0.008 C 
ATOM      2  C   UNL     1     168.448 174.147 140.095  1.00  0.00     0.003 C 
ATOM      3  C   UNL     1     167.027 173.924 139.552  1.00  0.00     0.006 C 
ATOM      4  C   UNL     1     167.429 174.149 138.104  1.00  0.00     0.019 C 
ATOM      5  C   UNL     1     168.561 173.094 138.052  1.00  0.00    -0.068 C 
ATOM      6  C   UNL     1     168.938 172.414 136.965  1.00  0.00     0.009 C 
ATOM      7  C   UNL     1     168.094 175.516 138.124  1.00  0.00     0.008 C 
ATOM      8  C   UNL     1     168.848 175.499 139.454  1.00  0.00     0.005 C 
ATOM      9  C   UNL     1     170.636 172.935 139.551  1.00  0.00     0.016 C 
ENDROOT
BRANCH   3  10
ATOM     10  C   UNL     1     165.975 173.916 140.683  1.00  0.00    -0.032 C 
ATOM     11  C   UNL     1     166.088 175.145 141.617  1.00  0.00     0.011 C 
ATOM     12  C   UNL     1     164.555 173.940 140.066  1.00  0.00     0.011 C 
BRANCH  10  13
ATOM     13  C   UNL     1     166.196 172.555 141.502  1.00  0.00     0.007 CG0
ATOM     14  G   UNL     1     167.648 171.901 141.568  1.00  0.00     0.000 G0
ENDBRANCH  10  13
ENDBRANCH   3  10
BRANCH   1  15
ATOM     15  C   UNL     1     168.493 171.633 140.248  1.00  0.00     0.011 C 
BRANCH  15  16
ATOM     16  C   UNL     1     167.649 171.897 141.577  1.00  0.00     0.001 CG0
ATOM     17  G   UNL     1     166.199 172.556 141.509  1.00  0.00     0.000 G0
ENDBRANCH  15  16
ENDBRANCH   1  15
TORSDOF 0
ENDMDL
MODEL 5
REMARK VINA RESULT:    -2.012     14.673     16.341
REMARK INTER + INTRA:          -2.222
REMARK INTER:                  -2.484
REMARK INTRA:                   0.262
REMARK UNBOUND:                 0.260
REMARK SMILES C=C1[C@@H]2CC[C@H]3[C@H]2C(C)(C)CCC[C@@]13C
REMARK SMILES IDX 14 1 6 2 7 3 3 4 2 5 1 6 4 7 5 8 15 9 8 10 9 11 10 12 11 13
REMARK SMILES IDX 13 15 12 16
REMARK H PARENT
REMARK Flexibility Score: 80.00
ROOT
ATOM      1  C   UNL     1     163.082 158.903 139.432  1.00  0.00    -0.008 C 
ATOM      2  C   UNL     1     163.656 157.702 140.181  1.00  0.00     0.003 C 
ATOM      3  C   UNL     1     165.129 157.896 139.785  1.00  0.00     0.006 C 
ATOM      4  C   UNL     1     164.886 157.588 138.317  1.00  0.00     0.019 C 
ATOM      5  C   UNL     1     163.771 158.636 138.081  1.00  0.00    -0.068 C 
ATOM      6  C   UNL     1     163.518 159.251 136.922  1.00  0.00     0.009 C 
ATOM      7  C   UNL     1     164.217 156.223 138.342  1.00  0.00     0.008 C 
ATOM      8  C   UNL     1     163.322 156.314 139.579  1.00  0.00     0.005 C 
ATOM      9  C   UNL     1     161.545 158.876 139.332  1.00  0.00     0.016 C 
ENDROOT
BRANCH   3  10
ATOM     10  C   UNL     1     166.050 157.972 141.022  1.00  0.00    -0.032 C 
ATOM     11  C   UNL     1     165.822 156.805 142.013  1.00  0.00     0.011 C 
ATOM     12  C   UNL     1     167.529 157.903 140.567  1.00  0.00     0.011 C 
BRANCH  10  13
ATOM     13  C   UNL     1     165.757 159.383 141.724  1.00  0.00     0.007 CG0
ATOM     14  G   UNL     1     164.304 160.031 141.615  1.00  0.00     0.000 G0
ENDBRANCH  10  13
ENDBRANCH   3  10
BRANCH   1  15
ATOM     15  C   UNL     1     163.605 160.220 140.183  1.00  0.00     0.011 C 
BRANCH  15  16
ATOM     16  C   UNL     1     164.299 160.036 141.609  1.00  0.00     0.001 CG0
ATOM     17  G   UNL     1     165.754 159.398 141.735  1.00  0.00     0.000 G0
ENDBRANCH  15  16
ENDBRANCH   1  15
TORSDOF 0
ENDMDL
MODEL 6
REMARK VINA RESULT:    -1.900     13.800     15.696
REMARK INTER + INTRA:          -2.084
REMARK INTER:                  -2.365
REMARK INTRA:                   0.282
REMARK UNBOUND:                 0.260
REMARK SMILES C=C1[C@@H]2CC[C@H]3[C@H]2C(C)(C)CCC[C@@]13C
REMARK SMILES IDX 14 1 6 2 7 3 3 4 2 5 1 6 4 7 5 8 15 9 8 10 9 11 10 12 11 13
REMARK SMILES IDX 13 15 12 16
REMARK H PARENT
REMARK Flexibility Score: 80.00
ROOT
ATOM      1  C   UNL     1     165.039 158.951 139.349  1.00  0.00    -0.008 C 
ATOM      2  C   UNL     1     163.986 158.600 138.300  1.00  0.00     0.003 C 
ATOM      3  C   UNL     1     162.758 158.620 139.224  1.00  0.00     0.006 C 
ATOM      4  C   UNL     1     163.201 157.400 140.016  1.00  0.00     0.019 C 
ATOM      5  C   UNL     1     164.602 157.925 140.412  1.00  0.00    -0.068 C 
ATOM      6  C   UNL     1     165.267 157.598 141.524  1.00  0.00     0.009 C 
ATOM      7  C   UNL     1     163.407 156.336 138.950  1.00  0.00     0.008 C 
ATOM      8  C   UNL     1     164.007 157.136 137.793  1.00  0.00     0.005 C 
ATOM      9  C   UNL     1     166.482 158.723 138.859  1.00  0.00     0.016 C 
ENDROOT
BRANCH   3  10
ATOM     10  C   UNL     1     161.663 159.576 138.703  1.00  0.00    -0.032 C 
ATOM     11  C   UNL     1     161.324 159.343 137.211  1.00  0.00     0.011 C 
ATOM     12  C   UNL     1     160.359 159.352 139.508  1.00  0.00     0.011 C 
BRANCH  10  13
ATOM     13  C   UNL     1     162.207 161.065 138.940  1.00  0.00     0.007 CG0
ATOM     14  G   UNL     1     163.774 161.352 138.876  1.00  0.00     0.000 G0
ENDBRANCH  10  13
ENDBRANCH   3  10
BRANCH   1  15
ATOM     15  C   UNL     1     164.791 160.477 139.773  1.00  0.00     0.011 C 
BRANCH  15  16
ATOM     16  C   UNL     1     163.781 161.339 138.886  1.00  0.00     0.001 CG0
ATOM     17  G   UNL     1     162.210 161.073 138.943  1.00  0.00     0.000 G0
ENDBRANCH  15  16
ENDBRANCH   1  15
TORSDOF 0
ENDMDL
MODEL 7
REMARK VINA RESULT:    -1.890     13.866     15.832
REMARK INTER + INTRA:          -2.072
REMARK INTER:                  -2.342
REMARK INTRA:                   0.270
REMARK UNBOUND:                 0.260
REMARK SMILES C=C1[C@@H]2CC[C@H]3[C@H]2C(C)(C)CCC[C@@]13C
REMARK SMILES IDX 14 1 6 2 7 3 3 4 2 5 1 6 4 7 5 8 15 9 8 10 9 11 10 12 11 13
REMARK SMILES IDX 13 15 12 16
REMARK H PARENT
REMARK Flexibility Score: 80.00
ROOT
ATOM      1  C   UNL     1     164.092 157.300 139.137  1.00  0.00    -0.008 C 
ATOM      2  C   UNL     1     163.669 158.525 139.945  1.00  0.00     0.003 C 
ATOM      3  C   UNL     1     164.786 159.474 139.482  1.00  0.00     0.006 C 
ATOM      4  C   UNL     1     165.888 158.688 140.175  1.00  0.00     0.019 C 
ATOM      5  C   UNL     1     165.582 157.315 139.528  1.00  0.00    -0.068 C 
ATOM      6  C   UNL     1     166.479 156.356 139.284  1.00  0.00     0.009 C 
ATOM      7  C   UNL     1     165.422 158.615 141.620  1.00  0.00     0.008 C 
ATOM      8  C   UNL     1     163.910 158.437 141.473  1.00  0.00     0.005 C 
ATOM      9  C   UNL     1     163.375 156.009 139.575  1.00  0.00     0.016 C 
ENDROOT
BRANCH   3  10
ATOM     10  C   UNL     1     164.219 160.782 138.889  1.00  0.00    -0.032 C 
ATOM     11  C   UNL     1     163.180 161.460 139.815  1.00  0.00     0.011 C 
ATOM     12  C   UNL     1     165.372 161.795 138.679  1.00  0.00     0.011 C 
BRANCH  10  13
ATOM     13  C   UNL     1     163.562 160.397 137.479  1.00  0.00     0.007 CG0
ATOM     14  G   UNL     1     162.958 158.938 137.262  1.00  0.00     0.000 G0
ENDBRANCH  10  13
ENDBRANCH   3  10
BRANCH   1  15
ATOM     15  C   UNL     1     163.817 157.636 137.593  1.00  0.00     0.011 C 
BRANCH  15  16
ATOM     16  C   UNL     1     162.953 158.937 137.259  1.00  0.00     0.001 CG0
ATOM     17  G   UNL     1     163.561 160.397 137.458  1.00  0.00     0.000 G0
ENDBRANCH  15  16
ENDBRANCH   1  15
TORSDOF 0
ENDMDL
MODEL 8
REMARK VINA RESULT:    -1.833     14.422     16.536
REMARK INTER + INTRA:          -2.002
REMARK INTER:                  -2.272
REMARK INTRA:                   0.271
REMARK UNBOUND:                 0.260
REMARK SMILES C=C1[C@@H]2CC[C@H]3[C@H]2C(C)(C)CCC[C@@]13C
REMARK SMILES IDX 14 1 6 2 7 3 3 4 2 5 1 6 4 7 5 8 15 9 8 10 9 11 10 12 11 13
REMARK SMILES IDX 13 15 12 16
REMARK H PARENT
REMARK Flexibility Score: 80.00
ROOT
ATOM      1  C   UNL     1     164.689 159.401 138.402  1.00  0.00    -0.008 C 
ATOM      2  C   UNL     1     166.027 158.704 138.634  1.00  0.00     0.003 C 
ATOM      3  C   UNL     1     165.722 158.129 140.026  1.00  0.00     0.006 C 
ATOM      4  C   UNL     1     165.668 159.493 140.695  1.00  0.00     0.019 C 
ATOM      5  C   UNL     1     164.609 160.125 139.759  1.00  0.00    -0.068 C 
ATOM      6  C   UNL     1     163.735 161.073 140.106  1.00  0.00     0.009 C 
ATOM      7  C   UNL     1     167.007 160.120 140.343  1.00  0.00     0.008 C 
ATOM      8  C   UNL     1     167.231 159.640 138.908  1.00  0.00     0.005 C 
ATOM      9  C   UNL     1     164.711 160.375 137.208  1.00  0.00     0.016 C 
ENDROOT
BRANCH   3  10
ATOM     10  C   UNL     1     165.937 156.601 140.076  1.00  0.00    -0.032 C 
ATOM     11  C   UNL     1     167.312 156.169 139.510  1.00  0.00     0.011 C 
ATOM     12  C   UNL     1     165.877 156.120 141.547  1.00  0.00     0.011 C 
BRANCH  10  13
ATOM     13  C   UNL     1     164.741 155.945 139.233  1.00  0.00     0.007 CG0
ATOM     14  G   UNL     1     164.104 156.746 138.011  1.00  0.00     0.000 G0
ENDBRANCH  10  13
ENDBRANCH   3  10
BRANCH   1  15
ATOM     15  C   UNL     1     163.586 158.252 138.208  1.00  0.00     0.011 C 
BRANCH  15  16
ATOM     16  C   UNL     1     164.103 156.754 138.011  1.00  0.00     0.001 CG0
ATOM     17  G   UNL     1     164.726 155.936 139.229  1.00  0.00     0.000 G0
ENDBRANCH  15  16
ENDBRANCH   1  15
TORSDOF 0
ENDMDL
MODEL 9
REMARK VINA RESULT:    -1.798      1.360      3.858
REMARK INTER + INTRA:          -1.959
REMARK INTER:                  -2.231
REMARK INTRA:                   0.272
REMARK UNBOUND:                 0.260
REMARK SMILES C=C1[C@@H]2CC[C@H]3[C@H]2C(C)(C)CCC[C@@]13C
REMARK SMILES IDX 14 1 6 2 7 3 3 4 2 5 1 6 4 7 5 8 15 9 8 10 9 11 10 12 11 13
REMARK SMILES IDX 13 15 12 16
REMARK H PARENT
REMARK Flexibility Score: 80.00
ROOT
ATOM      1  C   UNL     1     166.614 174.516 140.473  1.00  0.00    -0.008 C 
ATOM      2  C   UNL     1     167.986 173.868 140.642  1.00  0.00     0.003 C 
ATOM      3  C   UNL     1     167.789 172.706 139.656  1.00  0.00     0.006 C 
ATOM      4  C   UNL     1     166.729 172.023 140.505  1.00  0.00     0.019 C 
ATOM      5  C   UNL     1     165.773 173.234 140.632  1.00  0.00    -0.068 C 
ATOM      6  C   UNL     1     164.447 173.164 140.772  1.00  0.00     0.009 C 
ATOM      7  C   UNL     1     167.408 171.847 141.853  1.00  0.00     0.008 C 
ATOM      8  C   UNL     1     168.220 173.136 141.987  1.00  0.00     0.005 C 
ATOM      9  C   UNL     1     166.303 175.568 141.555  1.00  0.00     0.016 C 
ENDROOT
BRANCH   3  10
ATOM     10  C   UNL     1     168.898 172.670 138.582  1.00  0.00    -0.032 C 
ATOM     11  C   UNL     1     170.321 172.752 139.186  1.00  0.00     0.011 C 
ATOM     12  C   UNL     1     168.811 171.339 137.796  1.00  0.00     0.011 C 
BRANCH  10  13
ATOM     13  C   UNL     1     168.623 173.908 137.600  1.00  0.00     0.007 CG0
ATOM     14  G   UNL     1     167.955 175.237 138.174  1.00  0.00     0.000 G0
ENDBRANCH  10  13
ENDBRANCH   3  10
BRANCH   1  15
ATOM     15  C   UNL     1     166.569 175.148 139.000  1.00  0.00     0.011 C 
BRANCH  15  16
ATOM     16  C   UNL     1     167.941 175.233 138.187  1.00  0.00     0.001 CG0
ATOM     17  G   UNL     1     168.627 173.920 137.601  1.00  0.00     0.000 G0
ENDBRANCH  15  16
ENDBRANCH   1  15
TORSDOF 0
ENDMDL
