MODEL 1
REMARK VINA RESULT:    -4.119      0.000      0.000
REMARK INTER + INTRA:          -6.301
REMARK INTER:                  -5.564
REMARK INTRA:                  -0.737
REMARK UNBOUND:                -0.737
REMARK SMILES CCCCCCC=CC(=O)[O-]
REMARK SMILES IDX 5 1 6 2 7 3 8 4 9 5 10 6 11 7 4 8 3 9 2 10 1 11
REMARK H PARENT
REMARK Flexibility Score: inf
ROOT
ATOM      1  C   UNL     1      22.200  23.836  22.877  1.00  0.00     0.004 C 
ENDROOT
BRANCH   1   2
ATOM      2  C   UNL     1      21.898  24.102  24.357  1.00  0.00     0.027 C 
BRANCH   2   3
ATOM      3  C   UNL     1      21.172  25.405  24.538  1.00  0.00    -0.025 C 
ATOM      4  C   UNL     1      19.840  25.454  24.646  1.00  0.00     0.020 C 
BRANCH   4   5
ATOM      5  C   UNL     1      19.110  26.717  24.837  1.00  0.00     0.064 C 
ATOM      6  O   UNL     1      18.156  27.039  24.079  1.00  0.00    -0.545 OA
ATOM      7  O   UNL     1      19.478  27.569  25.870  1.00  0.00    -0.545 OA
ENDBRANCH   4   5
ENDBRANCH   2   3
ENDBRANCH   1   2
BRANCH   1   8
ATOM      8  C   UNL     1      22.684  25.111  22.176  1.00  0.00     0.000 C 
BRANCH   8   9
ATOM      9  C   UNL     1      21.979  25.296  20.823  1.00  0.00    -0.000 C 
BRANCH   9  10
ATOM     10  C   UNL     1      20.568  25.886  20.968  1.00  0.00    -0.003 C 
ATOM     11  C   UNL     1      20.583  27.371  21.327  1.00  0.00     0.004 C 
ENDBRANCH   9  10
ENDBRANCH   8   9
ENDBRANCH   1   8
TORSDOF 6
ENDMDL
MODEL 2
REMARK VINA RESULT:    -3.879      1.131      1.578
REMARK INTER + INTRA:          -5.977
REMARK INTER:                  -5.300
REMARK INTRA:                  -0.677
REMARK UNBOUND:                -0.737
REMARK SMILES CCCCCCC=CC(=O)[O-]
REMARK SMILES IDX 5 1 6 2 7 3 8 4 9 5 10 6 11 7 4 8 3 9 2 10 1 11
REMARK H PARENT
REMARK Flexibility Score: inf
ROOT
ATOM      1  C   UNL     1      22.731  25.229  22.788  1.00  0.00     0.004 C 
ENDROOT
BRANCH   1   2
ATOM      2  C   UNL     1      22.238  24.418  23.993  1.00  0.00     0.027 C 
BRANCH   2   3
ATOM      3  C   UNL     1      21.013  25.037  24.603  1.00  0.00    -0.025 C 
ATOM      4  C   UNL     1      20.434  26.115  24.064  1.00  0.00     0.020 C 
BRANCH   4   5
ATOM      5  C   UNL     1      19.225  26.730  24.636  1.00  0.00     0.064 C 
ATOM      6  O   UNL     1      18.087  26.519  24.136  1.00  0.00    -0.545 OA
ATOM      7  O   UNL     1      19.340  27.558  25.745  1.00  0.00    -0.545 OA
ENDBRANCH   4   5
ENDBRANCH   2   3
ENDBRANCH   1   2
BRANCH   1   8
ATOM      8  C   UNL     1      22.673  24.395  21.503  1.00  0.00     0.000 C 
BRANCH   8   9
ATOM      9  C   UNL     1      21.744  25.046  20.467  1.00  0.00    -0.000 C 
BRANCH   9  10
ATOM     10  C   UNL     1      20.364  24.374  20.406  1.00  0.00    -0.003 C 
ATOM     11  C   UNL     1      20.349  22.994  21.063  1.00  0.00     0.004 C 
ENDBRANCH   9  10
ENDBRANCH   8   9
ENDBRANCH   1   8
TORSDOF 6
ENDMDL
MODEL 3
REMARK VINA RESULT:    -3.835      9.247     10.567
REMARK INTER + INTRA:          -5.917
REMARK INTER:                  -5.541
REMARK INTRA:                  -0.376
REMARK UNBOUND:                -0.737
REMARK SMILES CCCCCCC=CC(=O)[O-]
REMARK SMILES IDX 5 1 6 2 7 3 8 4 9 5 10 6 11 7 4 8 3 9 2 10 1 11
REMARK H PARENT
REMARK Flexibility Score: inf
ROOT
ATOM      1  C   UNL     1      26.399  32.305  20.090  1.00  0.00     0.004 C 
ENDROOT
BRANCH   1   2
ATOM      2  C   UNL     1      27.736  33.037  19.918  1.00  0.00     0.027 C 
BRANCH   2   3
ATOM      3  C   UNL     1      28.229  33.584  21.226  1.00  0.00    -0.025 C 
ATOM      4  C   UNL     1      27.561  34.540  21.881  1.00  0.00     0.020 C 
BRANCH   4   5
ATOM      5  C   UNL     1      28.019  35.081  23.170  1.00  0.00     0.064 C 
ATOM      6  O   UNL     1      27.431  34.786  24.246  1.00  0.00    -0.545 OA
ATOM      7  O   UNL     1      29.115  35.932  23.203  1.00  0.00    -0.545 OA
ENDBRANCH   4   5
ENDBRANCH   2   3
ENDBRANCH   1   2
BRANCH   1   8
ATOM      8  C   UNL     1      25.336  32.868  19.138  1.00  0.00     0.000 C 
BRANCH   8   9
ATOM      9  C   UNL     1      24.414  33.856  19.867  1.00  0.00    -0.000 C 
BRANCH   9  10
ATOM     10  C   UNL     1      22.926  33.571  19.615  1.00  0.00    -0.003 C 
ATOM     11  C   UNL     1      22.435  32.313  20.332  1.00  0.00     0.004 C 
ENDBRANCH   9  10
ENDBRANCH   8   9
ENDBRANCH   1   8
TORSDOF 6
ENDMDL
MODEL 4
REMARK VINA RESULT:    -3.631      1.109      2.705
REMARK INTER + INTRA:          -5.642
REMARK INTER:                  -4.924
REMARK INTRA:                  -0.718
REMARK UNBOUND:                -0.737
REMARK SMILES CCCCCCC=CC(=O)[O-]
REMARK SMILES IDX 5 1 6 2 7 3 8 4 9 5 10 6 11 7 4 8 3 9 2 10 1 11
REMARK H PARENT
REMARK Flexibility Score: inf
ROOT
ATOM      1  C   UNL     1      21.258  25.436  20.644  1.00  0.00     0.004 C 
ENDROOT
BRANCH   1   2
ATOM      2  C   UNL     1      19.767  25.736  20.849  1.00  0.00     0.027 C 
BRANCH   2   3
ATOM      3  C   UNL     1      19.534  26.491  22.126  1.00  0.00    -0.025 C 
ATOM      4  C   UNL     1      19.305  25.857  23.281  1.00  0.00     0.020 C 
BRANCH   4   5
ATOM      5  C   UNL     1      19.088  26.577  24.546  1.00  0.00     0.064 C 
ATOM      6  O   UNL     1      17.993  27.153  24.788  1.00  0.00    -0.545 OA
ATOM      7  O   UNL     1      20.105  26.623  25.489  1.00  0.00    -0.545 OA
ENDBRANCH   4   5
ENDBRANCH   2   3
ENDBRANCH   1   2
BRANCH   1   8
ATOM      8  C   UNL     1      21.540  23.935  20.774  1.00  0.00     0.000 C 
BRANCH   8   9
ATOM      9  C   UNL     1      22.504  23.656  21.937  1.00  0.00    -0.000 C 
BRANCH   9  10
ATOM     10  C   UNL     1      22.879  24.929  22.711  1.00  0.00    -0.003 C 
ATOM     11  C   UNL     1      22.812  24.740  24.227  1.00  0.00     0.004 C 
ENDBRANCH   9  10
ENDBRANCH   8   9
ENDBRANCH   1   8
TORSDOF 6
ENDMDL
MODEL 5
REMARK VINA RESULT:    -3.600     11.758     12.949
REMARK INTER + INTRA:          -5.601
REMARK INTER:                  -4.955
REMARK INTRA:                  -0.646
REMARK UNBOUND:                -0.737
REMARK SMILES CCCCCCC=CC(=O)[O-]
REMARK SMILES IDX 5 1 6 2 7 3 8 4 9 5 10 6 11 7 4 8 3 9 2 10 1 11
REMARK H PARENT
REMARK Flexibility Score: inf
ROOT
ATOM      1  C   UNL     1      29.164  35.500  22.843  1.00  0.00     0.004 C 
ENDROOT
BRANCH   1   2
ATOM      2  C   UNL     1      30.238  35.472  21.749  1.00  0.00     0.027 C 
BRANCH   2   3
ATOM      3  C   UNL     1      31.245  34.387  22.002  1.00  0.00    -0.025 C 
ATOM      4  C   UNL     1      31.120  33.175  21.451  1.00  0.00     0.020 C 
BRANCH   4   5
ATOM      5  C   UNL     1      32.101  32.101  21.674  1.00  0.00     0.064 C 
ATOM      6  O   UNL     1      32.500  31.375  20.724  1.00  0.00    -0.545 OA
ATOM      7  O   UNL     1      32.596  31.883  22.953  1.00  0.00    -0.545 OA
ENDBRANCH   4   5
ENDBRANCH   2   3
ENDBRANCH   1   2
BRANCH   1   8
ATOM      8  C   UNL     1      27.901  34.755  22.393  1.00  0.00     0.000 C 
BRANCH   8   9
ATOM      9  C   UNL     1      27.630  34.988  20.899  1.00  0.00    -0.000 C 
BRANCH   9  10
ATOM     10  C   UNL     1      27.111  33.727  20.190  1.00  0.00    -0.003 C 
ATOM     11  C   UNL     1      27.581  32.436  20.862  1.00  0.00     0.004 C 
ENDBRANCH   9  10
ENDBRANCH   8   9
ENDBRANCH   1   8
TORSDOF 6
ENDMDL
MODEL 6
REMARK VINA RESULT:    -3.594     14.535     15.685
REMARK INTER + INTRA:          -5.592
REMARK INTER:                  -5.257
REMARK INTRA:                  -0.336
REMARK UNBOUND:                -0.737
REMARK SMILES CCCCCCC=CC(=O)[O-]
REMARK SMILES IDX 5 1 6 2 7 3 8 4 9 5 10 6 11 7 4 8 3 9 2 10 1 11
REMARK H PARENT
REMARK Flexibility Score: inf
ROOT
ATOM      1  C   UNL     1      35.780  23.077  27.796  1.00  0.00     0.004 C 
ENDROOT
BRANCH   1   2
ATOM      2  C   UNL     1      35.454  24.574  27.736  1.00  0.00     0.027 C 
BRANCH   2   3
ATOM      3  C   UNL     1      36.091  25.316  28.877  1.00  0.00    -0.025 C 
ATOM      4  C   UNL     1      35.366  25.782  29.899  1.00  0.00     0.020 C 
BRANCH   4   5
ATOM      5  C   UNL     1      35.971  26.499  31.033  1.00  0.00     0.064 C 
ATOM      6  O   UNL     1      35.988  27.759  31.073  1.00  0.00    -0.545 OA
ATOM      7  O   UNL     1      36.533  25.776  32.076  1.00  0.00    -0.545 OA
ENDBRANCH   4   5
ENDBRANCH   2   3
ENDBRANCH   1   2
BRANCH   1   8
ATOM      8  C   UNL     1      35.334  22.365  26.512  1.00  0.00     0.000 C 
BRANCH   8   9
ATOM      9  C   UNL     1      35.033  23.380  25.398  1.00  0.00    -0.000 C 
BRANCH   9  10
ATOM     10  C   UNL     1      33.597  23.263  24.866  1.00  0.00    -0.003 C 
ATOM     11  C   UNL     1      32.844  22.069  25.453  1.00  0.00     0.004 C 
ENDBRANCH   9  10
ENDBRANCH   8   9
ENDBRANCH   1   8
TORSDOF 6
ENDMDL
MODEL 7
REMARK VINA RESULT:    -3.558     13.343     14.693
REMARK INTER + INTRA:          -5.543
REMARK INTER:                  -5.205
REMARK INTRA:                  -0.339
REMARK UNBOUND:                -0.737
REMARK SMILES CCCCCCC=CC(=O)[O-]
REMARK SMILES IDX 5 1 6 2 7 3 8 4 9 5 10 6 11 7 4 8 3 9 2 10 1 11
REMARK H PARENT
REMARK Flexibility Score: inf
ROOT
ATOM      1  C   UNL     1      35.605  22.711  27.700  1.00  0.00     0.004 C 
ENDROOT
BRANCH   1   2
ATOM      2  C   UNL     1      34.949  21.824  26.634  1.00  0.00     0.027 C 
BRANCH   2   3
ATOM      3  C   UNL     1      33.938  22.594  25.833  1.00  0.00    -0.025 C 
ATOM      4  C   UNL     1      32.807  22.025  25.402  1.00  0.00     0.020 C 
BRANCH   4   5
ATOM      5  C   UNL     1      31.797  22.764  24.628  1.00  0.00     0.064 C 
ATOM      6  O   UNL     1      30.602  22.366  24.568  1.00  0.00    -0.545 OA
ATOM      7  O   UNL     1      32.166  23.918  23.950  1.00  0.00    -0.545 OA
ENDBRANCH   4   5
ENDBRANCH   2   3
ENDBRANCH   1   2
BRANCH   1   8
ATOM      8  C   UNL     1      35.508  24.193  27.318  1.00  0.00     0.000 C 
BRANCH   8   9
ATOM      9  C   UNL     1      35.669  25.091  28.554  1.00  0.00    -0.000 C 
BRANCH   9  10
ATOM     10  C   UNL     1      35.971  24.290  29.830  1.00  0.00    -0.003 C 
ATOM     11  C   UNL     1      36.381  25.180  31.003  1.00  0.00     0.004 C 
ENDBRANCH   9  10
ENDBRANCH   8   9
ENDBRANCH   1   8
TORSDOF 6
ENDMDL
MODEL 8
REMARK VINA RESULT:    -3.543      3.080      4.342
REMARK INTER + INTRA:          -5.523
REMARK INTER:                  -4.963
REMARK INTRA:                  -0.559
REMARK UNBOUND:                -0.737
REMARK SMILES CCCCCCC=CC(=O)[O-]
REMARK SMILES IDX 5 1 6 2 7 3 8 4 9 5 10 6 11 7 4 8 3 9 2 10 1 11
REMARK H PARENT
REMARK Flexibility Score: inf
ROOT
ATOM      1  C   UNL     1      20.608  24.684  19.981  1.00  0.00     0.004 C 
ENDROOT
BRANCH   1   2
ATOM      2  C   UNL     1      22.118  24.732  20.243  1.00  0.00     0.027 C 
BRANCH   2   3
ATOM      3  C   UNL     1      22.432  24.410  21.676  1.00  0.00    -0.025 C 
ATOM      4  C   UNL     1      21.981  25.172  22.678  1.00  0.00     0.020 C 
BRANCH   4   5
ATOM      5  C   UNL     1      22.266  24.869  24.090  1.00  0.00     0.064 C 
ATOM      6  O   UNL     1      21.667  25.474  25.020  1.00  0.00    -0.545 OA
ATOM      7  O   UNL     1      23.210  23.901  24.404  1.00  0.00    -0.545 OA
ENDBRANCH   4   5
ENDBRANCH   2   3
ENDBRANCH   1   2
BRANCH   1   8
ATOM      8  C   UNL     1      20.102  23.236  19.940  1.00  0.00     0.000 C 
BRANCH   8   9
ATOM      9  C   UNL     1      20.546  22.536  18.647  1.00  0.00    -0.000 C 
BRANCH   9  10
ATOM     10  C   UNL     1      21.152  21.148  18.905  1.00  0.00    -0.003 C 
ATOM     11  C   UNL     1      21.528  20.931  20.371  1.00  0.00     0.004 C 
ENDBRANCH   9  10
ENDBRANCH   8   9
ENDBRANCH   1   8
TORSDOF 6
ENDMDL
MODEL 9
REMARK VINA RESULT:    -3.503     11.912     13.154
REMARK INTER + INTRA:          -5.470
REMARK INTER:                  -4.716
REMARK INTRA:                  -0.753
REMARK UNBOUND:                -0.737
REMARK SMILES CCCCCCC=CC(=O)[O-]
REMARK SMILES IDX 5 1 6 2 7 3 8 4 9 5 10 6 11 7 4 8 3 9 2 10 1 11
REMARK H PARENT
REMARK Flexibility Score: inf
ROOT
ATOM      1  C   UNL     1      28.062  33.293  21.030  1.00  0.00     0.004 C 
ENDROOT
BRANCH   1   2
ATOM      2  C   UNL     1      28.952  33.275  19.781  1.00  0.00     0.027 C 
BRANCH   2   3
ATOM      3  C   UNL     1      30.382  32.987  20.137  1.00  0.00    -0.025 C 
ATOM      4  C   UNL     1      30.716  32.461  21.320  1.00  0.00     0.020 C 
BRANCH   4   5
ATOM      5  C   UNL     1      32.110  32.159  21.684  1.00  0.00     0.064 C 
ATOM      6  O   UNL     1      32.419  31.829  22.861  1.00  0.00    -0.545 OA
ATOM      7  O   UNL     1      33.102  32.239  20.716  1.00  0.00    -0.545 OA
ENDBRANCH   4   5
ENDBRANCH   2   3
ENDBRANCH   1   2
BRANCH   1   8
ATOM      8  C   UNL     1      27.696  34.729  21.424  1.00  0.00     0.000 C 
BRANCH   8   9
ATOM      9  C   UNL     1      28.279  35.087  22.799  1.00  0.00    -0.000 C 
BRANCH   9  10
ATOM     10  C   UNL     1      29.642  35.791  22.698  1.00  0.00    -0.003 C 
ATOM     11  C   UNL     1      29.805  36.577  21.397  1.00  0.00     0.004 C 
ENDBRANCH   9  10
ENDBRANCH   8   9
ENDBRANCH   1   8
TORSDOF 6
ENDMDL
