MODEL 1
REMARK VINA RESULT:    -5.822      0.000      0.000
REMARK INTER + INTRA:          -7.007
REMARK INTER:                  -6.673
REMARK INTRA:                  -0.334
REMARK UNBOUND:                -0.334
REMARK SMILES COc1ccc(C(C)=O)c(O)c1
REMARK SMILES IDX 6 1 10 2 12 3 3 4 4 5 5 6 7 7 8 8 9 9 11 10 2 12 1 13
REMARK H PARENT 11 11
REMARK Flexibility Score: inf
ROOT
ATOM      1  C   UNL     1     -28.036  19.117  55.797  1.00  0.00     0.059 A 
ATOM      2  C   UNL     1     -27.052  18.103  55.882  1.00  0.00     0.130 A 
ATOM      3  C   UNL     1     -26.519  17.748  57.130  1.00  0.00     0.093 A 
ATOM      4  C   UNL     1     -26.964  18.377  58.306  1.00  0.00     0.122 A 
ATOM      5  C   UNL     1     -27.947  19.364  58.219  1.00  0.00     0.047 A 
ATOM      6  C   UNL     1     -28.481  19.729  56.982  1.00  0.00     0.019 A 
ENDROOT
BRANCH   1   7
ATOM      7  C   UNL     1     -28.626  19.552  54.502  1.00  0.00     0.163 C 
ATOM      8  C   UNL     1     -30.087  19.843  54.340  1.00  0.00     0.093 C 
ATOM      9  O   UNL     1     -27.877  19.684  53.496  1.00  0.00    -0.294 OA
ENDBRANCH   1   7
BRANCH   2  10
ATOM     10  O   UNL     1     -26.616  17.433  54.740  1.00  0.00    -0.507 OA
ATOM     11  H   UNL     1     -27.229  16.821  54.213  1.00  0.00     0.293 HD
ENDBRANCH   2  10
BRANCH   4  12
ATOM     12  O   UNL     1     -26.458  18.051  59.574  1.00  0.00    -0.497 OA
ATOM     13  C   UNL     1     -25.100  17.712  59.835  1.00  0.00     0.278 C 
ENDBRANCH   4  12
TORSDOF 3
ENDMDL
MODEL 2
REMARK VINA RESULT:    -5.757      2.440      4.535
REMARK INTER + INTRA:          -6.933
REMARK INTER:                  -6.609
REMARK INTRA:                  -0.324
REMARK UNBOUND:                -0.334
REMARK SMILES COc1ccc(C(C)=O)c(O)c1
REMARK SMILES IDX 6 1 10 2 12 3 3 4 4 5 5 6 7 7 8 8 9 9 11 10 2 12 1 13
REMARK H PARENT 11 11
REMARK Flexibility Score: inf
ROOT
ATOM      1  C   UNL     1     -27.575  18.889  58.245  1.00  0.00     0.059 A 
ATOM      2  C   UNL     1     -27.667  19.622  57.038  1.00  0.00     0.130 A 
ATOM      3  C   UNL     1     -28.639  20.625  56.901  1.00  0.00     0.093 A 
ATOM      4  C   UNL     1     -29.515  20.925  57.959  1.00  0.00     0.122 A 
ATOM      5  C   UNL     1     -29.408  20.212  59.154  1.00  0.00     0.047 A 
ATOM      6  C   UNL     1     -28.449  19.207  59.299  1.00  0.00     0.019 A 
ENDROOT
BRANCH   1   7
ATOM      7  C   UNL     1     -26.580  17.801  58.446  1.00  0.00     0.163 C 
ATOM      8  C   UNL     1     -25.550  17.842  59.534  1.00  0.00     0.093 C 
ATOM      9  O   UNL     1     -26.594  16.801  57.676  1.00  0.00    -0.294 OA
ENDBRANCH   1   7
BRANCH   2  10
ATOM     10  O   UNL     1     -26.788  19.376  55.984  1.00  0.00    -0.507 OA
ATOM     11  H   UNL     1     -26.709  18.461  55.557  1.00  0.00     0.293 HD
ENDBRANCH   2  10
BRANCH   4  12
ATOM     12  O   UNL     1     -30.499  21.921  57.863  1.00  0.00    -0.497 OA
ATOM     13  C   UNL     1     -30.656  22.990  58.790  1.00  0.00     0.278 C 
ENDBRANCH   4  12
TORSDOF 3
ENDMDL
MODEL 3
REMARK VINA RESULT:    -5.742      2.322      4.737
REMARK INTER + INTRA:          -6.915
REMARK INTER:                  -6.609
REMARK INTRA:                  -0.305
REMARK UNBOUND:                -0.334
REMARK SMILES COc1ccc(C(C)=O)c(O)c1
REMARK SMILES IDX 6 1 10 2 12 3 3 4 4 5 5 6 7 7 8 8 9 9 11 10 2 12 1 13
REMARK H PARENT 11 11
REMARK Flexibility Score: inf
ROOT
ATOM      1  C   UNL     1     -29.484  20.732  57.208  1.00  0.00     0.059 A 
ATOM      2  C   UNL     1     -28.157  20.243  57.219  1.00  0.00     0.130 A 
ATOM      3  C   UNL     1     -27.596  19.711  56.048  1.00  0.00     0.093 A 
ATOM      4  C   UNL     1     -28.334  19.674  54.851  1.00  0.00     0.122 A 
ATOM      5  C   UNL     1     -29.637  20.175  54.841  1.00  0.00     0.047 A 
ATOM      6  C   UNL     1     -30.207  20.700  56.002  1.00  0.00     0.019 A 
ENDROOT
BRANCH   1   7
ATOM      7  C   UNL     1     -30.141  21.289  58.421  1.00  0.00     0.163 C 
ATOM      8  C   UNL     1     -30.570  22.722  58.518  1.00  0.00     0.093 C 
ATOM      9  O   UNL     1     -30.349  20.537  59.411  1.00  0.00    -0.294 OA
ENDBRANCH   1   7
BRANCH   2  10
ATOM     10  O   UNL     1     -27.384  20.300  58.378  1.00  0.00    -0.507 OA
ATOM     11  H   UNL     1     -27.515  19.646  59.140  1.00  0.00     0.293 HD
ENDBRANCH   2  10
BRANCH   4  12
ATOM     12  O   UNL     1     -27.812  19.152  53.658  1.00  0.00    -0.497 OA
ATOM     13  C   UNL     1     -27.561  19.920  52.486  1.00  0.00     0.278 C 
ENDBRANCH   4  12
TORSDOF 3
ENDMDL
MODEL 4
REMARK VINA RESULT:    -5.715      1.465      2.231
REMARK INTER + INTRA:          -6.884
REMARK INTER:                  -6.569
REMARK INTRA:                  -0.315
REMARK UNBOUND:                -0.334
REMARK SMILES COc1ccc(C(C)=O)c(O)c1
REMARK SMILES IDX 6 1 10 2 12 3 3 4 4 5 5 6 7 7 8 8 9 9 11 10 2 12 1 13
REMARK H PARENT 11 11
REMARK Flexibility Score: inf
ROOT
ATOM      1  C   UNL     1     -28.026  19.211  55.283  1.00  0.00     0.059 A 
ATOM      2  C   UNL     1     -28.179  20.060  56.404  1.00  0.00     0.130 A 
ATOM      3  C   UNL     1     -27.779  19.622  57.675  1.00  0.00     0.093 A 
ATOM      4  C   UNL     1     -27.207  18.349  57.849  1.00  0.00     0.122 A 
ATOM      5  C   UNL     1     -27.042  17.521  56.737  1.00  0.00     0.047 A 
ATOM      6  C   UNL     1     -27.442  17.945  55.469  1.00  0.00     0.019 A 
ENDROOT
BRANCH   1   7
ATOM      7  C   UNL     1     -28.449  19.609  53.913  1.00  0.00     0.163 C 
ATOM      8  C   UNL     1     -27.484  19.712  52.771  1.00  0.00     0.093 C 
ATOM      9  O   UNL     1     -29.662  19.874  53.694  1.00  0.00    -0.294 OA
ENDBRANCH   1   7
BRANCH   2  10
ATOM     10  O   UNL     1     -28.706  21.343  56.261  1.00  0.00    -0.507 OA
ATOM     11  H   UNL     1     -28.395  22.116  56.837  1.00  0.00     0.293 HD
ENDBRANCH   2  10
BRANCH   4  12
ATOM     12  O   UNL     1     -26.793  17.873  59.102  1.00  0.00    -0.497 OA
ATOM     13  C   UNL     1     -25.437  17.818  59.534  1.00  0.00     0.278 C 
ENDBRANCH   4  12
TORSDOF 3
ENDMDL
MODEL 5
REMARK VINA RESULT:    -5.599      7.236      8.145
REMARK INTER + INTRA:          -6.751
REMARK INTER:                  -6.412
REMARK INTRA:                  -0.339
REMARK UNBOUND:                -0.334
REMARK SMILES COc1ccc(C(C)=O)c(O)c1
REMARK SMILES IDX 6 1 10 2 12 3 3 4 4 5 5 6 7 7 8 8 9 9 11 10 2 12 1 13
REMARK H PARENT 11 11
REMARK Flexibility Score: inf
ROOT
ATOM      1  C   UNL     1     -34.249  14.273  57.857  1.00  0.00     0.059 A 
ATOM      2  C   UNL     1     -33.218  14.810  58.664  1.00  0.00     0.130 A 
ATOM      3  C   UNL     1     -32.304  15.723  58.117  1.00  0.00     0.093 A 
ATOM      4  C   UNL     1     -32.409  16.127  56.774  1.00  0.00     0.122 A 
ATOM      5  C   UNL     1     -33.438  15.608  55.986  1.00  0.00     0.047 A 
ATOM      6  C   UNL     1     -34.350  14.695  56.519  1.00  0.00     0.019 A 
ENDROOT
BRANCH   1   7
ATOM      7  C   UNL     1     -35.237  13.288  58.373  1.00  0.00     0.163 C 
ATOM      8  C   UNL     1     -36.712  13.435  58.150  1.00  0.00     0.093 C 
ATOM      9  O   UNL     1     -34.829  12.287  59.023  1.00  0.00    -0.294 OA
ENDBRANCH   1   7
BRANCH   2  10
ATOM     10  O   UNL     1     -33.109  14.461  60.009  1.00  0.00    -0.507 OA
ATOM     11  H   UNL     1     -33.920  14.218  60.566  1.00  0.00     0.293 HD
ENDBRANCH   2  10
BRANCH   4  12
ATOM     12  O   UNL     1     -31.516  17.038  56.188  1.00  0.00    -0.497 OA
ATOM     13  C   UNL     1     -30.744  17.988  56.915  1.00  0.00     0.278 C 
ENDBRANCH   4  12
TORSDOF 3
ENDMDL
MODEL 6
REMARK VINA RESULT:    -5.509      7.908      8.613
REMARK INTER + INTRA:          -6.648
REMARK INTER:                  -6.344
REMARK INTRA:                  -0.304
REMARK UNBOUND:                -0.334
REMARK SMILES COc1ccc(C(C)=O)c(O)c1
REMARK SMILES IDX 6 1 10 2 12 3 3 4 4 5 5 6 7 7 8 8 9 9 11 10 2 12 1 13
REMARK H PARENT 11 11
REMARK Flexibility Score: inf
ROOT
ATOM      1  C   UNL     1     -34.987  14.249  57.533  1.00  0.00     0.059 A 
ATOM      2  C   UNL     1     -35.026  14.898  56.276  1.00  0.00     0.130 A 
ATOM      3  C   UNL     1     -33.998  15.780  55.912  1.00  0.00     0.093 A 
ATOM      4  C   UNL     1     -32.913  16.015  56.776  1.00  0.00     0.122 A 
ATOM      5  C   UNL     1     -32.870  15.359  58.007  1.00  0.00     0.047 A 
ATOM      6  C   UNL     1     -33.891  14.483  58.382  1.00  0.00     0.019 A 
ENDROOT
BRANCH   1   7
ATOM      7  C   UNL     1     -36.057  13.318  57.985  1.00  0.00     0.163 C 
ATOM      8  C   UNL     1     -36.353  13.076  59.435  1.00  0.00     0.093 C 
ATOM      9  O   UNL     1     -36.746  12.705  57.125  1.00  0.00    -0.294 OA
ENDBRANCH   1   7
BRANCH   2  10
ATOM     10  O   UNL     1     -36.067  14.658  55.380  1.00  0.00    -0.507 OA
ATOM     11  H   UNL     1     -36.710  13.885  55.503  1.00  0.00     0.293 HD
ENDBRANCH   2  10
BRANCH   4  12
ATOM     12  O   UNL     1     -31.864  16.888  56.449  1.00  0.00    -0.497 OA
ATOM     13  C   UNL     1     -31.108  17.628  57.401  1.00  0.00     0.278 C 
ENDBRANCH   4  12
TORSDOF 3
ENDMDL
MODEL 7
REMARK VINA RESULT:    -5.504      7.389      7.977
REMARK INTER + INTRA:          -6.642
REMARK INTER:                  -6.307
REMARK INTRA:                  -0.335
REMARK UNBOUND:                -0.334
REMARK SMILES COc1ccc(C(C)=O)c(O)c1
REMARK SMILES IDX 6 1 10 2 12 3 3 4 4 5 5 6 7 7 8 8 9 9 11 10 2 12 1 13
REMARK H PARENT 11 11
REMARK Flexibility Score: inf
ROOT
ATOM      1  C   UNL     1     -34.759  14.513  56.821  1.00  0.00     0.059 A 
ATOM      2  C   UNL     1     -34.357  15.706  56.175  1.00  0.00     0.130 A 
ATOM      3  C   UNL     1     -33.065  16.214  56.382  1.00  0.00     0.093 A 
ATOM      4  C   UNL     1     -32.153  15.538  57.213  1.00  0.00     0.122 A 
ATOM      5  C   UNL     1     -32.548  14.352  57.833  1.00  0.00     0.047 A 
ATOM      6  C   UNL     1     -33.833  13.842  57.639  1.00  0.00     0.019 A 
ENDROOT
BRANCH   1   7
ATOM      7  C   UNL     1     -36.120  13.935  56.657  1.00  0.00     0.163 C 
ATOM      8  C   UNL     1     -36.916  13.409  57.814  1.00  0.00     0.093 C 
ATOM      9  O   UNL     1     -36.634  13.881  55.507  1.00  0.00    -0.294 OA
ENDBRANCH   1   7
BRANCH   2  10
ATOM     10  O   UNL     1     -35.223  16.380  55.314  1.00  0.00    -0.507 OA
ATOM     11  H   UNL     1     -36.000  16.929  55.661  1.00  0.00     0.293 HD
ENDBRANCH   2  10
BRANCH   4  12
ATOM     12  O   UNL     1     -30.852  16.011  57.445  1.00  0.00    -0.497 OA
ATOM     13  C   UNL     1     -30.504  17.386  57.559  1.00  0.00     0.278 C 
ENDBRANCH   4  12
TORSDOF 3
ENDMDL
MODEL 8
REMARK VINA RESULT:    -5.465      7.015      7.581
REMARK INTER + INTRA:          -6.598
REMARK INTER:                  -6.258
REMARK INTRA:                  -0.340
REMARK UNBOUND:                -0.334
REMARK SMILES COc1ccc(C(C)=O)c(O)c1
REMARK SMILES IDX 6 1 10 2 12 3 3 4 4 5 5 6 7 7 8 8 9 9 11 10 2 12 1 13
REMARK H PARENT 11 11
REMARK Flexibility Score: inf
ROOT
ATOM      1  C   UNL     1     -33.654  13.576  56.048  1.00  0.00     0.059 A 
ATOM      2  C   UNL     1     -32.273  13.790  55.823  1.00  0.00     0.130 A 
ATOM      3  C   UNL     1     -31.666  14.973  56.270  1.00  0.00     0.093 A 
ATOM      4  C   UNL     1     -32.411  15.947  56.958  1.00  0.00     0.122 A 
ATOM      5  C   UNL     1     -33.768  15.724  57.193  1.00  0.00     0.047 A 
ATOM      6  C   UNL     1     -34.384  14.553  56.747  1.00  0.00     0.019 A 
ENDROOT
BRANCH   1   7
ATOM      7  C   UNL     1     -34.360  12.352  55.582  1.00  0.00     0.163 C 
ATOM      8  C   UNL     1     -35.640  12.408  54.803  1.00  0.00     0.093 C 
ATOM      9  O   UNL     1     -33.872  11.220  55.847  1.00  0.00    -0.294 OA
ENDBRANCH   1   7
BRANCH   2  10
ATOM     10  O   UNL     1     -31.497  12.827  55.179  1.00  0.00    -0.507 OA
ATOM     11  H   UNL     1     -30.797  13.079  54.491  1.00  0.00     0.293 HD
ENDBRANCH   2  10
BRANCH   4  12
ATOM     12  O   UNL     1     -31.842  17.143  57.422  1.00  0.00    -0.497 OA
ATOM     13  C   UNL     1     -30.444  17.412  57.448  1.00  0.00     0.278 C 
ENDBRANCH   4  12
TORSDOF 3
ENDMDL
MODEL 9
REMARK VINA RESULT:    -5.424      8.105      8.912
REMARK INTER + INTRA:          -6.550
REMARK INTER:                  -6.209
REMARK INTRA:                  -0.341
REMARK UNBOUND:                -0.334
REMARK SMILES COc1ccc(C(C)=O)c(O)c1
REMARK SMILES IDX 6 1 10 2 12 3 3 4 4 5 5 6 7 7 8 8 9 9 11 10 2 12 1 13
REMARK H PARENT 11 11
REMARK Flexibility Score: inf
ROOT
ATOM      1  C   UNL     1     -35.027  13.160  55.385  1.00  0.00     0.059 A 
ATOM      2  C   UNL     1     -33.785  12.517  55.596  1.00  0.00     0.130 A 
ATOM      3  C   UNL     1     -32.637  13.280  55.857  1.00  0.00     0.093 A 
ATOM      4  C   UNL     1     -32.709  14.683  55.931  1.00  0.00     0.122 A 
ATOM      5  C   UNL     1     -33.941  15.311  55.739  1.00  0.00     0.047 A 
ATOM      6  C   UNL     1     -35.088  14.562  55.473  1.00  0.00     0.019 A 
ENDROOT
BRANCH   1   7
ATOM      7  C   UNL     1     -36.276  12.407  55.085  1.00  0.00     0.163 C 
ATOM      8  C   UNL     1     -37.092  12.660  53.853  1.00  0.00     0.093 C 
ATOM      9  O   UNL     1     -36.672  11.522  55.891  1.00  0.00    -0.294 OA
ENDBRANCH   1   7
BRANCH   2  10
ATOM     10  O   UNL     1     -33.686  11.126  55.569  1.00  0.00    -0.507 OA
ATOM     11  H   UNL     1     -34.495  10.531  55.696  1.00  0.00     0.293 HD
ENDBRANCH   2  10
BRANCH   4  12
ATOM     12  O   UNL     1     -31.586  15.483  56.191  1.00  0.00    -0.497 OA
ATOM     13  C   UNL     1     -31.645  16.854  56.571  1.00  0.00     0.278 C 
ENDBRANCH   4  12
TORSDOF 3
ENDMDL
