MODEL 1
REMARK VINA RESULT:    -2.765      0.000      0.000
REMARK INTER + INTRA:          -7.155
REMARK INTER:                  -5.190
REMARK INTRA:                  -1.965
REMARK UNBOUND:                -1.965
REMARK SMILES O=C([O-])CCCCCCCCCCCCCCC(=O)[O-]
REMARK SMILES IDX 10 1 9 2 8 3 7 4 6 5 5 6 4 7 2 8 1 9 3 10 11 11 12 12 13 13
REMARK SMILES IDX 14 14 15 15 16 16 17 17 18 18 19 19 20 20
REMARK H PARENT
REMARK Flexibility Score: inf
ROOT
ATOM      1  C   UNL     1     147.371 149.061 142.999  1.00  0.00     0.000 C 
ENDROOT
BRANCH   1   2
ATOM      2  C   UNL     1     146.836 147.623 143.004  1.00  0.00     0.000 C 
BRANCH   2   3
ATOM      3  C   UNL     1     147.981 146.610 142.876  1.00  0.00     0.000 C 
BRANCH   3   4
ATOM      4  C   UNL     1     147.532 145.370 142.092  1.00  0.00     0.000 C 
BRANCH   4   5
ATOM      5  C   UNL     1     146.449 145.731 141.065  1.00  0.00     0.000 C 
BRANCH   5   6
ATOM      6  C   UNL     1     146.982 145.760 139.622  1.00  0.00     0.006 C 
BRANCH   6   7
ATOM      7  C   UNL     1     146.994 147.158 138.980  1.00  0.00     0.053 C 
BRANCH   7   8
ATOM      8  C   UNL     1     145.952 147.296 137.913  1.00  0.00     0.041 C 
ATOM      9  O   UNL     1     146.032 146.613 136.858  1.00  0.00    -0.550 OA
ATOM     10  O   UNL     1     144.912 148.203 138.070  1.00  0.00    -0.550 OA
ENDBRANCH   7   8
ENDBRANCH   6   7
ENDBRANCH   5   6
ENDBRANCH   4   5
ENDBRANCH   3   4
ENDBRANCH   2   3
ENDBRANCH   1   2
BRANCH   1  11
ATOM     11  C   UNL     1     146.737 149.878 141.864  1.00  0.00     0.000 C 
BRANCH  11  12
ATOM     12  C   UNL     1     145.388 149.304 141.394  1.00  0.00     0.000 C 
BRANCH  12  13
ATOM     13  C   UNL     1     144.358 150.355 140.936  1.00  0.00     0.000 C 
BRANCH  13  14
ATOM     14  C   UNL     1     143.252 150.674 141.962  1.00  0.00     0.000 C 
BRANCH  14  15
ATOM     15  C   UNL     1     143.401 149.967 143.323  1.00  0.00     0.000 C 
BRANCH  15  16
ATOM     16  C   UNL     1     143.815 150.883 144.489  1.00  0.00     0.006 C 
BRANCH  16  17
ATOM     17  C   UNL     1     144.709 150.175 145.515  1.00  0.00     0.053 C 
BRANCH  17  18
ATOM     18  C   UNL     1     144.660 150.887 146.829  1.00  0.00     0.041 C 
ATOM     19  O   UNL     1     144.215 152.064 146.896  1.00  0.00    -0.550 OA
ATOM     20  O   UNL     1     145.059 150.235 147.988  1.00  0.00    -0.550 OA
ENDBRANCH  17  18
ENDBRANCH  16  17
ENDBRANCH  15  16
ENDBRANCH  14  15
ENDBRANCH  13  14
ENDBRANCH  12  13
ENDBRANCH  11  12
ENDBRANCH   1  11
TORSDOF 15
ENDMDL
MODEL 2
REMARK VINA RESULT:    -2.728      1.877      3.158
REMARK INTER + INTRA:          -7.085
REMARK INTER:                  -4.753
REMARK INTRA:                  -2.332
REMARK UNBOUND:                -1.965
REMARK SMILES O=C([O-])CCCCCCCCCCCCCCC(=O)[O-]
REMARK SMILES IDX 10 1 9 2 8 3 7 4 6 5 5 6 4 7 2 8 1 9 3 10 11 11 12 12 13 13
REMARK SMILES IDX 14 14 15 15 16 16 17 17 18 18 19 19 20 20
REMARK H PARENT
REMARK Flexibility Score: inf
ROOT
ATOM      1  C   UNL     1     147.035 148.266 142.699  1.00  0.00     0.000 C 
ENDROOT
BRANCH   1   2
ATOM      2  C   UNL     1     146.640 148.780 141.309  1.00  0.00     0.000 C 
BRANCH   2   3
ATOM      3  C   UNL     1     146.854 147.699 140.242  1.00  0.00     0.000 C 
BRANCH   3   4
ATOM      4  C   UNL     1     145.676 147.654 139.261  1.00  0.00     0.000 C 
BRANCH   4   5
ATOM      5  C   UNL     1     144.337 147.625 140.013  1.00  0.00     0.000 C 
BRANCH   5   6
ATOM      6  C   UNL     1     143.276 148.542 139.378  1.00  0.00     0.006 C 
BRANCH   6   7
ATOM      7  C   UNL     1     143.694 150.018 139.277  1.00  0.00     0.053 C 
BRANCH   7   8
ATOM      8  C   UNL     1     143.625 150.526 137.870  1.00  0.00     0.041 C 
ATOM      9  O   UNL     1     143.659 151.764 137.640  1.00  0.00    -0.550 OA
ATOM     10  O   UNL     1     143.489 149.634 136.813  1.00  0.00    -0.550 OA
ENDBRANCH   7   8
ENDBRANCH   6   7
ENDBRANCH   5   6
ENDBRANCH   4   5
ENDBRANCH   3   4
ENDBRANCH   2   3
ENDBRANCH   1   2
BRANCH   1  11
ATOM     11  C   UNL     1     146.832 146.748 142.801  1.00  0.00     0.000 C 
BRANCH  11  12
ATOM     12  C   UNL     1     145.465 146.365 143.396  1.00  0.00     0.000 C 
BRANCH  12  13
ATOM     13  C   UNL     1     144.734 147.505 144.132  1.00  0.00     0.000 C 
BRANCH  13  14
ATOM     14  C   UNL     1     143.433 147.988 143.460  1.00  0.00     0.000 C 
BRANCH  14  15
ATOM     15  C   UNL     1     143.356 149.506 143.202  1.00  0.00     0.000 C 
BRANCH  15  16
ATOM     16  C   UNL     1     144.375 150.351 143.988  1.00  0.00     0.006 C 
BRANCH  16  17
ATOM     17  C   UNL     1     143.720 151.233 145.057  1.00  0.00     0.053 C 
BRANCH  17  18
ATOM     18  C   UNL     1     144.301 150.941 146.404  1.00  0.00     0.041 C 
ATOM     19  O   UNL     1     144.378 149.753 146.816  1.00  0.00    -0.550 OA
ATOM     20  O   UNL     1     144.804 151.974 147.183  1.00  0.00    -0.550 OA
ENDBRANCH  17  18
ENDBRANCH  16  17
ENDBRANCH  15  16
ENDBRANCH  14  15
ENDBRANCH  13  14
ENDBRANCH  12  13
ENDBRANCH  11  12
ENDBRANCH   1  11
TORSDOF 15
ENDMDL
MODEL 3
REMARK VINA RESULT:    -2.720      1.977      7.426
REMARK INTER + INTRA:          -7.069
REMARK INTER:                  -4.971
REMARK INTRA:                  -2.098
REMARK UNBOUND:                -1.965
REMARK SMILES O=C([O-])CCCCCCCCCCCCCCC(=O)[O-]
REMARK SMILES IDX 10 1 9 2 8 3 7 4 6 5 5 6 4 7 2 8 1 9 3 10 11 11 12 12 13 13
REMARK SMILES IDX 14 14 15 15 16 16 17 17 18 18 19 19 20 20
REMARK H PARENT
REMARK Flexibility Score: inf
ROOT
ATOM      1  C   UNL     1     143.962 146.243 143.463  1.00  0.00     0.000 C 
ENDROOT
BRANCH   1   2
ATOM      2  C   UNL     1     144.259 147.213 144.614  1.00  0.00     0.000 C 
BRANCH   2   3
ATOM      3  C   UNL     1     143.700 148.610 144.314  1.00  0.00     0.000 C 
BRANCH   3   4
ATOM      4  C   UNL     1     144.684 149.702 144.749  1.00  0.00     0.000 C 
BRANCH   4   5
ATOM      5  C   UNL     1     143.974 151.056 144.895  1.00  0.00     0.000 C 
BRANCH   5   6
ATOM      6  C   UNL     1     143.973 151.577 146.343  1.00  0.00     0.006 C 
BRANCH   6   7
ATOM      7  C   UNL     1     144.499 150.568 147.378  1.00  0.00     0.053 C 
BRANCH   7   8
ATOM      8  C   UNL     1     144.877 151.231 148.667  1.00  0.00     0.041 C 
ATOM      9  O   UNL     1     143.996 151.777 149.382  1.00  0.00    -0.550 OA
ATOM     10  O   UNL     1     146.209 151.276 149.061  1.00  0.00    -0.550 OA
ENDBRANCH   7   8
ENDBRANCH   6   7
ENDBRANCH   5   6
ENDBRANCH   4   5
ENDBRANCH   3   4
ENDBRANCH   2   3
ENDBRANCH   1   2
BRANCH   1  11
ATOM     11  C   UNL     1     145.208 145.420 143.104  1.00  0.00     0.000 C 
BRANCH  11  12
ATOM     12  C   UNL     1     146.510 146.036 143.647  1.00  0.00     0.000 C 
BRANCH  12  13
ATOM     13  C   UNL     1     147.341 146.818 142.611  1.00  0.00     0.000 C 
BRANCH  13  14
ATOM     14  C   UNL     1     147.344 148.349 142.797  1.00  0.00     0.000 C 
BRANCH  14  15
ATOM     15  C   UNL     1     146.685 149.147 141.655  1.00  0.00     0.000 C 
BRANCH  15  16
ATOM     16  C   UNL     1     145.723 148.336 140.767  1.00  0.00     0.006 C 
BRANCH  16  17
ATOM     17  C   UNL     1     144.296 148.898 140.767  1.00  0.00     0.053 C 
BRANCH  17  18
ATOM     18  C   UNL     1     144.176 150.019 139.785  1.00  0.00     0.041 C 
ATOM     19  O   UNL     1     143.929 149.776 138.573  1.00  0.00    -0.550 OA
ATOM     20  O   UNL     1     144.285 151.335 140.214  1.00  0.00    -0.550 OA
ENDBRANCH  17  18
ENDBRANCH  16  17
ENDBRANCH  15  16
ENDBRANCH  14  15
ENDBRANCH  13  14
ENDBRANCH  12  13
ENDBRANCH  11  12
ENDBRANCH   1  11
TORSDOF 15
ENDMDL
MODEL 4
REMARK VINA RESULT:    -2.676      4.511     10.396
REMARK INTER + INTRA:          -6.988
REMARK INTER:                  -5.011
REMARK INTRA:                  -1.977
REMARK UNBOUND:                -1.965
REMARK SMILES O=C([O-])CCCCCCCCCCCCCCC(=O)[O-]
REMARK SMILES IDX 10 1 9 2 8 3 7 4 6 5 5 6 4 7 2 8 1 9 3 10 11 11 12 12 13 13
REMARK SMILES IDX 14 14 15 15 16 16 17 17 18 18 19 19 20 20
REMARK H PARENT
REMARK Flexibility Score: inf
ROOT
ATOM      1  C   UNL     1     145.898 149.672 149.732  1.00  0.00     0.000 C 
ENDROOT
BRANCH   1   2
ATOM      2  C   UNL     1     145.080 149.544 151.023  1.00  0.00     0.000 C 
BRANCH   2   3
ATOM      3  C   UNL     1     143.600 149.859 150.771  1.00  0.00     0.000 C 
BRANCH   3   4
ATOM      4  C   UNL     1     143.092 150.929 151.745  1.00  0.00     0.000 C 
BRANCH   4   5
ATOM      5  C   UNL     1     143.105 152.318 151.091  1.00  0.00     0.000 C 
BRANCH   5   6
ATOM      6  C   UNL     1     143.793 153.383 151.964  1.00  0.00     0.006 C 
BRANCH   6   7
ATOM      7  C   UNL     1     145.224 153.020 152.394  1.00  0.00     0.053 C 
BRANCH   7   8
ATOM      8  C   UNL     1     145.495 153.394 153.819  1.00  0.00     0.041 C 
ATOM      9  O   UNL     1     145.992 152.552 154.612  1.00  0.00    -0.550 OA
ATOM     10  O   UNL     1     145.166 154.663 154.279  1.00  0.00    -0.550 OA
ENDBRANCH   7   8
ENDBRANCH   6   7
ENDBRANCH   5   6
ENDBRANCH   4   5
ENDBRANCH   3   4
ENDBRANCH   2   3
ENDBRANCH   1   2
BRANCH   1  11
ATOM     11  C   UNL     1     146.005 151.140 149.294  1.00  0.00     0.000 C 
BRANCH  11  12
ATOM     12  C   UNL     1     145.644 151.351 147.813  1.00  0.00     0.000 C 
BRANCH  12  13
ATOM     13  C   UNL     1     144.170 151.718 147.548  1.00  0.00     0.000 C 
BRANCH  13  14
ATOM     14  C   UNL     1     143.267 150.538 147.137  1.00  0.00     0.000 C 
BRANCH  14  15
ATOM     15  C   UNL     1     144.003 149.347 146.491  1.00  0.00     0.000 C 
BRANCH  15  16
ATOM     16  C   UNL     1     143.888 149.265 144.959  1.00  0.00     0.006 C 
BRANCH  16  17
ATOM     17  C   UNL     1     144.888 150.175 144.236  1.00  0.00     0.053 C 
BRANCH  17  18
ATOM     18  C   UNL     1     145.827 149.361 143.402  1.00  0.00     0.041 C 
ATOM     19  O   UNL     1     145.756 148.103 143.414  1.00  0.00    -0.550 OA
ATOM     20  O   UNL     1     146.745 149.991 142.574  1.00  0.00    -0.550 OA
ENDBRANCH  17  18
ENDBRANCH  16  17
ENDBRANCH  15  16
ENDBRANCH  14  15
ENDBRANCH  13  14
ENDBRANCH  12  13
ENDBRANCH  11  12
ENDBRANCH   1  11
TORSDOF 15
ENDMDL
MODEL 5
REMARK VINA RESULT:    -2.671      1.613      7.226
REMARK INTER + INTRA:          -6.978
REMARK INTER:                  -4.604
REMARK INTRA:                  -2.373
REMARK UNBOUND:                -1.965
REMARK SMILES O=C([O-])CCCCCCCCCCCCCCC(=O)[O-]
REMARK SMILES IDX 10 1 9 2 8 3 7 4 6 5 5 6 4 7 2 8 1 9 3 10 11 11 12 12 13 13
REMARK SMILES IDX 14 14 15 15 16 16 17 17 18 18 19 19 20 20
REMARK H PARENT
REMARK Flexibility Score: inf
ROOT
ATOM      1  C   UNL     1     147.368 148.612 142.991  1.00  0.00     0.000 C 
ENDROOT
BRANCH   1   2
ATOM      2  C   UNL     1     146.580 149.439 141.967  1.00  0.00     0.000 C 
BRANCH   2   3
ATOM      3  C   UNL     1     145.203 149.832 142.519  1.00  0.00     0.000 C 
BRANCH   3   4
ATOM      4  C   UNL     1     145.211 149.851 144.053  1.00  0.00     0.000 C 
BRANCH   4   5
ATOM      5  C   UNL     1     143.918 149.241 144.615  1.00  0.00     0.000 C 
BRANCH   5   6
ATOM      6  C   UNL     1     143.668 149.624 146.085  1.00  0.00     0.006 C 
BRANCH   6   7
ATOM      7  C   UNL     1     144.616 150.707 146.627  1.00  0.00     0.053 C 
BRANCH   7   8
ATOM      8  C   UNL     1     145.093 150.395 148.011  1.00  0.00     0.041 C 
ATOM      9  O   UNL     1     144.747 149.323 148.574  1.00  0.00    -0.550 OA
ATOM     10  O   UNL     1     145.892 151.304 148.694  1.00  0.00    -0.550 OA
ENDBRANCH   7   8
ENDBRANCH   6   7
ENDBRANCH   5   6
ENDBRANCH   4   5
ENDBRANCH   3   4
ENDBRANCH   2   3
ENDBRANCH   1   2
BRANCH   1  11
ATOM     11  C   UNL     1     147.661 147.205 142.451  1.00  0.00     0.000 C 
BRANCH  11  12
ATOM     12  C   UNL     1     147.239 146.091 143.426  1.00  0.00     0.000 C 
BRANCH  12  13
ATOM     13  C   UNL     1     145.742 146.082 143.796  1.00  0.00     0.000 C 
BRANCH  13  14
ATOM     14  C   UNL     1     144.803 145.526 142.707  1.00  0.00     0.000 C 
BRANCH  14  15
ATOM     15  C   UNL     1     143.810 146.547 142.119  1.00  0.00     0.000 C 
BRANCH  15  16
ATOM     16  C   UNL     1     143.870 146.706 140.589  1.00  0.00     0.006 C 
BRANCH  16  17
ATOM     17  C   UNL     1     145.207 146.247 139.994  1.00  0.00     0.053 C 
BRANCH  17  18
ATOM     18  C   UNL     1     145.809 147.332 139.160  1.00  0.00     0.041 C 
ATOM     19  O   UNL     1     147.008 147.248 138.780  1.00  0.00    -0.550 OA
ATOM     20  O   UNL     1     145.035 148.413 138.760  1.00  0.00    -0.550 OA
ENDBRANCH  17  18
ENDBRANCH  16  17
ENDBRANCH  15  16
ENDBRANCH  14  15
ENDBRANCH  13  14
ENDBRANCH  12  13
ENDBRANCH  11  12
ENDBRANCH   1  11
TORSDOF 15
ENDMDL
MODEL 6
REMARK VINA RESULT:    -2.654      3.757      9.392
REMARK INTER + INTRA:          -6.946
REMARK INTER:                  -4.950
REMARK INTRA:                  -1.995
REMARK UNBOUND:                -1.965
REMARK SMILES O=C([O-])CCCCCCCCCCCCCCC(=O)[O-]
REMARK SMILES IDX 10 1 9 2 8 3 7 4 6 5 5 6 4 7 2 8 1 9 3 10 11 11 12 12 13 13
REMARK SMILES IDX 14 14 15 15 16 16 17 17 18 18 19 19 20 20
REMARK H PARENT
REMARK Flexibility Score: inf
ROOT
ATOM      1  C   UNL     1     145.423 151.130 147.651  1.00  0.00     0.000 C 
ENDROOT
BRANCH   1   2
ATOM      2  C   UNL     1     145.978 151.067 149.080  1.00  0.00     0.000 C 
BRANCH   2   3
ATOM      3  C   UNL     1     145.919 149.635 149.630  1.00  0.00     0.000 C 
BRANCH   3   4
ATOM      4  C   UNL     1     145.171 149.591 150.968  1.00  0.00     0.000 C 
BRANCH   4   5
ATOM      5  C   UNL     1     143.652 149.639 150.750  1.00  0.00     0.000 C 
BRANCH   5   6
ATOM      6  C   UNL     1     142.955 150.692 151.629  1.00  0.00     0.006 C 
BRANCH   6   7
ATOM      7  C   UNL     1     143.231 152.147 151.213  1.00  0.00     0.053 C 
BRANCH   7   8
ATOM      8  C   UNL     1     144.035 152.882 152.241  1.00  0.00     0.041 C 
ATOM      9  O   UNL     1     145.284 152.982 152.117  1.00  0.00    -0.550 OA
ATOM     10  O   UNL     1     143.408 153.429 153.354  1.00  0.00    -0.550 OA
ENDBRANCH   7   8
ENDBRANCH   6   7
ENDBRANCH   5   6
ENDBRANCH   4   5
ENDBRANCH   3   4
ENDBRANCH   2   3
ENDBRANCH   1   2
BRANCH   1  11
ATOM     11  C   UNL     1     144.008 151.725 147.638  1.00  0.00     0.000 C 
BRANCH  11  12
ATOM     12  C   UNL     1     142.923 150.682 147.312  1.00  0.00     0.000 C 
BRANCH  12  13
ATOM     13  C   UNL     1     143.457 149.291 146.917  1.00  0.00     0.000 C 
BRANCH  13  14
ATOM     14  C   UNL     1     143.195 148.883 145.454  1.00  0.00     0.000 C 
BRANCH  14  15
ATOM     15  C   UNL     1     143.408 150.003 144.416  1.00  0.00     0.000 C 
BRANCH  15  16
ATOM     16  C   UNL     1     144.851 150.149 143.904  1.00  0.00     0.006 C 
BRANCH  16  17
ATOM     17  C   UNL     1     145.343 148.910 143.145  1.00  0.00     0.053 C 
BRANCH  17  18
ATOM     18  C   UNL     1     146.788 149.055 142.787  1.00  0.00     0.041 C 
ATOM     19  O   UNL     1     147.592 148.110 143.008  1.00  0.00    -0.550 OA
ATOM     20  O   UNL     1     147.238 150.211 142.165  1.00  0.00    -0.550 OA
ENDBRANCH  17  18
ENDBRANCH  16  17
ENDBRANCH  15  16
ENDBRANCH  14  15
ENDBRANCH  13  14
ENDBRANCH  12  13
ENDBRANCH  11  12
ENDBRANCH   1  11
TORSDOF 15
ENDMDL
MODEL 7
REMARK VINA RESULT:    -2.643      1.733      6.754
REMARK INTER + INTRA:          -6.925
REMARK INTER:                  -4.487
REMARK INTRA:                  -2.439
REMARK UNBOUND:                -1.965
REMARK SMILES O=C([O-])CCCCCCCCCCCCCCC(=O)[O-]
REMARK SMILES IDX 10 1 9 2 8 3 7 4 6 5 5 6 4 7 2 8 1 9 3 10 11 11 12 12 13 13
REMARK SMILES IDX 14 14 15 15 16 16 17 17 18 18 19 19 20 20
REMARK H PARENT
REMARK Flexibility Score: inf
ROOT
ATOM      1  C   UNL     1     146.061 145.944 142.939  1.00  0.00     0.000 C 
ENDROOT
BRANCH   1   2
ATOM      2  C   UNL     1     145.708 145.418 144.336  1.00  0.00     0.000 C 
BRANCH   2   3
ATOM      3  C   UNL     1     144.473 146.135 144.899  1.00  0.00     0.000 C 
BRANCH   3   4
ATOM      4  C   UNL     1     143.603 146.700 143.769  1.00  0.00     0.000 C 
BRANCH   4   5
ATOM      5  C   UNL     1     143.330 148.196 143.982  1.00  0.00     0.000 C 
BRANCH   5   6
ATOM      6  C   UNL     1     144.015 148.755 145.242  1.00  0.00     0.006 C 
BRANCH   6   7
ATOM      7  C   UNL     1     144.551 150.188 145.088  1.00  0.00     0.053 C 
BRANCH   7   8
ATOM      8  C   UNL     1     144.375 150.991 146.340  1.00  0.00     0.041 C 
ATOM      9  O   UNL     1     145.134 150.801 147.327  1.00  0.00    -0.550 OA
ATOM     10  O   UNL     1     143.351 151.925 146.429  1.00  0.00    -0.550 OA
ENDBRANCH   7   8
ENDBRANCH   6   7
ENDBRANCH   5   6
ENDBRANCH   4   5
ENDBRANCH   3   4
ENDBRANCH   2   3
ENDBRANCH   1   2
BRANCH   1  11
ATOM     11  C   UNL     1     147.323 146.817 142.984  1.00  0.00     0.000 C 
BRANCH  11  12
ATOM     12  C   UNL     1     147.011 148.324 142.934  1.00  0.00     0.000 C 
BRANCH  12  13
ATOM     13  C   UNL     1     146.717 148.880 141.527  1.00  0.00     0.000 C 
BRANCH  13  14
ATOM     14  C   UNL     1     145.540 149.874 141.450  1.00  0.00     0.000 C 
BRANCH  14  15
ATOM     15  C   UNL     1     144.312 149.373 140.665  1.00  0.00     0.000 C 
BRANCH  15  16
ATOM     16  C   UNL     1     144.367 147.891 140.251  1.00  0.00     0.006 C 
BRANCH  16  17
ATOM     17  C   UNL     1     143.919 147.660 138.803  1.00  0.00     0.053 C 
BRANCH  17  18
ATOM     18  C   UNL     1     145.059 147.883 137.861  1.00  0.00     0.041 C 
ATOM     19  O   UNL     1     144.885 148.544 136.803  1.00  0.00    -0.550 OA
ATOM     20  O   UNL     1     146.324 147.406 138.175  1.00  0.00    -0.550 OA
ENDBRANCH  17  18
ENDBRANCH  16  17
ENDBRANCH  15  16
ENDBRANCH  14  15
ENDBRANCH  13  14
ENDBRANCH  12  13
ENDBRANCH  11  12
ENDBRANCH   1  11
TORSDOF 15
ENDMDL
MODEL 8
REMARK VINA RESULT:    -2.613      1.747      3.062
REMARK INTER + INTRA:          -6.869
REMARK INTER:                  -4.409
REMARK INTRA:                  -2.460
REMARK UNBOUND:                -1.965
REMARK SMILES O=C([O-])CCCCCCCCCCCCCCC(=O)[O-]
REMARK SMILES IDX 10 1 9 2 8 3 7 4 6 5 5 6 4 7 2 8 1 9 3 10 11 11 12 12 13 13
REMARK SMILES IDX 14 14 15 15 16 16 17 17 18 18 19 19 20 20
REMARK H PARENT
REMARK Flexibility Score: inf
ROOT
ATOM      1  C   UNL     1     147.459 147.845 142.623  1.00  0.00     0.000 C 
ENDROOT
BRANCH   1   2
ATOM      2  C   UNL     1     146.642 149.081 143.020  1.00  0.00     0.000 C 
BRANCH   2   3
ATOM      3  C   UNL     1     146.242 149.896 141.784  1.00  0.00     0.000 C 
BRANCH   3   4
ATOM      4  C   UNL     1     144.716 149.971 141.644  1.00  0.00     0.000 C 
BRANCH   4   5
ATOM      5  C   UNL     1     144.185 148.810 140.791  1.00  0.00     0.000 C 
BRANCH   5   6
ATOM      6  C   UNL     1     145.175 148.373 139.697  1.00  0.00     0.006 C 
BRANCH   6   7
ATOM      7  C   UNL     1     145.246 146.852 139.479  1.00  0.00     0.053 C 
BRANCH   7   8
ATOM      8  C   UNL     1     146.650 146.381 139.256  1.00  0.00     0.041 C 
ATOM      9  O   UNL     1     147.135 145.470 139.977  1.00  0.00    -0.550 OA
ATOM     10  O   UNL     1     147.434 146.973 138.274  1.00  0.00    -0.550 OA
ENDBRANCH   7   8
ENDBRANCH   6   7
ENDBRANCH   5   6
ENDBRANCH   4   5
ENDBRANCH   3   4
ENDBRANCH   2   3
ENDBRANCH   1   2
BRANCH   1  11
ATOM     11  C   UNL     1     146.962 146.597 143.368  1.00  0.00     0.000 C 
BRANCH  11  12
ATOM     12  C   UNL     1     145.470 146.309 143.125  1.00  0.00     0.000 C 
BRANCH  12  13
ATOM     13  C   UNL     1     144.642 146.045 144.399  1.00  0.00     0.000 C 
BRANCH  13  14
ATOM     14  C   UNL     1     143.283 146.771 144.456  1.00  0.00     0.000 C 
BRANCH  14  15
ATOM     15  C   UNL     1     143.367 148.309 144.523  1.00  0.00     0.000 C 
BRANCH  15  16
ATOM     16  C   UNL     1     143.961 148.871 145.827  1.00  0.00     0.006 C 
BRANCH  16  17
ATOM     17  C   UNL     1     144.401 150.335 145.699  1.00  0.00     0.053 C 
BRANCH  17  18
ATOM     18  C   UNL     1     144.783 150.884 147.037  1.00  0.00     0.041 C 
ATOM     19  O   UNL     1     144.835 152.130 147.218  1.00  0.00    -0.550 OA
ATOM     20  O   UNL     1     145.032 150.024 148.097  1.00  0.00    -0.550 OA
ENDBRANCH  17  18
ENDBRANCH  16  17
ENDBRANCH  15  16
ENDBRANCH  14  15
ENDBRANCH  13  14
ENDBRANCH  12  13
ENDBRANCH  11  12
ENDBRANCH   1  11
TORSDOF 15
ENDMDL
MODEL 9
REMARK VINA RESULT:    -2.602      1.451      2.164
REMARK INTER + INTRA:          -6.849
REMARK INTER:                  -4.677
REMARK INTRA:                  -2.171
REMARK UNBOUND:                -1.965
REMARK SMILES O=C([O-])CCCCCCCCCCCCCCC(=O)[O-]
REMARK SMILES IDX 10 1 9 2 8 3 7 4 6 5 5 6 4 7 2 8 1 9 3 10 11 11 12 12 13 13
REMARK SMILES IDX 14 14 15 15 16 16 17 17 18 18 19 19 20 20
REMARK H PARENT
REMARK Flexibility Score: inf
ROOT
ATOM      1  C   UNL     1     147.373 147.029 142.580  1.00  0.00     0.000 C 
ENDROOT
BRANCH   1   2
ATOM      2  C   UNL     1     146.277 146.247 143.315  1.00  0.00     0.000 C 
BRANCH   2   3
ATOM      3  C   UNL     1     145.051 146.041 142.416  1.00  0.00     0.000 C 
BRANCH   3   4
ATOM      4  C   UNL     1     145.453 146.005 140.937  1.00  0.00     0.000 C 
BRANCH   4   5
ATOM      5  C   UNL     1     144.569 146.946 140.105  1.00  0.00     0.000 C 
BRANCH   5   6
ATOM      6  C   UNL     1     145.374 147.791 139.102  1.00  0.00     0.006 C 
BRANCH   6   7
ATOM      7  C   UNL     1     146.821 147.313 138.890  1.00  0.00     0.053 C 
BRANCH   7   8
ATOM      8  C   UNL     1     147.008 146.663 137.554  1.00  0.00     0.041 C 
ATOM      9  O   UNL     1     146.035 146.108 136.977  1.00  0.00    -0.550 OA
ATOM     10  O   UNL     1     148.264 146.640 136.961  1.00  0.00    -0.550 OA
ENDBRANCH   7   8
ENDBRANCH   6   7
ENDBRANCH   5   6
ENDBRANCH   4   5
ENDBRANCH   3   4
ENDBRANCH   2   3
ENDBRANCH   1   2
BRANCH   1  11
ATOM     11  C   UNL     1     147.375 148.504 143.007  1.00  0.00     0.000 C 
BRANCH  11  12
ATOM     12  C   UNL     1     146.629 149.415 142.016  1.00  0.00     0.000 C 
BRANCH  12  13
ATOM     13  C   UNL     1     145.217 149.844 142.462  1.00  0.00     0.000 C 
BRANCH  13  14
ATOM     14  C   UNL     1     145.025 149.971 143.987  1.00  0.00     0.000 C 
BRANCH  14  15
ATOM     15  C   UNL     1     144.040 148.960 144.606  1.00  0.00     0.000 C 
BRANCH  15  16
ATOM     16  C   UNL     1     143.880 149.061 146.134  1.00  0.00     0.006 C 
BRANCH  16  17
ATOM     17  C   UNL     1     144.231 150.451 146.679  1.00  0.00     0.053 C 
BRANCH  17  18
ATOM     18  C   UNL     1     144.971 150.333 147.974  1.00  0.00     0.041 C 
ATOM     19  O   UNL     1     144.777 149.341 148.725  1.00  0.00    -0.550 OA
ATOM     20  O   UNL     1     145.911 151.291 148.327  1.00  0.00    -0.550 OA
ENDBRANCH  17  18
ENDBRANCH  16  17
ENDBRANCH  15  16
ENDBRANCH  14  15
ENDBRANCH  13  14
ENDBRANCH  12  13
ENDBRANCH  11  12
ENDBRANCH   1  11
TORSDOF 15
ENDMDL
