MODEL 1
REMARK VINA RESULT:    -4.748      0.000      0.000
REMARK INTER + INTRA:         -10.870
REMARK INTER:                  -8.356
REMARK INTRA:                  -2.514
REMARK UNBOUND:                -2.514
REMARK SMILES CCCCCCCCCCCCCCC(=O)[O-]
REMARK SMILES IDX 9 1 10 2 11 3 12 4 13 5 14 6 15 7 16 8 17 9 8 10 7 11 6 12
REMARK SMILES IDX 5 13 4 14 3 15 2 16 1 17
REMARK H PARENT
REMARK Flexibility Score: inf
ROOT
ATOM      1  C   UNL     1      49.333   9.319  -4.968  1.00  0.00     0.000 C 
ENDROOT
BRANCH   1   2
ATOM      2  C   UNL     1      48.183  10.147  -4.377  1.00  0.00     0.000 C 
BRANCH   2   3
ATOM      3  C   UNL     1      48.246  11.600  -4.863  1.00  0.00     0.000 C 
BRANCH   3   4
ATOM      4  C   UNL     1      46.986  11.973  -5.653  1.00  0.00     0.000 C 
BRANCH   4   5
ATOM      5  C   UNL     1      47.338  12.377  -7.092  1.00  0.00     0.006 C 
BRANCH   5   6
ATOM      6  C   UNL     1      46.117  12.893  -7.865  1.00  0.00     0.053 C 
BRANCH   6   7
ATOM      7  C   UNL     1      45.997  12.245  -9.210  1.00  0.00     0.041 C 
ATOM      8  O   UNL     1      46.991  12.198  -9.982  1.00  0.00    -0.550 OA
ATOM      9  O   UNL     1      44.796  11.666  -9.598  1.00  0.00    -0.550 OA
ENDBRANCH   6   7
ENDBRANCH   5   6
ENDBRANCH   4   5
ENDBRANCH   3   4
ENDBRANCH   2   3
ENDBRANCH   1   2
BRANCH   1  10
ATOM     10  C   UNL     1      50.278  10.155  -5.846  1.00  0.00     0.000 C 
BRANCH  10  11
ATOM     11  C   UNL     1      50.175   9.789  -7.338  1.00  0.00    -0.000 C 
BRANCH  11  12
ATOM     12  C   UNL     1      49.163   8.661  -7.599  1.00  0.00    -0.000 C 
BRANCH  12  13
ATOM     13  C   UNL     1      48.032   9.093  -8.548  1.00  0.00    -0.000 C 
BRANCH  13  14
ATOM     14  C   UNL     1      46.639   8.655  -8.058  1.00  0.00    -0.000 C 
BRANCH  14  15
ATOM     15  C   UNL     1      46.640   7.732  -6.826  1.00  0.00    -0.000 C 
BRANCH  15  16
ATOM     16  C   UNL     1      45.454   7.988  -5.884  1.00  0.00    -0.003 C 
ATOM     17  C   UNL     1      44.642   9.197  -6.341  1.00  0.00     0.004 C 
ENDBRANCH  15  16
ENDBRANCH  14  15
ENDBRANCH  13  14
ENDBRANCH  12  13
ENDBRANCH  11  12
ENDBRANCH  10  11
ENDBRANCH   1  10
TORSDOF 13
ENDMDL
MODEL 2
REMARK VINA RESULT:    -4.738      2.802      4.902
REMARK INTER + INTRA:         -10.852
REMARK INTER:                  -8.418
REMARK INTRA:                  -2.434
REMARK UNBOUND:                -2.514
REMARK SMILES CCCCCCCCCCCCCCC(=O)[O-]
REMARK SMILES IDX 9 1 10 2 11 3 12 4 13 5 14 6 15 7 16 8 17 9 8 10 7 11 6 12
REMARK SMILES IDX 5 13 4 14 3 15 2 16 1 17
REMARK H PARENT
REMARK Flexibility Score: inf
ROOT
ATOM      1  C   UNL     1      49.614  11.620  -6.747  1.00  0.00     0.000 C 
ENDROOT
BRANCH   1   2
ATOM      2  C   UNL     1      50.037  10.301  -7.410  1.00  0.00     0.000 C 
BRANCH   2   3
ATOM      3  C   UNL     1      49.351   9.104  -6.739  1.00  0.00     0.000 C 
BRANCH   3   4
ATOM      4  C   UNL     1      48.673   8.203  -7.778  1.00  0.00     0.000 C 
BRANCH   4   5
ATOM      5  C   UNL     1      47.263   7.802  -7.322  1.00  0.00     0.006 C 
BRANCH   5   6
ATOM      6  C   UNL     1      46.958   8.275  -5.894  1.00  0.00     0.053 C 
BRANCH   6   7
ATOM      7  C   UNL     1      46.330   7.191  -5.073  1.00  0.00     0.041 C 
ATOM      8  O   UNL     1      46.116   7.369  -3.845  1.00  0.00    -0.550 OA
ATOM      9  O   UNL     1      45.954   5.996  -5.671  1.00  0.00    -0.550 OA
ENDBRANCH   6   7
ENDBRANCH   5   6
ENDBRANCH   4   5
ENDBRANCH   3   4
ENDBRANCH   2   3
ENDBRANCH   1   2
BRANCH   1  10
ATOM     10  C   UNL     1      48.920  11.408  -5.392  1.00  0.00     0.000 C 
BRANCH  10  11
ATOM     11  C   UNL     1      47.690  12.315  -5.210  1.00  0.00    -0.000 C 
BRANCH  11  12
ATOM     12  C   UNL     1      46.514  11.898  -6.110  1.00  0.00    -0.000 C 
BRANCH  12  13
ATOM     13  C   UNL     1      46.068  13.025  -7.057  1.00  0.00    -0.000 C 
BRANCH  13  14
ATOM     14  C   UNL     1      46.125  12.618  -8.541  1.00  0.00    -0.000 C 
BRANCH  14  15
ATOM     15  C   UNL     1      46.176  11.101  -8.801  1.00  0.00    -0.000 C 
BRANCH  15  16
ATOM     16  C   UNL     1      47.142  10.720  -9.933  1.00  0.00    -0.003 C 
ATOM     17  C   UNL     1      48.145  11.839 -10.198  1.00  0.00     0.004 C 
ENDBRANCH  15  16
ENDBRANCH  14  15
ENDBRANCH  13  14
ENDBRANCH  12  13
ENDBRANCH  11  12
ENDBRANCH  10  11
ENDBRANCH   1  10
TORSDOF 13
ENDMDL
MODEL 3
REMARK VINA RESULT:    -4.735     16.654     18.966
REMARK INTER + INTRA:         -10.847
REMARK INTER:                  -8.546
REMARK INTRA:                  -2.300
REMARK UNBOUND:                -2.514
REMARK SMILES CCCCCCCCCCCCCCC(=O)[O-]
REMARK SMILES IDX 9 1 10 2 11 3 12 4 13 5 14 6 15 7 16 8 17 9 8 10 7 11 6 12
REMARK SMILES IDX 5 13 4 14 3 15 2 16 1 17
REMARK H PARENT
REMARK Flexibility Score: inf
ROOT
ATOM      1  C   UNL     1      36.476  -0.520   6.097  1.00  0.00     0.000 C 
ENDROOT
BRANCH   1   2
ATOM      2  C   UNL     1      37.489   0.513   6.610  1.00  0.00     0.000 C 
BRANCH   2   3
ATOM      3  C   UNL     1      36.777   1.694   7.283  1.00  0.00     0.000 C 
BRANCH   3   4
ATOM      4  C   UNL     1      37.602   2.980   7.158  1.00  0.00     0.000 C 
BRANCH   4   5
ATOM      5  C   UNL     1      36.858   4.173   7.776  1.00  0.00     0.006 C 
BRANCH   5   6
ATOM      6  C   UNL     1      36.483   5.229   6.728  1.00  0.00     0.053 C 
BRANCH   6   7
ATOM      7  C   UNL     1      34.999   5.353   6.571  1.00  0.00     0.041 C 
ATOM      8  O   UNL     1      34.496   6.408   6.103  1.00  0.00    -0.550 OA
ATOM      9  O   UNL     1      34.173   4.290   6.914  1.00  0.00    -0.550 OA
ENDBRANCH   6   7
ENDBRANCH   5   6
ENDBRANCH   4   5
ENDBRANCH   3   4
ENDBRANCH   2   3
ENDBRANCH   1   2
BRANCH   1  10
ATOM     10  C   UNL     1      36.852  -1.089   4.719  1.00  0.00     0.000 C 
BRANCH  10  11
ATOM     11  C   UNL     1      35.654  -1.139   3.754  1.00  0.00    -0.000 C 
BRANCH  11  12
ATOM     12  C   UNL     1      34.554  -0.132   4.130  1.00  0.00    -0.000 C 
BRANCH  12  13
ATOM     13  C   UNL     1      34.439   1.019   3.117  1.00  0.00    -0.000 C 
BRANCH  13  14
ATOM     14  C   UNL     1      34.597   2.407   3.766  1.00  0.00    -0.000 C 
BRANCH  14  15
ATOM     15  C   UNL     1      36.046   2.919   3.868  1.00  0.00    -0.000 C 
BRANCH  15  16
ATOM     16  C   UNL     1      36.962   2.344   2.777  1.00  0.00    -0.003 C 
ATOM     17  C   UNL     1      38.335   1.992   3.344  1.00  0.00     0.004 C 
ENDBRANCH  15  16
ENDBRANCH  14  15
ENDBRANCH  13  14
ENDBRANCH  12  13
ENDBRANCH  11  12
ENDBRANCH  10  11
ENDBRANCH   1  10
TORSDOF 13
ENDMDL
MODEL 4
REMARK VINA RESULT:    -4.731      1.355      2.101
REMARK INTER + INTRA:         -10.841
REMARK INTER:                  -8.366
REMARK INTRA:                  -2.475
REMARK UNBOUND:                -2.514
REMARK SMILES CCCCCCCCCCCCCCC(=O)[O-]
REMARK SMILES IDX 9 1 10 2 11 3 12 4 13 5 14 6 15 7 16 8 17 9 8 10 7 11 6 12
REMARK SMILES IDX 5 13 4 14 3 15 2 16 1 17
REMARK H PARENT
REMARK Flexibility Score: inf
ROOT
ATOM      1  C   UNL     1      48.809  11.776  -5.667  1.00  0.00     0.000 C 
ENDROOT
BRANCH   1   2
ATOM      2  C   UNL     1      47.401  12.038  -5.113  1.00  0.00     0.000 C 
BRANCH   2   3
ATOM      3  C   UNL     1      46.506  12.690  -6.174  1.00  0.00     0.000 C 
BRANCH   3   4
ATOM      4  C   UNL     1      46.919  12.257  -7.586  1.00  0.00     0.000 C 
BRANCH   4   5
ATOM      5  C   UNL     1      45.857  12.662  -8.618  1.00  0.00     0.006 C 
BRANCH   5   6
ATOM      6  C   UNL     1      45.566  11.538  -9.622  1.00  0.00     0.053 C 
BRANCH   6   7
ATOM      7  C   UNL     1      44.493  10.617  -9.128  1.00  0.00     0.041 C 
ATOM      8  O   UNL     1      44.399   9.448  -9.588  1.00  0.00    -0.550 OA
ATOM      9  O   UNL     1      43.616  11.040  -8.138  1.00  0.00    -0.550 OA
ENDBRANCH   6   7
ENDBRANCH   5   6
ENDBRANCH   4   5
ENDBRANCH   3   4
ENDBRANCH   2   3
ENDBRANCH   1   2
BRANCH   1  10
ATOM     10  C   UNL     1      49.634  10.836  -4.774  1.00  0.00     0.000 C 
BRANCH  10  11
ATOM     11  C   UNL     1      50.143   9.596  -5.531  1.00  0.00    -0.000 C 
BRANCH  11  12
ATOM     12  C   UNL     1      50.040   9.757  -7.057  1.00  0.00    -0.000 C 
BRANCH  12  13
ATOM     13  C   UNL     1      49.369   8.549  -7.733  1.00  0.00    -0.000 C 
BRANCH  13  14
ATOM     14  C   UNL     1      47.914   8.830  -8.152  1.00  0.00    -0.000 C 
BRANCH  14  15
ATOM     15  C   UNL     1      46.848   7.999  -7.413  1.00  0.00    -0.000 C 
BRANCH  15  16
ATOM     16  C   UNL     1      46.161   8.777  -6.282  1.00  0.00    -0.003 C 
ATOM     17  C   UNL     1      46.683   8.339  -4.917  1.00  0.00     0.004 C 
ENDBRANCH  15  16
ENDBRANCH  14  15
ENDBRANCH  13  14
ENDBRANCH  12  13
ENDBRANCH  11  12
ENDBRANCH  10  11
ENDBRANCH   1  10
TORSDOF 13
ENDMDL
MODEL 5
REMARK VINA RESULT:    -4.728     18.668     20.139
REMARK INTER + INTRA:         -10.835
REMARK INTER:                  -8.617
REMARK INTRA:                  -2.218
REMARK UNBOUND:                -2.514
REMARK SMILES CCCCCCCCCCCCCCC(=O)[O-]
REMARK SMILES IDX 9 1 10 2 11 3 12 4 13 5 14 6 15 7 16 8 17 9 8 10 7 11 6 12
REMARK SMILES IDX 5 13 4 14 3 15 2 16 1 17
REMARK H PARENT
REMARK Flexibility Score: inf
ROOT
ATOM      1  C   UNL     1      35.397   5.619   8.012  1.00  0.00     0.000 C 
ENDROOT
BRANCH   1   2
ATOM      2  C   UNL     1      36.122   4.315   8.375  1.00  0.00     0.000 C 
BRANCH   2   3
ATOM      3  C   UNL     1      37.246   4.016   7.375  1.00  0.00     0.000 C 
BRANCH   3   4
ATOM      4  C   UNL     1      37.119   2.596   6.811  1.00  0.00     0.000 C 
BRANCH   4   5
ATOM      5  C   UNL     1      36.124   1.764   7.633  1.00  0.00     0.006 C 
BRANCH   5   6
ATOM      6  C   UNL     1      35.294   0.818   6.755  1.00  0.00     0.053 C 
BRANCH   6   7
ATOM      7  C   UNL     1      33.946   0.549   7.350  1.00  0.00     0.041 C 
ATOM      8  O   UNL     1      33.563   1.185   8.367  1.00  0.00    -0.550 OA
ATOM      9  O   UNL     1      33.101  -0.383   6.762  1.00  0.00    -0.550 OA
ENDBRANCH   6   7
ENDBRANCH   5   6
ENDBRANCH   4   5
ENDBRANCH   3   4
ENDBRANCH   2   3
ENDBRANCH   1   2
BRANCH   1  10
ATOM     10  C   UNL     1      34.614   5.516   6.693  1.00  0.00     0.000 C 
BRANCH  10  11
ATOM     11  C   UNL     1      33.656   4.311   6.667  1.00  0.00    -0.000 C 
BRANCH  11  12
ATOM     12  C   UNL     1      33.521   3.699   5.263  1.00  0.00    -0.000 C 
BRANCH  12  13
ATOM     13  C   UNL     1      34.774   3.923   4.399  1.00  0.00    -0.000 C 
BRANCH  13  14
ATOM     14  C   UNL     1      34.769   3.087   3.106  1.00  0.00    -0.000 C 
BRANCH  14  15
ATOM     15  C   UNL     1      35.441   1.706   3.218  1.00  0.00    -0.000 C 
BRANCH  15  16
ATOM     16  C   UNL     1      34.443   0.544   3.103  1.00  0.00    -0.003 C 
ATOM     17  C   UNL     1      35.104  -0.784   3.458  1.00  0.00     0.004 C 
ENDBRANCH  15  16
ENDBRANCH  14  15
ENDBRANCH  13  14
ENDBRANCH  12  13
ENDBRANCH  11  12
ENDBRANCH  10  11
ENDBRANCH   1  10
TORSDOF 13
ENDMDL
MODEL 6
REMARK VINA RESULT:    -4.717      1.943      4.269
REMARK INTER + INTRA:         -10.815
REMARK INTER:                  -8.403
REMARK INTRA:                  -2.412
REMARK UNBOUND:                -2.514
REMARK SMILES CCCCCCCCCCCCCCC(=O)[O-]
REMARK SMILES IDX 9 1 10 2 11 3 12 4 13 5 14 6 15 7 16 8 17 9 8 10 7 11 6 12
REMARK SMILES IDX 5 13 4 14 3 15 2 16 1 17
REMARK H PARENT
REMARK Flexibility Score: inf
ROOT
ATOM      1  C   UNL     1      50.379  10.125  -6.712  1.00  0.00     0.000 C 
ENDROOT
BRANCH   1   2
ATOM      2  C   UNL     1      49.325   9.025  -6.512  1.00  0.00     0.000 C 
BRANCH   2   3
ATOM      3  C   UNL     1      49.083   8.254  -7.816  1.00  0.00     0.000 C 
BRANCH   3   4
ATOM      4  C   UNL     1      47.589   7.977  -8.023  1.00  0.00     0.000 C 
BRANCH   4   5
ATOM      5  C   UNL     1      46.755   8.571  -6.879  1.00  0.00     0.006 C 
BRANCH   5   6
ATOM      6  C   UNL     1      45.396   9.095  -7.362  1.00  0.00     0.053 C 
BRANCH   6   7
ATOM      7  C   UNL     1      44.444   9.301  -6.224  1.00  0.00     0.041 C 
ATOM      8  O   UNL     1      44.778   8.983  -5.053  1.00  0.00    -0.550 OA
ATOM      9  O   UNL     1      43.200   9.873  -6.455  1.00  0.00    -0.550 OA
ENDBRANCH   6   7
ENDBRANCH   5   6
ENDBRANCH   4   5
ENDBRANCH   3   4
ENDBRANCH   2   3
ENDBRANCH   1   2
BRANCH   1  10
ATOM     10  C   UNL     1      50.332  11.199  -5.613  1.00  0.00     0.000 C 
BRANCH  10  11
ATOM     11  C   UNL     1      49.085  11.076  -4.719  1.00  0.00    -0.000 C 
BRANCH  11  12
ATOM     12  C   UNL     1      48.189  12.324  -4.785  1.00  0.00    -0.000 C 
BRANCH  12  13
ATOM     13  C   UNL     1      46.789  12.014  -5.342  1.00  0.00    -0.000 C 
BRANCH  13  14
ATOM     14  C   UNL     1      46.550  12.622  -6.736  1.00  0.00    -0.000 C 
BRANCH  14  15
ATOM     15  C   UNL     1      47.585  12.229  -7.807  1.00  0.00    -0.000 C 
BRANCH  15  16
ATOM     16  C   UNL     1      46.949  11.922  -9.171  1.00  0.00    -0.003 C 
ATOM     17  C   UNL     1      47.921  11.169 -10.073  1.00  0.00     0.004 C 
ENDBRANCH  15  16
ENDBRANCH  14  15
ENDBRANCH  13  14
ENDBRANCH  12  13
ENDBRANCH  11  12
ENDBRANCH  10  11
ENDBRANCH   1  10
TORSDOF 13
ENDMDL
MODEL 7
REMARK VINA RESULT:    -4.705      2.054      5.149
REMARK INTER + INTRA:         -10.795
REMARK INTER:                  -8.806
REMARK INTRA:                  -1.989
REMARK UNBOUND:                -2.514
REMARK SMILES CCCCCCCCCCCCCCC(=O)[O-]
REMARK SMILES IDX 9 1 10 2 11 3 12 4 13 5 14 6 15 7 16 8 17 9 8 10 7 11 6 12
REMARK SMILES IDX 5 13 4 14 3 15 2 16 1 17
REMARK H PARENT
REMARK Flexibility Score: inf
ROOT
ATOM      1  C   UNL     1      45.623  12.392  -8.404  1.00  0.00     0.000 C 
ENDROOT
BRANCH   1   2
ATOM      2  C   UNL     1      46.724  12.336  -9.473  1.00  0.00     0.000 C 
BRANCH   2   3
ATOM      3  C   UNL     1      46.695  10.998 -10.222  1.00  0.00     0.000 C 
BRANCH   3   4
ATOM      4  C   UNL     1      45.325  10.322 -10.092  1.00  0.00     0.000 C 
BRANCH   4   5
ATOM      5  C   UNL     1      45.473   8.860  -9.649  1.00  0.00     0.006 C 
BRANCH   5   6
ATOM      6  C   UNL     1      46.596   8.675  -8.619  1.00  0.00     0.053 C 
BRANCH   6   7
ATOM      7  C   UNL     1      46.057   8.533  -7.229  1.00  0.00     0.041 C 
ATOM      8  O   UNL     1      44.929   9.009  -6.934  1.00  0.00    -0.550 OA
ATOM      9  O   UNL     1      46.788   7.847  -6.267  1.00  0.00    -0.550 OA
ENDBRANCH   6   7
ENDBRANCH   5   6
ENDBRANCH   4   5
ENDBRANCH   3   4
ENDBRANCH   2   3
ENDBRANCH   1   2
BRANCH   1  10
ATOM     10  C   UNL     1      45.874  13.481  -7.349  1.00  0.00     0.000 C 
BRANCH  10  11
ATOM     11  C   UNL     1      45.857  12.928  -5.913  1.00  0.00    -0.000 C 
BRANCH  11  12
ATOM     12  C   UNL     1      46.873  11.790  -5.710  1.00  0.00    -0.000 C 
BRANCH  12  13
ATOM     13  C   UNL     1      48.066  12.215  -4.838  1.00  0.00    -0.000 C 
BRANCH  13  14
ATOM     14  C   UNL     1      49.420  11.749  -5.405  1.00  0.00    -0.000 C 
BRANCH  14  15
ATOM     15  C   UNL     1      49.369  10.452  -6.234  1.00  0.00    -0.000 C 
BRANCH  15  16
ATOM     16  C   UNL     1      49.664  10.681  -7.724  1.00  0.00    -0.003 C 
ATOM     17  C   UNL     1      50.070  12.128  -7.986  1.00  0.00     0.004 C 
ENDBRANCH  15  16
ENDBRANCH  14  15
ENDBRANCH  13  14
ENDBRANCH  12  13
ENDBRANCH  11  12
ENDBRANCH  10  11
ENDBRANCH   1  10
TORSDOF 13
ENDMDL
MODEL 8
REMARK VINA RESULT:    -4.685     16.202     18.763
REMARK INTER + INTRA:         -10.760
REMARK INTER:                  -8.814
REMARK INTRA:                  -1.946
REMARK UNBOUND:                -2.514
REMARK SMILES CCCCCCCCCCCCCCC(=O)[O-]
REMARK SMILES IDX 9 1 10 2 11 3 12 4 13 5 14 6 15 7 16 8 17 9 8 10 7 11 6 12
REMARK SMILES IDX 5 13 4 14 3 15 2 16 1 17
REMARK H PARENT
REMARK Flexibility Score: inf
ROOT
ATOM      1  C   UNL     1      36.241  -0.647   6.220  1.00  0.00     0.000 C 
ENDROOT
BRANCH   1   2
ATOM      2  C   UNL     1      37.256   0.362   6.778  1.00  0.00     0.000 C 
BRANCH   2   3
ATOM      3  C   UNL     1      36.569   1.679   7.160  1.00  0.00     0.000 C 
BRANCH   3   4
ATOM      4  C   UNL     1      37.463   2.882   6.837  1.00  0.00     0.000 C 
BRANCH   4   5
ATOM      5  C   UNL     1      38.542   2.506   5.812  1.00  0.00     0.006 C 
BRANCH   5   6
ATOM      6  C   UNL     1      38.164   2.935   4.388  1.00  0.00     0.053 C 
BRANCH   6   7
ATOM      7  C   UNL     1      38.943   2.179   3.355  1.00  0.00     0.041 C 
ATOM      8  O   UNL     1      38.424   1.198   2.761  1.00  0.00    -0.550 OA
ATOM      9  O   UNL     1      40.233   2.578   3.029  1.00  0.00    -0.550 OA
ENDBRANCH   6   7
ENDBRANCH   5   6
ENDBRANCH   4   5
ENDBRANCH   3   4
ENDBRANCH   2   3
ENDBRANCH   1   2
BRANCH   1  10
ATOM     10  C   UNL     1      36.293  -0.757   4.688  1.00  0.00     0.000 C 
BRANCH  10  11
ATOM     11  C   UNL     1      34.892  -0.798   4.051  1.00  0.00    -0.000 C 
BRANCH  11  12
ATOM     12  C   UNL     1      34.682   0.324   3.020  1.00  0.00    -0.000 C 
BRANCH  12  13
ATOM     13  C   UNL     1      34.831   1.725   3.636  1.00  0.00    -0.000 C 
BRANCH  13  14
ATOM     14  C   UNL     1      33.895   1.954   4.838  1.00  0.00    -0.000 C 
BRANCH  14  15
ATOM     15  C   UNL     1      33.352   3.388   4.980  1.00  0.00    -0.000 C 
BRANCH  15  16
ATOM     16  C   UNL     1      33.657   4.010   6.351  1.00  0.00    -0.003 C 
ATOM     17  C   UNL     1      34.566   5.228   6.211  1.00  0.00     0.004 C 
ENDBRANCH  15  16
ENDBRANCH  14  15
ENDBRANCH  13  14
ENDBRANCH  12  13
ENDBRANCH  11  12
ENDBRANCH  10  11
ENDBRANCH   1  10
TORSDOF 13
ENDMDL
MODEL 9
REMARK VINA RESULT:    -4.680     17.236     19.790
REMARK INTER + INTRA:         -10.752
REMARK INTER:                  -8.475
REMARK INTRA:                  -2.277
REMARK UNBOUND:                -2.514
REMARK SMILES CCCCCCCCCCCCCCC(=O)[O-]
REMARK SMILES IDX 9 1 10 2 11 3 12 4 13 5 14 6 15 7 16 8 17 9 8 10 7 11 6 12
REMARK SMILES IDX 5 13 4 14 3 15 2 16 1 17
REMARK H PARENT
REMARK Flexibility Score: inf
ROOT
ATOM      1  C   UNL     1      34.247   2.246   8.750  1.00  0.00     0.000 C 
ENDROOT
BRANCH   1   2
ATOM      2  C   UNL     1      34.702   3.054   7.526  1.00  0.00     0.000 C 
BRANCH   2   3
ATOM      3  C   UNL     1      33.518   3.781   6.875  1.00  0.00     0.000 C 
BRANCH   3   4
ATOM      4  C   UNL     1      33.466   3.510   5.367  1.00  0.00     0.000 C 
BRANCH   4   5
ATOM      5  C   UNL     1      34.836   3.062   4.841  1.00  0.00     0.006 C 
BRANCH   5   6
ATOM      6  C   UNL     1      34.919   3.124   3.310  1.00  0.00     0.053 C 
BRANCH   6   7
ATOM      7  C   UNL     1      35.753   4.278   2.845  1.00  0.00     0.041 C 
ATOM      8  O   UNL     1      36.178   4.317   1.660  1.00  0.00    -0.550 OA
ATOM      9  O   UNL     1      36.035   5.325   3.713  1.00  0.00    -0.550 OA
ENDBRANCH   6   7
ENDBRANCH   5   6
ENDBRANCH   4   5
ENDBRANCH   3   4
ENDBRANCH   2   3
ENDBRANCH   1   2
BRANCH   1  10
ATOM     10  C   UNL     1      33.271   1.115   8.386  1.00  0.00     0.000 C 
BRANCH  10  11
ATOM     11  C   UNL     1      33.965  -0.053   7.662  1.00  0.00    -0.000 C 
BRANCH  11  12
ATOM     12  C   UNL     1      33.504  -0.194   6.201  1.00  0.00    -0.000 C 
BRANCH  12  13
ATOM     13  C   UNL     1      34.670  -0.493   5.243  1.00  0.00    -0.000 C 
BRANCH  13  14
ATOM     14  C   UNL     1      35.985  -0.809   5.979  1.00  0.00    -0.000 C 
BRANCH  14  15
ATOM     15  C   UNL     1      37.142   0.169   5.700  1.00  0.00    -0.000 C 
BRANCH  15  16
ATOM     16  C   UNL     1      37.654   0.869   6.967  1.00  0.00    -0.003 C 
ATOM     17  C   UNL     1      38.120   2.289   6.660  1.00  0.00     0.004 C 
ENDBRANCH  15  16
ENDBRANCH  14  15
ENDBRANCH  13  14
ENDBRANCH  12  13
ENDBRANCH  11  12
ENDBRANCH  10  11
ENDBRANCH   1  10
TORSDOF 13
ENDMDL
