MODEL 1
REMARK VINA RESULT:    -4.593      0.000      0.000
REMARK INTER + INTRA:          -9.723
REMARK INTER:                  -7.547
REMARK INTRA:                  -2.176
REMARK UNBOUND:                -2.176
REMARK SMILES COc1ccc([C@H]2CC(=O)c3c(O)cc(O[C@@H]4O[C@@H](CO[C@@H]5O[C@H](C)[C@@H](O)[C@H](O)[C@H]5O)[C@@H](O)[C@@H](O)[C@@H]4O)cc3O2)cc1O
REMARK SMILES IDX 19 1 32 2 34 3 36 4 17 5 18 6 20 7 21 8 22 9 25 10 24 11
REMARK SMILES IDX 26 12 23 13 28 14 30 15 27 16 29 18 31 20 33 22 35 24 16 26
REMARK SMILES IDX 15 27 14 28 38 29 12 30 39 31 11 32 40 33 9 34 7 35 10 36
REMARK SMILES IDX 8 37 13 38 6 40 41 41 5 42 42 43 4 44 3 45 43 46 2 48 1 49
REMARK SMILES IDX 37 50
REMARK H PARENT 27 17 29 19 31 21 33 23 35 25 13 39 43 47 37 51
REMARK Flexibility Score: inf
ROOT
ATOM      1  C   UNL     1     -95.500  25.965 -38.622  1.00  0.00     0.180 C 
ATOM      2  C   UNL     1     -95.379  27.383 -39.248  1.00  0.00     0.177 C 
ATOM      3  C   UNL     1     -96.562  28.268 -38.814  1.00  0.00     0.180 C 
ATOM      4  C   UNL     1     -97.900  27.519 -39.017  1.00  0.00     0.214 C 
ATOM      5  C   UNL     1     -97.835  26.107 -38.398  1.00  0.00     0.339 C 
ATOM      6  O   UNL     1     -96.750  25.367 -38.938  1.00  0.00    -0.332 OA
ENDROOT
BRANCH   1   7
ATOM      7  C   UNL     1     -94.368  25.059 -39.122  1.00  0.00     0.198 C 
BRANCH   7   8
ATOM      8  O   UNL     1     -94.792  24.366 -40.282  1.00  0.00    -0.347 OA
BRANCH   8   9
ATOM      9  C   UNL     1     -94.135  23.110 -40.402  1.00  0.00     0.281 C 
ATOM     10  C   UNL     1     -96.240  23.582 -42.634  1.00  0.00     0.041 C 
ATOM     11  C   UNL     1     -95.412  22.339 -42.273  1.00  0.00     0.150 C 
ATOM     12  C   UNL     1     -96.191  21.312 -41.408  1.00  0.00     0.174 C 
ATOM     13  O   UNL     1     -94.129  22.670 -41.753  1.00  0.00    -0.344 OA
ATOM     14  C   UNL     1     -96.173  21.660 -39.908  1.00  0.00     0.179 C 
ATOM     15  C   UNL     1     -94.768  22.079 -39.443  1.00  0.00     0.202 C 
BRANCH  12  16
ATOM     16  O   UNL     1     -95.705  20.005 -41.615  1.00  0.00    -0.388 OA
ATOM     17  H   UNL     1     -96.158  19.628 -42.411  1.00  0.00     0.211 HD
ENDBRANCH  12  16
BRANCH  14  18
ATOM     18  O   UNL     1     -97.093  22.689 -39.650  1.00  0.00    -0.387 OA
ATOM     19  H   UNL     1     -97.974  22.374 -39.980  1.00  0.00     0.211 HD
ENDBRANCH  14  18
BRANCH  15  20
ATOM     20  O   UNL     1     -93.948  20.942 -39.349  1.00  0.00    -0.385 OA
ATOM     21  H   UNL     1     -93.456  21.005 -38.490  1.00  0.00     0.211 HD
ENDBRANCH  15  20
ENDBRANCH   8   9
ENDBRANCH   7   8
ENDBRANCH   1   7
BRANCH   2  22
ATOM     22  O   UNL     1     -95.266  27.334 -40.653  1.00  0.00    -0.387 OA
ATOM     23  H   UNL     1     -94.500  26.742 -40.877  1.00  0.00     0.211 HD
ENDBRANCH   2  22
BRANCH   3  24
ATOM     24  O   UNL     1     -96.558  29.461 -39.559  1.00  0.00    -0.387 OA
ATOM     25  H   UNL     1     -95.713  29.471 -40.077  1.00  0.00     0.211 HD
ENDBRANCH   3  24
BRANCH   5  26
ATOM     26  O   UNL     1     -97.752  26.196 -36.973  1.00  0.00    -0.462 OA
BRANCH  26  27
ATOM     27  C   UNL     1     -98.270  25.265 -36.062  1.00  0.00     0.130 A 
ATOM     28  C   UNL     1     -99.158  24.244 -36.436  1.00  0.00     0.093 A 
ATOM     29  C   UNL     1     -97.877  25.375 -34.730  1.00  0.00     0.094 A 
ATOM     30  C   UNL     1     -99.647  23.334 -35.487  1.00  0.00     0.133 A 
ATOM     31  C   UNL     1     -98.321  24.456 -33.777  1.00  0.00     0.138 A 
ATOM     32  C   UNL     1     -99.193  23.409 -34.143  1.00  0.00     0.102 A 
ATOM     33  O   UNL     1     -97.883  24.594 -32.455  1.00  0.00    -0.484 OA
ATOM     34  C   UNL     1     -99.579  22.455 -33.069  1.00  0.00     0.174 C 
ATOM     35  C   UNL     1     -98.013  23.553 -31.487  1.00  0.00     0.211 C 
ATOM     36  O   UNL     1    -100.060  21.320 -33.332  1.00  0.00    -0.294 OA
ATOM     37  C   UNL     1     -99.370  22.841 -31.633  1.00  0.00     0.131 C 
BRANCH  30  38
ATOM     38  O   UNL     1    -100.599  22.408 -35.922  1.00  0.00    -0.507 OA
ATOM     39  H   UNL     1    -100.673  21.461 -35.574  1.00  0.00     0.293 HD
ENDBRANCH  30  38
BRANCH  35  40
ATOM     40  C   UNL     1     -97.805  24.139 -30.109  1.00  0.00    -0.003 A 
ATOM     41  C   UNL     1     -97.279  23.335 -29.081  1.00  0.00     0.057 A 
ATOM     42  C   UNL     1     -97.992  25.511 -29.870  1.00  0.00     0.011 A 
ATOM     43  C   UNL     1     -96.955  23.886 -27.835  1.00  0.00     0.158 A 
ATOM     44  C   UNL     1     -97.697  26.059 -28.619  1.00  0.00     0.051 A 
ATOM     45  C   UNL     1     -97.168  25.254 -27.592  1.00  0.00     0.160 A 
BRANCH  43  46
ATOM     46  O   UNL     1     -96.409  23.056 -26.854  1.00  0.00    -0.504 OA
ATOM     47  H   UNL     1     -96.189  22.083 -27.034  1.00  0.00     0.293 HD
ENDBRANCH  43  46
BRANCH  45  48
ATOM     48  O   UNL     1     -96.834  25.780 -26.333  1.00  0.00    -0.493 OA
ATOM     49  C   UNL     1     -95.609  26.448 -26.038  1.00  0.00     0.278 C 
ENDBRANCH  45  48
ENDBRANCH  35  40
ENDBRANCH  26  27
ENDBRANCH   5  26
BRANCH   4  50
ATOM     50  O   UNL     1     -98.979  28.249 -38.488  1.00  0.00    -0.384 OA
ATOM     51  H   UNL     1     -99.117  29.045 -39.066  1.00  0.00     0.211 HD
ENDBRANCH   4  50
TORSDOF 15
ENDMDL
MODEL 2
REMARK VINA RESULT:    -4.589      4.300      9.398
REMARK INTER + INTRA:          -9.715
REMARK INTER:                  -7.378
REMARK INTRA:                  -2.337
REMARK UNBOUND:                -2.176
REMARK SMILES COc1ccc([C@H]2CC(=O)c3c(O)cc(O[C@@H]4O[C@@H](CO[C@@H]5O[C@H](C)[C@@H](O)[C@H](O)[C@H]5O)[C@@H](O)[C@@H](O)[C@@H]4O)cc3O2)cc1O
REMARK SMILES IDX 19 1 32 2 34 3 36 4 17 5 18 6 20 7 21 8 22 9 25 10 24 11
REMARK SMILES IDX 26 12 23 13 28 14 30 15 27 16 29 18 31 20 33 22 35 24 16 26
REMARK SMILES IDX 15 27 14 28 38 29 12 30 39 31 11 32 40 33 9 34 7 35 10 36
REMARK SMILES IDX 8 37 13 38 6 40 41 41 5 42 42 43 4 44 3 45 43 46 2 48 1 49
REMARK SMILES IDX 37 50
REMARK H PARENT 27 17 29 19 31 21 33 23 35 25 13 39 43 47 37 51
REMARK Flexibility Score: inf
ROOT
ATOM      1  C   UNL     1     -94.763  22.908 -36.357  1.00  0.00     0.180 C 
ATOM      2  C   UNL     1     -94.132  22.299 -35.074  1.00  0.00     0.177 C 
ATOM      3  C   UNL     1     -94.640  20.862 -34.852  1.00  0.00     0.180 C 
ATOM      4  C   UNL     1     -96.181  20.809 -34.974  1.00  0.00     0.214 C 
ATOM      5  C   UNL     1     -96.651  21.512 -36.264  1.00  0.00     0.339 C 
ATOM      6  O   UNL     1     -96.183  22.852 -36.310  1.00  0.00    -0.332 OA
ENDROOT
BRANCH   1   7
ATOM      7  C   UNL     1     -94.323  24.367 -36.531  1.00  0.00     0.198 C 
BRANCH   7   8
ATOM      8  O   UNL     1     -95.051  24.958 -37.593  1.00  0.00    -0.347 OA
BRANCH   8   9
ATOM      9  C   UNL     1     -94.745  26.342 -37.720  1.00  0.00     0.281 C 
ATOM     10  C   UNL     1     -97.775  25.815 -37.299  1.00  0.00     0.041 C 
ATOM     11  C   UNL     1     -97.011  27.106 -37.629  1.00  0.00     0.150 C 
ATOM     12  C   UNL     1     -97.025  27.459 -39.141  1.00  0.00     0.174 C 
ATOM     13  O   UNL     1     -95.713  27.137 -37.047  1.00  0.00    -0.344 OA
ATOM     14  C   UNL     1     -95.943  26.710 -39.939  1.00  0.00     0.179 C 
ATOM     15  C   UNL     1     -94.591  26.725 -39.207  1.00  0.00     0.202 C 
BRANCH  12  16
ATOM     16  O   UNL     1     -96.906  28.850 -39.337  1.00  0.00    -0.388 OA
ATOM     17  H   UNL     1     -96.532  29.005 -40.241  1.00  0.00     0.211 HD
ENDBRANCH  12  16
BRANCH  14  18
ATOM     18  O   UNL     1     -96.353  25.386 -40.166  1.00  0.00    -0.387 OA
ATOM     19  H   UNL     1     -96.226  25.210 -41.135  1.00  0.00     0.211 HD
ENDBRANCH  14  18
BRANCH  15  20
ATOM     20  O   UNL     1     -94.012  28.000 -39.319  1.00  0.00    -0.385 OA
ATOM     21  H   UNL     1     -94.754  28.659 -39.336  1.00  0.00     0.211 HD
ENDBRANCH  15  20
ENDBRANCH   8   9
ENDBRANCH   7   8
ENDBRANCH   1   7
BRANCH   2  22
ATOM     22  O   UNL     1     -94.361  23.103 -33.938  1.00  0.00    -0.387 OA
ATOM     23  H   UNL     1     -93.943  22.653 -33.156  1.00  0.00     0.211 HD
ENDBRANCH   2  22
BRANCH   3  24
ATOM     24  O   UNL     1     -94.240  20.411 -33.581  1.00  0.00    -0.387 OA
ATOM     25  H   UNL     1     -93.693  19.596 -33.726  1.00  0.00     0.211 HD
ENDBRANCH   3  24
BRANCH   5  26
ATOM     26  O   UNL     1     -96.231  20.769 -37.412  1.00  0.00    -0.462 OA
BRANCH  26  27
ATOM     27  C   UNL     1     -96.297  21.208 -38.742  1.00  0.00     0.130 A 
ATOM     28  C   UNL     1     -95.347  20.850 -39.711  1.00  0.00     0.093 A 
ATOM     29  C   UNL     1     -97.357  22.039 -39.098  1.00  0.00     0.094 A 
ATOM     30  C   UNL     1     -95.458  21.314 -41.031  1.00  0.00     0.133 A 
ATOM     31  C   UNL     1     -97.508  22.479 -40.414  1.00  0.00     0.138 A 
ATOM     32  C   UNL     1     -96.575  22.107 -41.405  1.00  0.00     0.102 A 
ATOM     33  O   UNL     1     -98.600  23.295 -40.729  1.00  0.00    -0.484 OA
ATOM     34  C   UNL     1     -96.841  22.589 -42.786  1.00  0.00     0.174 C 
ATOM     35  C   UNL     1     -99.021  23.535 -42.071  1.00  0.00     0.211 C 
ATOM     36  O   UNL     1     -96.292  22.061 -43.790  1.00  0.00    -0.294 OA
ATOM     37  C   UNL     1     -97.805  23.721 -42.998  1.00  0.00     0.131 C 
BRANCH  30  38
ATOM     38  O   UNL     1     -94.421  20.990 -41.910  1.00  0.00    -0.507 OA
ATOM     39  H   UNL     1     -93.568  20.521 -41.635  1.00  0.00     0.293 HD
ENDBRANCH  30  38
BRANCH  35  40
ATOM     40  C   UNL     1     -99.953  24.725 -42.086  1.00  0.00    -0.003 A 
ATOM     41  C   UNL     1     -99.840  25.713 -41.089  1.00  0.00     0.057 A 
ATOM     42  C   UNL     1    -100.836  24.940 -43.158  1.00  0.00     0.011 A 
ATOM     43  C   UNL     1    -100.600  26.887 -41.154  1.00  0.00     0.158 A 
ATOM     44  C   UNL     1    -101.618  26.098 -43.210  1.00  0.00     0.051 A 
ATOM     45  C   UNL     1    -101.502  27.086 -42.214  1.00  0.00     0.160 A 
BRANCH  43  46
ATOM     46  O   UNL     1    -100.434  27.851 -40.158  1.00  0.00    -0.504 OA
ATOM     47  H   UNL     1    -100.052  28.768 -40.356  1.00  0.00     0.293 HD
ENDBRANCH  43  46
BRANCH  45  48
ATOM     48  O   UNL     1    -102.252  28.273 -42.254  1.00  0.00    -0.493 OA
ATOM     49  C   UNL     1    -103.610  28.381 -41.833  1.00  0.00     0.278 C 
ENDBRANCH  45  48
ENDBRANCH  35  40
ENDBRANCH  26  27
ENDBRANCH   5  26
BRANCH   4  50
ATOM     50  O   UNL     1     -96.651  19.485 -34.924  1.00  0.00    -0.384 OA
ATOM     51  H   UNL     1     -96.555  19.166 -33.989  1.00  0.00     0.211 HD
ENDBRANCH   4  50
TORSDOF 15
ENDMDL
MODEL 3
REMARK VINA RESULT:    -4.574      6.844     10.899
REMARK INTER + INTRA:          -9.691
REMARK INTER:                  -6.987
REMARK INTRA:                  -2.705
REMARK UNBOUND:                -2.176
REMARK SMILES COc1ccc([C@H]2CC(=O)c3c(O)cc(O[C@@H]4O[C@@H](CO[C@@H]5O[C@H](C)[C@@H](O)[C@H](O)[C@H]5O)[C@@H](O)[C@@H](O)[C@@H]4O)cc3O2)cc1O
REMARK SMILES IDX 19 1 32 2 34 3 36 4 17 5 18 6 20 7 21 8 22 9 25 10 24 11
REMARK SMILES IDX 26 12 23 13 28 14 30 15 27 16 29 18 31 20 33 22 35 24 16 26
REMARK SMILES IDX 15 27 14 28 38 29 12 30 39 31 11 32 40 33 9 34 7 35 10 36
REMARK SMILES IDX 8 37 13 38 6 40 41 41 5 42 42 43 4 44 3 45 43 46 2 48 1 49
REMARK SMILES IDX 37 50
REMARK H PARENT 27 17 29 19 31 21 33 23 35 25 13 39 43 47 37 51
REMARK Flexibility Score: inf
ROOT
ATOM      1  C   UNL     1     -96.283  26.259 -26.646  1.00  0.00     0.180 C 
ATOM      2  C   UNL     1     -95.169  26.807 -25.711  1.00  0.00     0.177 C 
ATOM      3  C   UNL     1     -95.782  27.653 -24.579  1.00  0.00     0.180 C 
ATOM      4  C   UNL     1     -96.787  28.677 -25.153  1.00  0.00     0.214 C 
ATOM      5  C   UNL     1     -97.782  27.988 -26.111  1.00  0.00     0.339 C 
ATOM      6  O   UNL     1     -97.095  27.310 -27.152  1.00  0.00    -0.332 OA
ENDROOT
BRANCH   1   7
ATOM      7  C   UNL     1     -95.668  25.488 -27.820  1.00  0.00     0.198 C 
BRANCH   7   8
ATOM      8  O   UNL     1     -96.654  25.269 -28.813  1.00  0.00    -0.347 OA
BRANCH   8   9
ATOM      9  C   UNL     1     -96.975  23.888 -28.926  1.00  0.00     0.281 C 
ATOM     10  C   UNL     1     -96.815  25.313 -31.679  1.00  0.00     0.041 C 
ATOM     11  C   UNL     1     -97.268  23.895 -31.301  1.00  0.00     0.150 C 
ATOM     12  C   UNL     1     -98.809  23.754 -31.181  1.00  0.00     0.174 C 
ATOM     13  O   UNL     1     -96.557  23.374 -30.184  1.00  0.00    -0.344 OA
ATOM     14  C   UNL     1     -99.345  24.204 -29.810  1.00  0.00     0.179 C 
ATOM     15  C   UNL     1     -98.478  23.661 -28.661  1.00  0.00     0.202 C 
BRANCH  12  16
ATOM     16  O   UNL     1     -99.220  22.434 -31.461  1.00  0.00    -0.388 OA
ATOM     17  H   UNL     1     -99.929  22.186 -30.815  1.00  0.00     0.211 HD
ENDBRANCH  12  16
BRANCH  14  18
ATOM     18  O   UNL     1     -99.393  25.606 -29.757  1.00  0.00    -0.387 OA
ATOM     19  H   UNL     1    -100.338  25.853 -29.583  1.00  0.00     0.211 HD
ENDBRANCH  14  18
BRANCH  15  20
ATOM     20  O   UNL     1     -98.736  22.291 -28.487  1.00  0.00    -0.385 OA
ATOM     21  H   UNL     1     -98.435  21.828 -29.311  1.00  0.00     0.211 HD
ENDBRANCH  15  20
ENDBRANCH   8   9
ENDBRANCH   7   8
ENDBRANCH   1   7
BRANCH   2  22
ATOM     22  O   UNL     1     -94.192  27.535 -26.421  1.00  0.00    -0.387 OA
ATOM     23  H   UNL     1     -93.511  26.891 -26.751  1.00  0.00     0.211 HD
ENDBRANCH   2  22
BRANCH   3  24
ATOM     24  O   UNL     1     -94.758  28.319 -23.881  1.00  0.00    -0.387 OA
ATOM     25  H   UNL     1     -93.904  27.898 -24.156  1.00  0.00     0.211 HD
ENDBRANCH   3  24
BRANCH   5  26
ATOM     26  O   UNL     1     -98.636  27.103 -25.381  1.00  0.00    -0.462 OA
BRANCH  26  27
ATOM     27  C   UNL     1    -100.015  26.944 -25.582  1.00  0.00     0.130 A 
ATOM     28  C   UNL     1    -100.974  27.371 -24.651  1.00  0.00     0.093 A 
ATOM     29  C   UNL     1    -100.431  26.330 -26.761  1.00  0.00     0.094 A 
ATOM     30  C   UNL     1    -102.344  27.191 -24.898  1.00  0.00     0.133 A 
ATOM     31  C   UNL     1    -101.790  26.178 -27.044  1.00  0.00     0.138 A 
ATOM     32  C   UNL     1    -102.767  26.625 -26.130  1.00  0.00     0.102 A 
ATOM     33  O   UNL     1    -102.161  25.574 -28.251  1.00  0.00    -0.484 OA
ATOM     34  C   UNL     1    -104.187  26.457 -26.537  1.00  0.00     0.174 C 
ATOM     35  C   UNL     1    -103.485  25.653 -28.777  1.00  0.00     0.211 C 
ATOM     36  O   UNL     1    -105.117  27.104 -25.982  1.00  0.00    -0.294 OA
ATOM     37  C   UNL     1    -104.527  25.511 -27.653  1.00  0.00     0.131 C 
BRANCH  30  38
ATOM     38  O   UNL     1    -103.230  27.557 -23.881  1.00  0.00    -0.507 OA
ATOM     39  H   UNL     1    -104.230  27.647 -24.002  1.00  0.00     0.293 HD
ENDBRANCH  30  38
BRANCH  35  40
ATOM     40  C   UNL     1    -103.645  24.607 -29.857  1.00  0.00    -0.003 A 
ATOM     41  C   UNL     1    -102.677  24.498 -30.873  1.00  0.00     0.057 A 
ATOM     42  C   UNL     1    -104.666  23.644 -29.786  1.00  0.00     0.011 A 
ATOM     43  C   UNL     1    -102.731  23.457 -31.806  1.00  0.00     0.158 A 
ATOM     44  C   UNL     1    -104.740  22.620 -30.734  1.00  0.00     0.051 A 
ATOM     45  C   UNL     1    -103.770  22.510 -31.748  1.00  0.00     0.160 A 
BRANCH  43  46
ATOM     46  O   UNL     1    -101.734  23.373 -32.779  1.00  0.00    -0.504 OA
ATOM     47  H   UNL     1    -101.025  24.089 -32.887  1.00  0.00     0.293 HD
ENDBRANCH  43  46
BRANCH  45  48
ATOM     48  O   UNL     1    -103.800  21.476 -32.698  1.00  0.00    -0.493 OA
ATOM     49  C   UNL     1    -104.168  20.129 -32.410  1.00  0.00     0.278 C 
ENDBRANCH  45  48
ENDBRANCH  35  40
ENDBRANCH  26  27
ENDBRANCH   5  26
BRANCH   4  50
ATOM     50  O   UNL     1     -97.467  29.356 -24.127  1.00  0.00    -0.384 OA
ATOM     51  H   UNL     1     -98.441  29.275 -24.305  1.00  0.00     0.211 HD
ENDBRANCH   4  50
TORSDOF 15
ENDMDL
MODEL 4
REMARK VINA RESULT:    -4.566      4.512      8.270
REMARK INTER + INTRA:          -9.679
REMARK INTER:                  -7.403
REMARK INTRA:                  -2.275
REMARK UNBOUND:                -2.176
REMARK SMILES COc1ccc([C@H]2CC(=O)c3c(O)cc(O[C@@H]4O[C@@H](CO[C@@H]5O[C@H](C)[C@@H](O)[C@H](O)[C@H]5O)[C@@H](O)[C@@H](O)[C@@H]4O)cc3O2)cc1O
REMARK SMILES IDX 19 1 32 2 34 3 36 4 17 5 18 6 20 7 21 8 22 9 25 10 24 11
REMARK SMILES IDX 26 12 23 13 28 14 30 15 27 16 29 18 31 20 33 22 35 24 16 26
REMARK SMILES IDX 15 27 14 28 38 29 12 30 39 31 11 32 40 33 9 34 7 35 10 36
REMARK SMILES IDX 8 37 13 38 6 40 41 41 5 42 42 43 4 44 3 45 43 46 2 48 1 49
REMARK SMILES IDX 37 50
REMARK H PARENT 27 17 29 19 31 21 33 23 35 25 13 39 43 47 37 51
REMARK Flexibility Score: inf
ROOT
ATOM      1  C   UNL     1     -98.024  24.605 -35.894  1.00  0.00     0.180 C 
ATOM      2  C   UNL     1     -98.211  23.101 -35.548  1.00  0.00     0.177 C 
ATOM      3  C   UNL     1     -97.582  22.779 -34.179  1.00  0.00     0.180 C 
ATOM      4  C   UNL     1     -96.148  23.350 -34.095  1.00  0.00     0.214 C 
ATOM      5  C   UNL     1     -96.121  24.829 -34.533  1.00  0.00     0.339 C 
ATOM      6  O   UNL     1     -96.654  24.980 -35.840  1.00  0.00    -0.332 OA
ENDROOT
BRANCH   1   7
ATOM      7  C   UNL     1     -98.573  24.906 -37.293  1.00  0.00     0.198 C 
BRANCH   7   8
ATOM      8  O   UNL     1     -97.498  25.120 -38.190  1.00  0.00    -0.347 OA
BRANCH   8   9
ATOM      9  C   UNL     1     -97.802  26.148 -39.125  1.00  0.00     0.281 C 
ATOM     10  C   UNL     1     -94.941  25.002 -39.489  1.00  0.00     0.041 C 
ATOM     11  C   UNL     1     -95.641  26.198 -40.151  1.00  0.00     0.150 C 
ATOM     12  C   UNL     1     -95.284  27.559 -39.494  1.00  0.00     0.174 C 
ATOM     13  O   UNL     1     -97.039  25.991 -40.314  1.00  0.00    -0.344 OA
ATOM     14  C   UNL     1     -96.131  27.858 -38.244  1.00  0.00     0.179 C 
ATOM     15  C   UNL     1     -97.616  27.537 -38.478  1.00  0.00     0.202 C 
BRANCH  12  16
ATOM     16  O   UNL     1     -95.392  28.614 -40.424  1.00  0.00    -0.388 OA
ATOM     17  H   UNL     1     -95.448  28.221 -41.332  1.00  0.00     0.211 HD
ENDBRANCH  12  16
BRANCH  14  18
ATOM     18  O   UNL     1     -95.643  27.118 -37.154  1.00  0.00    -0.387 OA
ATOM     19  H   UNL     1     -95.412  26.218 -37.502  1.00  0.00     0.211 HD
ENDBRANCH  14  18
BRANCH  15  20
ATOM     20  O   UNL     1     -98.187  28.529 -39.294  1.00  0.00    -0.385 OA
ATOM     21  H   UNL     1     -98.946  28.922 -38.789  1.00  0.00     0.211 HD
ENDBRANCH  15  20
ENDBRANCH   8   9
ENDBRANCH   7   8
ENDBRANCH   1   7
BRANCH   2  22
ATOM     22  O   UNL     1     -97.697  22.258 -36.556  1.00  0.00    -0.387 OA
ATOM     23  H   UNL     1     -98.303  21.475 -36.637  1.00  0.00     0.211 HD
ENDBRANCH   2  22
BRANCH   3  24
ATOM     24  O   UNL     1     -97.561  21.387 -33.985  1.00  0.00    -0.387 OA
ATOM     25  H   UNL     1     -96.843  21.201 -33.327  1.00  0.00     0.211 HD
ENDBRANCH   3  24
BRANCH   5  26
ATOM     26  O   UNL     1     -96.823  25.636 -33.583  1.00  0.00    -0.462 OA
BRANCH  26  27
ATOM     27  C   UNL     1     -96.337  26.808 -32.985  1.00  0.00     0.130 A 
ATOM     28  C   UNL     1     -95.534  26.800 -31.834  1.00  0.00     0.093 A 
ATOM     29  C   UNL     1     -96.679  28.024 -33.572  1.00  0.00     0.094 A 
ATOM     30  C   UNL     1     -95.069  28.000 -31.274  1.00  0.00     0.133 A 
ATOM     31  C   UNL     1     -96.195  29.227 -33.053  1.00  0.00     0.138 A 
ATOM     32  C   UNL     1     -95.366  29.233 -31.913  1.00  0.00     0.102 A 
ATOM     33  O   UNL     1     -96.549  30.423 -33.689  1.00  0.00    -0.484 OA
ATOM     34  C   UNL     1     -94.865  30.558 -31.459  1.00  0.00     0.174 C 
ATOM     35  C   UNL     1     -95.871  31.655 -33.445  1.00  0.00     0.211 C 
ATOM     36  O   UNL     1     -93.875  30.664 -30.685  1.00  0.00    -0.294 OA
ATOM     37  C   UNL     1     -95.540  31.807 -31.949  1.00  0.00     0.131 C 
BRANCH  30  38
ATOM     38  O   UNL     1     -94.356  27.911 -30.076  1.00  0.00    -0.507 OA
ATOM     39  H   UNL     1     -93.912  27.066 -29.740  1.00  0.00     0.293 HD
ENDBRANCH  30  38
BRANCH  35  40
ATOM     40  C   UNL     1     -96.716  32.791 -33.975  1.00  0.00    -0.003 A 
ATOM     41  C   UNL     1     -96.162  33.706 -34.889  1.00  0.00     0.057 A 
ATOM     42  C   UNL     1     -98.089  32.867 -33.685  1.00  0.00     0.011 A 
ATOM     43  C   UNL     1     -96.957  34.686 -35.494  1.00  0.00     0.158 A 
ATOM     44  C   UNL     1     -98.880  33.863 -34.265  1.00  0.00     0.051 A 
ATOM     45  C   UNL     1     -98.326  34.776 -35.181  1.00  0.00     0.160 A 
BRANCH  43  46
ATOM     46  O   UNL     1     -96.370  35.555 -36.415  1.00  0.00    -0.504 OA
ATOM     47  H   UNL     1     -95.390  35.809 -36.367  1.00  0.00     0.293 HD
ENDBRANCH  43  46
BRANCH  45  48
ATOM     48  O   UNL     1     -99.100  35.769 -35.802  1.00  0.00    -0.493 OA
ATOM     49  C   UNL     1    -100.423  35.568 -36.294  1.00  0.00     0.278 C 
ENDBRANCH  45  48
ENDBRANCH  35  40
ENDBRANCH  26  27
ENDBRANCH   5  26
BRANCH   4  50
ATOM     50  O   UNL     1     -95.613  23.199 -32.804  1.00  0.00    -0.384 OA
ATOM     51  H   UNL     1     -96.206  22.580 -32.303  1.00  0.00     0.211 HD
ENDBRANCH   4  50
TORSDOF 15
ENDMDL
MODEL 5
REMARK VINA RESULT:    -4.512      4.998     10.287
REMARK INTER + INTRA:          -9.590
REMARK INTER:                  -7.190
REMARK INTRA:                  -2.400
REMARK UNBOUND:                -2.176
REMARK SMILES COc1ccc([C@H]2CC(=O)c3c(O)cc(O[C@@H]4O[C@@H](CO[C@@H]5O[C@H](C)[C@@H](O)[C@H](O)[C@H]5O)[C@@H](O)[C@@H](O)[C@@H]4O)cc3O2)cc1O
REMARK SMILES IDX 19 1 32 2 34 3 36 4 17 5 18 6 20 7 21 8 22 9 25 10 24 11
REMARK SMILES IDX 26 12 23 13 28 14 30 15 27 16 29 18 31 20 33 22 35 24 16 26
REMARK SMILES IDX 15 27 14 28 38 29 12 30 39 31 11 32 40 33 9 34 7 35 10 36
REMARK SMILES IDX 8 37 13 38 6 40 41 41 5 42 42 43 4 44 3 45 43 46 2 48 1 49
REMARK SMILES IDX 37 50
REMARK H PARENT 27 17 29 19 31 21 33 23 35 25 13 39 43 47 37 51
REMARK Flexibility Score: inf
ROOT
ATOM      1  C   UNL     1     -99.268  26.517 -27.040  1.00  0.00     0.180 C 
ATOM      2  C   UNL     1     -99.590  26.826 -25.552  1.00  0.00     0.177 C 
ATOM      3  C   UNL     1    -101.027  26.390 -25.208  1.00  0.00     0.180 C 
ATOM      4  C   UNL     1    -102.020  26.918 -26.270  1.00  0.00     0.214 C 
ATOM      5  C   UNL     1    -101.524  26.589 -27.693  1.00  0.00     0.339 C 
ATOM      6  O   UNL     1    -100.222  27.113 -27.909  1.00  0.00    -0.332 OA
ENDROOT
BRANCH   1   7
ATOM      7  C   UNL     1     -97.869  27.028 -27.404  1.00  0.00     0.198 C 
BRANCH   7   8
ATOM      8  O   UNL     1     -97.231  26.098 -28.261  1.00  0.00    -0.347 OA
BRANCH   8   9
ATOM      9  C   UNL     1     -96.680  25.012 -27.526  1.00  0.00     0.281 C 
ATOM     10  C   UNL     1     -94.712  26.154 -29.637  1.00  0.00     0.041 C 
ATOM     11  C   UNL     1     -94.618  24.914 -28.735  1.00  0.00     0.150 C 
ATOM     12  C   UNL     1     -95.023  23.599 -29.456  1.00  0.00     0.174 C 
ATOM     13  O   UNL     1     -95.263  25.101 -27.481  1.00  0.00    -0.344 OA
ATOM     14  C   UNL     1     -96.545  23.372 -29.473  1.00  0.00     0.179 C 
ATOM     15  C   UNL     1     -97.174  23.667 -28.101  1.00  0.00     0.202 C 
BRANCH  12  16
ATOM     16  O   UNL     1     -94.366  22.488 -28.887  1.00  0.00    -0.388 OA
ATOM     17  H   UNL     1     -94.807  21.665 -29.217  1.00  0.00     0.211 HD
ENDBRANCH  12  16
BRANCH  14  18
ATOM     18  O   UNL     1     -97.134  24.182 -30.458  1.00  0.00    -0.387 OA
ATOM     19  H   UNL     1     -96.390  24.571 -30.989  1.00  0.00     0.211 HD
ENDBRANCH  14  18
BRANCH  15  20
ATOM     20  O   UNL     1     -96.871  22.623 -27.212  1.00  0.00    -0.385 OA
ATOM     21  H   UNL     1     -96.303  21.974 -27.703  1.00  0.00     0.211 HD
ENDBRANCH  15  20
ENDBRANCH   8   9
ENDBRANCH   7   8
ENDBRANCH   1   7
BRANCH   2  22
ATOM     22  O   UNL     1     -99.379  28.185 -25.235  1.00  0.00    -0.387 OA
ATOM     23  H   UNL     1    -100.250  28.657 -25.320  1.00  0.00     0.211 HD
ENDBRANCH   2  22
BRANCH   3  24
ATOM     24  O   UNL     1    -101.377  26.876 -23.936  1.00  0.00    -0.387 OA
ATOM     25  H   UNL     1    -101.078  26.196 -23.279  1.00  0.00     0.211 HD
ENDBRANCH   3  24
BRANCH   5  26
ATOM     26  O   UNL     1    -101.566  25.177 -27.916  1.00  0.00    -0.462 OA
BRANCH  26  27
ATOM     27  C   UNL     1    -101.771  24.548 -29.153  1.00  0.00     0.130 A 
ATOM     28  C   UNL     1    -103.048  24.290 -29.674  1.00  0.00     0.093 A 
ATOM     29  C   UNL     1    -100.646  24.167 -29.880  1.00  0.00     0.094 A 
ATOM     30  C   UNL     1    -103.202  23.659 -30.918  1.00  0.00     0.133 A 
ATOM     31  C   UNL     1    -100.776  23.574 -31.137  1.00  0.00     0.138 A 
ATOM     32  C   UNL     1    -102.052  23.331 -31.686  1.00  0.00     0.102 A 
ATOM     33  O   UNL     1     -99.616  23.228 -31.840  1.00  0.00    -0.484 OA
ATOM     34  C   UNL     1    -102.091  22.735 -33.048  1.00  0.00     0.174 C 
ATOM     35  C   UNL     1     -99.623  22.918 -33.233  1.00  0.00     0.211 C 
ATOM     36  O   UNL     1    -103.127  22.784 -33.764  1.00  0.00    -0.294 OA
ATOM     37  C   UNL     1    -100.859  22.075 -33.597  1.00  0.00     0.131 C 
BRANCH  30  38
ATOM     38  O   UNL     1    -104.504  23.352 -31.322  1.00  0.00    -0.507 OA
ATOM     39  H   UNL     1    -104.803  23.297 -32.287  1.00  0.00     0.293 HD
ENDBRANCH  30  38
BRANCH  35  40
ATOM     40  C   UNL     1     -98.323  22.232 -33.587  1.00  0.00    -0.003 A 
ATOM     41  C   UNL     1     -98.345  20.946 -34.159  1.00  0.00     0.057 A 
ATOM     42  C   UNL     1     -97.097  22.912 -33.491  1.00  0.00     0.011 A 
ATOM     43  C   UNL     1     -97.167  20.345 -34.615  1.00  0.00     0.158 A 
ATOM     44  C   UNL     1     -95.914  22.303 -33.920  1.00  0.00     0.051 A 
ATOM     45  C   UNL     1     -95.938  21.017 -34.493  1.00  0.00     0.160 A 
BRANCH  43  46
ATOM     46  O   UNL     1     -97.240  19.079 -35.200  1.00  0.00    -0.504 OA
ATOM     47  H   UNL     1     -96.667  18.819 -35.994  1.00  0.00     0.293 HD
ENDBRANCH  43  46
BRANCH  45  48
ATOM     48  O   UNL     1     -94.771  20.390 -34.960  1.00  0.00    -0.493 OA
ATOM     49  C   UNL     1     -94.184  20.629 -36.237  1.00  0.00     0.278 C 
ENDBRANCH  45  48
ENDBRANCH  35  40
ENDBRANCH  26  27
ENDBRANCH   5  26
BRANCH   4  50
ATOM     50  O   UNL     1    -103.313  26.407 -26.058  1.00  0.00    -0.384 OA
ATOM     51  H   UNL     1    -103.334  25.482 -26.418  1.00  0.00     0.211 HD
ENDBRANCH   4  50
TORSDOF 15
ENDMDL
MODEL 6
REMARK VINA RESULT:    -4.491      4.355      7.238
REMARK INTER + INTRA:          -9.554
REMARK INTER:                  -6.824
REMARK INTRA:                  -2.730
REMARK UNBOUND:                -2.176
REMARK SMILES COc1ccc([C@H]2CC(=O)c3c(O)cc(O[C@@H]4O[C@@H](CO[C@@H]5O[C@H](C)[C@@H](O)[C@H](O)[C@H]5O)[C@@H](O)[C@@H](O)[C@@H]4O)cc3O2)cc1O
REMARK SMILES IDX 19 1 32 2 34 3 36 4 17 5 18 6 20 7 21 8 22 9 25 10 24 11
REMARK SMILES IDX 26 12 23 13 28 14 30 15 27 16 29 18 31 20 33 22 35 24 16 26
REMARK SMILES IDX 15 27 14 28 38 29 12 30 39 31 11 32 40 33 9 34 7 35 10 36
REMARK SMILES IDX 8 37 13 38 6 40 41 41 5 42 42 43 4 44 3 45 43 46 2 48 1 49
REMARK SMILES IDX 37 50
REMARK H PARENT 27 17 29 19 31 21 33 23 35 25 13 39 43 47 37 51
REMARK Flexibility Score: inf
ROOT
ATOM      1  C   UNL     1     -96.583  24.010 -42.222  1.00  0.00     0.180 C 
ATOM      2  C   UNL     1     -95.797  23.044 -43.151  1.00  0.00     0.177 C 
ATOM      3  C   UNL     1     -96.629  21.781 -43.447  1.00  0.00     0.180 C 
ATOM      4  C   UNL     1     -97.198  21.191 -42.136  1.00  0.00     0.214 C 
ATOM      5  C   UNL     1     -97.888  22.287 -41.297  1.00  0.00     0.339 C 
ATOM      6  O   UNL     1     -96.993  23.356 -41.027  1.00  0.00    -0.332 OA
ENDROOT
BRANCH   1   7
ATOM      7  C   UNL     1     -95.723  25.226 -41.859  1.00  0.00     0.198 C 
BRANCH   7   8
ATOM      8  O   UNL     1     -95.617  25.330 -40.451  1.00  0.00    -0.347 OA
BRANCH   8   9
ATOM      9  C   UNL     1     -95.970  26.633 -40.002  1.00  0.00     0.281 C 
ATOM     10  C   UNL     1     -94.200  25.099 -37.965  1.00  0.00     0.041 C 
ATOM     11  C   UNL     1     -94.932  26.445 -37.854  1.00  0.00     0.150 C 
ATOM     12  C   UNL     1     -96.300  26.342 -37.125  1.00  0.00     0.174 C 
ATOM     13  O   UNL     1     -94.997  27.136 -39.096  1.00  0.00    -0.344 OA
ATOM     14  C   UNL     1     -97.439  25.889 -38.056  1.00  0.00     0.179 C 
ATOM     15  C   UNL     1     -97.393  26.629 -39.404  1.00  0.00     0.202 C 
BRANCH  12  16
ATOM     16  O   UNL     1     -96.631  27.560 -36.497  1.00  0.00    -0.388 OA
ATOM     17  H   UNL     1     -95.797  27.971 -36.157  1.00  0.00     0.211 HD
ENDBRANCH  12  16
BRANCH  14  18
ATOM     18  O   UNL     1     -97.359  24.503 -38.264  1.00  0.00    -0.387 OA
ATOM     19  H   UNL     1     -97.537  24.348 -39.228  1.00  0.00     0.211 HD
ENDBRANCH  14  18
BRANCH  15  20
ATOM     20  O   UNL     1     -97.847  27.947 -39.231  1.00  0.00    -0.385 OA
ATOM     21  H   UNL     1     -98.522  28.120 -39.937  1.00  0.00     0.211 HD
ENDBRANCH  15  20
ENDBRANCH   8   9
ENDBRANCH   7   8
ENDBRANCH   1   7
BRANCH   2  22
ATOM     22  O   UNL     1     -94.533  22.711 -42.622  1.00  0.00    -0.387 OA
ATOM     23  H   UNL     1     -94.426  23.193 -41.760  1.00  0.00     0.211 HD
ENDBRANCH   2  22
BRANCH   3  24
ATOM     24  O   UNL     1     -95.825  20.828 -44.097  1.00  0.00    -0.387 OA
ATOM     25  H   UNL     1     -94.901  20.958 -43.763  1.00  0.00     0.211 HD
ENDBRANCH   3  24
BRANCH   5  26
ATOM     26  O   UNL     1     -99.069  22.745 -41.960  1.00  0.00    -0.462 OA
BRANCH  26  27
ATOM     27  C   UNL     1     -99.702  23.978 -41.748  1.00  0.00     0.130 A 
ATOM     28  C   UNL     1    -100.057  24.844 -42.794  1.00  0.00     0.093 A 
ATOM     29  C   UNL     1     -99.980  24.345 -40.433  1.00  0.00     0.094 A 
ATOM     30  C   UNL     1    -100.692  26.067 -42.530  1.00  0.00     0.133 A 
ATOM     31  C   UNL     1    -100.647  25.540 -40.151  1.00  0.00     0.138 A 
ATOM     32  C   UNL     1    -101.033  26.407 -41.194  1.00  0.00     0.102 A 
ATOM     33  O   UNL     1    -100.924  25.856 -38.816  1.00  0.00    -0.484 OA
ATOM     34  C   UNL     1    -101.775  27.635 -40.801  1.00  0.00     0.174 C 
ATOM     35  C   UNL     1    -101.858  26.868 -38.442  1.00  0.00     0.211 C 
ATOM     36  O   UNL     1    -102.451  28.297 -41.633  1.00  0.00    -0.294 OA
ATOM     37  C   UNL     1    -101.737  28.090 -39.370  1.00  0.00     0.131 C 
BRANCH  30  38
ATOM     38  O   UNL     1    -100.926  26.912 -43.618  1.00  0.00    -0.507 OA
ATOM     39  H   UNL     1    -101.369  26.621 -44.480  1.00  0.00     0.293 HD
ENDBRANCH  30  38
BRANCH  35  40
ATOM     40  C   UNL     1    -101.644  27.216 -36.986  1.00  0.00    -0.003 A 
ATOM     41  C   UNL     1    -100.437  26.863 -36.354  1.00  0.00     0.057 A 
ATOM     42  C   UNL     1    -102.568  28.013 -36.290  1.00  0.00     0.011 A 
ATOM     43  C   UNL     1    -100.161  27.288 -35.050  1.00  0.00     0.158 A 
ATOM     44  C   UNL     1    -102.308  28.415 -34.977  1.00  0.00     0.051 A 
ATOM     45  C   UNL     1    -101.099  28.063 -34.346  1.00  0.00     0.160 A 
BRANCH  43  46
ATOM     46  O   UNL     1     -98.939  26.937 -34.473  1.00  0.00    -0.504 OA
ATOM     47  H   UNL     1     -98.786  26.974 -33.471  1.00  0.00     0.293 HD
ENDBRANCH  43  46
BRANCH  45  48
ATOM     48  O   UNL     1    -100.796  28.475 -33.038  1.00  0.00    -0.493 OA
ATOM     49  C   UNL     1    -100.247  29.747 -32.701  1.00  0.00     0.278 C 
ENDBRANCH  45  48
ENDBRANCH  35  40
ENDBRANCH  26  27
ENDBRANCH   5  26
BRANCH   4  50
ATOM     50  O   UNL     1     -98.081  20.128 -42.396  1.00  0.00    -0.384 OA
ATOM     51  H   UNL     1     -97.810  19.715 -43.257  1.00  0.00     0.211 HD
ENDBRANCH   4  50
TORSDOF 15
ENDMDL
MODEL 7
REMARK VINA RESULT:    -4.481      5.549      8.969
REMARK INTER + INTRA:          -9.539
REMARK INTER:                  -6.736
REMARK INTRA:                  -2.803
REMARK UNBOUND:                -2.176
REMARK SMILES COc1ccc([C@H]2CC(=O)c3c(O)cc(O[C@@H]4O[C@@H](CO[C@@H]5O[C@H](C)[C@@H](O)[C@H](O)[C@H]5O)[C@@H](O)[C@@H](O)[C@@H]4O)cc3O2)cc1O
REMARK SMILES IDX 19 1 32 2 34 3 36 4 17 5 18 6 20 7 21 8 22 9 25 10 24 11
REMARK SMILES IDX 26 12 23 13 28 14 30 15 27 16 29 18 31 20 33 22 35 24 16 26
REMARK SMILES IDX 15 27 14 28 38 29 12 30 39 31 11 32 40 33 9 34 7 35 10 36
REMARK SMILES IDX 8 37 13 38 6 40 41 41 5 42 42 43 4 44 3 45 43 46 2 48 1 49
REMARK SMILES IDX 37 50
REMARK H PARENT 27 17 29 19 31 21 33 23 35 25 13 39 43 47 37 51
REMARK Flexibility Score: inf
ROOT
ATOM      1  C   UNL     1     -97.292  21.412 -41.846  1.00  0.00     0.180 C 
ATOM      2  C   UNL     1     -96.567  20.330 -42.694  1.00  0.00     0.177 C 
ATOM      3  C   UNL     1     -95.201  20.849 -43.181  1.00  0.00     0.180 C 
ATOM      4  C   UNL     1     -95.350  22.254 -43.810  1.00  0.00     0.214 C 
ATOM      5  C   UNL     1     -96.148  23.188 -42.875  1.00  0.00     0.339 C 
ATOM      6  O   UNL     1     -97.417  22.632 -42.565  1.00  0.00    -0.332 OA
ENDROOT
BRANCH   1   7
ATOM      7  C   UNL     1     -98.686  20.927 -41.434  1.00  0.00     0.198 C 
BRANCH   7   8
ATOM      8  O   UNL     1     -99.673  21.692 -42.103  1.00  0.00    -0.347 OA
BRANCH   8   9
ATOM      9  C   UNL     1    -100.642  22.195 -41.192  1.00  0.00     0.281 C 
ATOM     10  C   UNL     1    -101.657  22.156 -44.125  1.00  0.00     0.041 C 
ATOM     11  C   UNL     1    -102.280  22.741 -42.848  1.00  0.00     0.150 C 
ATOM     12  C   UNL     1    -102.035  24.266 -42.688  1.00  0.00     0.174 C 
ATOM     13  O   UNL     1    -101.958  21.984 -41.687  1.00  0.00    -0.344 OA
ATOM     14  C   UNL     1    -100.663  24.588 -42.070  1.00  0.00     0.179 C 
ATOM     15  C   UNL     1    -100.359  23.677 -40.868  1.00  0.00     0.202 C 
BRANCH  12  16
ATOM     16  O   UNL     1    -103.066  24.868 -41.938  1.00  0.00    -0.388 OA
ATOM     17  H   UNL     1    -102.734  25.735 -41.594  1.00  0.00     0.211 HD
ENDBRANCH  12  16
BRANCH  14  18
ATOM     18  O   UNL     1     -99.660  24.452 -43.044  1.00  0.00    -0.387 OA
ATOM     19  H   UNL     1     -98.843  24.148 -42.571  1.00  0.00     0.211 HD
ENDBRANCH  14  18
BRANCH  15  20
ATOM     20  O   UNL     1    -101.127  24.085 -39.765  1.00  0.00    -0.385 OA
ATOM     21  H   UNL     1    -101.241  25.068 -39.834  1.00  0.00     0.211 HD
ENDBRANCH  15  20
ENDBRANCH   8   9
ENDBRANCH   7   8
ENDBRANCH   1   7
BRANCH   2  22
ATOM     22  O   UNL     1     -97.359  19.885 -43.774  1.00  0.00    -0.387 OA
ATOM     23  H   UNL     1     -97.783  20.681 -44.190  1.00  0.00     0.211 HD
ENDBRANCH   2  22
BRANCH   3  24
ATOM     24  O   UNL     1     -94.664  19.953 -44.122  1.00  0.00    -0.387 OA
ATOM     25  H   UNL     1     -95.394  19.330 -44.373  1.00  0.00     0.211 HD
ENDBRANCH   3  24
BRANCH   5  26
ATOM     26  O   UNL     1     -95.392  23.465 -41.693  1.00  0.00    -0.462 OA
BRANCH  26  27
ATOM     27  C   UNL     1     -95.800  24.288 -40.633  1.00  0.00     0.130 A 
ATOM     28  C   UNL     1     -95.079  24.401 -39.435  1.00  0.00     0.093 A 
ATOM     29  C   UNL     1     -96.978  25.014 -40.794  1.00  0.00     0.094 A 
ATOM     30  C   UNL     1     -95.528  25.240 -38.403  1.00  0.00     0.133 A 
ATOM     31  C   UNL     1     -97.421  25.885 -39.796  1.00  0.00     0.138 A 
ATOM     32  C   UNL     1     -96.694  26.029 -38.597  1.00  0.00     0.102 A 
ATOM     33  O   UNL     1     -98.599  26.610 -40.012  1.00  0.00    -0.484 OA
ATOM     34  C   UNL     1     -97.220  27.010 -37.611  1.00  0.00     0.174 C 
ATOM     35  C   UNL     1     -98.965  27.737 -39.218  1.00  0.00     0.211 C 
ATOM     36  O   UNL     1     -96.501  27.467 -36.682  1.00  0.00    -0.294 OA
ATOM     37  C   UNL     1     -98.638  27.488 -37.734  1.00  0.00     0.131 C 
BRANCH  30  38
ATOM     38  O   UNL     1     -94.805  25.224 -37.208  1.00  0.00    -0.507 OA
ATOM     39  H   UNL     1     -93.945  25.735 -37.056  1.00  0.00     0.293 HD
ENDBRANCH  30  38
BRANCH  35  40
ATOM     40  C   UNL     1    -100.428  28.044 -39.450  1.00  0.00    -0.003 A 
ATOM     41  C   UNL     1    -100.970  27.922 -40.743  1.00  0.00     0.057 A 
ATOM     42  C   UNL     1    -101.291  28.308 -38.373  1.00  0.00     0.011 A 
ATOM     43  C   UNL     1    -102.345  28.071 -40.961  1.00  0.00     0.158 A 
ATOM     44  C   UNL     1    -102.660  28.487 -38.591  1.00  0.00     0.051 A 
ATOM     45  C   UNL     1    -103.202  28.362 -39.884  1.00  0.00     0.160 A 
BRANCH  43  46
ATOM     46  O   UNL     1    -102.842  27.914 -42.256  1.00  0.00    -0.504 OA
ATOM     47  H   UNL     1    -102.411  28.364 -43.055  1.00  0.00     0.293 HD
ENDBRANCH  43  46
BRANCH  45  48
ATOM     48  O   UNL     1    -104.577  28.507 -40.132  1.00  0.00    -0.493 OA
ATOM     49  C   UNL     1    -105.190  29.709 -40.592  1.00  0.00     0.278 C 
ENDBRANCH  45  48
ENDBRANCH  35  40
ENDBRANCH  26  27
ENDBRANCH   5  26
BRANCH   4  50
ATOM     50  O   UNL     1     -94.097  22.808 -44.123  1.00  0.00    -0.384 OA
ATOM     51  H   UNL     1     -94.109  23.055 -45.085  1.00  0.00     0.211 HD
ENDBRANCH   4  50
TORSDOF 15
ENDMDL
MODEL 8
REMARK VINA RESULT:    -4.427      5.338      8.897
REMARK INTER + INTRA:          -9.450
REMARK INTER:                  -6.551
REMARK INTRA:                  -2.899
REMARK UNBOUND:                -2.176
REMARK SMILES COc1ccc([C@H]2CC(=O)c3c(O)cc(O[C@@H]4O[C@@H](CO[C@@H]5O[C@H](C)[C@@H](O)[C@H](O)[C@H]5O)[C@@H](O)[C@@H](O)[C@@H]4O)cc3O2)cc1O
REMARK SMILES IDX 19 1 32 2 34 3 36 4 17 5 18 6 20 7 21 8 22 9 25 10 24 11
REMARK SMILES IDX 26 12 23 13 28 14 30 15 27 16 29 18 31 20 33 22 35 24 16 26
REMARK SMILES IDX 15 27 14 28 38 29 12 30 39 31 11 32 40 33 9 34 7 35 10 36
REMARK SMILES IDX 8 37 13 38 6 40 41 41 5 42 42 43 4 44 3 45 43 46 2 48 1 49
REMARK SMILES IDX 37 50
REMARK H PARENT 27 17 29 19 31 21 33 23 35 25 13 39 43 47 37 51
REMARK Flexibility Score: inf
ROOT
ATOM      1  C   UNL     1     -98.379  23.975 -32.529  1.00  0.00     0.180 C 
ATOM      2  C   UNL     1     -98.498  23.275 -33.911  1.00  0.00     0.177 C 
ATOM      3  C   UNL     1     -99.934  22.763 -34.136  1.00  0.00     0.180 C 
ATOM      4  C   UNL     1    -100.426  21.974 -32.900  1.00  0.00     0.214 C 
ATOM      5  C   UNL     1    -100.176  22.775 -31.606  1.00  0.00     0.339 C 
ATOM      6  O   UNL     1     -98.804  23.118 -31.478  1.00  0.00    -0.332 OA
ENDROOT
BRANCH   1   7
ATOM      7  C   UNL     1     -96.931  24.408 -32.270  1.00  0.00     0.198 C 
BRANCH   7   8
ATOM      8  O   UNL     1     -96.562  24.065 -30.946  1.00  0.00    -0.347 OA
BRANCH   8   9
ATOM      9  C   UNL     1     -96.416  25.224 -30.134  1.00  0.00     0.281 C 
ATOM     10  C   UNL     1     -94.737  22.822 -29.112  1.00  0.00     0.041 C 
ATOM     11  C   UNL     1     -95.010  24.200 -28.491  1.00  0.00     0.150 C 
ATOM     12  C   UNL     1     -96.143  24.183 -27.430  1.00  0.00     0.174 C 
ATOM     13  O   UNL     1     -95.159  25.221 -29.471  1.00  0.00    -0.344 OA
ATOM     14  C   UNL     1     -97.547  24.275 -28.055  1.00  0.00     0.179 C 
ATOM     15  C   UNL     1     -97.604  25.348 -29.156  1.00  0.00     0.202 C 
BRANCH  12  16
ATOM     16  O   UNL     1     -95.960  25.206 -26.477  1.00  0.00    -0.388 OA
ATOM     17  H   UNL     1     -95.003  25.459 -26.474  1.00  0.00     0.211 HD
ENDBRANCH  12  16
BRANCH  14  18
ATOM     18  O   UNL     1     -97.915  23.026 -28.580  1.00  0.00    -0.387 OA
ATOM     19  H   UNL     1     -97.156  22.410 -28.410  1.00  0.00     0.211 HD
ENDBRANCH  14  18
BRANCH  15  20
ATOM     20  O   UNL     1     -97.611  26.624 -28.566  1.00  0.00    -0.385 OA
ATOM     21  H   UNL     1     -96.941  27.174 -29.049  1.00  0.00     0.211 HD
ENDBRANCH  15  20
ENDBRANCH   8   9
ENDBRANCH   7   8
ENDBRANCH   1   7
BRANCH   2  22
ATOM     22  O   UNL     1     -97.556  22.235 -34.062  1.00  0.00    -0.387 OA
ATOM     23  H   UNL     1     -96.733  22.624 -34.460  1.00  0.00     0.211 HD
ENDBRANCH   2  22
BRANCH   3  24
ATOM     24  O   UNL     1     -99.970  21.944 -35.278  1.00  0.00    -0.387 OA
ATOM     25  H   UNL     1     -99.660  22.500 -36.039  1.00  0.00     0.211 HD
ENDBRANCH   3  24
BRANCH   5  26
ATOM     26  O   UNL     1    -101.012  23.935 -31.575  1.00  0.00    -0.462 OA
BRANCH  26  27
ATOM     27  C   UNL     1    -101.656  24.453 -30.442  1.00  0.00     0.130 A 
ATOM     28  C   UNL     1    -103.046  24.390 -30.260  1.00  0.00     0.093 A 
ATOM     29  C   UNL     1    -100.864  25.055 -29.466  1.00  0.00     0.094 A 
ATOM     30  C   UNL     1    -103.643  24.921 -29.105  1.00  0.00     0.133 A 
ATOM     31  C   UNL     1    -101.434  25.553 -28.293  1.00  0.00     0.138 A 
ATOM     32  C   UNL     1    -102.827  25.474 -28.084  1.00  0.00     0.102 A 
ATOM     33  O   UNL     1    -100.596  26.130 -27.331  1.00  0.00    -0.484 OA
ATOM     34  C   UNL     1    -103.337  25.993 -26.787  1.00  0.00     0.174 C 
ATOM     35  C   UNL     1    -101.018  26.376 -25.990  1.00  0.00     0.211 C 
ATOM     36  O   UNL     1    -104.477  25.680 -26.349  1.00  0.00    -0.294 OA
ATOM     37  C   UNL     1    -102.466  26.897 -25.962  1.00  0.00     0.131 C 
BRANCH  30  38
ATOM     38  O   UNL     1    -105.039  24.904 -29.044  1.00  0.00    -0.507 OA
ATOM     39  H   UNL     1    -105.645  25.044 -29.842  1.00  0.00     0.293 HD
ENDBRANCH  30  38
BRANCH  35  40
ATOM     40  C   UNL     1    -100.041  27.329 -25.339  1.00  0.00    -0.003 A 
ATOM     41  C   UNL     1     -98.658  27.100 -25.458  1.00  0.00     0.057 A 
ATOM     42  C   UNL     1    -100.484  28.520 -24.738  1.00  0.00     0.011 A 
ATOM     43  C   UNL     1     -97.733  28.035 -24.978  1.00  0.00     0.158 A 
ATOM     44  C   UNL     1     -99.563  29.441 -24.231  1.00  0.00     0.051 A 
ATOM     45  C   UNL     1     -98.180  29.213 -24.353  1.00  0.00     0.160 A 
BRANCH  43  46
ATOM     46  O   UNL     1     -96.371  27.779 -25.142  1.00  0.00    -0.504 OA
ATOM     47  H   UNL     1     -95.740  28.461 -25.546  1.00  0.00     0.293 HD
ENDBRANCH  43  46
BRANCH  45  48
ATOM     48  O   UNL     1     -97.230  30.133 -23.881  1.00  0.00    -0.493 OA
ATOM     49  C   UNL     1     -96.810  31.294 -24.593  1.00  0.00     0.278 C 
ENDBRANCH  45  48
ENDBRANCH  35  40
ENDBRANCH  26  27
ENDBRANCH   5  26
BRANCH   4  50
ATOM     50  O   UNL     1    -101.782  21.628 -33.023  1.00  0.00    -0.384 OA
ATOM     51  H   UNL     1    -102.126  21.426 -32.114  1.00  0.00     0.211 HD
ENDBRANCH   4  50
TORSDOF 15
ENDMDL
MODEL 9
REMARK VINA RESULT:    -4.386      2.306      3.368
REMARK INTER + INTRA:          -9.382
REMARK INTER:                  -7.068
REMARK INTRA:                  -2.314
REMARK UNBOUND:                -2.176
REMARK SMILES COc1ccc([C@H]2CC(=O)c3c(O)cc(O[C@@H]4O[C@@H](CO[C@@H]5O[C@H](C)[C@@H](O)[C@H](O)[C@H]5O)[C@@H](O)[C@@H](O)[C@@H]4O)cc3O2)cc1O
REMARK SMILES IDX 19 1 32 2 34 3 36 4 17 5 18 6 20 7 21 8 22 9 25 10 24 11
REMARK SMILES IDX 26 12 23 13 28 14 30 15 27 16 29 18 31 20 33 22 35 24 16 26
REMARK SMILES IDX 15 27 14 28 38 29 12 30 39 31 11 32 40 33 9 34 7 35 10 36
REMARK SMILES IDX 8 37 13 38 6 40 41 41 5 42 42 43 4 44 3 45 43 46 2 48 1 49
REMARK SMILES IDX 37 50
REMARK H PARENT 27 17 29 19 31 21 33 23 35 25 13 39 43 47 37 51
REMARK Flexibility Score: inf
ROOT
ATOM      1  C   UNL     1     -96.056  24.941 -38.072  1.00  0.00     0.180 C 
ATOM      2  C   UNL     1     -95.271  25.968 -38.935  1.00  0.00     0.177 C 
ATOM      3  C   UNL     1     -96.013  27.317 -38.976  1.00  0.00     0.180 C 
ATOM      4  C   UNL     1     -97.506  27.103 -39.318  1.00  0.00     0.214 C 
ATOM      5  C   UNL     1     -98.120  26.008 -38.420  1.00  0.00     0.339 C 
ATOM      6  O   UNL     1     -97.392  24.794 -38.533  1.00  0.00    -0.332 OA
ENDROOT
BRANCH   1   7
ATOM      7  C   UNL     1     -95.361  23.574 -38.101  1.00  0.00     0.198 C 
BRANCH   7   8
ATOM      8  O   UNL     1     -95.877  22.757 -37.065  1.00  0.00    -0.347 OA
BRANCH   8   9
ATOM      9  C   UNL     1     -95.358  23.141 -35.798  1.00  0.00     0.281 C 
ATOM     10  C   UNL     1     -93.995  20.593 -36.932  1.00  0.00     0.041 C 
ATOM     11  C   UNL     1     -93.875  21.278 -35.562  1.00  0.00     0.150 C 
ATOM     12  C   UNL     1     -94.761  20.623 -34.467  1.00  0.00     0.174 C 
ATOM     13  O   UNL     1     -94.019  22.691 -35.643  1.00  0.00    -0.344 OA
ATOM     14  C   UNL     1     -96.216  21.122 -34.500  1.00  0.00     0.179 C 
ATOM     15  C   UNL     1     -96.285  22.650 -34.665  1.00  0.00     0.202 C 
BRANCH  12  16
ATOM     16  O   UNL     1     -94.204  20.812 -33.186  1.00  0.00    -0.388 OA
ATOM     17  H   UNL     1     -93.390  21.368 -33.280  1.00  0.00     0.211 HD
ENDBRANCH  12  16
BRANCH  14  18
ATOM     18  O   UNL     1     -96.910  20.492 -35.546  1.00  0.00    -0.387 OA
ATOM     19  H   UNL     1     -97.871  20.504 -35.299  1.00  0.00     0.211 HD
ENDBRANCH  14  18
BRANCH  15  20
ATOM     20  O   UNL     1     -95.935  23.268 -33.453  1.00  0.00    -0.385 OA
ATOM     21  H   UNL     1     -94.946  23.352 -33.441  1.00  0.00     0.211 HD
ENDBRANCH  15  20
ENDBRANCH   8   9
ENDBRANCH   7   8
ENDBRANCH   1   7
BRANCH   2  22
ATOM     22  O   UNL     1     -95.019  25.484 -40.236  1.00  0.00    -0.387 OA
ATOM     23  H   UNL     1     -94.170  24.968 -40.210  1.00  0.00     0.211 HD
ENDBRANCH   2  22
BRANCH   3  24
ATOM     24  O   UNL     1     -95.414  28.157 -39.932  1.00  0.00    -0.387 OA
ATOM     25  H   UNL     1     -95.567  27.736 -40.817  1.00  0.00     0.211 HD
ENDBRANCH   3  24
BRANCH   5  26
ATOM     26  O   UNL     1     -98.182  26.459 -37.065  1.00  0.00    -0.462 OA
BRANCH  26  27
ATOM     27  C   UNL     1     -99.005  25.928 -36.061  1.00  0.00     0.130 A 
ATOM     28  C   UNL     1    -100.369  25.659 -36.256  1.00  0.00     0.093 A 
ATOM     29  C   UNL     1     -98.427  25.667 -34.821  1.00  0.00     0.094 A 
ATOM     30  C   UNL     1    -101.150  25.125 -35.220  1.00  0.00     0.133 A 
ATOM     31  C   UNL     1     -99.178  25.099 -33.789  1.00  0.00     0.138 A 
ATOM     32  C   UNL     1    -100.542  24.799 -33.979  1.00  0.00     0.102 A 
ATOM     33  O   UNL     1     -98.548  24.835 -32.568  1.00  0.00    -0.484 OA
ATOM     34  C   UNL     1    -101.249  24.157 -32.838  1.00  0.00     0.174 C 
ATOM     35  C   UNL     1     -99.120  23.984 -31.575  1.00  0.00     0.211 C 
ATOM     36  O   UNL     1    -102.341  23.548 -32.992  1.00  0.00    -0.294 OA
ATOM     37  C   UNL     1    -100.638  24.216 -31.467  1.00  0.00     0.131 C 
BRANCH  30  38
ATOM     38  O   UNL     1    -102.518  24.974 -35.465  1.00  0.00    -0.507 OA
ATOM     39  H   UNL     1    -102.904  24.394 -36.198  1.00  0.00     0.293 HD
ENDBRANCH  30  38
BRANCH  35  40
ATOM     40  C   UNL     1     -98.400  24.209 -30.265  1.00  0.00    -0.003 A 
ATOM     41  C   UNL     1     -98.098  23.113 -29.435  1.00  0.00     0.057 A 
ATOM     42  C   UNL     1     -97.896  25.477 -29.925  1.00  0.00     0.011 A 
ATOM     43  C   UNL     1     -97.319  23.278 -28.284  1.00  0.00     0.158 A 
ATOM     44  C   UNL     1     -97.143  25.650 -28.761  1.00  0.00     0.051 A 
ATOM     45  C   UNL     1     -96.839  24.553 -27.934  1.00  0.00     0.160 A 
BRANCH  43  46
ATOM     46  O   UNL     1     -97.022  22.158 -27.507  1.00  0.00    -0.504 OA
ATOM     47  H   UNL     1     -96.701  22.237 -26.549  1.00  0.00     0.293 HD
ENDBRANCH  43  46
BRANCH  45  48
ATOM     48  O   UNL     1     -96.060  24.689 -26.773  1.00  0.00    -0.493 OA
ATOM     49  C   UNL     1     -95.839  25.922 -26.092  1.00  0.00     0.278 C 
ENDBRANCH  45  48
ENDBRANCH  35  40
ENDBRANCH  26  27
ENDBRANCH   5  26
BRANCH   4  50
ATOM     50  O   UNL     1     -98.231  28.302 -39.213  1.00  0.00    -0.384 OA
ATOM     51  H   UNL     1     -97.586  29.028 -39.007  1.00  0.00     0.211 HD
ENDBRANCH   4  50
TORSDOF 15
ENDMDL
