MODEL 1
REMARK VINA RESULT:    -5.884      0.000      0.000
REMARK INTER + INTRA:          -7.630
REMARK INTER:                  -7.260
REMARK INTRA:                  -0.369
REMARK UNBOUND:                -0.369
REMARK SMILES O=c1c(O)c(-c2cc(O)c(O)c(O)c2)oc2cc(O)cc(O)c12
REMARK SMILES IDX 5 1 3 2 2 3 1 4 23 5 21 6 20 7 18 8 17 9 16 10 15 11 6 12
REMARK SMILES IDX 7 13 8 14 14 15 10 16 12 17 9 18 11 20 13 22 4 24 22 26
REMARK SMILES IDX 19 28
REMARK H PARENT 9 19 11 21 13 23 4 25 22 27 19 29
REMARK Flexibility Score: inf
ROOT
ATOM      1  C   UNL     1      16.396  -5.844   8.456  1.00  0.00     0.180 A 
ATOM      2  C   UNL     1      17.434  -6.380   9.238  1.00  0.00     0.208 A 
ATOM      3  C   UNL     1      17.581  -7.775   9.310  1.00  0.00     0.238 A 
ATOM      4  O   UNL     1      18.478  -8.250  10.054  1.00  0.00    -0.285 OA
ATOM      5  C   UNL     1      16.699  -8.614   8.588  1.00  0.00     0.111 A 
ATOM      6  C   UNL     1      16.780 -10.039   8.557  1.00  0.00     0.134 A 
ATOM      7  C   UNL     1      15.776 -10.774   7.915  1.00  0.00     0.093 A 
ATOM      8  C   UNL     1      14.729 -10.133   7.248  1.00  0.00     0.123 A 
ATOM      9  C   UNL     1      14.674  -8.742   7.223  1.00  0.00     0.094 A 
ATOM     10  C   UNL     1      15.641  -7.982   7.884  1.00  0.00     0.146 A 
ATOM     11  O   UNL     1      15.545  -6.658   7.844  1.00  0.00    -0.452 OA
ENDROOT
BRANCH   1  12
ATOM     12  C   UNL     1      16.193  -4.384   8.311  1.00  0.00     0.029 A 
ATOM     13  C   UNL     1      15.304  -3.722   9.171  1.00  0.00     0.062 A 
ATOM     14  C   UNL     1      15.077  -2.347   9.043  1.00  0.00     0.162 A 
ATOM     15  C   UNL     1      16.829  -3.655   7.292  1.00  0.00     0.062 A 
ATOM     16  C   UNL     1      15.732  -1.619   8.036  1.00  0.00     0.200 A 
ATOM     17  C   UNL     1      16.607  -2.277   7.156  1.00  0.00     0.162 A 
BRANCH  14  18
ATOM     18  O   UNL     1      14.197  -1.724   9.927  1.00  0.00    -0.504 OA
ATOM     19  H   UNL     1      13.850  -2.188  10.759  1.00  0.00     0.293 HD
ENDBRANCH  14  18
BRANCH  16  20
ATOM     20  O   UNL     1      15.503  -0.247   7.918  1.00  0.00    -0.502 OA
ATOM     21  H   UNL     1      15.514   0.373   8.718  1.00  0.00     0.293 HD
ENDBRANCH  16  20
BRANCH  17  22
ATOM     22  O   UNL     1      17.249  -1.564   6.145  1.00  0.00    -0.504 OA
ATOM     23  H   UNL     1      17.793  -2.029   5.428  1.00  0.00     0.293 HD
ENDBRANCH  17  22
ENDBRANCH   1  12
BRANCH   2  24
ATOM     24  O   UNL     1      18.280  -5.534   9.959  1.00  0.00    -0.502 OA
ATOM     25  H   UNL     1      18.232  -5.446  10.967  1.00  0.00     0.293 HD
ENDBRANCH   2  24
BRANCH   6  26
ATOM     26  O   UNL     1      17.833 -10.773   9.112  1.00  0.00    -0.507 OA
ATOM     27  H   UNL     1      18.787 -10.745   8.788  1.00  0.00     0.293 HD
ENDBRANCH   6  26
BRANCH   8  28
ATOM     28  O   UNL     1      13.743 -10.872   6.599  1.00  0.00    -0.508 OA
ATOM     29  H   UNL     1      12.795 -10.919   6.952  1.00  0.00     0.293 HD
ENDBRANCH   8  28
TORSDOF 7
ENDMDL
MODEL 2
REMARK VINA RESULT:    -5.697      1.260      3.277
REMARK INTER + INTRA:          -7.399
REMARK INTER:                  -7.149
REMARK INTRA:                  -0.250
REMARK UNBOUND:                -0.369
REMARK SMILES O=c1c(O)c(-c2cc(O)c(O)c(O)c2)oc2cc(O)cc(O)c12
REMARK SMILES IDX 5 1 3 2 2 3 1 4 23 5 21 6 20 7 18 8 17 9 16 10 15 11 6 12
REMARK SMILES IDX 7 13 8 14 14 15 10 16 12 17 9 18 11 20 13 22 4 24 22 26
REMARK SMILES IDX 19 28
REMARK H PARENT 9 19 11 21 13 23 4 25 22 27 19 29
REMARK Flexibility Score: inf
ROOT
ATOM      1  C   UNL     1      16.155  -5.722   7.953  1.00  0.00     0.180 A 
ATOM      2  C   UNL     1      15.574  -6.487   6.927  1.00  0.00     0.208 A 
ATOM      3  C   UNL     1      15.712  -7.884   6.957  1.00  0.00     0.238 A 
ATOM      4  O   UNL     1      15.236  -8.559   6.007  1.00  0.00    -0.285 OA
ATOM      5  C   UNL     1      16.414  -8.499   8.020  1.00  0.00     0.111 A 
ATOM      6  C   UNL     1      16.582  -9.909   8.173  1.00  0.00     0.134 A 
ATOM      7  C   UNL     1      17.407 -10.399   9.192  1.00  0.00     0.093 A 
ATOM      8  C   UNL     1      18.019  -9.535  10.104  1.00  0.00     0.123 A 
ATOM      9  C   UNL     1      17.813  -8.162   9.998  1.00  0.00     0.094 A 
ATOM     10  C   UNL     1      17.025  -7.639   8.971  1.00  0.00     0.146 A 
ATOM     11  O   UNL     1      16.864  -6.323   8.901  1.00  0.00    -0.452 OA
ENDROOT
BRANCH   1  12
ATOM     12  C   UNL     1      16.031  -4.247   8.002  1.00  0.00     0.029 A 
ATOM     13  C   UNL     1      16.743  -3.463   7.081  1.00  0.00     0.062 A 
ATOM     14  C   UNL     1      16.661  -2.067   7.118  1.00  0.00     0.162 A 
ATOM     15  C   UNL     1      15.261  -3.610   8.990  1.00  0.00     0.062 A 
ATOM     16  C   UNL     1      15.872  -1.436   8.094  1.00  0.00     0.200 A 
ATOM     17  C   UNL     1      15.173  -2.212   9.035  1.00  0.00     0.162 A 
BRANCH  14  18
ATOM     18  O   UNL     1      17.371  -1.325   6.175  1.00  0.00    -0.504 OA
ATOM     19  H   UNL     1      17.376  -1.567   5.191  1.00  0.00     0.293 HD
ENDBRANCH  14  18
BRANCH  16  20
ATOM     20  O   UNL     1      15.793  -0.043   8.122  1.00  0.00    -0.502 OA
ATOM     21  H   UNL     1      14.907   0.447   8.148  1.00  0.00     0.293 HD
ENDBRANCH  16  20
BRANCH  17  22
ATOM     22  O   UNL     1      14.400  -1.592  10.015  1.00  0.00    -0.504 OA
ATOM     23  H   UNL     1      14.683  -0.718  10.441  1.00  0.00     0.293 HD
ENDBRANCH  17  22
ENDBRANCH   1  12
BRANCH   2  24
ATOM     24  O   UNL     1      14.903  -5.858   5.875  1.00  0.00    -0.502 OA
ATOM     25  H   UNL     1      14.457  -4.953   5.977  1.00  0.00     0.293 HD
ENDBRANCH   2  24
BRANCH   6  26
ATOM     26  O   UNL     1      15.942 -10.861   7.375  1.00  0.00    -0.507 OA
ATOM     27  H   UNL     1      15.651 -11.774   7.689  1.00  0.00     0.293 HD
ENDBRANCH   6  26
BRANCH   8  28
ATOM     28  O   UNL     1      18.825 -10.033  11.124  1.00  0.00    -0.508 OA
ATOM     29  H   UNL     1      19.769 -10.356  10.946  1.00  0.00     0.293 HD
ENDBRANCH   8  28
TORSDOF 7
ENDMDL
MODEL 3
REMARK VINA RESULT:    -5.662      1.259      2.771
REMARK INTER + INTRA:          -7.356
REMARK INTER:                  -7.113
REMARK INTRA:                  -0.243
REMARK UNBOUND:                -0.369
REMARK SMILES O=c1c(O)c(-c2cc(O)c(O)c(O)c2)oc2cc(O)cc(O)c12
REMARK SMILES IDX 5 1 3 2 2 3 1 4 23 5 21 6 20 7 18 8 17 9 16 10 15 11 6 12
REMARK SMILES IDX 7 13 8 14 14 15 10 16 12 17 9 18 11 20 13 22 4 24 22 26
REMARK SMILES IDX 19 28
REMARK H PARENT 9 19 11 21 13 23 4 25 22 27 19 29
REMARK Flexibility Score: inf
ROOT
ATOM      1  C   UNL     1      16.190  -5.704   7.937  1.00  0.00     0.180 A 
ATOM      2  C   UNL     1      15.591  -6.466   6.920  1.00  0.00     0.208 A 
ATOM      3  C   UNL     1      15.720  -7.864   6.951  1.00  0.00     0.238 A 
ATOM      4  O   UNL     1      15.228  -8.537   6.008  1.00  0.00    -0.285 OA
ATOM      5  C   UNL     1      16.431  -8.482   8.006  1.00  0.00     0.111 A 
ATOM      6  C   UNL     1      16.591  -9.893   8.159  1.00  0.00     0.134 A 
ATOM      7  C   UNL     1      17.426 -10.387   9.169  1.00  0.00     0.093 A 
ATOM      8  C   UNL     1      18.054  -9.525  10.072  1.00  0.00     0.123 A 
ATOM      9  C   UNL     1      17.856  -8.152   9.966  1.00  0.00     0.094 A 
ATOM     10  C   UNL     1      17.059  -7.625   8.948  1.00  0.00     0.146 A 
ATOM     11  O   UNL     1      16.906  -6.308   8.877  1.00  0.00    -0.452 OA
ENDROOT
BRANCH   1  12
ATOM     12  C   UNL     1      16.076  -4.228   7.986  1.00  0.00     0.029 A 
ATOM     13  C   UNL     1      15.262  -3.630   8.960  1.00  0.00     0.062 A 
ATOM     14  C   UNL     1      15.119  -2.240   9.017  1.00  0.00     0.162 A 
ATOM     15  C   UNL     1      16.720  -3.413   7.039  1.00  0.00     0.062 A 
ATOM     16  C   UNL     1      15.783  -1.428   8.081  1.00  0.00     0.200 A 
ATOM     17  C   UNL     1      16.582  -2.019   7.087  1.00  0.00     0.162 A 
BRANCH  14  18
ATOM     18  O   UNL     1      14.314  -1.684  10.010  1.00  0.00    -0.504 OA
ATOM     19  H   UNL     1      13.642  -2.236  10.530  1.00  0.00     0.293 HD
ENDBRANCH  14  18
BRANCH  16  20
ATOM     20  O   UNL     1      15.638  -0.041   8.146  1.00  0.00    -0.502 OA
ATOM     21  H   UNL     1      14.797   0.428   7.834  1.00  0.00     0.293 HD
ENDBRANCH  16  20
BRANCH  17  22
ATOM     22  O   UNL     1      17.231  -1.221   6.147  1.00  0.00    -0.504 OA
ATOM     23  H   UNL     1      17.101  -0.216   6.121  1.00  0.00     0.293 HD
ENDBRANCH  17  22
ENDBRANCH   1  12
BRANCH   2  24
ATOM     24  O   UNL     1      14.911  -5.834   5.875  1.00  0.00    -0.502 OA
ATOM     25  H   UNL     1      14.994  -4.841   5.694  1.00  0.00     0.293 HD
ENDBRANCH   2  24
BRANCH   6  26
ATOM     26  O   UNL     1      15.936 -10.842   7.370  1.00  0.00    -0.507 OA
ATOM     27  H   UNL     1      15.700 -10.718   6.398  1.00  0.00     0.293 HD
ENDBRANCH   6  26
BRANCH   8  28
ATOM     28  O   UNL     1      18.870 -10.028  11.083  1.00  0.00    -0.508 OA
ATOM     29  H   UNL     1      19.796 -10.388  10.888  1.00  0.00     0.293 HD
ENDBRANCH   8  28
TORSDOF 7
ENDMDL
MODEL 4
REMARK VINA RESULT:    -5.543      1.853      6.804
REMARK INTER + INTRA:          -7.208
REMARK INTER:                  -7.251
REMARK INTRA:                   0.042
REMARK UNBOUND:                -0.369
REMARK SMILES O=c1c(O)c(-c2cc(O)c(O)c(O)c2)oc2cc(O)cc(O)c12
REMARK SMILES IDX 5 1 3 2 2 3 1 4 23 5 21 6 20 7 18 8 17 9 16 10 15 11 6 12
REMARK SMILES IDX 7 13 8 14 14 15 10 16 12 17 9 18 11 20 13 22 4 24 22 26
REMARK SMILES IDX 19 28
REMARK H PARENT 9 19 11 21 13 23 4 25 22 27 19 29
REMARK Flexibility Score: inf
ROOT
ATOM      1  C   UNL     1      16.348  -6.076   8.599  1.00  0.00     0.180 A 
ATOM      2  C   UNL     1      17.042  -5.094   9.327  1.00  0.00     0.208 A 
ATOM      3  C   UNL     1      16.540  -3.782   9.352  1.00  0.00     0.238 A 
ATOM      4  O   UNL     1      17.195  -2.897   9.960  1.00  0.00    -0.285 OA
ATOM      5  C   UNL     1      15.344  -3.474   8.663  1.00  0.00     0.111 A 
ATOM      6  C   UNL     1      14.722  -2.188   8.653  1.00  0.00     0.134 A 
ATOM      7  C   UNL     1      13.612  -1.964   7.830  1.00  0.00     0.093 A 
ATOM      8  C   UNL     1      13.060  -2.997   7.068  1.00  0.00     0.123 A 
ATOM      9  C   UNL     1      13.623  -4.269   7.117  1.00  0.00     0.094 A 
ATOM     10  C   UNL     1      14.753  -4.515   7.900  1.00  0.00     0.146 A 
ATOM     11  O   UNL     1      15.264  -5.740   7.909  1.00  0.00    -0.452 OA
ENDROOT
BRANCH   1  12
ATOM     12  C   UNL     1      16.801  -7.484   8.547  1.00  0.00     0.029 A 
ATOM     13  C   UNL     1      16.721  -8.191   7.337  1.00  0.00     0.062 A 
ATOM     14  C   UNL     1      17.122  -9.529   7.263  1.00  0.00     0.162 A 
ATOM     15  C   UNL     1      17.257  -8.150   9.698  1.00  0.00     0.062 A 
ATOM     16  C   UNL     1      17.598 -10.183   8.412  1.00  0.00     0.200 A 
ATOM     17  C   UNL     1      17.661  -9.490   9.634  1.00  0.00     0.162 A 
BRANCH  14  18
ATOM     18  O   UNL     1      17.041 -10.190   6.039  1.00  0.00    -0.504 OA
ATOM     19  H   UNL     1      16.762 -11.162   5.968  1.00  0.00     0.293 HD
ENDBRANCH  14  18
BRANCH  16  20
ATOM     20  O   UNL     1      18.000 -11.517   8.329  1.00  0.00    -0.502 OA
ATOM     21  H   UNL     1      18.975 -11.789   8.346  1.00  0.00     0.293 HD
ENDBRANCH  16  20
BRANCH  17  22
ATOM     22  O   UNL     1      18.118 -10.137  10.780  1.00  0.00    -0.504 OA
ATOM     23  H   UNL     1      18.256  -9.640  11.652  1.00  0.00     0.293 HD
ENDBRANCH  17  22
ENDBRANCH   1  12
BRANCH   2  24
ATOM     24  O   UNL     1      18.233  -5.416   9.983  1.00  0.00    -0.502 OA
ATOM     25  H   UNL     1      18.548  -4.926  10.812  1.00  0.00     0.293 HD
ENDBRANCH   2  24
BRANCH   6  26
ATOM     26  O   UNL     1      15.138  -1.115   9.447  1.00  0.00    -0.507 OA
ATOM     27  H   UNL     1      15.010  -1.055  10.445  1.00  0.00     0.293 HD
ENDBRANCH   6  26
BRANCH   8  28
ATOM     28  O   UNL     1      11.945  -2.768   6.265  1.00  0.00    -0.508 OA
ATOM     29  H   UNL     1      11.036  -2.564   6.663  1.00  0.00     0.293 HD
ENDBRANCH   8  28
TORSDOF 7
ENDMDL
MODEL 5
REMARK VINA RESULT:    -5.329      4.065      7.110
REMARK INTER + INTRA:          -6.945
REMARK INTER:                  -6.655
REMARK INTRA:                  -0.290
REMARK UNBOUND:                -0.369
REMARK SMILES O=c1c(O)c(-c2cc(O)c(O)c(O)c2)oc2cc(O)cc(O)c12
REMARK SMILES IDX 5 1 3 2 2 3 1 4 23 5 21 6 20 7 18 8 17 9 16 10 15 11 6 12
REMARK SMILES IDX 7 13 8 14 14 15 10 16 12 17 9 18 11 20 13 22 4 24 22 26
REMARK SMILES IDX 19 28
REMARK H PARENT 9 19 11 21 13 23 4 25 22 27 19 29
REMARK Flexibility Score: inf
ROOT
ATOM      1  C   UNL     1      17.581 -11.860   7.174  1.00  0.00     0.180 A 
ATOM      2  C   UNL     1      16.512 -12.704   6.823  1.00  0.00     0.208 A 
ATOM      3  C   UNL     1      16.786 -14.026   6.436  1.00  0.00     0.238 A 
ATOM      4  O   UNL     1      15.830 -14.758   6.071  1.00  0.00    -0.285 OA
ATOM      5  C   UNL     1      18.122 -14.492   6.421  1.00  0.00     0.111 A 
ATOM      6  C   UNL     1      18.512 -15.824   6.085  1.00  0.00     0.134 A 
ATOM      7  C   UNL     1      19.872 -16.138   5.976  1.00  0.00     0.093 A 
ATOM      8  C   UNL     1      20.856 -15.187   6.256  1.00  0.00     0.123 A 
ATOM      9  C   UNL     1      20.485 -13.902   6.642  1.00  0.00     0.094 A 
ATOM     10  C   UNL     1      19.137 -13.547   6.724  1.00  0.00     0.146 A 
ATOM     11  O   UNL     1      18.828 -12.307   7.086  1.00  0.00    -0.452 OA
ENDROOT
BRANCH   1  12
ATOM     12  C   UNL     1      17.369 -10.463   7.615  1.00  0.00     0.029 A 
ATOM     13  C   UNL     1      17.069  -9.476   6.664  1.00  0.00     0.062 A 
ATOM     14  C   UNL     1      16.885  -8.144   7.049  1.00  0.00     0.162 A 
ATOM     15  C   UNL     1      17.519 -10.090   8.962  1.00  0.00     0.062 A 
ATOM     16  C   UNL     1      17.014  -7.781   8.400  1.00  0.00     0.200 A 
ATOM     17  C   UNL     1      17.337  -8.758   9.358  1.00  0.00     0.162 A 
BRANCH  14  18
ATOM     18  O   UNL     1      16.572  -7.197   6.075  1.00  0.00    -0.504 OA
ATOM     19  H   UNL     1      15.666  -6.746   6.033  1.00  0.00     0.293 HD
ENDBRANCH  14  18
BRANCH  16  20
ATOM     20  O   UNL     1      16.825  -6.451   8.778  1.00  0.00    -0.502 OA
ATOM     21  H   UNL     1      17.535  -5.924   9.271  1.00  0.00     0.293 HD
ENDBRANCH  16  20
BRANCH  17  22
ATOM     22  O   UNL     1      17.482  -8.402  10.698  1.00  0.00    -0.504 OA
ATOM     23  H   UNL     1      18.067  -8.936  11.329  1.00  0.00     0.293 HD
ENDBRANCH  17  22
ENDBRANCH   1  12
BRANCH   2  24
ATOM     24  O   UNL     1      15.203 -12.216   6.823  1.00  0.00    -0.502 OA
ATOM     25  H   UNL     1      14.985 -11.241   6.656  1.00  0.00     0.293 HD
ENDBRANCH   2  24
BRANCH   6  26
ATOM     26  O   UNL     1      17.610 -16.871   5.877  1.00  0.00    -0.507 OA
ATOM     27  H   UNL     1      16.640 -16.754   5.629  1.00  0.00     0.293 HD
ENDBRANCH   6  26
BRANCH   8  28
ATOM     28  O   UNL     1      22.207 -15.514   6.160  1.00  0.00    -0.508 OA
ATOM     29  H   UNL     1      22.670 -15.602   5.264  1.00  0.00     0.293 HD
ENDBRANCH   8  28
TORSDOF 7
ENDMDL
MODEL 6
REMARK VINA RESULT:    -5.268      1.974      7.253
REMARK INTER + INTRA:          -6.869
REMARK INTER:                  -6.823
REMARK INTRA:                  -0.046
REMARK UNBOUND:                -0.369
REMARK SMILES O=c1c(O)c(-c2cc(O)c(O)c(O)c2)oc2cc(O)cc(O)c12
REMARK SMILES IDX 5 1 3 2 2 3 1 4 23 5 21 6 20 7 18 8 17 9 16 10 15 11 6 12
REMARK SMILES IDX 7 13 8 14 14 15 10 16 12 17 9 18 11 20 13 22 4 24 22 26
REMARK SMILES IDX 19 28
REMARK H PARENT 9 19 11 21 13 23 4 25 22 27 19 29
REMARK Flexibility Score: inf
ROOT
ATOM      1  C   UNL     1      15.821  -6.307   8.245  1.00  0.00     0.180 A 
ATOM      2  C   UNL     1      14.607  -6.040   7.588  1.00  0.00     0.208 A 
ATOM      3  C   UNL     1      14.116  -4.725   7.571  1.00  0.00     0.238 A 
ATOM      4  O   UNL     1      13.002  -4.503   7.029  1.00  0.00    -0.285 OA
ATOM      5  C   UNL     1      14.851  -3.691   8.198  1.00  0.00     0.111 A 
ATOM      6  C   UNL     1      14.468  -2.315   8.209  1.00  0.00     0.134 A 
ATOM      7  C   UNL     1      15.204  -1.400   8.972  1.00  0.00     0.093 A 
ATOM      8  C   UNL     1      16.347  -1.798   9.670  1.00  0.00     0.123 A 
ATOM      9  C   UNL     1      16.762  -3.125   9.617  1.00  0.00     0.094 A 
ATOM     10  C   UNL     1      16.029  -4.070   8.895  1.00  0.00     0.146 A 
ATOM     11  O   UNL     1      16.454  -5.328   8.880  1.00  0.00    -0.452 OA
ENDROOT
BRANCH   1  12
ATOM     12  C   UNL     1      16.414  -7.663   8.283  1.00  0.00     0.029 A 
ATOM     13  C   UNL     1      16.888  -8.175   9.500  1.00  0.00     0.062 A 
ATOM     14  C   UNL     1      17.472  -9.445   9.562  1.00  0.00     0.162 A 
ATOM     15  C   UNL     1      16.568  -8.427   7.114  1.00  0.00     0.062 A 
ATOM     16  C   UNL     1      17.603 -10.214   8.394  1.00  0.00     0.200 A 
ATOM     17  C   UNL     1      17.153  -9.700   7.166  1.00  0.00     0.162 A 
BRANCH  14  18
ATOM     18  O   UNL     1      17.916  -9.924  10.794  1.00  0.00    -0.504 OA
ATOM     19  H   UNL     1      18.851 -10.290  10.925  1.00  0.00     0.293 HD
ENDBRANCH  14  18
BRANCH  16  20
ATOM     20  O   UNL     1      18.185 -11.481   8.464  1.00  0.00    -0.502 OA
ATOM     21  H   UNL     1      17.837 -12.265   7.927  1.00  0.00     0.293 HD
ENDBRANCH  16  20
BRANCH  17  22
ATOM     22  O   UNL     1      17.293 -10.452   6.001  1.00  0.00    -0.504 OA
ATOM     23  H   UNL     1      16.491 -10.734   5.450  1.00  0.00     0.293 HD
ENDBRANCH  17  22
ENDBRANCH   1  12
BRANCH   2  24
ATOM     24  O   UNL     1      13.886  -7.080   6.994  1.00  0.00    -0.502 OA
ATOM     25  H   UNL     1      13.570  -7.044   6.032  1.00  0.00     0.293 HD
ENDBRANCH   2  24
BRANCH   6  26
ATOM     26  O   UNL     1      13.399  -1.798   7.473  1.00  0.00    -0.507 OA
ATOM     27  H   UNL     1      13.237  -1.973   6.493  1.00  0.00     0.293 HD
ENDBRANCH   6  26
BRANCH   8  28
ATOM     28  O   UNL     1      17.081  -0.876  10.413  1.00  0.00    -0.508 OA
ATOM     29  H   UNL     1      17.058  -0.871  11.425  1.00  0.00     0.293 HD
ENDBRANCH   8  28
TORSDOF 7
ENDMDL
MODEL 7
REMARK VINA RESULT:    -5.159      2.073      7.415
REMARK INTER + INTRA:          -6.735
REMARK INTER:                  -6.741
REMARK INTRA:                   0.006
REMARK UNBOUND:                -0.369
REMARK SMILES O=c1c(O)c(-c2cc(O)c(O)c(O)c2)oc2cc(O)cc(O)c12
REMARK SMILES IDX 5 1 3 2 2 3 1 4 23 5 21 6 20 7 18 8 17 9 16 10 15 11 6 12
REMARK SMILES IDX 7 13 8 14 14 15 10 16 12 17 9 18 11 20 13 22 4 24 22 26
REMARK SMILES IDX 19 28
REMARK H PARENT 9 19 11 21 13 23 4 25 22 27 19 29
REMARK Flexibility Score: inf
ROOT
ATOM      1  C   UNL     1      16.193  -9.524   8.050  1.00  0.00     0.180 A 
ATOM      2  C   UNL     1      17.132  -9.387   9.088  1.00  0.00     0.208 A 
ATOM      3  C   UNL     1      17.617  -8.108   9.403  1.00  0.00     0.238 A 
ATOM      4  O   UNL     1      18.497  -7.999  10.296  1.00  0.00    -0.285 OA
ATOM      5  C   UNL     1      17.148  -6.981   8.688  1.00  0.00     0.111 A 
ATOM      6  C   UNL     1      17.542  -5.633   8.949  1.00  0.00     0.134 A 
ATOM      7  C   UNL     1      17.114  -4.611   8.093  1.00  0.00     0.093 A 
ATOM      8  C   UNL     1      16.253  -4.878   7.025  1.00  0.00     0.123 A 
ATOM      9  C   UNL     1      15.817  -6.180   6.799  1.00  0.00     0.094 A 
ATOM     10  C   UNL     1      16.255  -7.227   7.612  1.00  0.00     0.146 A 
ATOM     11  O   UNL     1      15.822  -8.456   7.354  1.00  0.00    -0.452 OA
ENDROOT
BRANCH   1  12
ATOM     12  C   UNL     1      15.617 -10.836   7.677  1.00  0.00     0.029 A 
ATOM     13  C   UNL     1      14.224 -10.977   7.587  1.00  0.00     0.062 A 
ATOM     14  C   UNL     1      13.651 -12.210   7.257  1.00  0.00     0.162 A 
ATOM     15  C   UNL     1      16.433 -11.960   7.468  1.00  0.00     0.062 A 
ATOM     16  C   UNL     1      14.473 -13.326   7.027  1.00  0.00     0.200 A 
ATOM     17  C   UNL     1      15.868 -13.200   7.138  1.00  0.00     0.162 A 
BRANCH  14  18
ATOM     18  O   UNL     1      12.263 -12.305   7.163  1.00  0.00    -0.504 OA
ATOM     19  H   UNL     1      11.782 -12.290   6.272  1.00  0.00     0.293 HD
ENDBRANCH  14  18
BRANCH  16  20
ATOM     20  O   UNL     1      13.894 -14.552   6.696  1.00  0.00    -0.502 OA
ATOM     21  H   UNL     1      12.967 -14.814   7.009  1.00  0.00     0.293 HD
ENDBRANCH  16  20
BRANCH  17  22
ATOM     22  O   UNL     1      16.689 -14.306   6.926  1.00  0.00    -0.504 OA
ATOM     23  H   UNL     1      16.329 -15.167   6.529  1.00  0.00     0.293 HD
ENDBRANCH  17  22
ENDBRANCH   1  12
BRANCH   2  24
ATOM     24  O   UNL     1      17.598 -10.516   9.767  1.00  0.00    -0.502 OA
ATOM     25  H   UNL     1      18.585 -10.710   9.887  1.00  0.00     0.293 HD
ENDBRANCH   2  24
BRANCH   6  26
ATOM     26  O   UNL     1      18.322  -5.247  10.042  1.00  0.00    -0.507 OA
ATOM     27  H   UNL     1      19.194  -5.679  10.307  1.00  0.00     0.293 HD
ENDBRANCH   6  26
BRANCH   8  28
ATOM     28  O   UNL     1      15.820  -3.851   6.189  1.00  0.00    -0.508 OA
ATOM     29  H   UNL     1      15.765  -3.972   5.185  1.00  0.00     0.293 HD
ENDBRANCH   8  28
TORSDOF 7
ENDMDL
MODEL 8
REMARK VINA RESULT:    -4.789     13.934     16.478
REMARK INTER + INTRA:          -6.278
REMARK INTER:                  -6.430
REMARK INTRA:                   0.152
REMARK UNBOUND:                -0.369
REMARK SMILES O=c1c(O)c(-c2cc(O)c(O)c(O)c2)oc2cc(O)cc(O)c12
REMARK SMILES IDX 5 1 3 2 2 3 1 4 23 5 21 6 20 7 18 8 17 9 16 10 15 11 6 12
REMARK SMILES IDX 7 13 8 14 14 15 10 16 12 17 9 18 11 20 13 22 4 24 22 26
REMARK SMILES IDX 19 28
REMARK H PARENT 9 19 11 21 13 23 4 25 22 27 19 29
REMARK Flexibility Score: inf
ROOT
ATOM      1  C   UNL     1      12.554 -15.727  19.858  1.00  0.00     0.180 A 
ATOM      2  C   UNL     1      12.231 -14.648  20.699  1.00  0.00     0.208 A 
ATOM      3  C   UNL     1      12.235 -14.842  22.089  1.00  0.00     0.238 A 
ATOM      4  O   UNL     1      11.893 -13.888  22.834  1.00  0.00    -0.285 OA
ATOM      5  C   UNL     1      12.577 -16.108  22.621  1.00  0.00     0.111 A 
ATOM      6  C   UNL     1      12.653 -16.408  24.016  1.00  0.00     0.134 A 
ATOM      7  C   UNL     1      12.873 -17.728  24.427  1.00  0.00     0.093 A 
ATOM      8  C   UNL     1      13.085 -18.748  23.495  1.00  0.00     0.123 A 
ATOM      9  C   UNL     1      13.073 -18.453  22.135  1.00  0.00     0.094 A 
ATOM     10  C   UNL     1      12.820 -17.153  21.691  1.00  0.00     0.146 A 
ATOM     11  O   UNL     1      12.806 -16.919  20.385  1.00  0.00    -0.452 OA
ENDROOT
BRANCH   1  12
ATOM     12  C   UNL     1      12.594 -15.592  18.384  1.00  0.00     0.029 A 
ATOM     13  C   UNL     1      12.248 -16.688  17.580  1.00  0.00     0.062 A 
ATOM     14  C   UNL     1      12.297 -16.596  16.185  1.00  0.00     0.162 A 
ATOM     15  C   UNL     1      13.030 -14.405  17.770  1.00  0.00     0.062 A 
ATOM     16  C   UNL     1      12.712 -15.400  15.576  1.00  0.00     0.200 A 
ATOM     17  C   UNL     1      13.084 -14.303  16.373  1.00  0.00     0.162 A 
BRANCH  14  18
ATOM     18  O   UNL     1      11.930 -17.703  15.422  1.00  0.00    -0.504 OA
ATOM     19  H   UNL     1      12.169 -18.649  15.695  1.00  0.00     0.293 HD
ENDBRANCH  14  18
BRANCH  16  20
ATOM     20  O   UNL     1      12.756 -15.314  14.183  1.00  0.00    -0.502 OA
ATOM     21  H   UNL     1      12.253 -15.959  13.587  1.00  0.00     0.293 HD
ENDBRANCH  16  20
BRANCH  17  22
ATOM     22  O   UNL     1      13.511 -13.119  15.775  1.00  0.00    -0.504 OA
ATOM     23  H   UNL     1      14.287 -13.101  15.125  1.00  0.00     0.293 HD
ENDBRANCH  17  22
ENDBRANCH   1  12
BRANCH   2  24
ATOM     24  O   UNL     1      11.875 -13.412  20.151  1.00  0.00    -0.502 OA
ATOM     25  H   UNL     1      12.532 -12.833  19.642  1.00  0.00     0.293 HD
ENDBRANCH   2  24
BRANCH   6  26
ATOM     26  O   UNL     1      12.547 -15.448  25.026  1.00  0.00    -0.507 OA
ATOM     27  H   UNL     1      13.319 -15.106  25.578  1.00  0.00     0.293 HD
ENDBRANCH   6  26
BRANCH   8  28
ATOM     28  O   UNL     1      13.320 -20.055  23.914  1.00  0.00    -0.508 OA
ATOM     29  H   UNL     1      12.583 -20.625  24.311  1.00  0.00     0.293 HD
ENDBRANCH   8  28
TORSDOF 7
ENDMDL
