MODEL 1
REMARK VINA RESULT:    -3.605      0.000      0.000
REMARK INTER + INTRA:          -7.434
REMARK INTER:                  -6.135
REMARK INTRA:                  -1.299
REMARK UNBOUND:                -1.299
REMARK SMILES CCCCCCCCCCCCCC(=O)[O-]
REMARK SMILES IDX 8 1 9 2 10 3 11 4 12 5 13 6 14 7 15 8 16 9 7 10 6 11 5 12
REMARK SMILES IDX 4 13 3 14 2 15 1 16
REMARK H PARENT
REMARK Flexibility Score: inf
ROOT
ATOM      1  C   UNL     1     -44.293 -37.926  13.349  1.00  0.00     0.000 C 
ENDROOT
BRANCH   1   2
ATOM      2  C   UNL     1     -44.305 -38.189  14.866  1.00  0.00     0.000 C 
BRANCH   2   3
ATOM      3  C   UNL     1     -44.598 -36.953  15.738  1.00  0.00     0.000 C 
BRANCH   3   4
ATOM      4  C   UNL     1     -45.953 -37.037  16.462  1.00  0.00     0.000 C 
BRANCH   4   5
ATOM      5  C   UNL     1     -45.800 -37.193  17.983  1.00  0.00     0.006 C 
BRANCH   5   6
ATOM      6  C   UNL     1     -44.340 -37.087  18.445  1.00  0.00     0.053 C 
BRANCH   6   7
ATOM      7  C   UNL     1     -44.276 -36.875  19.925  1.00  0.00     0.041 C 
ATOM      8  O   UNL     1     -45.094 -37.458  20.685  1.00  0.00    -0.550 OA
ATOM      9  O   UNL     1     -43.345 -35.995  20.461  1.00  0.00    -0.550 OA
ENDBRANCH   6   7
ENDBRANCH   5   6
ENDBRANCH   4   5
ENDBRANCH   3   4
ENDBRANCH   2   3
ENDBRANCH   1   2
BRANCH   1  10
ATOM     10  C   UNL     1     -45.532 -37.155  12.866  1.00  0.00     0.000 C 
BRANCH  10  11
ATOM     11  C   UNL     1     -45.199 -35.732  12.382  1.00  0.00    -0.000 C 
BRANCH  11  12
ATOM     12  C   UNL     1     -46.018 -34.614  13.053  1.00  0.00    -0.000 C 
BRANCH  12  13
ATOM     13  C   UNL     1     -45.323 -33.241  12.989  1.00  0.00    -0.000 C 
BRANCH  13  14
ATOM     14  C   UNL     1     -45.406 -32.483  14.330  1.00  0.00    -0.000 C 
BRANCH  14  15
ATOM     15  C   UNL     1     -45.660 -33.399  15.539  1.00  0.00    -0.003 C 
ATOM     16  C   UNL     1     -44.552 -33.331  16.586  1.00  0.00     0.004 C 
ENDBRANCH  14  15
ENDBRANCH  13  14
ENDBRANCH  12  13
ENDBRANCH  11  12
ENDBRANCH  10  11
ENDBRANCH   1  10
TORSDOF 12
ENDMDL
MODEL 2
REMARK VINA RESULT:    -3.306      2.552      5.377
REMARK INTER + INTRA:          -6.925
REMARK INTER:                  -5.869
REMARK INTRA:                  -1.056
REMARK UNBOUND:                -1.299
REMARK SMILES CCCCCCCCCCCCCC(=O)[O-]
REMARK SMILES IDX 8 1 9 2 10 3 11 4 12 5 13 6 14 7 15 8 16 9 7 10 6 11 5 12
REMARK SMILES IDX 4 13 3 14 2 15 1 16
REMARK H PARENT
REMARK Flexibility Score: inf
ROOT
ATOM      1  C   UNL     1     -43.841 -37.899  14.898  1.00  0.00     0.000 C 
ENDROOT
BRANCH   1   2
ATOM      2  C   UNL     1     -44.686 -38.041  13.619  1.00  0.00     0.000 C 
BRANCH   2   3
ATOM      3  C   UNL     1     -44.671 -36.813  12.689  1.00  0.00     0.000 C 
BRANCH   3   4
ATOM      4  C   UNL     1     -45.872 -35.877  12.912  1.00  0.00     0.000 C 
BRANCH   4   5
ATOM      5  C   UNL     1     -45.443 -34.440  13.248  1.00  0.00     0.006 C 
BRANCH   5   6
ATOM      6  C   UNL     1     -45.782 -34.042  14.691  1.00  0.00     0.053 C 
BRANCH   6   7
ATOM      7  C   UNL     1     -45.126 -32.745  15.043  1.00  0.00     0.041 C 
ATOM      8  O   UNL     1     -44.891 -31.890  14.148  1.00  0.00    -0.550 OA
ATOM      9  O   UNL     1     -44.727 -32.499  16.351  1.00  0.00    -0.550 OA
ENDBRANCH   6   7
ENDBRANCH   5   6
ENDBRANCH   4   5
ENDBRANCH   3   4
ENDBRANCH   2   3
ENDBRANCH   1   2
BRANCH   1  10
ATOM     10  C   UNL     1     -44.639 -38.197  16.178  1.00  0.00     0.000 C 
BRANCH  10  11
ATOM     11  C   UNL     1     -45.849 -37.263  16.359  1.00  0.00    -0.000 C 
BRANCH  11  12
ATOM     12  C   UNL     1     -45.926 -36.565  17.729  1.00  0.00    -0.000 C 
BRANCH  12  13
ATOM     13  C   UNL     1     -45.331 -37.412  18.868  1.00  0.00    -0.000 C 
BRANCH  13  14
ATOM     14  C   UNL     1     -44.121 -36.724  19.534  1.00  0.00    -0.000 C 
BRANCH  14  15
ATOM     15  C   UNL     1     -44.421 -36.176  20.939  1.00  0.00    -0.003 C 
ATOM     16  C   UNL     1     -45.611 -36.860  21.608  1.00  0.00     0.004 C 
ENDBRANCH  14  15
ENDBRANCH  13  14
ENDBRANCH  12  13
ENDBRANCH  11  12
ENDBRANCH  10  11
ENDBRANCH   1  10
TORSDOF 12
ENDMDL
MODEL 3
REMARK VINA RESULT:    -3.152      1.725      3.113
REMARK INTER + INTRA:          -6.662
REMARK INTER:                  -5.968
REMARK INTRA:                  -0.694
REMARK UNBOUND:                -1.299
REMARK SMILES CCCCCCCCCCCCCC(=O)[O-]
REMARK SMILES IDX 8 1 9 2 10 3 11 4 12 5 13 6 14 7 15 8 16 9 7 10 6 11 5 12
REMARK SMILES IDX 4 13 3 14 2 15 1 16
REMARK H PARENT
REMARK Flexibility Score: inf
ROOT
ATOM      1  C   UNL     1     -44.563 -38.071  16.772  1.00  0.00     0.000 C 
ENDROOT
BRANCH   1   2
ATOM      2  C   UNL     1     -45.507 -36.895  17.083  1.00  0.00     0.000 C 
BRANCH   2   3
ATOM      3  C   UNL     1     -45.552 -36.471  18.563  1.00  0.00     0.000 C 
BRANCH   3   4
ATOM      4  C   UNL     1     -44.247 -36.784  19.317  1.00  0.00     0.000 C 
BRANCH   4   5
ATOM      5  C   UNL     1     -44.319 -36.402  20.804  1.00  0.00     0.006 C 
BRANCH   5   6
ATOM      6  C   UNL     1     -45.479 -35.446  21.114  1.00  0.00     0.053 C 
BRANCH   6   7
ATOM      7  C   UNL     1     -44.966 -34.194  21.751  1.00  0.00     0.041 C 
ATOM      8  O   UNL     1     -43.932 -34.225  22.469  1.00  0.00    -0.550 OA
ATOM      9  O   UNL     1     -45.659 -33.000  21.594  1.00  0.00    -0.550 OA
ENDBRANCH   6   7
ENDBRANCH   5   6
ENDBRANCH   4   5
ENDBRANCH   3   4
ENDBRANCH   2   3
ENDBRANCH   1   2
BRANCH   1  10
ATOM     10  C   UNL     1     -44.185 -38.158  15.284  1.00  0.00     0.000 C 
BRANCH  10  11
ATOM     11  C   UNL     1     -45.143 -37.364  14.378  1.00  0.00    -0.000 C 
BRANCH  11  12
ATOM     12  C   UNL     1     -44.572 -37.005  12.993  1.00  0.00    -0.000 C 
BRANCH  12  13
ATOM     13  C   UNL     1     -45.273 -35.794  12.351  1.00  0.00    -0.000 C 
BRANCH  13  14
ATOM     14  C   UNL     1     -45.690 -34.740  13.398  1.00  0.00    -0.000 C 
BRANCH  14  15
ATOM     15  C   UNL     1     -45.590 -33.293  12.887  1.00  0.00    -0.003 C 
ATOM     16  C   UNL     1     -45.084 -32.317  13.946  1.00  0.00     0.004 C 
ENDBRANCH  14  15
ENDBRANCH  13  14
ENDBRANCH  12  13
ENDBRANCH  11  12
ENDBRANCH  10  11
ENDBRANCH   1  10
TORSDOF 12
ENDMDL
MODEL 4
REMARK VINA RESULT:    -3.139      1.304      2.042
REMARK INTER + INTRA:          -6.640
REMARK INTER:                  -5.477
REMARK INTRA:                  -1.163
REMARK UNBOUND:                -1.299
REMARK SMILES CCCCCCCCCCCCCC(=O)[O-]
REMARK SMILES IDX 8 1 9 2 10 3 11 4 12 5 13 6 14 7 15 8 16 9 7 10 6 11 5 12
REMARK SMILES IDX 4 13 3 14 2 15 1 16
REMARK H PARENT
REMARK Flexibility Score: inf
ROOT
ATOM      1  C   UNL     1     -43.534 -38.242  15.255  1.00  0.00     0.000 C 
ENDROOT
BRANCH   1   2
ATOM      2  C   UNL     1     -44.478 -37.623  16.303  1.00  0.00     0.000 C 
BRANCH   2   3
ATOM      3  C   UNL     1     -44.462 -36.084  16.364  1.00  0.00     0.000 C 
BRANCH   3   4
ATOM      4  C   UNL     1     -45.794 -35.489  16.853  1.00  0.00     0.000 C 
BRANCH   4   5
ATOM      5  C   UNL     1     -45.714 -34.976  18.300  1.00  0.00     0.006 C 
BRANCH   5   6
ATOM      6  C   UNL     1     -45.735 -36.111  19.333  1.00  0.00     0.053 C 
BRANCH   6   7
ATOM      7  C   UNL     1     -44.364 -36.337  19.887  1.00  0.00     0.041 C 
ATOM      8  O   UNL     1     -43.655 -37.284  19.457  1.00  0.00    -0.550 OA
ATOM      9  O   UNL     1     -43.889 -35.532  20.915  1.00  0.00    -0.550 OA
ENDBRANCH   6   7
ENDBRANCH   5   6
ENDBRANCH   4   5
ENDBRANCH   3   4
ENDBRANCH   2   3
ENDBRANCH   1   2
BRANCH   1  10
ATOM     10  C   UNL     1     -43.941 -37.907  13.811  1.00  0.00     0.000 C 
BRANCH  10  11
ATOM     11  C   UNL     1     -45.449 -38.085  13.559  1.00  0.00    -0.000 C 
BRANCH  11  12
ATOM     12  C   UNL     1     -46.122 -36.916  12.816  1.00  0.00    -0.000 C 
BRANCH  12  13
ATOM     13  C   UNL     1     -45.288 -35.623  12.853  1.00  0.00    -0.000 C 
BRANCH  13  14
ATOM     14  C   UNL     1     -46.125 -34.401  13.284  1.00  0.00    -0.000 C 
BRANCH  14  15
ATOM     15  C   UNL     1     -45.532 -33.057  12.828  1.00  0.00    -0.003 C 
ATOM     16  C   UNL     1     -44.684 -32.381  13.903  1.00  0.00     0.004 C 
ENDBRANCH  14  15
ENDBRANCH  13  14
ENDBRANCH  12  13
ENDBRANCH  11  12
ENDBRANCH  10  11
ENDBRANCH   1  10
TORSDOF 12
ENDMDL
MODEL 5
REMARK VINA RESULT:    -3.128      9.286     12.388
REMARK INTER + INTRA:          -6.620
REMARK INTER:                  -5.471
REMARK INTRA:                  -1.150
REMARK UNBOUND:                -1.299
REMARK SMILES CCCCCCCCCCCCCC(=O)[O-]
REMARK SMILES IDX 8 1 9 2 10 3 11 4 12 5 13 6 14 7 15 8 16 9 7 10 6 11 5 12
REMARK SMILES IDX 4 13 3 14 2 15 1 16
REMARK H PARENT
REMARK Flexibility Score: inf
ROOT
ATOM      1  C   UNL     1     -40.597 -31.965  27.218  1.00  0.00     0.000 C 
ENDROOT
BRANCH   1   2
ATOM      2  C   UNL     1     -39.640 -32.214  28.398  1.00  0.00     0.000 C 
BRANCH   2   3
ATOM      3  C   UNL     1     -38.179 -32.497  28.003  1.00  0.00     0.000 C 
BRANCH   3   4
ATOM      4  C   UNL     1     -37.946 -33.956  27.571  1.00  0.00     0.000 C 
BRANCH   4   5
ATOM      5  C   UNL     1     -37.875 -34.114  26.044  1.00  0.00     0.006 C 
BRANCH   5   6
ATOM      6  C   UNL     1     -37.506 -32.806  25.329  1.00  0.00     0.053 C 
BRANCH   6   7
ATOM      7  C   UNL     1     -38.194 -32.725  24.003  1.00  0.00     0.041 C 
ATOM      8  O   UNL     1     -39.423 -32.458  23.942  1.00  0.00    -0.550 OA
ATOM      9  O   UNL     1     -37.489 -32.994  22.837  1.00  0.00    -0.550 OA
ENDBRANCH   6   7
ENDBRANCH   5   6
ENDBRANCH   4   5
ENDBRANCH   3   4
ENDBRANCH   2   3
ENDBRANCH   1   2
BRANCH   1  10
ATOM     10  C   UNL     1     -42.078 -32.074  27.615  1.00  0.00     0.000 C 
BRANCH  10  11
ATOM     11  C   UNL     1     -42.586 -33.527  27.633  1.00  0.00    -0.000 C 
BRANCH  11  12
ATOM     12  C   UNL     1     -44.078 -33.694  27.289  1.00  0.00    -0.000 C 
BRANCH  12  13
ATOM     13  C   UNL     1     -44.601 -32.597  26.344  1.00  0.00    -0.000 C 
BRANCH  13  14
ATOM     14  C   UNL     1     -45.167 -33.179  25.032  1.00  0.00    -0.000 C 
BRANCH  14  15
ATOM     15  C   UNL     1     -44.467 -32.646  23.771  1.00  0.00    -0.003 C 
ATOM     16  C   UNL     1     -42.948 -32.586  23.909  1.00  0.00     0.004 C 
ENDBRANCH  14  15
ENDBRANCH  13  14
ENDBRANCH  12  13
ENDBRANCH  11  12
ENDBRANCH  10  11
ENDBRANCH   1  10
TORSDOF 12
ENDMDL
MODEL 6
REMARK VINA RESULT:    -3.115      2.674      5.277
REMARK INTER + INTRA:          -6.599
REMARK INTER:                  -5.753
REMARK INTRA:                  -0.846
REMARK UNBOUND:                -1.299
REMARK SMILES CCCCCCCCCCCCCC(=O)[O-]
REMARK SMILES IDX 8 1 9 2 10 3 11 4 12 5 13 6 14 7 15 8 16 9 7 10 6 11 5 12
REMARK SMILES IDX 4 13 3 14 2 15 1 16
REMARK H PARENT
REMARK Flexibility Score: inf
ROOT
ATOM      1  C   UNL     1     -44.367 -36.799  18.949  1.00  0.00     0.000 C 
ENDROOT
BRANCH   1   2
ATOM      2  C   UNL     1     -44.184 -36.409  20.427  1.00  0.00     0.000 C 
BRANCH   2   3
ATOM      3  C   UNL     1     -45.371 -36.759  21.344  1.00  0.00     0.000 C 
BRANCH   3   4
ATOM      4  C   UNL     1     -45.953 -35.532  22.067  1.00  0.00     0.000 C 
BRANCH   4   5
ATOM      5  C   UNL     1     -45.535 -34.207  21.408  1.00  0.00     0.006 C 
BRANCH   5   6
ATOM      6  C   UNL     1     -45.441 -33.050  22.412  1.00  0.00     0.053 C 
BRANCH   6   7
ATOM      7  C   UNL     1     -44.380 -33.326  23.429  1.00  0.00     0.041 C 
ATOM      8  O   UNL     1     -44.620 -33.164  24.655  1.00  0.00    -0.550 OA
ATOM      9  O   UNL     1     -43.110 -33.715  23.021  1.00  0.00    -0.550 OA
ENDBRANCH   6   7
ENDBRANCH   5   6
ENDBRANCH   4   5
ENDBRANCH   3   4
ENDBRANCH   2   3
ENDBRANCH   1   2
BRANCH   1  10
ATOM     10  C   UNL     1     -45.597 -37.690  18.713  1.00  0.00     0.000 C 
BRANCH  10  11
ATOM     11  C   UNL     1     -45.752 -38.118  17.243  1.00  0.00    -0.000 C 
BRANCH  11  12
ATOM     12  C   UNL     1     -44.964 -37.261  16.234  1.00  0.00    -0.000 C 
BRANCH  12  13
ATOM     13  C   UNL     1     -43.915 -38.071  15.451  1.00  0.00    -0.000 C 
BRANCH  13  14
ATOM     14  C   UNL     1     -44.146 -38.002  13.927  1.00  0.00    -0.000 C 
BRANCH  14  15
ATOM     15  C   UNL     1     -45.351 -37.135  13.526  1.00  0.00    -0.003 C 
ATOM     16  C   UNL     1     -44.996 -36.041  12.522  1.00  0.00     0.004 C 
ENDBRANCH  14  15
ENDBRANCH  13  14
ENDBRANCH  12  13
ENDBRANCH  11  12
ENDBRANCH  10  11
ENDBRANCH   1  10
TORSDOF 12
ENDMDL
MODEL 7
REMARK VINA RESULT:    -3.063      8.286     12.129
REMARK INTER + INTRA:          -6.510
REMARK INTER:                  -5.289
REMARK INTRA:                  -1.221
REMARK UNBOUND:                -1.299
REMARK SMILES CCCCCCCCCCCCCC(=O)[O-]
REMARK SMILES IDX 8 1 9 2 10 3 11 4 12 5 13 6 14 7 15 8 16 9 7 10 6 11 5 12
REMARK SMILES IDX 4 13 3 14 2 15 1 16
REMARK H PARENT
REMARK Flexibility Score: inf
ROOT
ATOM      1  C   UNL     1     -39.032 -32.776  24.228  1.00  0.00     0.000 C 
ENDROOT
BRANCH   1   2
ATOM      2  C   UNL     1     -40.076 -31.875  24.915  1.00  0.00     0.000 C 
BRANCH   2   3
ATOM      3  C   UNL     1     -41.478 -31.900  24.277  1.00  0.00     0.000 C 
BRANCH   3   4
ATOM      4  C   UNL     1     -42.601 -32.128  25.304  1.00  0.00     0.000 C 
BRANCH   4   5
ATOM      5  C   UNL     1     -43.682 -33.092  24.790  1.00  0.00     0.006 C 
BRANCH   5   6
ATOM      6  C   UNL     1     -43.722 -33.175  23.258  1.00  0.00     0.053 C 
BRANCH   6   7
ATOM      7  C   UNL     1     -44.819 -34.090  22.813  1.00  0.00     0.041 C 
ATOM      8  O   UNL     1     -45.886 -34.170  23.477  1.00  0.00    -0.550 OA
ATOM      9  O   UNL     1     -44.644 -34.893  21.693  1.00  0.00    -0.550 OA
ENDBRANCH   6   7
ENDBRANCH   5   6
ENDBRANCH   4   5
ENDBRANCH   3   4
ENDBRANCH   2   3
ENDBRANCH   1   2
BRANCH   1  10
ATOM     10  C   UNL     1     -38.061 -33.432  25.223  1.00  0.00     0.000 C 
BRANCH  10  11
ATOM     11  C   UNL     1     -37.330 -32.408  26.109  1.00  0.00    -0.000 C 
BRANCH  11  12
ATOM     12  C   UNL     1     -37.239 -32.790  27.598  1.00  0.00    -0.000 C 
BRANCH  12  13
ATOM     13  C   UNL     1     -38.569 -33.321  28.163  1.00  0.00    -0.000 C 
BRANCH  13  14
ATOM     14  C   UNL     1     -39.310 -32.259  29.002  1.00  0.00    -0.000 C 
BRANCH  14  15
ATOM     15  C   UNL     1     -40.753 -32.005  28.536  1.00  0.00    -0.003 C 
ATOM     16  C   UNL     1     -41.662 -33.219  28.711  1.00  0.00     0.004 C 
ENDBRANCH  14  15
ENDBRANCH  13  14
ENDBRANCH  12  13
ENDBRANCH  11  12
ENDBRANCH  10  11
ENDBRANCH   1  10
TORSDOF 12
ENDMDL
MODEL 8
REMARK VINA RESULT:    -3.060      9.256     12.416
REMARK INTER + INTRA:          -6.505
REMARK INTER:                  -5.468
REMARK INTRA:                  -1.037
REMARK UNBOUND:                -1.299
REMARK SMILES CCCCCCCCCCCCCC(=O)[O-]
REMARK SMILES IDX 8 1 9 2 10 3 11 4 12 5 13 6 14 7 15 8 16 9 7 10 6 11 5 12
REMARK SMILES IDX 4 13 3 14 2 15 1 16
REMARK H PARENT
REMARK Flexibility Score: inf
ROOT
ATOM      1  C   UNL     1     -40.594 -32.923  27.157  1.00  0.00     0.000 C 
ENDROOT
BRANCH   1   2
ATOM      2  C   UNL     1     -41.905 -32.230  27.572  1.00  0.00     0.000 C 
BRANCH   2   3
ATOM      3  C   UNL     1     -43.122 -33.164  27.699  1.00  0.00     0.000 C 
BRANCH   3   4
ATOM      4  C   UNL     1     -44.414 -32.546  27.137  1.00  0.00     0.000 C 
BRANCH   4   5
ATOM      5  C   UNL     1     -44.783 -33.107  25.754  1.00  0.00     0.006 C 
BRANCH   5   6
ATOM      6  C   UNL     1     -44.393 -32.163  24.608  1.00  0.00     0.053 C 
BRANCH   6   7
ATOM      7  C   UNL     1     -43.202 -32.696  23.877  1.00  0.00     0.041 C 
ATOM      8  O   UNL     1     -42.074 -32.156  24.024  1.00  0.00    -0.550 OA
ATOM      9  O   UNL     1     -43.346 -33.757  22.992  1.00  0.00    -0.550 OA
ENDBRANCH   6   7
ENDBRANCH   5   6
ENDBRANCH   4   5
ENDBRANCH   3   4
ENDBRANCH   2   3
ENDBRANCH   1   2
BRANCH   1  10
ATOM     10  C   UNL     1     -39.574 -33.011  28.304  1.00  0.00     0.000 C 
BRANCH  10  11
ATOM     11  C   UNL     1     -38.241 -33.649  27.871  1.00  0.00    -0.000 C 
BRANCH  11  12
ATOM     12  C   UNL     1     -37.119 -32.644  27.552  1.00  0.00    -0.000 C 
BRANCH  12  13
ATOM     13  C   UNL     1     -37.166 -32.134  26.100  1.00  0.00    -0.000 C 
BRANCH  13  14
ATOM     14  C   UNL     1     -37.590 -33.238  25.109  1.00  0.00    -0.000 C 
BRANCH  14  15
ATOM     15  C   UNL     1     -38.432 -32.716  23.932  1.00  0.00    -0.003 C 
ATOM     16  C   UNL     1     -37.606 -32.446  22.678  1.00  0.00     0.004 C 
ENDBRANCH  14  15
ENDBRANCH  13  14
ENDBRANCH  12  13
ENDBRANCH  11  12
ENDBRANCH  10  11
ENDBRANCH   1  10
TORSDOF 12
ENDMDL
