MODEL 1
REMARK VINA RESULT:    -4.624      0.000      0.000
REMARK INTER + INTRA:          -6.782
REMARK INTER:                  -6.516
REMARK INTRA:                  -0.267
REMARK UNBOUND:                -0.267
REMARK SMILES CCCCCCCCC(=O)[O-]
REMARK SMILES IDX 6 1 7 2 8 3 9 4 10 5 11 6 5 7 4 8 3 9 2 10 1 11
REMARK H PARENT
REMARK Flexibility Score: inf
ROOT
ATOM      1  C   UNL     1      97.563 124.146 125.474  1.00  0.00     0.000 C 
ENDROOT
BRANCH   1   2
ATOM      2  C   UNL     1      97.900 122.646 125.455  1.00  0.00     0.006 C 
BRANCH   2   3
ATOM      3  C   UNL     1      99.131 122.306 126.305  1.00  0.00     0.053 C 
BRANCH   3   4
ATOM      4  C   UNL     1      99.297 120.823 126.414  1.00  0.00     0.041 C 
ATOM      5  O   UNL     1      98.534 120.052 125.775  1.00  0.00    -0.550 OA
ATOM      6  O   UNL     1     100.262 120.291 127.260  1.00  0.00    -0.550 OA
ENDBRANCH   3   4
ENDBRANCH   2   3
ENDBRANCH   1   2
BRANCH   1   7
ATOM      7  C   UNL     1      96.491 124.524 124.441  1.00  0.00     0.000 C 
BRANCH   7   8
ATOM      8  C   UNL     1      95.948 123.273 123.732  1.00  0.00    -0.000 C 
BRANCH   8   9
ATOM      9  C   UNL     1      94.413 123.216 123.726  1.00  0.00    -0.000 C 
BRANCH   9  10
ATOM     10  C   UNL     1      93.871 121.935 123.073  1.00  0.00    -0.003 C 
ATOM     11  C   UNL     1      93.084 122.256 121.805  1.00  0.00     0.004 C 
ENDBRANCH   9  10
ENDBRANCH   8   9
ENDBRANCH   7   8
ENDBRANCH   1   7
TORSDOF 7
ENDMDL
MODEL 2
REMARK VINA RESULT:    -4.521      2.420      3.252
REMARK INTER + INTRA:          -6.637
REMARK INTER:                  -6.471
REMARK INTRA:                  -0.166
REMARK UNBOUND:                -0.267
REMARK SMILES CCCCCCCCC(=O)[O-]
REMARK SMILES IDX 6 1 7 2 8 3 9 4 10 5 11 6 5 7 4 8 3 9 2 10 1 11
REMARK H PARENT
REMARK Flexibility Score: inf
ROOT
ATOM      1  C   UNL     1      96.101 123.832 123.753  1.00  0.00     0.000 C 
ENDROOT
BRANCH   1   2
ATOM      2  C   UNL     1      96.892 123.858 125.071  1.00  0.00     0.006 C 
BRANCH   2   3
ATOM      3  C   UNL     1      97.679 125.160 125.263  1.00  0.00     0.053 C 
BRANCH   3   4
ATOM      4  C   UNL     1      98.505 125.093 126.509  1.00  0.00     0.041 C 
ATOM      5  O   UNL     1      99.283 124.123 126.701  1.00  0.00    -0.550 OA
ATOM      6  O   UNL     1      98.378 126.078 127.481  1.00  0.00    -0.550 OA
ENDBRANCH   3   4
ENDBRANCH   2   3
ENDBRANCH   1   2
BRANCH   1   7
ATOM      7  C   UNL     1      94.607 123.543 123.966  1.00  0.00     0.000 C 
BRANCH   7   8
ATOM      8  C   UNL     1      94.207 122.216 123.302  1.00  0.00    -0.000 C 
BRANCH   8   9
ATOM      9  C   UNL     1      93.125 122.395 122.225  1.00  0.00    -0.000 C 
BRANCH   9  10
ATOM     10  C   UNL     1      93.573 121.885 120.847  1.00  0.00    -0.003 C 
ATOM     11  C   UNL     1      92.720 122.490 119.735  1.00  0.00     0.004 C 
ENDBRANCH   9  10
ENDBRANCH   8   9
ENDBRANCH   7   8
ENDBRANCH   1   7
TORSDOF 7
ENDMDL
MODEL 3
REMARK VINA RESULT:    -4.364     10.315     11.203
REMARK INTER + INTRA:          -6.417
REMARK INTER:                  -6.104
REMARK INTRA:                  -0.313
REMARK UNBOUND:                -0.267
REMARK SMILES CCCCCCCCC(=O)[O-]
REMARK SMILES IDX 6 1 7 2 8 3 9 4 10 5 11 6 5 7 4 8 3 9 2 10 1 11
REMARK H PARENT
REMARK Flexibility Score: inf
ROOT
ATOM      1  C   UNL     1      86.326 124.777 130.192  1.00  0.00     0.000 C 
ENDROOT
BRANCH   1   2
ATOM      2  C   UNL     1      87.065 123.559 130.770  1.00  0.00     0.006 C 
BRANCH   2   3
ATOM      3  C   UNL     1      88.157 123.030 129.832  1.00  0.00     0.053 C 
BRANCH   3   4
ATOM      4  C   UNL     1      88.531 121.629 130.204  1.00  0.00     0.041 C 
ATOM      5  O   UNL     1      89.324 121.418 131.158  1.00  0.00    -0.550 OA
ATOM      6  O   UNL     1      88.042 120.559 129.465  1.00  0.00    -0.550 OA
ENDBRANCH   3   4
ENDBRANCH   2   3
ENDBRANCH   1   2
BRANCH   1   7
ATOM      7  C   UNL     1      86.665 125.027 128.715  1.00  0.00     0.000 C 
BRANCH   7   8
ATOM      8  C   UNL     1      85.391 125.295 127.898  1.00  0.00    -0.000 C 
BRANCH   8   9
ATOM      9  C   UNL     1      84.770 124.010 127.330  1.00  0.00    -0.000 C 
BRANCH   9  10
ATOM     10  C   UNL     1      83.999 124.252 126.024  1.00  0.00    -0.003 C 
ATOM     11  C   UNL     1      84.483 123.317 124.919  1.00  0.00     0.004 C 
ENDBRANCH   9  10
ENDBRANCH   8   9
ENDBRANCH   7   8
ENDBRANCH   1   7
TORSDOF 7
ENDMDL
MODEL 4
REMARK VINA RESULT:    -4.303     10.367     11.484
REMARK INTER + INTRA:          -6.331
REMARK INTER:                  -5.790
REMARK INTRA:                  -0.541
REMARK UNBOUND:                -0.267
REMARK SMILES CCCCCCCCC(=O)[O-]
REMARK SMILES IDX 6 1 7 2 8 3 9 4 10 5 11 6 5 7 4 8 3 9 2 10 1 11
REMARK H PARENT
REMARK Flexibility Score: inf
ROOT
ATOM      1  C   UNL     1      86.806 124.428 131.481  1.00  0.00     0.000 C 
ENDROOT
BRANCH   1   2
ATOM      2  C   UNL     1      88.173 123.847 131.087  1.00  0.00     0.006 C 
BRANCH   2   3
ATOM      3  C   UNL     1      88.095 122.934 129.857  1.00  0.00     0.053 C 
BRANCH   3   4
ATOM      4  C   UNL     1      88.508 121.541 130.213  1.00  0.00     0.041 C 
ATOM      5  O   UNL     1      89.349 121.345 131.129  1.00  0.00    -0.550 OA
ATOM      6  O   UNL     1      88.001 120.461 129.501  1.00  0.00    -0.550 OA
ENDBRANCH   3   4
ENDBRANCH   2   3
ENDBRANCH   1   2
BRANCH   1   7
ATOM      7  C   UNL     1      85.714 124.127 130.443  1.00  0.00     0.000 C 
BRANCH   7   8
ATOM      8  C   UNL     1      85.139 125.427 129.860  1.00  0.00    -0.000 C 
BRANCH   8   9
ATOM      9  C   UNL     1      85.579 125.672 128.408  1.00  0.00    -0.000 C 
BRANCH   9  10
ATOM     10  C   UNL     1      85.338 124.454 127.504  1.00  0.00    -0.003 C 
ATOM     11  C   UNL     1      83.849 124.264 127.225  1.00  0.00     0.004 C 
ENDBRANCH   9  10
ENDBRANCH   8   9
ENDBRANCH   7   8
ENDBRANCH   1   7
TORSDOF 7
ENDMDL
MODEL 5
REMARK VINA RESULT:    -4.194     11.309     12.805
REMARK INTER + INTRA:          -6.177
REMARK INTER:                  -5.723
REMARK INTRA:                  -0.454
REMARK UNBOUND:                -0.267
REMARK SMILES CCCCCCCCC(=O)[O-]
REMARK SMILES IDX 6 1 7 2 8 3 9 4 10 5 11 6 5 7 4 8 3 9 2 10 1 11
REMARK H PARENT
REMARK Flexibility Score: inf
ROOT
ATOM      1  C   UNL     1      86.262 124.853 131.490  1.00  0.00     0.000 C 
ENDROOT
BRANCH   1   2
ATOM      2  C   UNL     1      85.290 124.416 130.383  1.00  0.00     0.006 C 
BRANCH   2   3
ATOM      3  C   UNL     1      84.841 125.584 129.495  1.00  0.00     0.053 C 
BRANCH   3   4
ATOM      4  C   UNL     1      85.596 125.579 128.203  1.00  0.00     0.041 C 
ATOM      5  O   UNL     1      86.756 126.064 128.146  1.00  0.00    -0.550 OA
ATOM      6  O   UNL     1      84.999 125.082 127.051  1.00  0.00    -0.550 OA
ENDBRANCH   3   4
ENDBRANCH   2   3
ENDBRANCH   1   2
BRANCH   1   7
ATOM      7  C   UNL     1      87.135 123.696 132.000  1.00  0.00     0.000 C 
BRANCH   7   8
ATOM      8  C   UNL     1      88.213 123.327 130.969  1.00  0.00    -0.000 C 
BRANCH   8   9
ATOM      9  C   UNL     1      88.660 121.861 131.079  1.00  0.00    -0.000 C 
BRANCH   9  10
ATOM     10  C   UNL     1      87.545 120.940 131.597  1.00  0.00    -0.003 C 
ATOM     11  C   UNL     1      86.891 120.172 130.451  1.00  0.00     0.004 C 
ENDBRANCH   9  10
ENDBRANCH   8   9
ENDBRANCH   7   8
ENDBRANCH   1   7
TORSDOF 7
ENDMDL
MODEL 6
REMARK VINA RESULT:    -4.156     10.799     11.610
REMARK INTER + INTRA:          -6.123
REMARK INTER:                  -5.630
REMARK INTRA:                  -0.493
REMARK UNBOUND:                -0.267
REMARK SMILES CCCCCCCCC(=O)[O-]
REMARK SMILES IDX 6 1 7 2 8 3 9 4 10 5 11 6 5 7 4 8 3 9 2 10 1 11
REMARK H PARENT
REMARK Flexibility Score: inf
ROOT
ATOM      1  C   UNL     1      88.352 123.243 130.893  1.00  0.00     0.000 C 
ENDROOT
BRANCH   1   2
ATOM      2  C   UNL     1      88.750 121.800 131.241  1.00  0.00     0.006 C 
BRANCH   2   3
ATOM      3  C   UNL     1      87.562 120.831 131.190  1.00  0.00     0.053 C 
BRANCH   3   4
ATOM      4  C   UNL     1      87.153 120.579 129.773  1.00  0.00     0.041 C 
ATOM      5  O   UNL     1      87.856 119.844 129.032  1.00  0.00    -0.550 OA
ATOM      6  O   UNL     1      86.020 121.196 129.256  1.00  0.00    -0.550 OA
ENDBRANCH   3   4
ENDBRANCH   2   3
ENDBRANCH   1   2
BRANCH   1   7
ATOM      7  C   UNL     1      87.157 123.743 131.719  1.00  0.00     0.000 C 
BRANCH   7   8
ATOM      8  C   UNL     1      86.359 124.802 130.943  1.00  0.00    -0.000 C 
BRANCH   8   9
ATOM      9  C   UNL     1      86.710 124.830 129.447  1.00  0.00    -0.000 C 
BRANCH   9  10
ATOM     10  C   UNL     1      85.753 125.712 128.631  1.00  0.00    -0.003 C 
ATOM     11  C   UNL     1      84.986 124.884 127.604  1.00  0.00     0.004 C 
ENDBRANCH   9  10
ENDBRANCH   8   9
ENDBRANCH   7   8
ENDBRANCH   1   7
TORSDOF 7
ENDMDL
MODEL 7
REMARK VINA RESULT:    -4.150      3.050      5.707
REMARK INTER + INTRA:          -6.116
REMARK INTER:                  -5.871
REMARK INTRA:                  -0.244
REMARK UNBOUND:                -0.267
REMARK SMILES CCCCCCCCC(=O)[O-]
REMARK SMILES IDX 6 1 7 2 8 3 9 4 10 5 11 6 5 7 4 8 3 9 2 10 1 11
REMARK H PARENT
REMARK Flexibility Score: inf
ROOT
ATOM      1  C   UNL     1      97.212 124.468 125.250  1.00  0.00     0.000 C 
ENDROOT
BRANCH   1   2
ATOM      2  C   UNL     1      96.510 123.377 124.426  1.00  0.00     0.006 C 
BRANCH   2   3
ATOM      3  C   UNL     1      95.225 123.878 123.755  1.00  0.00     0.053 C 
BRANCH   3   4
ATOM      4  C   UNL     1      94.149 122.842 123.848  1.00  0.00     0.041 C 
ATOM      5  O   UNL     1      93.487 122.711 124.910  1.00  0.00    -0.550 OA
ATOM      6  O   UNL     1      93.911 121.989 122.778  1.00  0.00    -0.550 OA
ENDBRANCH   3   4
ENDBRANCH   2   3
ENDBRANCH   1   2
BRANCH   1   7
ATOM      7  C   UNL     1      98.296 123.901 126.180  1.00  0.00     0.000 C 
BRANCH   7   8
ATOM      8  C   UNL     1      98.393 122.374 126.040  1.00  0.00    -0.000 C 
BRANCH   8   9
ATOM      9  C   UNL     1      99.793 121.836 126.375  1.00  0.00    -0.000 C 
BRANCH   9  10
ATOM     10  C   UNL     1      99.959 120.352 126.014  1.00  0.00    -0.003 C 
ATOM     11  C   UNL     1     101.434 119.978 125.894  1.00  0.00     0.004 C 
ENDBRANCH   9  10
ENDBRANCH   8   9
ENDBRANCH   7   8
ENDBRANCH   1   7
TORSDOF 7
ENDMDL
MODEL 8
REMARK VINA RESULT:    -3.974     11.328     12.976
REMARK INTER + INTRA:          -5.867
REMARK INTER:                  -5.666
REMARK INTRA:                  -0.201
REMARK UNBOUND:                -0.267
REMARK SMILES CCCCCCCCC(=O)[O-]
REMARK SMILES IDX 6 1 7 2 8 3 9 4 10 5 11 6 5 7 4 8 3 9 2 10 1 11
REMARK H PARENT
REMARK Flexibility Score: inf
ROOT
ATOM      1  C   UNL     1      84.519 124.847 128.109  1.00  0.00     0.000 C 
ENDROOT
BRANCH   1   2
ATOM      2  C   UNL     1      84.935 123.863 127.004  1.00  0.00     0.006 C 
BRANCH   2   3
ATOM      3  C   UNL     1      84.161 124.078 125.697  1.00  0.00     0.053 C 
BRANCH   3   4
ATOM      4  C   UNL     1      84.425 122.957 124.743  1.00  0.00     0.041 C 
ATOM      5  O   UNL     1      85.602 122.561 124.542  1.00  0.00    -0.550 OA
ATOM      6  O   UNL     1      83.374 122.383 124.037  1.00  0.00    -0.550 OA
ENDBRANCH   3   4
ENDBRANCH   2   3
ENDBRANCH   1   2
BRANCH   1   7
ATOM      7  C   UNL     1      85.713 125.618 128.693  1.00  0.00     0.000 C 
BRANCH   7   8
ATOM      8  C   UNL     1      86.181 124.985 130.013  1.00  0.00    -0.000 C 
BRANCH   8   9
ATOM      9  C   UNL     1      87.312 123.964 129.812  1.00  0.00    -0.000 C 
BRANCH   9  10
ATOM     10  C   UNL     1      88.089 123.680 131.106  1.00  0.00    -0.003 C 
ATOM     11  C   UNL     1      88.493 122.211 131.192  1.00  0.00     0.004 C 
ENDBRANCH   9  10
ENDBRANCH   8   9
ENDBRANCH   7   8
ENDBRANCH   1   7
TORSDOF 7
ENDMDL
MODEL 9
REMARK VINA RESULT:    -3.952     10.831     11.911
REMARK INTER + INTRA:          -5.835
REMARK INTER:                  -5.213
REMARK INTRA:                  -0.623
REMARK UNBOUND:                -0.267
REMARK SMILES CCCCCCCCC(=O)[O-]
REMARK SMILES IDX 6 1 7 2 8 3 9 4 10 5 11 6 5 7 4 8 3 9 2 10 1 11
REMARK H PARENT
REMARK Flexibility Score: inf
ROOT
ATOM      1  C   UNL     1      85.305 125.465 128.234  1.00  0.00     0.000 C 
ENDROOT
BRANCH   1   2
ATOM      2  C   UNL     1      86.653 124.728 128.248  1.00  0.00     0.006 C 
BRANCH   2   3
ATOM      3  C   UNL     1      87.043 124.234 129.647  1.00  0.00     0.053 C 
BRANCH   3   4
ATOM      4  C   UNL     1      87.312 122.763 129.625  1.00  0.00     0.041 C 
ATOM      5  O   UNL     1      86.357 121.946 129.548  1.00  0.00    -0.550 OA
ATOM      6  O   UNL     1      88.614 122.291 129.739  1.00  0.00    -0.550 OA
ENDBRANCH   3   4
ENDBRANCH   2   3
ENDBRANCH   1   2
BRANCH   1   7
ATOM      7  C   UNL     1      84.120 124.535 128.535  1.00  0.00     0.000 C 
BRANCH   7   8
ATOM      8  C   UNL     1      83.973 123.464 127.443  1.00  0.00    -0.000 C 
BRANCH   8   9
ATOM      9  C   UNL     1      83.362 124.019 126.147  1.00  0.00    -0.000 C 
BRANCH   9  10
ATOM     10  C   UNL     1      84.227 123.724 124.912  1.00  0.00    -0.003 C 
ATOM     11  C   UNL     1      84.976 122.404 125.070  1.00  0.00     0.004 C 
ENDBRANCH   9  10
ENDBRANCH   8   9
ENDBRANCH   7   8
ENDBRANCH   1   7
TORSDOF 7
ENDMDL
