MODEL 1
REMARK VINA RESULT:    -3.173      0.000      0.000
REMARK INTER + INTRA:          -4.102
REMARK INTER:                  -3.915
REMARK INTRA:                  -0.187
REMARK UNBOUND:                -0.187
REMARK SMILES C=CC[C@@H](C)C(=O)CC
REMARK SMILES IDX 4 1 5 2 6 3 7 4 8 5 9 6 3 7 2 8 1 9
REMARK H PARENT
REMARK Flexibility Score: inf
ROOT
ATOM      1  C   UNL     1      98.529   8.071  78.110  1.00  0.00     0.057 C 
ATOM      2  C   UNL     1      98.672   7.251  76.820  1.00  0.00     0.016 C 
ENDROOT
BRANCH   1   3
ATOM      3  C   UNL     1      99.878   8.273  78.768  1.00  0.00     0.135 C 
ATOM      4  O   UNL     1     100.694   7.364  78.740  1.00  0.00    -0.299 OA
BRANCH   3   5
ATOM      5  C   UNL     1     100.238   9.553  79.483  1.00  0.00     0.072 C 
ATOM      6  C   UNL     1     101.014   9.262  80.764  1.00  0.00     0.012 C 
ENDBRANCH   3   5
ENDBRANCH   1   3
BRANCH   1   7
ATOM      7  C   UNL     1      97.838   9.428  77.857  1.00  0.00     0.038 C 
BRANCH   7   8
ATOM      8  C   UNL     1      96.822   9.355  76.748  1.00  0.00    -0.034 C 
ATOM      9  C   UNL     1      96.037  10.393  76.441  1.00  0.00     0.004 C 
ENDBRANCH   7   8
ENDBRANCH   1   7
TORSDOF 4
ENDMDL
MODEL 2
REMARK VINA RESULT:    -3.152      1.776      2.929
REMARK INTER + INTRA:          -4.077
REMARK INTER:                  -3.773
REMARK INTRA:                  -0.304
REMARK UNBOUND:                -0.187
REMARK SMILES C=CC[C@@H](C)C(=O)CC
REMARK SMILES IDX 4 1 5 2 6 3 7 4 8 5 9 6 3 7 2 8 1 9
REMARK H PARENT
REMARK Flexibility Score: inf
ROOT
ATOM      1  C   UNL     1     100.705   9.754  78.893  1.00  0.00     0.057 C 
ATOM      2  C   UNL     1     101.513  11.052  79.033  1.00  0.00     0.016 C 
ENDROOT
BRANCH   1   3
ATOM      3  C   UNL     1     101.112   8.754  79.955  1.00  0.00     0.135 C 
ATOM      4  O   UNL     1     101.150   9.110  81.123  1.00  0.00    -0.299 OA
BRANCH   3   5
ATOM      5  C   UNL     1     101.499   7.335  79.614  1.00  0.00     0.072 C 
ATOM      6  C   UNL     1     102.284   7.283  78.307  1.00  0.00     0.012 C 
ENDBRANCH   3   5
ENDBRANCH   1   3
BRANCH   1   7
ATOM      7  C   UNL     1      99.184  10.013  78.943  1.00  0.00     0.038 C 
BRANCH   7   8
ATOM      8  C   UNL     1      98.408   9.027  78.111  1.00  0.00    -0.034 C 
ATOM      9  C   UNL     1      97.350   9.397  77.383  1.00  0.00     0.004 C 
ENDBRANCH   7   8
ENDBRANCH   1   7
TORSDOF 4
ENDMDL
MODEL 3
REMARK VINA RESULT:    -3.065      8.212      9.493
REMARK INTER + INTRA:          -3.968
REMARK INTER:                  -3.506
REMARK INTRA:                  -0.463
REMARK UNBOUND:                -0.187
REMARK SMILES C=CC[C@@H](C)C(=O)CC
REMARK SMILES IDX 4 1 5 2 6 3 7 4 8 5 9 6 3 7 2 8 1 9
REMARK H PARENT
REMARK Flexibility Score: inf
ROOT
ATOM      1  C   UNL     1      96.296   5.936  70.171  1.00  0.00     0.057 C 
ATOM      2  C   UNL     1      96.968   4.738  70.855  1.00  0.00     0.016 C 
ENDROOT
BRANCH   1   3
ATOM      3  C   UNL     1      96.982   7.229  70.562  1.00  0.00     0.135 C 
ATOM      4  O   UNL     1      97.728   7.236  71.529  1.00  0.00    -0.299 OA
BRANCH   3   5
ATOM      5  C   UNL     1      96.752   8.518  69.809  1.00  0.00     0.072 C 
ATOM      6  C   UNL     1      98.047   9.017  69.177  1.00  0.00     0.012 C 
ENDBRANCH   3   5
ENDBRANCH   1   3
BRANCH   1   7
ATOM      7  C   UNL     1      96.262   5.780  68.635  1.00  0.00     0.038 C 
BRANCH   7   8
ATOM      8  C   UNL     1      97.441   5.002  68.114  1.00  0.00    -0.034 C 
ATOM      9  C   UNL     1      98.381   5.571  67.352  1.00  0.00     0.004 C 
ENDBRANCH   7   8
ENDBRANCH   1   7
TORSDOF 4
ENDMDL
MODEL 4
REMARK VINA RESULT:    -3.055      1.725      4.092
REMARK INTER + INTRA:          -3.957
REMARK INTER:                  -3.499
REMARK INTRA:                  -0.458
REMARK UNBOUND:                -0.187
REMARK SMILES C=CC[C@@H](C)C(=O)CC
REMARK SMILES IDX 4 1 5 2 6 3 7 4 8 5 9 6 3 7 2 8 1 9
REMARK H PARENT
REMARK Flexibility Score: inf
ROOT
ATOM      1  C   UNL     1     101.394   7.537  78.379  1.00  0.00     0.057 C 
ATOM      2  C   UNL     1     102.689   7.020  77.735  1.00  0.00     0.016 C 
ENDROOT
BRANCH   1   3
ATOM      3  C   UNL     1     100.219   6.665  77.989  1.00  0.00     0.135 C 
ATOM      4  O   UNL     1     100.213   5.490  78.324  1.00  0.00    -0.299 OA
BRANCH   3   5
ATOM      5  C   UNL     1      99.063   7.195  77.173  1.00  0.00     0.072 C 
ATOM      6  C   UNL     1      98.309   8.278  77.938  1.00  0.00     0.012 C 
ENDBRANCH   3   5
ENDBRANCH   1   3
BRANCH   1   7
ATOM      7  C   UNL     1     101.513   7.635  79.915  1.00  0.00     0.038 C 
BRANCH   7   8
ATOM      8  C   UNL     1     101.112   8.991  80.433  1.00  0.00    -0.034 C 
ATOM      9  C   UNL     1     101.119  10.075  79.651  1.00  0.00     0.004 C 
ENDBRANCH   7   8
ENDBRANCH   1   7
TORSDOF 4
ENDMDL
MODEL 5
REMARK VINA RESULT:    -3.033      1.650      2.518
REMARK INTER + INTRA:          -3.929
REMARK INTER:                  -3.610
REMARK INTRA:                  -0.319
REMARK UNBOUND:                -0.187
REMARK SMILES C=CC[C@@H](C)C(=O)CC
REMARK SMILES IDX 4 1 5 2 6 3 7 4 8 5 9 6 3 7 2 8 1 9
REMARK H PARENT
REMARK Flexibility Score: inf
ROOT
ATOM      1  C   UNL     1     100.449   8.081  79.172  1.00  0.00     0.057 C 
ATOM      2  C   UNL     1     101.683   7.174  79.068  1.00  0.00     0.016 C 
ENDROOT
BRANCH   1   3
ATOM      3  C   UNL     1     100.794   9.376  79.876  1.00  0.00     0.135 C 
ATOM      4  O   UNL     1     101.117   9.344  81.054  1.00  0.00    -0.299 OA
BRANCH   3   5
ATOM      5  C   UNL     1     100.726  10.712  79.176  1.00  0.00     0.072 C 
ATOM      6  C   UNL     1     102.068  11.063  78.542  1.00  0.00     0.012 C 
ENDBRANCH   3   5
ENDBRANCH   1   3
BRANCH   1   7
ATOM      7  C   UNL     1      99.822   8.363  77.790  1.00  0.00     0.038 C 
BRANCH   7   8
ATOM      8  C   UNL     1      98.318   8.293  77.819  1.00  0.00    -0.034 C 
ATOM      9  C   UNL     1      97.559   9.383  77.669  1.00  0.00     0.004 C 
ENDBRANCH   7   8
ENDBRANCH   1   7
TORSDOF 4
ENDMDL
MODEL 6
REMARK VINA RESULT:    -3.028      7.907      9.551
REMARK INTER + INTRA:          -3.923
REMARK INTER:                  -3.428
REMARK INTRA:                  -0.495
REMARK UNBOUND:                -0.187
REMARK SMILES C=CC[C@@H](C)C(=O)CC
REMARK SMILES IDX 4 1 5 2 6 3 7 4 8 5 9 6 3 7 2 8 1 9
REMARK H PARENT
REMARK Flexibility Score: inf
ROOT
ATOM      1  C   UNL     1      97.515   6.174  70.377  1.00  0.00     0.057 C 
ATOM      2  C   UNL     1      98.200   5.604  71.627  1.00  0.00     0.016 C 
ENDROOT
BRANCH   1   3
ATOM      3  C   UNL     1      96.660   5.119  69.707  1.00  0.00     0.135 C 
ATOM      4  O   UNL     1      95.876   4.472  70.385  1.00  0.00    -0.299 OA
BRANCH   3   5
ATOM      5  C   UNL     1      96.765   4.820  68.231  1.00  0.00     0.072 C 
ATOM      6  C   UNL     1      98.055   5.392  67.650  1.00  0.00     0.012 C 
ENDBRANCH   3   5
ENDBRANCH   1   3
BRANCH   1   7
ATOM      7  C   UNL     1      96.676   7.429  70.700  1.00  0.00     0.038 C 
BRANCH   7   8
ATOM      8  C   UNL     1      96.873   8.525  69.685  1.00  0.00    -0.034 C 
ATOM      9  C   UNL     1      98.083   8.838  69.212  1.00  0.00     0.004 C 
ENDBRANCH   7   8
ENDBRANCH   1   7
TORSDOF 4
ENDMDL
MODEL 7
REMARK VINA RESULT:    -2.999      9.204     10.137
REMARK INTER + INTRA:          -3.888
REMARK INTER:                  -3.453
REMARK INTRA:                  -0.434
REMARK UNBOUND:                -0.187
REMARK SMILES C=CC[C@@H](C)C(=O)CC
REMARK SMILES IDX 4 1 5 2 6 3 7 4 8 5 9 6 3 7 2 8 1 9
REMARK H PARENT
REMARK Flexibility Score: inf
ROOT
ATOM      1  C   UNL     1      96.757   5.489  69.752  1.00  0.00     0.057 C 
ATOM      2  C   UNL     1      96.114   4.604  70.829  1.00  0.00     0.016 C 
ENDROOT
BRANCH   1   3
ATOM      3  C   UNL     1      97.060   4.681  68.507  1.00  0.00     0.135 C 
ATOM      4  O   UNL     1      96.438   3.649  68.303  1.00  0.00    -0.299 OA
BRANCH   3   5
ATOM      5  C   UNL     1      98.126   5.096  67.521  1.00  0.00     0.072 C 
ATOM      6  C   UNL     1      99.445   5.377  68.232  1.00  0.00     0.012 C 
ENDBRANCH   3   5
ENDBRANCH   1   3
BRANCH   1   7
ATOM      7  C   UNL     1      95.878   6.711  69.408  1.00  0.00     0.038 C 
BRANCH   7   8
ATOM      8  C   UNL     1      96.461   7.998  69.928  1.00  0.00    -0.034 C 
ATOM      9  C   UNL     1      97.533   8.565  69.364  1.00  0.00     0.004 C 
ENDBRANCH   7   8
ENDBRANCH   1   7
TORSDOF 4
ENDMDL
MODEL 8
REMARK VINA RESULT:    -2.990      2.805      5.045
REMARK INTER + INTRA:          -3.876
REMARK INTER:                  -3.396
REMARK INTRA:                  -0.481
REMARK UNBOUND:                -0.187
REMARK SMILES C=CC[C@@H](C)C(=O)CC
REMARK SMILES IDX 4 1 5 2 6 3 7 4 8 5 9 6 3 7 2 8 1 9
REMARK H PARENT
REMARK Flexibility Score: inf
ROOT
ATOM      1  C   UNL     1      98.429   7.123  77.159  1.00  0.00     0.057 C 
ATOM      2  C   UNL     1      98.162   8.516  77.748  1.00  0.00     0.016 C 
ENDROOT
BRANCH   1   3
ATOM      3  C   UNL     1      97.368   6.759  76.143  1.00  0.00     0.135 C 
ATOM      4  O   UNL     1      96.629   7.634  75.716  1.00  0.00    -0.299 OA
BRANCH   3   5
ATOM      5  C   UNL     1      97.173   5.342  75.659  1.00  0.00     0.072 C 
ATOM      6  C   UNL     1      96.887   4.402  76.827  1.00  0.00     0.012 C 
ENDBRANCH   3   5
ENDBRANCH   1   3
BRANCH   1   7
ATOM      7  C   UNL     1      99.838   7.021  76.536  1.00  0.00     0.038 C 
BRANCH   7   8
ATOM      8  C   UNL     1     100.662   5.927  77.160  1.00  0.00    -0.034 C 
ATOM      9  C   UNL     1     100.328   5.374  78.331  1.00  0.00     0.004 C 
ENDBRANCH   7   8
ENDBRANCH   1   7
TORSDOF 4
ENDMDL
MODEL 9
REMARK VINA RESULT:    -2.945      9.000     10.040
REMARK INTER + INTRA:          -3.821
REMARK INTER:                  -3.469
REMARK INTRA:                  -0.353
REMARK UNBOUND:                -0.187
REMARK SMILES C=CC[C@@H](C)C(=O)CC
REMARK SMILES IDX 4 1 5 2 6 3 7 4 8 5 9 6 3 7 2 8 1 9
REMARK H PARENT
REMARK Flexibility Score: inf
ROOT
ATOM      1  C   UNL     1      96.689   5.393  68.258  1.00  0.00     0.057 C 
ATOM      2  C   UNL     1      98.154   5.432  67.801  1.00  0.00     0.016 C 
ENDROOT
BRANCH   1   3
ATOM      3  C   UNL     1      96.426   4.165  69.104  1.00  0.00     0.135 C 
ATOM      4  O   UNL     1      96.644   3.059  68.631  1.00  0.00    -0.299 OA
BRANCH   3   5
ATOM      5  C   UNL     1      95.875   4.261  70.507  1.00  0.00     0.072 C 
ATOM      6  C   UNL     1      96.973   4.028  71.540  1.00  0.00     0.012 C 
ENDBRANCH   3   5
ENDBRANCH   1   3
BRANCH   1   7
ATOM      7  C   UNL     1      96.287   6.675  69.018  1.00  0.00     0.038 C 
BRANCH   7   8
ATOM      8  C   UNL     1      97.483   7.492  69.432  1.00  0.00    -0.034 C 
ATOM      9  C   UNL     1      97.449   8.829  69.452  1.00  0.00     0.004 C 
ENDBRANCH   7   8
ENDBRANCH   1   7
TORSDOF 4
ENDMDL
