MODEL 1
REMARK VINA RESULT:    52.815      0.000      0.000
REMARK INTER + INTRA:          69.377
REMARK INTER:                  69.796
REMARK INTRA:                  -0.419
REMARK UNBOUND:                -0.419
REMARK SMILES CC[C@H](C=C[C@@H](C)[C@H]1CC[C@@H]2[C@@H]3CC=C4C[C@H](O)CC[C@]4(C)[C@@H]3CC[C@@]21C)C(C)C
REMARK SMILES IDX 6 1 7 2 5 3 4 4 3 5 2 6 1 7 28 8 29 9 30 10 8 11 9 12 26 13
REMARK SMILES IDX 10 14 11 15 25 16 27 17 12 18 24 19 23 20 13 21 21 22 14 23
REMARK SMILES IDX 15 24 20 25 22 26 16 27 19 28 17 29 18 30
REMARK H PARENT 18 31
REMARK Flexibility Score: inf
ROOT
ATOM      1  C   UNL     1     -30.715  25.944   5.881  1.00  0.00     0.012 C 
ATOM      2  C   UNL     1     -30.497  26.424   4.432  1.00  0.00     0.012 C 
ENDROOT
BRANCH   1   3
ATOM      3  C   UNL     1     -29.441  25.920   6.719  1.00  0.00    -0.028 C 
ATOM      4  C   UNL     1     -28.771  24.805   7.077  1.00  0.00    -0.027 C 
BRANCH   4   5
ATOM      5  C   UNL     1     -27.533  24.841   7.954  1.00  0.00     0.014 C 
BRANCH   5   6
ATOM      6  C   UNL     1     -27.598  23.810   9.116  1.00  0.00     0.004 C 
ATOM      7  C   UNL     1     -28.902  23.013   9.125  1.00  0.00     0.004 C 
ENDBRANCH   5   6
BRANCH   5   8
ATOM      8  C   UNL     1     -26.239  24.788   7.058  1.00  0.00    -0.011 C 
ATOM      9  C   UNL     1     -26.212  23.502   6.213  1.00  0.00     0.008 C 
ATOM     10  C   UNL     1     -26.027  26.005   6.141  1.00  0.00     0.008 C 
ENDBRANCH   5   8
ENDBRANCH   4   5
ENDBRANCH   1   3
BRANCH   1  11
ATOM     11  C   UNL     1     -31.517  24.588   5.916  1.00  0.00     0.002 C 
ATOM     12  C   UNL     1     -30.675  23.312   5.940  1.00  0.00     0.005 C 
ATOM     13  C   UNL     1     -32.581  24.393   7.055  1.00  0.00    -0.026 C 
ATOM     14  C   UNL     1     -31.684  22.231   6.255  1.00  0.00     0.005 C 
ATOM     15  C   UNL     1     -32.608  22.853   7.321  1.00  0.00    -0.001 C 
ATOM     16  C   UNL     1     -33.950  24.893   6.549  1.00  0.00     0.007 C 
ATOM     17  C   UNL     1     -32.190  25.122   8.375  1.00  0.00     0.012 C 
ATOM     18  C   UNL     1     -34.012  22.148   7.549  1.00  0.00     0.000 C 
ATOM     19  C   UNL     1     -35.064  24.584   7.534  1.00  0.00     0.005 C 
ATOM     20  C   UNL     1     -35.298  23.061   7.723  1.00  0.00     0.003 C 
ATOM     21  C   UNL     1     -34.262  20.962   6.608  1.00  0.00     0.031 C 
ATOM     22  C   UNL     1     -36.645  22.540   7.040  1.00  0.00    -0.008 C 
ATOM     23  C   UNL     1     -35.564  20.290   6.899  1.00  0.00    -0.027 C 
ATOM     24  C   UNL     1     -36.696  21.010   7.006  1.00  0.00    -0.065 C 
ATOM     25  C   UNL     1     -36.822  23.007   5.557  1.00  0.00     0.014 C 
ATOM     26  C   UNL     1     -37.834  23.066   7.903  1.00  0.00     0.016 C 
ATOM     27  C   UNL     1     -37.953  20.376   6.457  1.00  0.00     0.063 C 
ATOM     28  C   UNL     1     -38.045  22.364   4.847  1.00  0.00     0.033 C 
ATOM     29  C   UNL     1     -38.116  20.826   4.989  1.00  0.00     0.118 C 
BRANCH  29  30
ATOM     30  O   UNL     1     -37.118  20.244   4.189  1.00  0.00    -0.393 OA
ATOM     31  H   UNL     1     -36.773  19.454   4.685  1.00  0.00     0.210 HD
ENDBRANCH  29  30
ENDBRANCH   1  11
TORSDOF 6
ENDMDL
MODEL 2
REMARK VINA RESULT:    53.307      0.610      1.543
REMARK INTER + INTRA:          70.028
REMARK INTER:                  70.440
REMARK INTRA:                  -0.411
REMARK UNBOUND:                -0.419
REMARK SMILES CC[C@H](C=C[C@@H](C)[C@H]1CC[C@@H]2[C@@H]3CC=C4C[C@H](O)CC[C@]4(C)[C@@H]3CC[C@@]21C)C(C)C
REMARK SMILES IDX 6 1 7 2 5 3 4 4 3 5 2 6 1 7 28 8 29 9 30 10 8 11 9 12 26 13
REMARK SMILES IDX 10 14 11 15 25 16 27 17 12 18 24 19 23 20 13 21 21 22 14 23
REMARK SMILES IDX 15 24 20 25 22 26 16 27 19 28 17 29 18 30
REMARK H PARENT 18 31
REMARK Flexibility Score: inf
ROOT
ATOM      1  C   UNL     1     -30.863  25.946   5.633  1.00  0.00     0.012 C 
ATOM      2  C   UNL     1     -31.304  26.721   4.374  1.00  0.00     0.012 C 
ENDROOT
BRANCH   1   3
ATOM      3  C   UNL     1     -29.350  25.824   5.782  1.00  0.00    -0.028 C 
ATOM      4  C   UNL     1     -28.720  24.945   6.588  1.00  0.00    -0.027 C 
BRANCH   4   5
ATOM      5  C   UNL     1     -27.209  24.904   6.729  1.00  0.00     0.014 C 
BRANCH   5   6
ATOM      6  C   UNL     1     -26.611  26.287   7.115  1.00  0.00     0.004 C 
ATOM      7  C   UNL     1     -26.025  27.031   5.915  1.00  0.00     0.004 C 
ENDBRANCH   5   6
BRANCH   5   8
ATOM      8  C   UNL     1     -26.788  23.692   7.644  1.00  0.00    -0.011 C 
ATOM      9  C   UNL     1     -28.029  22.980   8.210  1.00  0.00     0.008 C 
ATOM     10  C   UNL     1     -25.866  22.658   6.977  1.00  0.00     0.008 C 
ENDBRANCH   5   8
ENDBRANCH   4   5
ENDBRANCH   1   3
BRANCH   1  11
ATOM     11  C   UNL     1     -31.618  24.567   5.745  1.00  0.00     0.002 C 
ATOM     12  C   UNL     1     -30.735  23.321   5.801  1.00  0.00     0.005 C 
ATOM     13  C   UNL     1     -32.648  24.387   6.917  1.00  0.00    -0.026 C 
ATOM     14  C   UNL     1     -31.699  22.222   6.186  1.00  0.00     0.005 C 
ATOM     15  C   UNL     1     -32.617  22.859   7.249  1.00  0.00    -0.001 C 
ATOM     16  C   UNL     1     -34.045  24.821   6.426  1.00  0.00     0.007 C 
ATOM     17  C   UNL     1     -32.250  25.184   8.195  1.00  0.00     0.012 C 
ATOM     18  C   UNL     1     -33.992  22.120   7.541  1.00  0.00     0.000 C 
ATOM     19  C   UNL     1     -35.123  24.519   7.451  1.00  0.00     0.005 C 
ATOM     20  C   UNL     1     -35.302  22.999   7.709  1.00  0.00     0.003 C 
ATOM     21  C   UNL     1     -34.225  20.888   6.657  1.00  0.00     0.031 C 
ATOM     22  C   UNL     1     -36.648  22.406   7.083  1.00  0.00    -0.008 C 
ATOM     23  C   UNL     1     -35.497  20.188   7.009  1.00  0.00    -0.027 C 
ATOM     24  C   UNL     1     -36.649  20.876   7.114  1.00  0.00    -0.065 C 
ATOM     25  C   UNL     1     -36.876  22.804   5.587  1.00  0.00     0.014 C 
ATOM     26  C   UNL     1     -37.833  22.930   7.953  1.00  0.00     0.016 C 
ATOM     27  C   UNL     1     -37.897  20.179   6.625  1.00  0.00     0.063 C 
ATOM     28  C   UNL     1     -38.094  22.092   4.936  1.00  0.00     0.033 C 
ATOM     29  C   UNL     1     -38.110  20.560   5.145  1.00  0.00     0.118 C 
BRANCH  29  30
ATOM     30  O   UNL     1     -37.113  19.977   4.344  1.00  0.00    -0.393 OA
ATOM     31  H   UNL     1     -37.060  19.017   4.601  1.00  0.00     0.210 HD
ENDBRANCH  29  30
ENDBRANCH   1  11
TORSDOF 6
ENDMDL
