MODEL 1
REMARK VINA RESULT:    -5.608      0.000      0.000
REMARK INTER + INTRA:          -5.608
REMARK INTER:                  -5.608
REMARK INTRA:                   0.000
REMARK UNBOUND:                 0.000
REMARK SMILES CC1=CC(=O)[C@@H]2C[C@H]1C2(C)C
REMARK SMILES IDX 1 1 2 2 3 3 4 4 5 5 6 6 7 7 8 8 9 9 10 10 11 11
REMARK H PARENT
REMARK Flexibility Score: inf
ROOT
ATOM      1  C   UNL     1      33.262  21.659   6.419  1.00  0.00     0.040 C 
ATOM      2  C   UNL     1      32.050  22.222   7.092  1.00  0.00    -0.066 C 
ATOM      3  C   UNL     1      31.807  23.562   7.151  1.00  0.00     0.047 C 
ATOM      4  C   UNL     1      30.551  23.978   7.857  1.00  0.00     0.159 C 
ATOM      5  O   UNL     1      30.195  25.182   7.941  1.00  0.00    -0.295 OA
ATOM      6  C   UNL     1      29.737  22.837   8.468  1.00  0.00     0.067 C 
ATOM      7  C   UNL     1      30.789  21.960   9.180  1.00  0.00     0.021 C 
ATOM      8  C   UNL     1      31.041  21.299   7.807  1.00  0.00     0.022 C 
ATOM      9  C   UNL     1      29.594  21.707   7.408  1.00  0.00    -0.019 C 
ATOM     10  C   UNL     1      28.547  20.642   7.819  1.00  0.00     0.012 C 
ATOM     11  C   UNL     1      29.324  22.112   5.931  1.00  0.00     0.012 C 
ENDROOT
TORSDOF 0
ENDMDL
MODEL 2
REMARK VINA RESULT:    -5.389      2.173      3.390
REMARK INTER + INTRA:          -5.389
REMARK INTER:                  -5.389
REMARK INTRA:                   0.000
REMARK UNBOUND:                 0.000
REMARK SMILES CC1=CC(=O)[C@@H]2C[C@H]1C2(C)C
REMARK SMILES IDX 1 1 2 2 3 3 4 4 5 5 6 6 7 7 8 8 9 9 10 10 11 11
REMARK H PARENT
REMARK Flexibility Score: inf
ROOT
ATOM      1  C   UNL     1      31.820  20.188   5.512  1.00  0.00     0.040 C 
ATOM      2  C   UNL     1      30.615  20.705   6.233  1.00  0.00    -0.066 C 
ATOM      3  C   UNL     1      29.691  19.875   6.794  1.00  0.00     0.047 C 
ATOM      4  C   UNL     1      28.538  20.538   7.485  1.00  0.00     0.159 C 
ATOM      5  O   UNL     1      27.642  19.881   8.078  1.00  0.00    -0.295 OA
ATOM      6  C   UNL     1      28.526  22.066   7.418  1.00  0.00     0.067 C 
ATOM      7  C   UNL     1      28.849  22.381   5.942  1.00  0.00     0.021 C 
ATOM      8  C   UNL     1      30.337  22.220   6.322  1.00  0.00     0.022 C 
ATOM      9  C   UNL     1      29.945  22.588   7.783  1.00  0.00    -0.019 C 
ATOM     10  C   UNL     1      29.964  24.118   8.029  1.00  0.00     0.012 C 
ATOM     11  C   UNL     1      30.710  21.897   8.946  1.00  0.00     0.012 C 
ENDROOT
TORSDOF 0
ENDMDL
MODEL 3
REMARK VINA RESULT:    -5.225      1.626      2.563
REMARK INTER + INTRA:          -5.225
REMARK INTER:                  -5.225
REMARK INTRA:                   0.000
REMARK UNBOUND:                 0.000
REMARK SMILES CC1=CC(=O)[C@@H]2C[C@H]1C2(C)C
REMARK SMILES IDX 1 1 2 2 3 3 4 4 5 5 6 6 7 7 8 8 9 9 10 10 11 11
REMARK H PARENT
REMARK Flexibility Score: inf
ROOT
ATOM      1  C   UNL     1      31.377  25.145   6.763  1.00  0.00     0.040 C 
ATOM      2  C   UNL     1      31.098  23.765   7.269  1.00  0.00    -0.066 C 
ATOM      3  C   UNL     1      30.176  23.519   8.242  1.00  0.00     0.047 C 
ATOM      4  C   UNL     1      30.004  22.086   8.646  1.00  0.00     0.159 C 
ATOM      5  O   UNL     1      29.155  21.726   9.503  1.00  0.00    -0.295 OA
ATOM      6  C   UNL     1      30.933  21.093   7.945  1.00  0.00     0.067 C 
ATOM      7  C   UNL     1      32.320  21.769   8.003  1.00  0.00     0.021 C 
ATOM      8  C   UNL     1      31.894  22.553   6.742  1.00  0.00     0.022 C 
ATOM      9  C   UNL     1      30.913  21.389   6.418  1.00  0.00    -0.019 C 
ATOM     10  C   UNL     1      31.584  20.265   5.591  1.00  0.00     0.012 C 
ATOM     11  C   UNL     1      29.552  21.739   5.753  1.00  0.00     0.012 C 
ENDROOT
TORSDOF 0
ENDMDL
MODEL 4
REMARK VINA RESULT:    -5.207      1.852      3.009
REMARK INTER + INTRA:          -5.207
REMARK INTER:                  -5.207
REMARK INTRA:                   0.000
REMARK UNBOUND:                 0.000
REMARK SMILES CC1=CC(=O)[C@@H]2C[C@H]1C2(C)C
REMARK SMILES IDX 1 1 2 2 3 3 4 4 5 5 6 6 7 7 8 8 9 9 10 10 11 11
REMARK H PARENT
REMARK Flexibility Score: inf
ROOT
ATOM      1  C   UNL     1      31.455  25.487   7.514  1.00  0.00     0.040 C 
ATOM      2  C   UNL     1      31.319  24.008   7.337  1.00  0.00    -0.066 C 
ATOM      3  C   UNL     1      32.352  23.228   6.909  1.00  0.00     0.047 C 
ATOM      4  C   UNL     1      32.067  21.762   6.782  1.00  0.00     0.159 C 
ATOM      5  O   UNL     1      32.950  20.934   6.437  1.00  0.00    -0.295 OA
ATOM      6  C   UNL     1      30.630  21.346   7.097  1.00  0.00     0.067 C 
ATOM      7  C   UNL     1      29.763  22.386   6.355  1.00  0.00     0.021 C 
ATOM      8  C   UNL     1      29.969  23.303   7.581  1.00  0.00     0.022 C 
ATOM      9  C   UNL     1      30.200  22.020   8.431  1.00  0.00    -0.019 C 
ATOM     10  C   UNL     1      28.878  21.436   8.988  1.00  0.00     0.012 C 
ATOM     11  C   UNL     1      31.233  22.085   9.592  1.00  0.00     0.012 C 
ENDROOT
TORSDOF 0
ENDMDL
MODEL 5
REMARK VINA RESULT:    -5.190      1.892      3.503
REMARK INTER + INTRA:          -5.190
REMARK INTER:                  -5.190
REMARK INTRA:                   0.000
REMARK UNBOUND:                 0.000
REMARK SMILES CC1=CC(=O)[C@@H]2C[C@H]1C2(C)C
REMARK SMILES IDX 1 1 2 2 3 3 4 4 5 5 6 6 7 7 8 8 9 9 10 10 11 11
REMARK H PARENT
REMARK Flexibility Score: inf
ROOT
ATOM      1  C   UNL     1      28.155  22.290   6.869  1.00  0.00     0.040 C 
ATOM      2  C   UNL     1      29.627  22.336   7.132  1.00  0.00    -0.066 C 
ATOM      3  C   UNL     1      30.522  21.629   6.386  1.00  0.00     0.047 C 
ATOM      4  C   UNL     1      31.965  21.775   6.766  1.00  0.00     0.159 C 
ATOM      5  O   UNL     1      32.889  21.207   6.128  1.00  0.00    -0.295 OA
ATOM      6  C   UNL     1      32.233  22.661   7.984  1.00  0.00     0.067 C 
ATOM      7  C   UNL     1      31.185  22.204   9.021  1.00  0.00     0.021 C 
ATOM      8  C   UNL     1      30.195  23.153   8.311  1.00  0.00     0.022 C 
ATOM      9  C   UNL     1      31.421  23.979   7.825  1.00  0.00    -0.019 C 
ATOM     10  C   UNL     1      31.847  25.059   8.851  1.00  0.00     0.012 C 
ATOM     11  C   UNL     1      31.353  24.639   6.420  1.00  0.00     0.012 C 
ENDROOT
TORSDOF 0
ENDMDL
MODEL 6
REMARK VINA RESULT:    -4.909      1.720      2.581
REMARK INTER + INTRA:          -4.909
REMARK INTER:                  -4.909
REMARK INTRA:                   0.000
REMARK UNBOUND:                 0.000
REMARK SMILES CC1=CC(=O)[C@@H]2C[C@H]1C2(C)C
REMARK SMILES IDX 1 1 2 2 3 3 4 4 5 5 6 6 7 7 8 8 9 9 10 10 11 11
REMARK H PARENT
REMARK Flexibility Score: inf
ROOT
ATOM      1  C   UNL     1      31.417  25.441   6.862  1.00  0.00     0.040 C 
ATOM      2  C   UNL     1      31.208  24.052   7.375  1.00  0.00    -0.066 C 
ATOM      3  C   UNL     1      31.689  23.641   8.582  1.00  0.00     0.047 C 
ATOM      4  C   UNL     1      31.400  22.221   8.964  1.00  0.00     0.159 C 
ATOM      5  O   UNL     1      31.754  21.737  10.070  1.00  0.00    -0.295 OA
ATOM      6  C   UNL     1      30.646  21.403   7.913  1.00  0.00     0.067 C 
ATOM      7  C   UNL     1      31.366  21.734   6.589  1.00  0.00     0.021 C 
ATOM      8  C   UNL     1      30.477  22.995   6.521  1.00  0.00     0.022 C 
ATOM      9  C   UNL     1      29.439  22.243   7.404  1.00  0.00    -0.019 C 
ATOM     10  C   UNL     1      28.449  21.401   6.562  1.00  0.00     0.012 C 
ATOM     11  C   UNL     1      28.623  23.066   8.440  1.00  0.00     0.012 C 
ENDROOT
TORSDOF 0
ENDMDL
MODEL 7
REMARK VINA RESULT:    -4.823      4.353      6.100
REMARK INTER + INTRA:          -4.823
REMARK INTER:                  -4.823
REMARK INTRA:                   0.000
REMARK UNBOUND:                 0.000
REMARK SMILES CC1=CC(=O)[C@@H]2C[C@H]1C2(C)C
REMARK SMILES IDX 1 1 2 2 3 3 4 4 5 5 6 6 7 7 8 8 9 9 10 10 11 11
REMARK H PARENT
REMARK Flexibility Score: inf
ROOT
ATOM      1  C   UNL     1      28.714  22.248   6.105  1.00  0.00     0.040 C 
ATOM      2  C   UNL     1      27.326  22.140   5.558  1.00  0.00    -0.066 C 
ATOM      3  C   UNL     1      26.351  21.421   6.182  1.00  0.00     0.047 C 
ATOM      4  C   UNL     1      25.008  21.406   5.517  1.00  0.00     0.159 C 
ATOM      5  O   UNL     1      24.017  20.813   6.017  1.00  0.00    -0.295 OA
ATOM      6  C   UNL     1      24.929  22.161   4.189  1.00  0.00     0.067 C 
ATOM      7  C   UNL     1      26.193  21.715   3.425  1.00  0.00     0.021 C 
ATOM      8  C   UNL     1      26.951  22.804   4.217  1.00  0.00     0.022 C 
ATOM      9  C   UNL     1      25.596  23.554   4.371  1.00  0.00    -0.019 C 
ATOM     10  C   UNL     1      25.310  24.504   3.181  1.00  0.00     0.012 C 
ATOM     11  C   UNL     1      25.334  24.332   5.691  1.00  0.00     0.012 C 
ENDROOT
TORSDOF 0
ENDMDL
MODEL 8
REMARK VINA RESULT:    -4.779      2.322      3.949
REMARK INTER + INTRA:          -4.779
REMARK INTER:                  -4.779
REMARK INTRA:                   0.000
REMARK UNBOUND:                 0.000
REMARK SMILES CC1=CC(=O)[C@@H]2C[C@H]1C2(C)C
REMARK SMILES IDX 1 1 2 2 3 3 4 4 5 5 6 6 7 7 8 8 9 9 10 10 11 11
REMARK H PARENT
REMARK Flexibility Score: inf
ROOT
ATOM      1  C   UNL     1      26.760  22.815   5.984  1.00  0.00     0.040 C 
ATOM      2  C   UNL     1      27.981  21.977   6.198  1.00  0.00    -0.066 C 
ATOM      3  C   UNL     1      28.605  21.327   5.176  1.00  0.00     0.047 C 
ATOM      4  C   UNL     1      29.819  20.527   5.543  1.00  0.00     0.159 C 
ATOM      5  O   UNL     1      30.506  19.916   4.683  1.00  0.00    -0.295 OA
ATOM      6  C   UNL     1      30.161  20.504   7.033  1.00  0.00     0.067 C 
ATOM      7  C   UNL     1      28.807  20.247   7.728  1.00  0.00     0.021 C 
ATOM      8  C   UNL     1      28.558  21.767   7.614  1.00  0.00     0.022 C 
ATOM      9  C   UNL     1      30.102  21.960   7.577  1.00  0.00    -0.019 C 
ATOM     10  C   UNL     1      30.713  22.086   8.995  1.00  0.00     0.012 C 
ATOM     11  C   UNL     1      30.679  23.102   6.694  1.00  0.00     0.012 C 
ENDROOT
TORSDOF 0
ENDMDL
MODEL 9
REMARK VINA RESULT:    -4.733      4.302      5.818
REMARK INTER + INTRA:          -4.733
REMARK INTER:                  -4.733
REMARK INTRA:                   0.000
REMARK UNBOUND:                 0.000
REMARK SMILES CC1=CC(=O)[C@@H]2C[C@H]1C2(C)C
REMARK SMILES IDX 1 1 2 2 3 3 4 4 5 5 6 6 7 7 8 8 9 9 10 10 11 11
REMARK H PARENT
REMARK Flexibility Score: inf
ROOT
ATOM      1  C   UNL     1      25.642  23.999   3.378  1.00  0.00     0.040 C 
ATOM      2  C   UNL     1      25.827  22.933   4.411  1.00  0.00    -0.066 C 
ATOM      3  C   UNL     1      24.777  22.371   5.074  1.00  0.00     0.047 C 
ATOM      4  C   UNL     1      25.117  21.313   6.080  1.00  0.00     0.159 C 
ATOM      5  O   UNL     1      24.234  20.691   6.726  1.00  0.00    -0.295 OA
ATOM      6  C   UNL     1      26.611  21.045   6.266  1.00  0.00     0.067 C 
ATOM      7  C   UNL     1      27.240  22.451   6.358  1.00  0.00     0.021 C 
ATOM      8  C   UNL     1      27.239  22.458   4.813  1.00  0.00     0.022 C 
ATOM      9  C   UNL     1      27.267  20.902   4.863  1.00  0.00    -0.019 C 
ATOM     10  C   UNL     1      28.710  20.342   4.941  1.00  0.00     0.012 C 
ATOM     11  C   UNL     1      26.497  20.118   3.764  1.00  0.00     0.012 C 
ENDROOT
TORSDOF 0
ENDMDL
