MODEL 1
REMARK VINA RESULT:    -5.216      0.000      0.000
REMARK INTER + INTRA:          -8.706
REMARK INTER:                  -7.960
REMARK INTRA:                  -0.746
REMARK UNBOUND:                -0.746
REMARK SMILES CCCCCCCCCCC(=O)[O-]
REMARK SMILES IDX 7 1 8 2 9 3 10 4 11 5 12 6 13 7 6 8 5 9 4 10 3 11 2 12 1 13
REMARK H PARENT
REMARK Flexibility Score: inf
ROOT
ATOM      1  C   UNL     1       9.020 -25.131   9.943  1.00  0.00     0.000 C 
ENDROOT
BRANCH   1   2
ATOM      2  C   UNL     1       9.154 -25.222  11.473  1.00  0.00     0.000 C 
BRANCH   2   3
ATOM      3  C   UNL     1      10.568 -25.618  11.949  1.00  0.00     0.006 C 
BRANCH   3   4
ATOM      4  C   UNL     1      10.531 -26.676  13.060  1.00  0.00     0.053 C 
BRANCH   4   5
ATOM      5  C   UNL     1      10.260 -28.029  12.485  1.00  0.00     0.041 C 
ATOM      6  O   UNL     1       9.586 -28.871  13.136  1.00  0.00    -0.550 OA
ATOM      7  O   UNL     1      10.792 -28.380  11.250  1.00  0.00    -0.550 OA
ENDBRANCH   4   5
ENDBRANCH   3   4
ENDBRANCH   2   3
ENDBRANCH   1   2
BRANCH   1   8
ATOM      8  C   UNL     1       8.944 -26.507   9.268  1.00  0.00     0.000 C 
BRANCH   8   9
ATOM      9  C   UNL     1       8.933 -26.368   7.737  1.00  0.00    -0.000 C 
BRANCH   9  10
ATOM     10  C   UNL     1      10.239 -26.858   7.091  1.00  0.00    -0.000 C 
BRANCH  10  11
ATOM     11  C   UNL     1      11.397 -25.861   7.269  1.00  0.00    -0.000 C 
BRANCH  11  12
ATOM     12  C   UNL     1      12.267 -26.183   8.494  1.00  0.00    -0.003 C 
ATOM     13  C   UNL     1      12.653 -24.935   9.287  1.00  0.00     0.004 C 
ENDBRANCH  11  12
ENDBRANCH  10  11
ENDBRANCH   9  10
ENDBRANCH   8   9
ENDBRANCH   1   8
TORSDOF 9
ENDMDL
MODEL 2
REMARK VINA RESULT:    -5.184      0.760      2.285
REMARK INTER + INTRA:          -8.657
REMARK INTER:                  -8.001
REMARK INTRA:                  -0.656
REMARK UNBOUND:                -0.746
REMARK SMILES CCCCCCCCCCC(=O)[O-]
REMARK SMILES IDX 7 1 8 2 9 3 10 4 11 5 12 6 13 7 6 8 5 9 4 10 3 11 2 12 1 13
REMARK H PARENT
REMARK Flexibility Score: inf
ROOT
ATOM      1  C   UNL     1      10.554 -24.773   9.805  1.00  0.00     0.000 C 
ENDROOT
BRANCH   1   2
ATOM      2  C   UNL     1       9.937 -25.278  11.120  1.00  0.00     0.000 C 
BRANCH   2   3
ATOM      3  C   UNL     1      10.984 -25.711  12.169  1.00  0.00     0.006 C 
BRANCH   3   4
ATOM      4  C   UNL     1      10.420 -26.735  13.163  1.00  0.00     0.053 C 
BRANCH   4   5
ATOM      5  C   UNL     1      10.210 -28.055  12.492  1.00  0.00     0.041 C 
ATOM      6  O   UNL     1       9.569 -28.968  13.076  1.00  0.00    -0.550 OA
ATOM      7  O   UNL     1      10.765 -28.296  11.241  1.00  0.00    -0.550 OA
ENDBRANCH   4   5
ENDBRANCH   3   4
ENDBRANCH   2   3
ENDBRANCH   1   2
BRANCH   1   8
ATOM      8  C   UNL     1      11.999 -25.245   9.602  1.00  0.00     0.000 C 
BRANCH   8   9
ATOM      9  C   UNL     1      12.114 -26.148   8.364  1.00  0.00    -0.000 C 
BRANCH   9  10
ATOM     10  C   UNL     1      11.362 -25.581   7.149  1.00  0.00    -0.000 C 
BRANCH  10  11
ATOM     11  C   UNL     1      10.563 -26.656   6.392  1.00  0.00    -0.000 C 
BRANCH  11  12
ATOM     12  C   UNL     1       9.045 -26.435   6.485  1.00  0.00    -0.003 C 
ATOM     13  C   UNL     1       8.471 -26.850   7.839  1.00  0.00     0.004 C 
ENDBRANCH  11  12
ENDBRANCH  10  11
ENDBRANCH   9  10
ENDBRANCH   8   9
ENDBRANCH   1   8
TORSDOF 9
ENDMDL
MODEL 3
REMARK VINA RESULT:    -5.181     13.087     15.710
REMARK INTER + INTRA:          -8.653
REMARK INTER:                  -8.074
REMARK INTRA:                  -0.579
REMARK UNBOUND:                -0.746
REMARK SMILES CCCCCCCCCCC(=O)[O-]
REMARK SMILES IDX 7 1 8 2 9 3 10 4 11 5 12 6 13 7 6 8 5 9 4 10 3 11 2 12 1 13
REMARK H PARENT
REMARK Flexibility Score: inf
ROOT
ATOM      1  C   UNL     1       5.250 -29.595  24.778  1.00  0.00     0.000 C 
ENDROOT
BRANCH   1   2
ATOM      2  C   UNL     1       6.586 -30.094  25.356  1.00  0.00     0.000 C 
BRANCH   2   3
ATOM      3  C   UNL     1       7.271 -31.172  24.490  1.00  0.00     0.006 C 
BRANCH   3   4
ATOM      4  C   UNL     1       6.665 -31.259  23.083  1.00  0.00     0.053 C 
BRANCH   4   5
ATOM      5  C   UNL     1       7.578 -30.628  22.080  1.00  0.00     0.041 C 
ATOM      6  O   UNL     1       8.404 -31.335  21.444  1.00  0.00    -0.550 OA
ATOM      7  O   UNL     1       7.551 -29.253  21.882  1.00  0.00    -0.550 OA
ENDBRANCH   4   5
ENDBRANCH   3   4
ENDBRANCH   2   3
ENDBRANCH   1   2
BRANCH   1   8
ATOM      8  C   UNL     1       4.312 -29.026  25.851  1.00  0.00     0.000 C 
BRANCH   8   9
ATOM      9  C   UNL     1       2.854 -29.027  25.363  1.00  0.00    -0.000 C 
BRANCH   9  10
ATOM     10  C   UNL     1       2.719 -29.517  23.912  1.00  0.00    -0.000 C 
BRANCH  10  11
ATOM     11  C   UNL     1       1.752 -28.653  23.083  1.00  0.00    -0.000 C 
BRANCH  11  12
ATOM     12  C   UNL     1       0.371 -29.307  22.921  1.00  0.00    -0.003 C 
ATOM     13  C   UNL     1       0.417 -30.827  23.074  1.00  0.00     0.004 C 
ENDBRANCH  11  12
ENDBRANCH  10  11
ENDBRANCH   9  10
ENDBRANCH   8   9
ENDBRANCH   1   8
TORSDOF 9
ENDMDL
MODEL 4
REMARK VINA RESULT:    -5.045      2.231      5.032
REMARK INTER + INTRA:          -8.446
REMARK INTER:                  -7.864
REMARK INTRA:                  -0.582
REMARK UNBOUND:                -0.746
REMARK SMILES CCCCCCCCCCC(=O)[O-]
REMARK SMILES IDX 7 1 8 2 9 3 10 4 11 5 12 6 13 7 6 8 5 9 4 10 3 11 2 12 1 13
REMARK H PARENT
REMARK Flexibility Score: inf
ROOT
ATOM      1  C   UNL     1       9.114 -25.041   9.607  1.00  0.00     0.000 C 
ENDROOT
BRANCH   1   2
ATOM      2  C   UNL     1       9.052 -26.445   8.982  1.00  0.00     0.000 C 
BRANCH   2   3
ATOM      3  C   UNL     1       8.965 -26.434   7.441  1.00  0.00     0.006 C 
BRANCH   3   4
ATOM      4  C   UNL     1      10.251 -26.950   6.783  1.00  0.00     0.053 C 
BRANCH   4   5
ATOM      5  C   UNL     1      11.403 -26.053   7.110  1.00  0.00     0.041 C 
ATOM      6  O   UNL     1      11.701 -25.101   6.343  1.00  0.00    -0.550 OA
ATOM      7  O   UNL     1      12.177 -26.299   8.238  1.00  0.00    -0.550 OA
ENDBRANCH   4   5
ENDBRANCH   3   4
ENDBRANCH   2   3
ENDBRANCH   1   2
BRANCH   1   8
ATOM      8  C   UNL     1       9.259 -25.073  11.135  1.00  0.00     0.000 C 
BRANCH   8   9
ATOM      9  C   UNL     1      10.730 -24.920  11.551  1.00  0.00    -0.000 C 
BRANCH   9  10
ATOM     10  C   UNL     1      11.132 -25.895  12.669  1.00  0.00    -0.000 C 
BRANCH  10  11
ATOM     11  C   UNL     1       9.951 -26.748  13.163  1.00  0.00    -0.000 C 
BRANCH  11  12
ATOM     12  C   UNL     1      10.110 -28.234  12.806  1.00  0.00    -0.003 C 
ATOM     13  C   UNL     1      10.741 -28.445  11.430  1.00  0.00     0.004 C 
ENDBRANCH  11  12
ENDBRANCH  10  11
ENDBRANCH   9  10
ENDBRANCH   8   9
ENDBRANCH   1   8
TORSDOF 9
ENDMDL
MODEL 5
REMARK VINA RESULT:    -4.991     13.104     15.653
REMARK INTER + INTRA:          -8.362
REMARK INTER:                  -7.780
REMARK INTRA:                  -0.583
REMARK UNBOUND:                -0.746
REMARK SMILES CCCCCCCCCCC(=O)[O-]
REMARK SMILES IDX 7 1 8 2 9 3 10 4 11 5 12 6 13 7 6 8 5 9 4 10 3 11 2 12 1 13
REMARK H PARENT
REMARK Flexibility Score: inf
ROOT
ATOM      1  C   UNL     1       4.916 -29.714  24.804  1.00  0.00     0.000 C 
ENDROOT
BRANCH   1   2
ATOM      2  C   UNL     1       3.926 -28.881  25.635  1.00  0.00     0.000 C 
BRANCH   2   3
ATOM      3  C   UNL     1       2.553 -28.690  24.957  1.00  0.00     0.006 C 
BRANCH   3   4
ATOM      4  C   UNL     1       2.292 -29.742  23.870  1.00  0.00     0.053 C 
BRANCH   4   5
ATOM      5  C   UNL     1       0.880 -30.230  23.942  1.00  0.00     0.041 C 
ATOM      6  O   UNL     1       0.220 -30.104  25.007  1.00  0.00    -0.550 OA
ATOM      7  O   UNL     1       0.308 -30.868  22.848  1.00  0.00    -0.550 OA
ENDBRANCH   4   5
ENDBRANCH   3   4
ENDBRANCH   2   3
ENDBRANCH   1   2
BRANCH   1   8
ATOM      8  C   UNL     1       6.305 -29.812  25.450  1.00  0.00     0.000 C 
BRANCH   8   9
ATOM      9  C   UNL     1       7.239 -30.702  24.615  1.00  0.00    -0.000 C 
BRANCH   9  10
ATOM     10  C   UNL     1       6.561 -31.237  23.343  1.00  0.00    -0.000 C 
BRANCH  10  11
ATOM     11  C   UNL     1       7.480 -31.173  22.110  1.00  0.00    -0.000 C 
BRANCH  11  12
ATOM     12  C   UNL     1       7.785 -29.730  21.679  1.00  0.00    -0.003 C 
ATOM     13  C   UNL     1       9.249 -29.347  21.895  1.00  0.00     0.004 C 
ENDBRANCH  11  12
ENDBRANCH  10  11
ENDBRANCH   9  10
ENDBRANCH   8   9
ENDBRANCH   1   8
TORSDOF 9
ENDMDL
MODEL 6
REMARK VINA RESULT:    -4.912     12.988     15.664
REMARK INTER + INTRA:          -8.243
REMARK INTER:                  -7.820
REMARK INTRA:                  -0.423
REMARK UNBOUND:                -0.746
REMARK SMILES CCCCCCCCCCC(=O)[O-]
REMARK SMILES IDX 7 1 8 2 9 3 10 4 11 5 12 6 13 7 6 8 5 9 4 10 3 11 2 12 1 13
REMARK H PARENT
REMARK Flexibility Score: inf
ROOT
ATOM      1  C   UNL     1       6.550 -29.960  25.106  1.00  0.00     0.000 C 
ENDROOT
BRANCH   1   2
ATOM      2  C   UNL     1       6.439 -30.110  23.579  1.00  0.00     0.000 C 
BRANCH   2   3
ATOM      3  C   UNL     1       6.609 -31.562  23.085  1.00  0.00     0.006 C 
BRANCH   3   4
ATOM      4  C   UNL     1       7.295 -31.632  21.714  1.00  0.00     0.053 C 
BRANCH   4   5
ATOM      5  C   UNL     1       8.782 -31.655  21.872  1.00  0.00     0.041 C 
ATOM      6  O   UNL     1       9.294 -31.833  23.008  1.00  0.00    -0.550 OA
ATOM      7  O   UNL     1       9.602 -31.430  20.774  1.00  0.00    -0.550 OA
ENDBRANCH   4   5
ENDBRANCH   3   4
ENDBRANCH   2   3
ENDBRANCH   1   2
BRANCH   1   8
ATOM      8  C   UNL     1       5.256 -29.447  25.751  1.00  0.00     0.000 C 
BRANCH   8   9
ATOM      9  C   UNL     1       4.123 -29.359  24.716  1.00  0.00    -0.000 C 
BRANCH   9  10
ATOM     10  C   UNL     1       2.881 -28.636  25.261  1.00  0.00    -0.000 C 
BRANCH  10  11
ATOM     11  C   UNL     1       1.572 -29.369  24.920  1.00  0.00    -0.000 C 
BRANCH  11  12
ATOM     12  C   UNL     1       1.625 -30.059  23.548  1.00  0.00    -0.003 C 
ATOM     13  C   UNL     1       0.313 -30.755  23.187  1.00  0.00     0.004 C 
ENDBRANCH  11  12
ENDBRANCH  10  11
ENDBRANCH   9  10
ENDBRANCH   8   9
ENDBRANCH   1   8
TORSDOF 9
ENDMDL
MODEL 7
REMARK VINA RESULT:    -4.726     12.500     13.522
REMARK INTER + INTRA:          -7.959
REMARK INTER:                  -6.770
REMARK INTRA:                  -1.189
REMARK UNBOUND:                -0.746
REMARK SMILES CCCCCCCCCCC(=O)[O-]
REMARK SMILES IDX 7 1 8 2 9 3 10 4 11 5 12 6 13 7 6 8 5 9 4 10 3 11 2 12 1 13
REMARK H PARENT
REMARK Flexibility Score: inf
ROOT
ATOM      1  C   UNL     1       8.518 -31.536  21.641  1.00  0.00     0.000 C 
ENDROOT
BRANCH   1   2
ATOM      2  C   UNL     1       8.016 -30.132  21.265  1.00  0.00     0.000 C 
BRANCH   2   3
ATOM      3  C   UNL     1       8.068 -29.122  22.432  1.00  0.00     0.006 C 
BRANCH   3   4
ATOM      4  C   UNL     1       8.217 -29.815  23.793  1.00  0.00     0.053 C 
BRANCH   4   5
ATOM      5  C   UNL     1       6.931 -29.755  24.554  1.00  0.00     0.041 C 
ATOM      6  O   UNL     1       6.926 -29.392  25.760  1.00  0.00    -0.550 OA
ATOM      7  O   UNL     1       5.744 -30.146  23.947  1.00  0.00    -0.550 OA
ENDBRANCH   4   5
ENDBRANCH   3   4
ENDBRANCH   2   3
ENDBRANCH   1   2
BRANCH   1   8
ATOM      8  C   UNL     1       9.388 -32.172  20.548  1.00  0.00     0.000 C 
BRANCH   8   9
ATOM      9  C   UNL     1      10.575 -32.930  21.163  1.00  0.00    -0.000 C 
BRANCH   9  10
ATOM     10  C   UNL     1      11.787 -32.020  21.419  1.00  0.00    -0.000 C 
BRANCH  10  11
ATOM     11  C   UNL     1      11.912 -31.602  22.894  1.00  0.00    -0.000 C 
BRANCH  11  12
ATOM     12  C   UNL     1      12.091 -30.085  23.062  1.00  0.00    -0.003 C 
ATOM     13  C   UNL     1      11.621 -29.298  21.839  1.00  0.00     0.004 C 
ENDBRANCH  11  12
ENDBRANCH  10  11
ENDBRANCH   9  10
ENDBRANCH   8   9
ENDBRANCH   1   8
TORSDOF 9
ENDMDL
