MODEL 1
REMARK VINA RESULT:    -3.546      0.000      0.000
REMARK INTER + INTRA:          -5.550
REMARK INTER:                  -5.204
REMARK INTRA:                  -0.346
REMARK UNBOUND:                -0.346
REMARK SMILES CCCCCCCCCC=O
REMARK SMILES IDX 6 1 5 2 4 3 3 4 2 5 1 6 7 7 8 8 9 9 10 10 11 11
REMARK H PARENT
REMARK Flexibility Score: inf
ROOT
ATOM      1  C   UNL     1     165.628 165.251 168.130  1.00  0.00     0.000 C 
ENDROOT
BRANCH   1   2
ATOM      2  C   UNL     1     166.509 166.436 167.712  1.00  0.00     0.000 C 
BRANCH   2   3
ATOM      3  C   UNL     1     166.165 166.904 166.289  1.00  0.00    -0.000 C 
BRANCH   3   4
ATOM      4  C   UNL     1     167.342 167.641 165.617  1.00  0.00    -0.000 C 
BRANCH   4   5
ATOM      5  C   UNL     1     168.312 166.706 164.875  1.00  0.00    -0.003 C 
ATOM      6  C   UNL     1     169.738 166.766 165.421  1.00  0.00     0.004 C 
ENDBRANCH   4   5
ENDBRANCH   3   4
ENDBRANCH   2   3
ENDBRANCH   1   2
BRANCH   1   7
ATOM      7  C   UNL     1     164.562 164.903 167.079  1.00  0.00     0.000 C 
BRANCH   7   8
ATOM      8  C   UNL     1     164.857 163.580 166.352  1.00  0.00     0.008 C 
BRANCH   8   9
ATOM      9  C   UNL     1     163.924 163.361 165.152  1.00  0.00     0.072 C 
BRANCH   9  10
ATOM     10  C   UNL     1     162.761 164.311 165.152  1.00  0.00     0.224 C 
ATOM     11  O   UNL     1     161.714 163.991 165.690  1.00  0.00    -0.303 OA
ENDBRANCH   9  10
ENDBRANCH   8   9
ENDBRANCH   7   8
ENDBRANCH   1   7
TORSDOF 8
ENDMDL
MODEL 2
REMARK VINA RESULT:    -3.543      1.175      1.712
REMARK INTER + INTRA:          -5.545
REMARK INTER:                  -5.303
REMARK INTRA:                  -0.243
REMARK UNBOUND:                -0.346
REMARK SMILES CCCCCCCCCC=O
REMARK SMILES IDX 6 1 5 2 4 3 3 4 2 5 1 6 7 7 8 8 9 9 10 10 11 11
REMARK H PARENT
REMARK Flexibility Score: inf
ROOT
ATOM      1  C   UNL     1     165.160 164.970 166.081  1.00  0.00     0.000 C 
ENDROOT
BRANCH   1   2
ATOM      2  C   UNL     1     165.879 165.939 165.133  1.00  0.00     0.000 C 
BRANCH   2   3
ATOM      3  C   UNL     1     166.779 166.908 165.915  1.00  0.00    -0.000 C 
BRANCH   3   4
ATOM      4  C   UNL     1     167.902 167.499 165.037  1.00  0.00    -0.000 C 
BRANCH   4   5
ATOM      5  C   UNL     1     169.238 166.746 165.156  1.00  0.00    -0.003 C 
ATOM      6  C   UNL     1     169.896 166.905 166.526  1.00  0.00     0.004 C 
ENDBRANCH   4   5
ENDBRANCH   3   4
ENDBRANCH   2   3
ENDBRANCH   1   2
BRANCH   1   7
ATOM      7  C   UNL     1     164.907 163.594 165.445  1.00  0.00     0.000 C 
BRANCH   7   8
ATOM      8  C   UNL     1     163.472 163.446 164.910  1.00  0.00     0.008 C 
BRANCH   8   9
ATOM      9  C   UNL     1     162.581 164.629 165.315  1.00  0.00     0.072 C 
BRANCH   9  10
ATOM     10  C   UNL     1     161.499 164.227 166.276  1.00  0.00     0.224 C 
ATOM     11  O   UNL     1     160.332 164.462 166.010  1.00  0.00    -0.303 OA
ENDBRANCH   9  10
ENDBRANCH   8   9
ENDBRANCH   7   8
ENDBRANCH   1   7
TORSDOF 8
ENDMDL
MODEL 3
REMARK VINA RESULT:    -3.483      3.083      6.045
REMARK INTER + INTRA:          -5.458
REMARK INTER:                  -5.176
REMARK INTRA:                  -0.282
REMARK UNBOUND:                -0.346
REMARK SMILES CCCCCCCCCC=O
REMARK SMILES IDX 6 1 5 2 4 3 3 4 2 5 1 6 7 7 8 8 9 9 10 10 11 11
REMARK H PARENT
REMARK Flexibility Score: inf
ROOT
ATOM      1  C   UNL     1     165.941 165.489 167.580  1.00  0.00     0.000 C 
ENDROOT
BRANCH   1   2
ATOM      2  C   UNL     1     164.488 165.027 167.402  1.00  0.00     0.000 C 
BRANCH   2   3
ATOM      3  C   UNL     1     164.162 164.792 165.919  1.00  0.00    -0.000 C 
BRANCH   3   4
ATOM      4  C   UNL     1     163.016 163.777 165.726  1.00  0.00    -0.000 C 
BRANCH   4   5
ATOM      5  C   UNL     1     161.651 164.433 165.460  1.00  0.00    -0.003 C 
ATOM      6  C   UNL     1     160.605 164.093 166.520  1.00  0.00     0.004 C 
ENDBRANCH   4   5
ENDBRANCH   3   4
ENDBRANCH   2   3
ENDBRANCH   1   2
BRANCH   1   7
ATOM      7  C   UNL     1     166.617 165.851 166.249  1.00  0.00     0.000 C 
BRANCH   7   8
ATOM      8  C   UNL     1     167.656 166.975 166.400  1.00  0.00     0.008 C 
BRANCH   8   9
ATOM      9  C   UNL     1     168.648 167.003 165.228  1.00  0.00     0.072 C 
BRANCH   9  10
ATOM     10  C   UNL     1     170.066 166.789 165.675  1.00  0.00     0.224 C 
ATOM     11  O   UNL     1     170.903 166.401 164.876  1.00  0.00    -0.303 OA
ENDBRANCH   9  10
ENDBRANCH   8   9
ENDBRANCH   7   8
ENDBRANCH   1   7
TORSDOF 8
ENDMDL
MODEL 4
REMARK VINA RESULT:    -3.320      1.626      3.003
REMARK INTER + INTRA:          -5.219
REMARK INTER:                  -4.867
REMARK INTRA:                  -0.352
REMARK UNBOUND:                -0.346
REMARK SMILES CCCCCCCCCC=O
REMARK SMILES IDX 6 1 5 2 4 3 3 4 2 5 1 6 7 7 8 8 9 9 10 10 11 11
REMARK H PARENT
REMARK Flexibility Score: inf
ROOT
ATOM      1  C   UNL     1     165.228 164.929 166.393  1.00  0.00     0.000 C 
ENDROOT
BRANCH   1   2
ATOM      2  C   UNL     1     166.048 166.095 165.823  1.00  0.00     0.000 C 
BRANCH   2   3
ATOM      3  C   UNL     1     167.006 166.664 166.882  1.00  0.00    -0.000 C 
BRANCH   3   4
ATOM      4  C   UNL     1     166.326 166.826 168.257  1.00  0.00    -0.000 C 
BRANCH   4   5
ATOM      5  C   UNL     1     165.606 168.173 168.433  1.00  0.00    -0.003 C 
ATOM      6  C   UNL     1     165.576 168.652 169.884  1.00  0.00     0.004 C 
ENDBRANCH   4   5
ENDBRANCH   3   4
ENDBRANCH   2   3
ENDBRANCH   1   2
BRANCH   1   7
ATOM      7  C   UNL     1     164.876 163.875 165.331  1.00  0.00     0.000 C 
BRANCH   7   8
ATOM      8  C   UNL     1     163.358 163.708 165.146  1.00  0.00     0.008 C 
BRANCH   8   9
ATOM      9  C   UNL     1     162.560 164.464 166.218  1.00  0.00     0.072 C 
BRANCH   9  10
ATOM     10  C   UNL     1     161.077 164.296 166.050  1.00  0.00     0.224 C 
ATOM     11  O   UNL     1     160.385 164.004 167.012  1.00  0.00    -0.303 OA
ENDBRANCH   9  10
ENDBRANCH   8   9
ENDBRANCH   7   8
ENDBRANCH   1   7
TORSDOF 8
ENDMDL
MODEL 5
REMARK VINA RESULT:    -3.252      1.517      2.174
REMARK INTER + INTRA:          -5.118
REMARK INTER:                  -4.679
REMARK INTRA:                  -0.439
REMARK UNBOUND:                -0.346
REMARK SMILES CCCCCCCCCC=O
REMARK SMILES IDX 6 1 5 2 4 3 3 4 2 5 1 6 7 7 8 8 9 9 10 10 11 11
REMARK H PARENT
REMARK Flexibility Score: inf
ROOT
ATOM      1  C   UNL     1     165.279 164.169 167.278  1.00  0.00     0.000 C 
ENDROOT
BRANCH   1   2
ATOM      2  C   UNL     1     165.045 165.142 168.442  1.00  0.00     0.000 C 
BRANCH   2   3
ATOM      3  C   UNL     1     165.757 166.480 168.193  1.00  0.00    -0.000 C 
BRANCH   3   4
ATOM      4  C   UNL     1     166.864 166.363 167.124  1.00  0.00    -0.000 C 
BRANCH   4   5
ATOM      5  C   UNL     1     166.613 167.232 165.880  1.00  0.00    -0.003 C 
ATOM      6  C   UNL     1     167.868 167.445 165.035  1.00  0.00     0.004 C 
ENDBRANCH   4   5
ENDBRANCH   3   4
ENDBRANCH   2   3
ENDBRANCH   1   2
BRANCH   1   7
ATOM      7  C   UNL     1     164.112 164.147 166.278  1.00  0.00     0.000 C 
BRANCH   7   8
ATOM      8  C   UNL     1     162.762 164.480 166.937  1.00  0.00     0.008 C 
BRANCH   8   9
ATOM      9  C   UNL     1     161.588 164.312 165.962  1.00  0.00     0.072 C 
BRANCH   9  10
ATOM     10  C   UNL     1     160.299 164.002 166.668  1.00  0.00     0.224 C 
ATOM     11  O   UNL     1     160.299 163.794 167.870  1.00  0.00    -0.303 OA
ENDBRANCH   9  10
ENDBRANCH   8   9
ENDBRANCH   7   8
ENDBRANCH   1   7
TORSDOF 8
ENDMDL
MODEL 6
REMARK VINA RESULT:    -3.215      2.671      3.766
REMARK INTER + INTRA:          -5.064
REMARK INTER:                  -4.246
REMARK INTRA:                  -0.818
REMARK UNBOUND:                -0.346
REMARK SMILES CCCCCCCCCC=O
REMARK SMILES IDX 6 1 5 2 4 3 3 4 2 5 1 6 7 7 8 8 9 9 10 10 11 11
REMARK H PARENT
REMARK Flexibility Score: inf
ROOT
ATOM      1  C   UNL     1     164.043 164.458 165.636  1.00  0.00     0.000 C 
ENDROOT
BRANCH   1   2
ATOM      2  C   UNL     1     165.395 164.783 164.988  1.00  0.00     0.000 C 
BRANCH   2   3
ATOM      3  C   UNL     1     165.648 166.299 164.971  1.00  0.00    -0.000 C 
BRANCH   3   4
ATOM      4  C   UNL     1     167.060 166.661 165.477  1.00  0.00    -0.000 C 
BRANCH   4   5
ATOM      5  C   UNL     1     167.166 166.726 167.010  1.00  0.00    -0.003 C 
ATOM      6  C   UNL     1     165.983 167.436 167.663  1.00  0.00     0.004 C 
ENDBRANCH   4   5
ENDBRANCH   3   4
ENDBRANCH   2   3
ENDBRANCH   1   2
BRANCH   1   7
ATOM      7  C   UNL     1     164.099 164.482 167.171  1.00  0.00     0.000 C 
BRANCH   7   8
ATOM      8  C   UNL     1     165.304 163.707 167.732  1.00  0.00     0.008 C 
BRANCH   8   9
ATOM      9  C   UNL     1     165.373 163.778 169.264  1.00  0.00     0.072 C 
BRANCH   9  10
ATOM     10  C   UNL     1     165.606 162.433 169.889  1.00  0.00     0.224 C 
ATOM     11  O   UNL     1     166.239 162.346 170.928  1.00  0.00    -0.303 OA
ENDBRANCH   9  10
ENDBRANCH   8   9
ENDBRANCH   7   8
ENDBRANCH   1   7
TORSDOF 8
ENDMDL
MODEL 7
REMARK VINA RESULT:    -3.202      1.869      3.662
REMARK INTER + INTRA:          -5.045
REMARK INTER:                  -4.419
REMARK INTRA:                  -0.626
REMARK UNBOUND:                -0.346
REMARK SMILES CCCCCCCCCC=O
REMARK SMILES IDX 6 1 5 2 4 3 3 4 2 5 1 6 7 7 8 8 9 9 10 10 11 11
REMARK H PARENT
REMARK Flexibility Score: inf
ROOT
ATOM      1  C   UNL     1     165.994 166.007 166.667  1.00  0.00     0.000 C 
ENDROOT
BRANCH   1   2
ATOM      2  C   UNL     1     165.184 165.730 167.941  1.00  0.00     0.000 C 
BRANCH   2   3
ATOM      3  C   UNL     1     166.050 165.918 169.196  1.00  0.00    -0.000 C 
BRANCH   3   4
ATOM      4  C   UNL     1     165.924 164.733 170.176  1.00  0.00    -0.000 C 
BRANCH   4   5
ATOM      5  C   UNL     1     165.038 163.591 169.650  1.00  0.00    -0.003 C 
ATOM      6  C   UNL     1     165.805 162.288 169.435  1.00  0.00     0.004 C 
ENDBRANCH   4   5
ENDBRANCH   3   4
ENDBRANCH   2   3
ENDBRANCH   1   2
BRANCH   1   7
ATOM      7  C   UNL     1     165.499 165.196 165.459  1.00  0.00     0.000 C 
BRANCH   7   8
ATOM      8  C   UNL     1     164.542 164.060 165.862  1.00  0.00     0.008 C 
BRANCH   8   9
ATOM      9  C   UNL     1     163.297 164.012 164.965  1.00  0.00     0.072 C 
BRANCH   9  10
ATOM     10  C   UNL     1     162.042 164.366 165.711  1.00  0.00     0.224 C 
ATOM     11  O   UNL     1     160.969 164.368 165.130  1.00  0.00    -0.303 OA
ENDBRANCH   9  10
ENDBRANCH   8   9
ENDBRANCH   7   8
ENDBRANCH   1   7
TORSDOF 8
ENDMDL
MODEL 8
REMARK VINA RESULT:    -3.191      2.823      5.744
REMARK INTER + INTRA:          -5.030
REMARK INTER:                  -4.660
REMARK INTRA:                  -0.369
REMARK UNBOUND:                -0.346
REMARK SMILES CCCCCCCCCC=O
REMARK SMILES IDX 6 1 5 2 4 3 3 4 2 5 1 6 7 7 8 8 9 9 10 10 11 11
REMARK H PARENT
REMARK Flexibility Score: inf
ROOT
ATOM      1  C   UNL     1     165.253 165.092 166.220  1.00  0.00     0.000 C 
ENDROOT
BRANCH   1   2
ATOM      2  C   UNL     1     164.466 164.874 164.920  1.00  0.00     0.000 C 
BRANCH   2   3
ATOM      3  C   UNL     1     163.309 163.886 165.135  1.00  0.00    -0.000 C 
BRANCH   3   4
ATOM      4  C   UNL     1     161.933 164.534 164.876  1.00  0.00    -0.000 C 
BRANCH   4   5
ATOM      5  C   UNL     1     160.929 164.328 166.024  1.00  0.00    -0.003 C 
ATOM      6  C   UNL     1     161.574 164.417 167.406  1.00  0.00     0.004 C 
ENDBRANCH   4   5
ENDBRANCH   3   4
ENDBRANCH   2   3
ENDBRANCH   1   2
BRANCH   1   7
ATOM      7  C   UNL     1     166.054 166.403 166.218  1.00  0.00     0.000 C 
BRANCH   7   8
ATOM      8  C   UNL     1     166.829 166.625 167.528  1.00  0.00     0.008 C 
BRANCH   8   9
ATOM      9  C   UNL     1     165.908 166.584 168.756  1.00  0.00     0.072 C 
BRANCH   9  10
ATOM     10  C   UNL     1     166.381 167.493 169.855  1.00  0.00     0.224 C 
ATOM     11  O   UNL     1     165.812 168.554 170.054  1.00  0.00    -0.303 OA
ENDBRANCH   9  10
ENDBRANCH   8   9
ENDBRANCH   7   8
ENDBRANCH   1   7
TORSDOF 8
ENDMDL
