MODEL 1
REMARK VINA RESULT:    -6.711      0.000      0.000
REMARK INTER + INTRA:          -7.760
REMARK INTER:                  -7.887
REMARK INTRA:                   0.127
REMARK UNBOUND:                 0.127
REMARK SMILES O=c1c(O)c(-c2ccc(O)c(O)c2)oc2cc(O)ccc12
REMARK SMILES IDX 5 1 3 2 2 3 1 4 21 5 15 6 14 7 16 8 17 9 19 10 20 11 6 12
REMARK SMILES IDX 7 13 8 14 9 15 13 16 11 17 10 18 12 20 4 22 18 24
REMARK H PARENT 10 19 12 21 4 23 18 25
REMARK Flexibility Score: inf
ROOT
ATOM      1  C   UNL     1      21.379  39.911   5.616  1.00  0.00     0.180 A 
ATOM      2  C   UNL     1      21.252  40.744   6.748  1.00  0.00     0.208 A 
ATOM      3  C   UNL     1      21.396  40.178   8.024  1.00  0.00     0.235 A 
ATOM      4  O   UNL     1      21.297  40.904   9.051  1.00  0.00    -0.285 OA
ATOM      5  C   UNL     1      21.641  38.801   8.145  1.00  0.00     0.069 A 
ATOM      6  C   UNL     1      21.730  38.032   6.965  1.00  0.00     0.142 A 
ATOM      7  O   UNL     1      21.597  38.608   5.776  1.00  0.00    -0.452 OA
ATOM      8  C   UNL     1      21.965  36.654   7.044  1.00  0.00     0.094 A 
ATOM      9  C   UNL     1      22.112  36.034   8.289  1.00  0.00     0.119 A 
ATOM     10  C   UNL     1      22.025  36.795   9.462  1.00  0.00     0.047 A 
ATOM     11  C   UNL     1      21.791  38.171   9.394  1.00  0.00     0.020 A 
ENDROOT
BRANCH   1  12
ATOM     12  C   UNL     1      21.259  40.436   4.237  1.00  0.00     0.025 A 
ATOM     13  C   UNL     1      21.879  41.650   3.904  1.00  0.00     0.016 A 
ATOM     14  C   UNL     1      21.761  42.174   2.615  1.00  0.00     0.051 A 
ATOM     15  C   UNL     1      21.012  41.503   1.644  1.00  0.00     0.157 A 
ATOM     16  C   UNL     1      20.489  39.772   3.266  1.00  0.00     0.062 A 
ATOM     17  C   UNL     1      20.368  40.298   1.971  1.00  0.00     0.158 A 
BRANCH  15  18
ATOM     18  O   UNL     1      20.914  42.049   0.365  1.00  0.00    -0.504 OA
ATOM     19  H   UNL     1      21.682  42.548  -0.068  1.00  0.00     0.293 HD
ENDBRANCH  15  18
BRANCH  17  20
ATOM     20  O   UNL     1      19.607  39.631   1.012  1.00  0.00    -0.504 OA
ATOM     21  H   UNL     1      18.594  39.652   1.028  1.00  0.00     0.293 HD
ENDBRANCH  17  20
ENDBRANCH   1  12
BRANCH   2  22
ATOM     22  O   UNL     1      20.958  42.102   6.597  1.00  0.00    -0.502 OA
ATOM     23  H   UNL     1      20.683  42.500   5.707  1.00  0.00     0.293 HD
ENDBRANCH   2  22
BRANCH   9  24
ATOM     24  O   UNL     1      22.344  34.662   8.349  1.00  0.00    -0.508 OA
ATOM     25  H   UNL     1      22.511  34.191   9.231  1.00  0.00     0.293 HD
ENDBRANCH   9  24
TORSDOF 5
ENDMDL
MODEL 2
REMARK VINA RESULT:    -6.288      1.379      6.553
REMARK INTER + INTRA:          -7.264
REMARK INTER:                  -7.701
REMARK INTRA:                   0.437
REMARK UNBOUND:                 0.127
REMARK SMILES O=c1c(O)c(-c2ccc(O)c(O)c2)oc2cc(O)ccc12
REMARK SMILES IDX 5 1 3 2 2 3 1 4 21 5 15 6 14 7 16 8 17 9 19 10 20 11 6 12
REMARK SMILES IDX 7 13 8 14 9 15 13 16 11 17 10 18 12 20 4 22 18 24
REMARK H PARENT 10 19 12 21 4 23 18 25
REMARK Flexibility Score: inf
ROOT
ATOM      1  C   UNL     1      21.268  40.121   5.301  1.00  0.00     0.180 A 
ATOM      2  C   UNL     1      21.692  41.432   5.605  1.00  0.00     0.208 A 
ATOM      3  C   UNL     1      21.606  42.418   4.609  1.00  0.00     0.235 A 
ATOM      4  O   UNL     1      21.970  43.600   4.860  1.00  0.00    -0.285 OA
ATOM      5  C   UNL     1      21.122  42.075   3.338  1.00  0.00     0.069 A 
ATOM      6  C   UNL     1      20.740  40.736   3.106  1.00  0.00     0.142 A 
ATOM      7  O   UNL     1      20.828  39.835   4.078  1.00  0.00    -0.452 OA
ATOM      8  C   UNL     1      20.261  40.353   1.848  1.00  0.00     0.094 A 
ATOM      9  C   UNL     1      20.157  41.291   0.817  1.00  0.00     0.119 A 
ATOM     10  C   UNL     1      20.534  42.621   1.044  1.00  0.00     0.047 A 
ATOM     11  C   UNL     1      21.015  43.014   2.296  1.00  0.00     0.020 A 
ENDROOT
BRANCH   1  12
ATOM     12  C   UNL     1      21.310  39.030   6.301  1.00  0.00     0.025 A 
ATOM     13  C   UNL     1      21.377  39.348   7.667  1.00  0.00     0.016 A 
ATOM     14  C   UNL     1      21.439  38.335   8.626  1.00  0.00     0.051 A 
ATOM     15  C   UNL     1      21.449  36.992   8.238  1.00  0.00     0.157 A 
ATOM     16  C   UNL     1      21.340  37.680   5.911  1.00  0.00     0.062 A 
ATOM     17  C   UNL     1      21.404  36.661   6.874  1.00  0.00     0.158 A 
BRANCH  15  18
ATOM     18  O   UNL     1      21.509  36.003   9.219  1.00  0.00    -0.504 OA
ATOM     19  H   UNL     1      21.098  36.128  10.136  1.00  0.00     0.293 HD
ENDBRANCH  15  18
BRANCH  17  20
ATOM     20  O   UNL     1      21.428  35.324   6.479  1.00  0.00    -0.504 OA
ATOM     21  H   UNL     1      20.588  34.844   6.177  1.00  0.00     0.293 HD
ENDBRANCH  17  20
ENDBRANCH   1  12
BRANCH   2  22
ATOM     22  O   UNL     1      22.216  41.732   6.865  1.00  0.00    -0.502 OA
ATOM     23  H   UNL     1      22.924  42.444   7.001  1.00  0.00     0.293 HD
ENDBRANCH   2  22
BRANCH   9  24
ATOM     24  O   UNL     1      19.679  40.892  -0.429  1.00  0.00    -0.508 OA
ATOM     25  H   UNL     1      19.974  41.353  -1.282  1.00  0.00     0.293 HD
ENDBRANCH   9  24
TORSDOF 5
ENDMDL
MODEL 3
REMARK VINA RESULT:    -6.233      1.846      6.531
REMARK INTER + INTRA:          -7.199
REMARK INTER:                  -7.055
REMARK INTRA:                  -0.144
REMARK UNBOUND:                 0.127
REMARK SMILES O=c1c(O)c(-c2ccc(O)c(O)c2)oc2cc(O)ccc12
REMARK SMILES IDX 5 1 3 2 2 3 1 4 21 5 15 6 14 7 16 8 17 9 19 10 20 11 6 12
REMARK SMILES IDX 7 13 8 14 9 15 13 16 11 17 10 18 12 20 4 22 18 24
REMARK H PARENT 10 19 12 21 4 23 18 25
REMARK Flexibility Score: inf
ROOT
ATOM      1  C   UNL     1      20.468  40.108   6.087  1.00  0.00     0.180 A 
ATOM      2  C   UNL     1      19.437  40.903   6.633  1.00  0.00     0.208 A 
ATOM      3  C   UNL     1      18.927  41.965   5.872  1.00  0.00     0.235 A 
ATOM      4  O   UNL     1      17.998  42.683   6.334  1.00  0.00    -0.285 OA
ATOM      5  C   UNL     1      19.464  42.225   4.601  1.00  0.00     0.069 A 
ATOM      6  C   UNL     1      20.511  41.399   4.136  1.00  0.00     0.142 A 
ATOM      7  O   UNL     1      20.959  40.398   4.884  1.00  0.00    -0.452 OA
ATOM      8  C   UNL     1      21.078  41.632   2.878  1.00  0.00     0.094 A 
ATOM      9  C   UNL     1      20.614  42.680   2.077  1.00  0.00     0.119 A 
ATOM     10  C   UNL     1      19.574  43.500   2.535  1.00  0.00     0.047 A 
ATOM     11  C   UNL     1      19.001  43.277   3.790  1.00  0.00     0.020 A 
ENDROOT
BRANCH   1  12
ATOM     12  C   UNL     1      21.046  38.959   6.819  1.00  0.00     0.025 A 
ATOM     13  C   UNL     1      21.760  39.185   8.007  1.00  0.00     0.016 A 
ATOM     14  C   UNL     1      22.332  38.118   8.702  1.00  0.00     0.051 A 
ATOM     15  C   UNL     1      22.213  36.812   8.217  1.00  0.00     0.157 A 
ATOM     16  C   UNL     1      20.946  37.648   6.322  1.00  0.00     0.062 A 
ATOM     17  C   UNL     1      21.521  36.575   7.018  1.00  0.00     0.158 A 
BRANCH  15  18
ATOM     18  O   UNL     1      22.793  35.767   8.935  1.00  0.00    -0.504 OA
ATOM     19  H   UNL     1      23.617  35.279   8.605  1.00  0.00     0.293 HD
ENDBRANCH  15  18
BRANCH  17  20
ATOM     20  O   UNL     1      21.411  35.277   6.521  1.00  0.00    -0.504 OA
ATOM     21  H   UNL     1      22.013  34.940   5.779  1.00  0.00     0.293 HD
ENDBRANCH  17  20
ENDBRANCH   1  12
BRANCH   2  22
ATOM     22  O   UNL     1      18.957  40.650   7.921  1.00  0.00    -0.502 OA
ATOM     23  H   UNL     1      18.307  39.898   8.118  1.00  0.00     0.293 HD
ENDBRANCH   2  22
BRANCH   9  24
ATOM     24  O   UNL     1      21.191  42.897   0.828  1.00  0.00    -0.508 OA
ATOM     25  H   UNL     1      22.167  43.155   0.733  1.00  0.00     0.293 HD
ENDBRANCH   9  24
TORSDOF 5
ENDMDL
MODEL 4
REMARK VINA RESULT:    -6.150      2.952      6.518
REMARK INTER + INTRA:          -7.102
REMARK INTER:                  -6.791
REMARK INTRA:                  -0.311
REMARK UNBOUND:                 0.127
REMARK SMILES O=c1c(O)c(-c2ccc(O)c(O)c2)oc2cc(O)ccc12
REMARK SMILES IDX 5 1 3 2 2 3 1 4 21 5 15 6 14 7 16 8 17 9 19 10 20 11 6 12
REMARK SMILES IDX 7 13 8 14 9 15 13 16 11 17 10 18 12 20 4 22 18 24
REMARK H PARENT 10 19 12 21 4 23 18 25
REMARK Flexibility Score: inf
ROOT
ATOM      1  C   UNL     1      20.270  40.233   7.058  1.00  0.00     0.180 A 
ATOM      2  C   UNL     1      20.943  41.210   6.294  1.00  0.00     0.208 A 
ATOM      3  C   UNL     1      20.255  42.379   5.934  1.00  0.00     0.235 A 
ATOM      4  O   UNL     1      20.840  43.271   5.260  1.00  0.00    -0.285 OA
ATOM      5  C   UNL     1      18.917  42.540   6.323  1.00  0.00     0.069 A 
ATOM      6  C   UNL     1      18.307  41.505   7.065  1.00  0.00     0.142 A 
ATOM      7  O   UNL     1      18.995  40.419   7.393  1.00  0.00    -0.452 OA
ATOM      8  C   UNL     1      16.970  41.625   7.463  1.00  0.00     0.094 A 
ATOM      9  C   UNL     1      16.234  42.766   7.129  1.00  0.00     0.119 A 
ATOM     10  C   UNL     1      16.836  43.795   6.394  1.00  0.00     0.047 A 
ATOM     11  C   UNL     1      18.170  43.685   5.990  1.00  0.00     0.020 A 
ENDROOT
BRANCH   1  12
ATOM     12  C   UNL     1      20.931  38.982   7.492  1.00  0.00     0.025 A 
ATOM     13  C   UNL     1      21.708  38.981   8.661  1.00  0.00     0.016 A 
ATOM     14  C   UNL     1      22.358  37.818   9.078  1.00  0.00     0.051 A 
ATOM     15  C   UNL     1      22.254  36.642   8.329  1.00  0.00     0.157 A 
ATOM     16  C   UNL     1      20.845  37.804   6.729  1.00  0.00     0.062 A 
ATOM     17  C   UNL     1      21.498  36.635   7.146  1.00  0.00     0.158 A 
BRANCH  15  18
ATOM     18  O   UNL     1      22.913  35.495   8.772  1.00  0.00    -0.504 OA
ATOM     19  H   UNL     1      22.483  34.842   9.416  1.00  0.00     0.293 HD
ENDBRANCH  15  18
BRANCH  17  20
ATOM     20  O   UNL     1      21.402  35.470   6.386  1.00  0.00    -0.504 OA
ATOM     21  H   UNL     1      21.909  34.629   6.637  1.00  0.00     0.293 HD
ENDBRANCH  17  20
ENDBRANCH   1  12
BRANCH   2  22
ATOM     22  O   UNL     1      22.261  40.999   5.880  1.00  0.00    -0.502 OA
ATOM     23  H   UNL     1      23.055  41.330   6.415  1.00  0.00     0.293 HD
ENDBRANCH   2  22
BRANCH   9  24
ATOM     24  O   UNL     1      14.904  42.867   7.533  1.00  0.00    -0.508 OA
ATOM     25  H   UNL     1      14.557  42.364   8.342  1.00  0.00     0.293 HD
ENDBRANCH   9  24
TORSDOF 5
ENDMDL
MODEL 5
REMARK VINA RESULT:    -6.020      3.796      5.557
REMARK INTER + INTRA:          -6.949
REMARK INTER:                  -6.628
REMARK INTRA:                  -0.321
REMARK UNBOUND:                 0.127
REMARK SMILES O=c1c(O)c(-c2ccc(O)c(O)c2)oc2cc(O)ccc12
REMARK SMILES IDX 5 1 3 2 2 3 1 4 21 5 15 6 14 7 16 8 17 9 19 10 20 11 6 12
REMARK SMILES IDX 7 13 8 14 9 15 13 16 11 17 10 18 12 20 4 22 18 24
REMARK H PARENT 10 19 12 21 4 23 18 25
REMARK Flexibility Score: inf
ROOT
ATOM      1  C   UNL     1      18.755  41.079   6.117  1.00  0.00     0.180 A 
ATOM      2  C   UNL     1      19.084  41.411   4.785  1.00  0.00     0.208 A 
ATOM      3  C   UNL     1      19.998  40.601   4.093  1.00  0.00     0.235 A 
ATOM      4  O   UNL     1      20.300  40.872   2.897  1.00  0.00    -0.285 OA
ATOM      5  C   UNL     1      20.575  39.500   4.742  1.00  0.00     0.069 A 
ATOM      6  C   UNL     1      20.213  39.250   6.084  1.00  0.00     0.142 A 
ATOM      7  O   UNL     1      19.338  40.034   6.701  1.00  0.00    -0.452 OA
ATOM      8  C   UNL     1      20.775  38.166   6.769  1.00  0.00     0.094 A 
ATOM      9  C   UNL     1      21.694  37.328   6.131  1.00  0.00     0.119 A 
ATOM     10  C   UNL     1      22.055  37.573   4.800  1.00  0.00     0.047 A 
ATOM     11  C   UNL     1      21.501  38.653   4.106  1.00  0.00     0.020 A 
ENDROOT
BRANCH   1  12
ATOM     12  C   UNL     1      17.787  41.871   6.908  1.00  0.00     0.025 A 
ATOM     13  C   UNL     1      18.260  42.841   7.807  1.00  0.00     0.016 A 
ATOM     14  C   UNL     1      17.365  43.585   8.579  1.00  0.00     0.051 A 
ATOM     15  C   UNL     1      15.988  43.364   8.477  1.00  0.00     0.157 A 
ATOM     16  C   UNL     1      16.404  41.636   6.821  1.00  0.00     0.062 A 
ATOM     17  C   UNL     1      15.504  42.382   7.597  1.00  0.00     0.158 A 
BRANCH  15  18
ATOM     18  O   UNL     1      15.119  44.124   9.258  1.00  0.00    -0.504 OA
ATOM     19  H   UNL     1      14.604  44.910   8.882  1.00  0.00     0.293 HD
ENDBRANCH  15  18
BRANCH  17  20
ATOM     20  O   UNL     1      14.133  42.146   7.501  1.00  0.00    -0.504 OA
ATOM     21  H   UNL     1      13.683  41.408   8.029  1.00  0.00     0.293 HD
ENDBRANCH  17  20
ENDBRANCH   1  12
BRANCH   2  22
ATOM     22  O   UNL     1      18.530  42.542   4.181  1.00  0.00    -0.502 OA
ATOM     23  H   UNL     1      17.718  42.490   3.576  1.00  0.00     0.293 HD
ENDBRANCH   2  22
BRANCH   9  24
ATOM     24  O   UNL     1      22.244  36.254   6.829  1.00  0.00    -0.508 OA
ATOM     25  H   UNL     1      21.889  35.312   6.716  1.00  0.00     0.293 HD
ENDBRANCH   9  24
TORSDOF 5
ENDMDL
MODEL 6
REMARK VINA RESULT:    -5.815      3.942      6.482
REMARK INTER + INTRA:          -6.708
REMARK INTER:                  -6.387
REMARK INTRA:                  -0.321
REMARK UNBOUND:                 0.127
REMARK SMILES O=c1c(O)c(-c2ccc(O)c(O)c2)oc2cc(O)ccc12
REMARK SMILES IDX 5 1 3 2 2 3 1 4 21 5 15 6 14 7 16 8 17 9 19 10 20 11 6 12
REMARK SMILES IDX 7 13 8 14 9 15 13 16 11 17 10 18 12 20 4 22 18 24
REMARK H PARENT 10 19 12 21 4 23 18 25
REMARK Flexibility Score: inf
ROOT
ATOM      1  C   UNL     1      18.511  41.858   5.714  1.00  0.00     0.180 A 
ATOM      2  C   UNL     1      18.645  42.941   4.820  1.00  0.00     0.208 A 
ATOM      3  C   UNL     1      19.573  42.842   3.772  1.00  0.00     0.235 A 
ATOM      4  O   UNL     1      19.704  43.794   2.954  1.00  0.00    -0.285 OA
ATOM      5  C   UNL     1      20.357  41.684   3.651  1.00  0.00     0.069 A 
ATOM      6  C   UNL     1      20.180  40.655   4.601  1.00  0.00     0.142 A 
ATOM      7  O   UNL     1      19.284  40.784   5.572  1.00  0.00    -0.452 OA
ATOM      8  C   UNL     1      20.949  39.488   4.519  1.00  0.00     0.094 A 
ATOM      9  C   UNL     1      21.893  39.336   3.499  1.00  0.00     0.119 A 
ATOM     10  C   UNL     1      22.070  40.355   2.554  1.00  0.00     0.047 A 
ATOM     11  C   UNL     1      21.308  41.524   2.627  1.00  0.00     0.020 A 
ENDROOT
BRANCH   1  12
ATOM     12  C   UNL     1      17.542  41.878   6.833  1.00  0.00     0.025 A 
ATOM     13  C   UNL     1      17.981  42.225   8.121  1.00  0.00     0.016 A 
ATOM     14  C   UNL     1      17.089  42.230   9.195  1.00  0.00     0.051 A 
ATOM     15  C   UNL     1      15.750  41.875   9.004  1.00  0.00     0.157 A 
ATOM     16  C   UNL     1      16.200  41.502   6.647  1.00  0.00     0.062 A 
ATOM     17  C   UNL     1      15.303  41.505   7.725  1.00  0.00     0.158 A 
BRANCH  15  18
ATOM     18  O   UNL     1      14.882  41.892  10.096  1.00  0.00    -0.504 OA
ATOM     19  H   UNL     1      14.635  41.049  10.600  1.00  0.00     0.293 HD
ENDBRANCH  15  18
BRANCH  17  20
ATOM     20  O   UNL     1      13.973  41.136   7.531  1.00  0.00    -0.504 OA
ATOM     21  H   UNL     1      13.581  40.311   7.971  1.00  0.00     0.293 HD
ENDBRANCH  17  20
ENDBRANCH   1  12
BRANCH   2  22
ATOM     22  O   UNL     1      17.886  44.101   4.996  1.00  0.00    -0.502 OA
ATOM     23  H   UNL     1      18.296  45.027   4.954  1.00  0.00     0.293 HD
ENDBRANCH   2  22
BRANCH   9  24
ATOM     24  O   UNL     1      22.650  38.168   3.433  1.00  0.00    -0.508 OA
ATOM     25  H   UNL     1      23.558  38.100   3.879  1.00  0.00     0.293 HD
ENDBRANCH   9  24
TORSDOF 5
ENDMDL
MODEL 7
REMARK VINA RESULT:    -5.811      3.258      4.250
REMARK INTER + INTRA:          -6.703
REMARK INTER:                  -6.410
REMARK INTRA:                  -0.293
REMARK UNBOUND:                 0.127
REMARK SMILES O=c1c(O)c(-c2ccc(O)c(O)c2)oc2cc(O)ccc12
REMARK SMILES IDX 5 1 3 2 2 3 1 4 21 5 15 6 14 7 16 8 17 9 19 10 20 11 6 12
REMARK SMILES IDX 7 13 8 14 9 15 13 16 11 17 10 18 12 20 4 22 18 24
REMARK H PARENT 10 19 12 21 4 23 18 25
REMARK Flexibility Score: inf
ROOT
ATOM      1  C   UNL     1      19.579  41.482   6.018  1.00  0.00     0.180 A 
ATOM      2  C   UNL     1      20.499  41.684   7.068  1.00  0.00     0.208 A 
ATOM      3  C   UNL     1      20.027  41.679   8.390  1.00  0.00     0.235 A 
ATOM      4  O   UNL     1      20.832  41.848   9.347  1.00  0.00    -0.285 OA
ATOM      5  C   UNL     1      18.657  41.495   8.634  1.00  0.00     0.069 A 
ATOM      6  C   UNL     1      17.798  41.325   7.527  1.00  0.00     0.142 A 
ATOM      7  O   UNL     1      18.285  41.326   6.292  1.00  0.00    -0.452 OA
ATOM      8  C   UNL     1      16.424  41.148   7.729  1.00  0.00     0.094 A 
ATOM      9  C   UNL     1      15.897  41.139   9.024  1.00  0.00     0.119 A 
ATOM     10  C   UNL     1      16.747  41.307  10.125  1.00  0.00     0.047 A 
ATOM     11  C   UNL     1      18.120  41.486   9.934  1.00  0.00     0.020 A 
ENDROOT
BRANCH   1  12
ATOM     12  C   UNL     1      20.000  41.454   4.599  1.00  0.00     0.025 A 
ATOM     13  C   UNL     1      20.170  42.663   3.906  1.00  0.00     0.016 A 
ATOM     14  C   UNL     1      20.546  42.661   2.561  1.00  0.00     0.051 A 
ATOM     15  C   UNL     1      20.744  41.453   1.884  1.00  0.00     0.157 A 
ATOM     16  C   UNL     1      20.179  40.241   3.911  1.00  0.00     0.062 A 
ATOM     17  C   UNL     1      20.555  40.237   2.560  1.00  0.00     0.158 A 
BRANCH  15  18
ATOM     18  O   UNL     1      21.121  41.482   0.542  1.00  0.00    -0.504 OA
ATOM     19  H   UNL     1      20.445  41.579  -0.206  1.00  0.00     0.293 HD
ENDBRANCH  15  18
BRANCH  17  20
ATOM     20  O   UNL     1      20.737  39.029   1.887  1.00  0.00    -0.504 OA
ATOM     21  H   UNL     1      21.661  38.643   1.728  1.00  0.00     0.293 HD
ENDBRANCH  17  20
ENDBRANCH   1  12
BRANCH   2  22
ATOM     22  O   UNL     1      21.849  41.913   6.791  1.00  0.00    -0.502 OA
ATOM     23  H   UNL     1      22.451  42.427   7.424  1.00  0.00     0.293 HD
ENDBRANCH   2  22
BRANCH   9  24
ATOM     24  O   UNL     1      14.527  40.963   9.206  1.00  0.00    -0.508 OA
ATOM     25  H   UNL     1      13.865  41.701   8.995  1.00  0.00     0.293 HD
ENDBRANCH   9  24
TORSDOF 5
ENDMDL
MODEL 8
REMARK VINA RESULT:    -5.764      1.717      3.428
REMARK INTER + INTRA:          -6.648
REMARK INTER:                  -6.712
REMARK INTRA:                   0.064
REMARK UNBOUND:                 0.127
REMARK SMILES O=c1c(O)c(-c2ccc(O)c(O)c2)oc2cc(O)ccc12
REMARK SMILES IDX 5 1 3 2 2 3 1 4 21 5 15 6 14 7 16 8 17 9 19 10 20 11 6 12
REMARK SMILES IDX 7 13 8 14 9 15 13 16 11 17 10 18 12 20 4 22 18 24
REMARK H PARENT 10 19 12 21 4 23 18 25
REMARK Flexibility Score: inf
ROOT
ATOM      1  C   UNL     1      20.837  40.507   4.159  1.00  0.00     0.180 A 
ATOM      2  C   UNL     1      21.100  39.139   3.932  1.00  0.00     0.208 A 
ATOM      3  C   UNL     1      21.361  38.310   5.033  1.00  0.00     0.235 A 
ATOM      4  O   UNL     1      21.588  37.081   4.857  1.00  0.00    -0.285 OA
ATOM      5  C   UNL     1      21.376  38.860   6.324  1.00  0.00     0.069 A 
ATOM      6  C   UNL     1      21.128  40.242   6.465  1.00  0.00     0.142 A 
ATOM      7  O   UNL     1      20.876  40.991   5.398  1.00  0.00    -0.452 OA
ATOM      8  C   UNL     1      21.143  40.830   7.735  1.00  0.00     0.094 A 
ATOM      9  C   UNL     1      21.403  40.053   8.869  1.00  0.00     0.119 A 
ATOM     10  C   UNL     1      21.648  38.681   8.733  1.00  0.00     0.047 A 
ATOM     11  C   UNL     1      21.636  38.084   7.469  1.00  0.00     0.020 A 
ENDROOT
BRANCH   1  12
ATOM     12  C   UNL     1      20.535  41.443   3.052  1.00  0.00     0.025 A 
ATOM     13  C   UNL     1      21.372  41.474   1.926  1.00  0.00     0.016 A 
ATOM     14  C   UNL     1      21.117  42.363   0.880  1.00  0.00     0.051 A 
ATOM     15  C   UNL     1      20.034  43.244   0.948  1.00  0.00     0.157 A 
ATOM     16  C   UNL     1      19.458  42.344   3.128  1.00  0.00     0.062 A 
ATOM     17  C   UNL     1      19.202  43.239   2.079  1.00  0.00     0.158 A 
BRANCH  15  18
ATOM     18  O   UNL     1      19.804  44.120  -0.113  1.00  0.00    -0.504 OA
ATOM     19  H   UNL     1      19.788  45.125   0.011  1.00  0.00     0.293 HD
ENDBRANCH  15  18
BRANCH  17  20
ATOM     20  O   UNL     1      18.128  44.125   2.160  1.00  0.00    -0.504 OA
ATOM     21  H   UNL     1      18.007  44.874   1.489  1.00  0.00     0.293 HD
ENDBRANCH  17  20
ENDBRANCH   1  12
BRANCH   2  22
ATOM     22  O   UNL     1      21.127  38.630   2.631  1.00  0.00    -0.502 OA
ATOM     23  H   UNL     1      21.917  38.770   2.012  1.00  0.00     0.293 HD
ENDBRANCH   2  22
BRANCH   9  24
ATOM     24  O   UNL     1      21.415  40.655  10.125  1.00  0.00    -0.508 OA
ATOM     25  H   UNL     1      21.921  40.247  10.903  1.00  0.00     0.293 HD
ENDBRANCH   9  24
TORSDOF 5
ENDMDL
MODEL 9
REMARK VINA RESULT:    -5.553      3.627      5.573
REMARK INTER + INTRA:          -6.400
REMARK INTER:                  -6.118
REMARK INTRA:                  -0.281
REMARK UNBOUND:                 0.127
REMARK SMILES O=c1c(O)c(-c2ccc(O)c(O)c2)oc2cc(O)ccc12
REMARK SMILES IDX 5 1 3 2 2 3 1 4 21 5 15 6 14 7 16 8 17 9 19 10 20 11 6 12
REMARK SMILES IDX 7 13 8 14 9 15 13 16 11 17 10 18 12 20 4 22 18 24
REMARK H PARENT 10 19 12 21 4 23 18 25
REMARK Flexibility Score: inf
ROOT
ATOM      1  C   UNL     1      19.587  40.846   7.046  1.00  0.00     0.180 A 
ATOM      2  C   UNL     1      20.137  41.411   8.217  1.00  0.00     0.208 A 
ATOM      3  C   UNL     1      19.302  42.151   9.067  1.00  0.00     0.235 A 
ATOM      4  O   UNL     1      19.768  42.657  10.125  1.00  0.00    -0.285 OA
ATOM      5  C   UNL     1      17.952  42.328   8.727  1.00  0.00     0.069 A 
ATOM      6  C   UNL     1      17.484  41.751   7.526  1.00  0.00     0.142 A 
ATOM      7  O   UNL     1      18.305  41.050   6.753  1.00  0.00    -0.452 OA
ATOM      8  C   UNL     1      16.146  41.913   7.148  1.00  0.00     0.094 A 
ATOM      9  C   UNL     1      15.268  42.644   7.953  1.00  0.00     0.119 A 
ATOM     10  C   UNL     1      15.729  43.217   9.146  1.00  0.00     0.047 A 
ATOM     11  C   UNL     1      17.063  43.062   9.534  1.00  0.00     0.020 A 
ENDROOT
BRANCH   1  12
ATOM     12  C   UNL     1      20.398  40.038   6.108  1.00  0.00     0.025 A 
ATOM     13  C   UNL     1      20.779  40.588   4.874  1.00  0.00     0.016 A 
ATOM     14  C   UNL     1      21.526  39.836   3.965  1.00  0.00     0.051 A 
ATOM     15  C   UNL     1      21.891  38.521   4.266  1.00  0.00     0.157 A 
ATOM     16  C   UNL     1      20.749  38.708   6.401  1.00  0.00     0.062 A 
ATOM     17  C   UNL     1      21.498  37.951   5.488  1.00  0.00     0.158 A 
BRANCH  15  18
ATOM     18  O   UNL     1      22.639  37.795   3.339  1.00  0.00    -0.504 OA
ATOM     19  H   UNL     1      23.533  38.123   2.994  1.00  0.00     0.293 HD
ENDBRANCH  15  18
BRANCH  17  20
ATOM     20  O   UNL     1      21.846  36.635   5.789  1.00  0.00    -0.504 OA
ATOM     21  H   UNL     1      21.982  36.326   6.744  1.00  0.00     0.293 HD
ENDBRANCH  17  20
ENDBRANCH   1  12
BRANCH   2  22
ATOM     22  O   UNL     1      21.496  41.260   8.504  1.00  0.00    -0.502 OA
ATOM     23  H   UNL     1      22.016  40.432   8.236  1.00  0.00     0.293 HD
ENDBRANCH   2  22
BRANCH   9  24
ATOM     24  O   UNL     1      13.940  42.796   7.560  1.00  0.00    -0.508 OA
ATOM     25  H   UNL     1      13.697  43.153   6.644  1.00  0.00     0.293 HD
ENDBRANCH   9  24
TORSDOF 5
ENDMDL
