MODEL 1
REMARK VINA RESULT:    -2.344      0.000      0.000
REMARK INTER + INTRA:          -2.344
REMARK INTER:                  -2.344
REMARK INTRA:                   0.000
REMARK UNBOUND:                 0.000
REMARK SMILES CC(=O)[O-]
REMARK SMILES IDX 1 1 2 2 3 3 4 4
REMARK H PARENT
REMARK Flexibility Score: inf
ROOT
ATOM      1  C   UNL     1      30.053  18.069 -53.522  1.00  0.00     0.063 C 
ATOM      2  C   UNL     1      31.054  16.980 -53.334  1.00  0.00     0.038 C 
ATOM      3  O   UNL     1      30.710  15.775 -53.467  1.00  0.00    -0.550 OA
ATOM      4  O   UNL     1      32.380  17.292 -53.065  1.00  0.00    -0.550 OA
ENDROOT
TORSDOF 0
ENDMDL
MODEL 2
REMARK VINA RESULT:    -2.333      0.137      1.624
REMARK INTER + INTRA:          -2.333
REMARK INTER:                  -2.333
REMARK INTRA:                   0.000
REMARK UNBOUND:                 0.000
REMARK SMILES CC(=O)[O-]
REMARK SMILES IDX 1 1 2 2 3 3 4 4
REMARK H PARENT
REMARK Flexibility Score: inf
ROOT
ATOM      1  C   UNL     1      30.007  18.123 -53.481  1.00  0.00     0.063 C 
ATOM      2  C   UNL     1      31.002  17.019 -53.373  1.00  0.00     0.038 C 
ATOM      3  O   UNL     1      32.194  17.271 -53.052  1.00  0.00    -0.550 OA
ATOM      4  O   UNL     1      30.606  15.703 -53.574  1.00  0.00    -0.550 OA
ENDROOT
TORSDOF 0
ENDMDL
MODEL 3
REMARK VINA RESULT:    -2.271      0.803      1.749
REMARK INTER + INTRA:          -2.271
REMARK INTER:                  -2.271
REMARK INTRA:                   0.000
REMARK UNBOUND:                 0.000
REMARK SMILES CC(=O)[O-]
REMARK SMILES IDX 1 1 2 2 3 3 4 4
REMARK H PARENT
REMARK Flexibility Score: inf
ROOT
ATOM      1  C   UNL     1      30.082  18.101 -53.504  1.00  0.00     0.063 C 
ATOM      2  C   UNL     1      30.601  16.705 -53.556  1.00  0.00     0.038 C 
ATOM      3  O   UNL     1      31.766  16.448 -53.152  1.00  0.00    -0.550 OA
ATOM      4  O   UNL     1      29.782  15.674 -53.999  1.00  0.00    -0.550 OA
ENDROOT
TORSDOF 0
ENDMDL
MODEL 4
REMARK VINA RESULT:    -2.198      1.472      1.714
REMARK INTER + INTRA:          -2.198
REMARK INTER:                  -2.198
REMARK INTRA:                   0.000
REMARK UNBOUND:                 0.000
REMARK SMILES CC(=O)[O-]
REMARK SMILES IDX 1 1 2 2 3 3 4 4
REMARK H PARENT
REMARK Flexibility Score: inf
ROOT
ATOM      1  C   UNL     1      30.201  15.752 -53.614  1.00  0.00     0.063 C 
ATOM      2  C   UNL     1      30.729  17.138 -53.459  1.00  0.00     0.038 C 
ATOM      3  O   UNL     1      29.954  18.125 -53.567  1.00  0.00    -0.550 OA
ATOM      4  O   UNL     1      32.066  17.342 -53.141  1.00  0.00    -0.550 OA
ENDROOT
TORSDOF 0
ENDMDL
MODEL 5
REMARK VINA RESULT:    -2.179      1.391      2.103
REMARK INTER + INTRA:          -2.179
REMARK INTER:                  -2.179
REMARK INTRA:                   0.000
REMARK UNBOUND:                 0.000
REMARK SMILES CC(=O)[O-]
REMARK SMILES IDX 1 1 2 2 3 3 4 4
REMARK H PARENT
REMARK Flexibility Score: inf
ROOT
ATOM      1  C   UNL     1      30.819  15.638 -53.289  1.00  0.00     0.063 C 
ATOM      2  C   UNL     1      31.197  17.080 -53.309  1.00  0.00     0.038 C 
ATOM      3  O   UNL     1      32.361  17.432 -52.981  1.00  0.00    -0.550 OA
ATOM      4  O   UNL     1      30.284  18.033 -53.740  1.00  0.00    -0.550 OA
ENDROOT
TORSDOF 0
ENDMDL
MODEL 6
REMARK VINA RESULT:    -2.159      1.624      2.539
REMARK INTER + INTRA:          -2.159
REMARK INTER:                  -2.159
REMARK INTRA:                   0.000
REMARK UNBOUND:                 0.000
REMARK SMILES CC(=O)[O-]
REMARK SMILES IDX 1 1 2 2 3 3 4 4
REMARK H PARENT
REMARK Flexibility Score: inf
ROOT
ATOM      1  C   UNL     1      31.291  15.922 -53.213  1.00  0.00     0.063 C 
ATOM      2  C   UNL     1      30.232  16.890 -53.618  1.00  0.00     0.038 C 
ATOM      3  O   UNL     1      30.476  18.125 -53.632  1.00  0.00    -0.550 OA
ATOM      4  O   UNL     1      28.989  16.429 -54.033  1.00  0.00    -0.550 OA
ENDROOT
TORSDOF 0
ENDMDL
MODEL 7
REMARK VINA RESULT:    -2.002     17.524     17.760
REMARK INTER + INTRA:          -2.002
REMARK INTER:                  -2.002
REMARK INTRA:                   0.000
REMARK UNBOUND:                 0.000
REMARK SMILES CC(=O)[O-]
REMARK SMILES IDX 1 1 2 2 3 3 4 4
REMARK H PARENT
REMARK Flexibility Score: inf
ROOT
ATOM      1  C   UNL     1      40.471   4.418 -47.314  1.00  0.00     0.063 C 
ATOM      2  C   UNL     1      40.910   4.290 -45.896  1.00  0.00     0.038 C 
ATOM      3  O   UNL     1      40.292   3.525 -45.109  1.00  0.00    -0.550 OA
ATOM      4  O   UNL     1      42.035   4.972 -45.451  1.00  0.00    -0.550 OA
ENDROOT
TORSDOF 0
ENDMDL
MODEL 8
REMARK VINA RESULT:    -1.730      7.561      8.030
REMARK INTER + INTRA:          -1.730
REMARK INTER:                  -1.730
REMARK INTRA:                   0.000
REMARK UNBOUND:                 0.000
REMARK SMILES CC(=O)[O-]
REMARK SMILES IDX 1 1 2 2 3 3 4 4
REMARK H PARENT
REMARK Flexibility Score: inf
ROOT
ATOM      1  C   UNL     1      36.536  11.504 -53.668  1.00  0.00     0.063 C 
ATOM      2  C   UNL     1      36.117  11.116 -52.291  1.00  0.00     0.038 C 
ATOM      3  O   UNL     1      36.921  10.514 -51.531  1.00  0.00    -0.550 OA
ATOM      4  O   UNL     1      34.857  11.464 -51.823  1.00  0.00    -0.550 OA
ENDROOT
TORSDOF 0
ENDMDL
MODEL 9
REMARK VINA RESULT:    -1.698     15.747     15.951
REMARK INTER + INTRA:          -1.698
REMARK INTER:                  -1.698
REMARK INTRA:                   0.000
REMARK UNBOUND:                 0.000
REMARK SMILES CC(=O)[O-]
REMARK SMILES IDX 1 1 2 2 3 3 4 4
REMARK H PARENT
REMARK Flexibility Score: inf
ROOT
ATOM      1  C   UNL     1      26.695  11.747 -40.156  1.00  0.00     0.063 C 
ATOM      2  C   UNL     1      25.752  12.270 -39.126  1.00  0.00     0.038 C 
ATOM      3  O   UNL     1      24.826  11.538 -38.687  1.00  0.00    -0.550 OA
ATOM      4  O   UNL     1      25.926  13.547 -38.608  1.00  0.00    -0.550 OA
ENDROOT
TORSDOF 0
ENDMDL
