MODEL 1
REMARK VINA RESULT:    -6.156      0.000      0.000
REMARK INTER + INTRA:          -6.156
REMARK INTER:                  -6.156
REMARK INTRA:                   0.000
REMARK UNBOUND:                 0.000
REMARK SMILES CC(C)=C1CC[C@@H](C)CC1=O
REMARK SMILES IDX 8 1 7 2 6 3 5 4 4 5 2 6 1 7 3 8 10 9 11 10 9 11
REMARK H PARENT
REMARK Flexibility Score: inf
ROOT
ATOM      1  C   UNL     1      -7.109  33.753  20.101  1.00  0.00     0.008 C 
ATOM      2  C   UNL     1      -7.895  33.981  21.397  1.00  0.00    -0.006 C 
ATOM      3  C   UNL     1      -7.471  35.300  22.062  1.00  0.00     0.008 C 
ATOM      4  C   UNL     1      -8.318  35.594  23.307  1.00  0.00     0.039 C 
ATOM      5  C   UNL     1      -8.344  34.428  24.285  1.00  0.00    -0.006 C 
ATOM      6  C   UNL     1      -8.448  34.634  25.632  1.00  0.00    -0.070 C 
ATOM      7  C   UNL     1      -8.416  33.487  26.616  1.00  0.00     0.039 C 
ATOM      8  C   UNL     1      -8.558  36.028  26.206  1.00  0.00     0.039 C 
ATOM      9  C   UNL     1      -8.368  33.064  23.679  1.00  0.00     0.159 C 
ATOM     10  O   UNL     1      -8.964  32.107  24.242  1.00  0.00    -0.295 OA
ATOM     11  C   UNL     1      -7.681  32.811  22.369  1.00  0.00     0.084 C 
ENDROOT
TORSDOF 0
ENDMDL
MODEL 2
REMARK VINA RESULT:    -6.124      1.814      4.608
REMARK INTER + INTRA:          -6.124
REMARK INTER:                  -6.124
REMARK INTRA:                   0.000
REMARK UNBOUND:                 0.000
REMARK SMILES CC(C)=C1CC[C@@H](C)CC1=O
REMARK SMILES IDX 8 1 7 2 6 3 5 4 4 5 2 6 1 7 3 8 10 9 11 10 9 11
REMARK H PARENT
REMARK Flexibility Score: inf
ROOT
ATOM      1  C   UNL     1      -8.336  34.914  26.637  1.00  0.00     0.008 C 
ATOM      2  C   UNL     1      -8.675  34.763  25.149  1.00  0.00    -0.006 C 
ATOM      3  C   UNL     1      -9.078  33.314  24.830  1.00  0.00     0.008 C 
ATOM      4  C   UNL     1      -9.518  33.168  23.368  1.00  0.00     0.039 C 
ATOM      5  C   UNL     1      -8.489  33.718  22.390  1.00  0.00    -0.006 C 
ATOM      6  C   UNL     1      -8.327  33.170  21.149  1.00  0.00    -0.070 C 
ATOM      7  C   UNL     1      -7.269  33.670  20.191  1.00  0.00     0.039 C 
ATOM      8  C   UNL     1      -9.175  32.007  20.688  1.00  0.00     0.039 C 
ATOM      9  C   UNL     1      -7.762  34.947  22.825  1.00  0.00     0.159 C 
ATOM     10  O   UNL     1      -7.381  35.812  21.991  1.00  0.00    -0.295 OA
ATOM     11  C   UNL     1      -7.479  35.178  24.280  1.00  0.00     0.084 C 
ENDROOT
TORSDOF 0
ENDMDL
MODEL 3
REMARK VINA RESULT:    -6.092      2.197      3.665
REMARK INTER + INTRA:          -6.092
REMARK INTER:                  -6.092
REMARK INTRA:                   0.000
REMARK UNBOUND:                 0.000
REMARK SMILES CC(C)=C1CC[C@@H](C)CC1=O
REMARK SMILES IDX 8 1 7 2 6 3 5 4 4 5 2 6 1 7 3 8 10 9 11 10 9 11
REMARK H PARENT
REMARK Flexibility Score: inf
ROOT
ATOM      1  C   UNL     1      -8.625  28.875  22.711  1.00  0.00     0.008 C 
ATOM      2  C   UNL     1      -7.955  30.246  22.862  1.00  0.00    -0.006 C 
ATOM      3  C   UNL     1      -8.440  30.948  24.140  1.00  0.00     0.008 C 
ATOM      4  C   UNL     1      -7.704  32.276  24.359  1.00  0.00     0.039 C 
ATOM      5  C   UNL     1      -7.758  33.183  23.137  1.00  0.00    -0.006 C 
ATOM      6  C   UNL     1      -7.772  34.543  23.263  1.00  0.00    -0.070 C 
ATOM      7  C   UNL     1      -7.884  35.452  22.061  1.00  0.00     0.039 C 
ATOM      8  C   UNL     1      -7.716  35.205  24.621  1.00  0.00     0.039 C 
ATOM      9  C   UNL     1      -7.678  32.502  21.811  1.00  0.00     0.159 C 
ATOM     10  O   UNL     1      -7.129  33.057  20.822  1.00  0.00    -0.295 OA
ATOM     11  C   UNL     1      -8.249  31.125  21.637  1.00  0.00     0.084 C 
ENDROOT
TORSDOF 0
ENDMDL
MODEL 4
REMARK VINA RESULT:    -6.058      2.208      3.624
REMARK INTER + INTRA:          -6.058
REMARK INTER:                  -6.058
REMARK INTRA:                   0.000
REMARK UNBOUND:                 0.000
REMARK SMILES CC(C)=C1CC[C@@H](C)CC1=O
REMARK SMILES IDX 8 1 7 2 6 3 5 4 4 5 2 6 1 7 3 8 10 9 11 10 9 11
REMARK H PARENT
REMARK Flexibility Score: inf
ROOT
ATOM      1  C   UNL     1      -7.487  35.631  21.978  1.00  0.00     0.008 C 
ATOM      2  C   UNL     1      -8.198  34.344  22.409  1.00  0.00    -0.006 C 
ATOM      3  C   UNL     1      -7.762  33.932  23.824  1.00  0.00     0.008 C 
ATOM      4  C   UNL     1      -8.539  32.702  24.311  1.00  0.00     0.039 C 
ATOM      5  C   UNL     1      -8.483  31.546  23.322  1.00  0.00    -0.006 C 
ATOM      6  C   UNL     1      -8.510  30.248  23.747  1.00  0.00    -0.070 C 
ATOM      7  C   UNL     1      -8.396  29.092  22.779  1.00  0.00     0.039 C 
ATOM      8  C   UNL     1      -8.614  29.905  25.215  1.00  0.00     0.039 C 
ATOM      9  C   UNL     1      -8.515  31.917  21.877  1.00  0.00     0.159 C 
ATOM     10  O   UNL     1      -9.057  31.168  21.020  1.00  0.00    -0.295 OA
ATOM     11  C   UNL     1      -7.902  33.208  21.418  1.00  0.00     0.084 C 
ENDROOT
TORSDOF 0
ENDMDL
MODEL 5
REMARK VINA RESULT:    -6.013      1.769      3.220
REMARK INTER + INTRA:          -6.013
REMARK INTER:                  -6.013
REMARK INTRA:                   0.000
REMARK UNBOUND:                 0.000
REMARK SMILES CC(C)=C1CC[C@@H](C)CC1=O
REMARK SMILES IDX 8 1 7 2 6 3 5 4 4 5 2 6 1 7 3 8 10 9 11 10 9 11
REMARK H PARENT
REMARK Flexibility Score: inf
ROOT
ATOM      1  C   UNL     1      -7.878  28.990  22.950  1.00  0.00     0.008 C 
ATOM      2  C   UNL     1      -8.319  30.458  22.966  1.00  0.00    -0.006 C 
ATOM      3  C   UNL     1      -7.477  31.287  21.983  1.00  0.00     0.008 C 
ATOM      4  C   UNL     1      -7.973  32.737  21.911  1.00  0.00     0.039 C 
ATOM      5  C   UNL     1      -8.078  33.387  23.284  1.00  0.00    -0.006 C 
ATOM      6  C   UNL     1      -7.865  34.726  23.453  1.00  0.00    -0.070 C 
ATOM      7  C   UNL     1      -7.910  35.373  24.818  1.00  0.00     0.039 C 
ATOM      8  C   UNL     1      -7.533  35.621  22.281  1.00  0.00     0.039 C 
ATOM      9  C   UNL     1      -8.537  32.503  24.395  1.00  0.00     0.159 C 
ATOM     10  O   UNL     1      -9.218  32.955  25.354  1.00  0.00    -0.295 OA
ATOM     11  C   UNL     1      -8.198  31.041  24.382  1.00  0.00     0.084 C 
ENDROOT
TORSDOF 0
ENDMDL
MODEL 6
REMARK VINA RESULT:    -5.984      2.138      3.761
REMARK INTER + INTRA:          -5.984
REMARK INTER:                  -5.984
REMARK INTRA:                   0.000
REMARK UNBOUND:                 0.000
REMARK SMILES CC(C)=C1CC[C@@H](C)CC1=O
REMARK SMILES IDX 8 1 7 2 6 3 5 4 4 5 2 6 1 7 3 8 10 9 11 10 9 11
REMARK H PARENT
REMARK Flexibility Score: inf
ROOT
ATOM      1  C   UNL     1      -7.872  35.501  22.062  1.00  0.00     0.008 C 
ATOM      2  C   UNL     1      -7.582  34.104  22.624  1.00  0.00    -0.006 C 
ATOM      3  C   UNL     1      -7.851  33.026  21.562  1.00  0.00     0.008 C 
ATOM      4  C   UNL     1      -7.470  31.632  22.075  1.00  0.00     0.039 C 
ATOM      5  C   UNL     1      -8.115  31.305  23.415  1.00  0.00    -0.006 C 
ATOM      6  C   UNL     1      -8.459  30.024  23.743  1.00  0.00    -0.070 C 
ATOM      7  C   UNL     1      -9.152  29.696  25.045  1.00  0.00     0.039 C 
ATOM      8  C   UNL     1      -8.196  28.875  22.797  1.00  0.00     0.039 C 
ATOM      9  C   UNL     1      -8.238  32.440  24.377  1.00  0.00     0.159 C 
ATOM     10  O   UNL     1      -8.167  32.253  25.621  1.00  0.00    -0.295 OA
ATOM     11  C   UNL     1      -8.441  33.837  23.870  1.00  0.00     0.084 C 
ENDROOT
TORSDOF 0
ENDMDL
MODEL 7
REMARK VINA RESULT:    -5.891      1.698      4.336
REMARK INTER + INTRA:          -5.891
REMARK INTER:                  -5.891
REMARK INTRA:                   0.000
REMARK UNBOUND:                 0.000
REMARK SMILES CC(C)=C1CC[C@@H](C)CC1=O
REMARK SMILES IDX 8 1 7 2 6 3 5 4 4 5 2 6 1 7 3 8 10 9 11 10 9 11
REMARK H PARENT
REMARK Flexibility Score: inf
ROOT
ATOM      1  C   UNL     1      -8.228  30.019  25.474  1.00  0.00     0.008 C 
ATOM      2  C   UNL     1      -8.497  31.036  24.359  1.00  0.00    -0.006 C 
ATOM      3  C   UNL     1      -7.573  30.779  23.157  1.00  0.00     0.008 C 
ATOM      4  C   UNL     1      -7.897  31.723  21.993  1.00  0.00     0.039 C 
ATOM      5  C   UNL     1      -7.914  33.186  22.415  1.00  0.00    -0.006 C 
ATOM      6  C   UNL     1      -7.546  34.178  21.550  1.00  0.00    -0.070 C 
ATOM      7  C   UNL     1      -7.504  35.628  21.975  1.00  0.00     0.039 C 
ATOM      8  C   UNL     1      -7.123  33.866  20.133  1.00  0.00     0.039 C 
ATOM      9  C   UNL     1      -8.463  33.471  23.773  1.00  0.00     0.159 C 
ATOM     10  O   UNL     1      -9.078  34.543  24.020  1.00  0.00    -0.295 OA
ATOM     11  C   UNL     1      -8.296  32.468  24.877  1.00  0.00     0.084 C 
ENDROOT
TORSDOF 0
ENDMDL
MODEL 8
REMARK VINA RESULT:    -5.767      0.980      4.016
REMARK INTER + INTRA:          -5.767
REMARK INTER:                  -5.767
REMARK INTRA:                   0.000
REMARK UNBOUND:                 0.000
REMARK SMILES CC(C)=C1CC[C@@H](C)CC1=O
REMARK SMILES IDX 8 1 7 2 6 3 5 4 4 5 2 6 1 7 3 8 10 9 11 10 9 11
REMARK H PARENT
REMARK Flexibility Score: inf
ROOT
ATOM      1  C   UNL     1      -8.616  35.786  26.491  1.00  0.00     0.008 C 
ATOM      2  C   UNL     1      -7.971  34.936  25.390  1.00  0.00    -0.006 C 
ATOM      3  C   UNL     1      -8.136  35.610  24.018  1.00  0.00     0.008 C 
ATOM      4  C   UNL     1      -7.408  34.823  22.920  1.00  0.00     0.039 C 
ATOM      5  C   UNL     1      -7.800  33.352  22.899  1.00  0.00    -0.006 C 
ATOM      6  C   UNL     1      -7.822  32.641  21.733  1.00  0.00    -0.070 C 
ATOM      7  C   UNL     1      -8.264  31.196  21.691  1.00  0.00     0.039 C 
ATOM      8  C   UNL     1      -7.442  33.281  20.417  1.00  0.00     0.039 C 
ATOM      9  C   UNL     1      -8.039  32.718  24.229  1.00  0.00     0.159 C 
ATOM     10  O   UNL     1      -7.777  31.502  24.431  1.00  0.00    -0.295 OA
ATOM     11  C   UNL     1      -8.594  33.532  25.362  1.00  0.00     0.084 C 
ENDROOT
TORSDOF 0
ENDMDL
MODEL 9
REMARK VINA RESULT:    -5.707      1.704      4.115
REMARK INTER + INTRA:          -5.707
REMARK INTER:                  -5.707
REMARK INTRA:                   0.000
REMARK UNBOUND:                 0.000
REMARK SMILES CC(C)=C1CC[C@@H](C)CC1=O
REMARK SMILES IDX 8 1 7 2 6 3 5 4 4 5 2 6 1 7 3 8 10 9 11 10 9 11
REMARK H PARENT
REMARK Flexibility Score: inf
ROOT
ATOM      1  C   UNL     1      -9.193  30.772  26.273  1.00  0.00     0.008 C 
ATOM      2  C   UNL     1      -8.351  31.612  25.305  1.00  0.00    -0.006 C 
ATOM      3  C   UNL     1      -8.849  33.067  25.278  1.00  0.00     0.008 C 
ATOM      4  C   UNL     1      -7.955  33.944  24.392  1.00  0.00     0.039 C 
ATOM      5  C   UNL     1      -7.765  33.365  22.997  1.00  0.00    -0.006 C 
ATOM      6  C   UNL     1      -7.597  34.174  21.910  1.00  0.00    -0.070 C 
ATOM      7  C   UNL     1      -7.466  33.613  20.513  1.00  0.00     0.039 C 
ATOM      8  C   UNL     1      -7.575  35.680  22.049  1.00  0.00     0.039 C 
ATOM      9  C   UNL     1      -7.659  31.878  22.913  1.00  0.00     0.159 C 
ATOM     10  O   UNL     1      -6.946  31.321  22.036  1.00  0.00    -0.295 OA
ATOM     11  C   UNL     1      -8.401  31.015  23.891  1.00  0.00     0.084 C 
ENDROOT
TORSDOF 0
ENDMDL
