MODEL 1
REMARK VINA RESULT:    -6.046      0.000      0.000
REMARK INTER + INTRA:          -7.646
REMARK INTER:                  -7.107
REMARK INTRA:                  -0.539
REMARK UNBOUND:                -0.539
REMARK SMILES C=C(C)[C@H]1CC[C@@]2(CO)CC[C@@]3(C)[C@H](CC[C@@H]4[C@]5(C)CC[C@H](O)C(C)(C)[C@@H]5CC[C@@]43C)[C@H]12
REMARK SMILES IDX 4 1 5 2 6 3 7 4 32 5 14 6 15 7 16 8 17 9 18 10 20 11 21 12
REMARK SMILES IDX 22 13 24 14 27 15 28 16 29 17 30 18 12 19 11 20 10 21 13 22
REMARK SMILES IDX 31 23 25 24 26 25 19 26 2 27 3 28 1 29 8 30 9 31 23 33
REMARK H PARENT 9 32 23 34
REMARK Flexibility Score: inf
ROOT
ATOM      1  C   UNL     1      -7.466  91.792 -14.185  1.00  0.00     0.018 C 
ATOM      2  C   UNL     1      -6.925  92.900 -15.115  1.00  0.00     0.009 C 
ATOM      3  C   UNL     1      -5.521  93.277 -14.589  1.00  0.00     0.010 C 
ATOM      4  C   UNL     1      -5.108  92.115 -13.651  1.00  0.00    -0.003 C 
ATOM      5  C   UNL     1      -6.485  91.832 -13.007  1.00  0.00     0.008 C 
ATOM      6  C   UNL     1      -6.542  90.770 -11.869  1.00  0.00    -0.000 C 
ATOM      7  C   UNL     1      -6.360  89.349 -12.399  1.00  0.00     0.005 C 
ATOM      8  C   UNL     1      -6.522  88.344 -11.289  1.00  0.00     0.005 C 
ATOM      9  C   UNL     1      -5.395  88.465 -10.218  1.00  0.00     0.002 C 
ATOM     10  C   UNL     1      -5.423  87.239  -9.168  1.00  0.00    -0.026 C 
ATOM     11  C   UNL     1      -5.464  85.823  -9.889  1.00  0.00     0.010 C 
ATOM     12  C   UNL     1      -6.485  84.848  -9.305  1.00  0.00     0.033 C 
ATOM     13  C   UNL     1      -7.886  85.459  -9.292  1.00  0.00     0.120 C 
ATOM     14  C   UNL     1      -7.986  86.634  -8.263  1.00  0.00    -0.006 C 
ATOM     15  C   UNL     1      -6.585  87.406  -8.086  1.00  0.00     0.003 C 
ATOM     16  C   UNL     1      -6.698  88.855  -7.542  1.00  0.00     0.005 C 
ATOM     17  C   UNL     1      -6.660  89.971  -8.604  1.00  0.00     0.008 C 
ATOM     18  C   UNL     1      -5.428  89.933  -9.578  1.00  0.00    -0.024 C 
ATOM     19  C   UNL     1      -5.531  91.125 -10.704  1.00  0.00    -0.024 C 
ATOM     20  C   UNL     1      -4.124  91.455 -11.362  1.00  0.00     0.008 C 
ATOM     21  C   UNL     1      -4.130  92.498 -12.523  1.00  0.00     0.010 C 
ATOM     22  C   UNL     1      -6.037  92.441 -10.005  1.00  0.00     0.012 C 
ATOM     23  C   UNL     1      -4.130  90.213  -8.739  1.00  0.00     0.012 C 
ATOM     24  C   UNL     1      -8.372  86.011  -6.885  1.00  0.00     0.014 C 
ATOM     25  C   UNL     1      -9.198  87.542  -8.631  1.00  0.00     0.014 C 
ATOM     26  C   UNL     1      -4.057  87.186  -8.391  1.00  0.00     0.012 C 
ENDROOT
BRANCH   1  27
ATOM     27  C   UNL     1      -8.953  91.969 -13.877  1.00  0.00    -0.077 C 
ATOM     28  C   UNL     1      -9.777  90.737 -13.598  1.00  0.00     0.039 C 
ATOM     29  C   UNL     1      -9.595  93.151 -13.949  1.00  0.00     0.008 C 
ENDBRANCH   1  27
BRANCH   4  30
ATOM     30  C   UNL     1      -4.470  90.971 -14.522  1.00  0.00     0.163 C 
BRANCH  30  31
ATOM     31  O   UNL     1      -3.082  91.153 -14.673  1.00  0.00    -0.396 OA
ATOM     32  H   UNL     1      -2.893  91.210 -15.648  1.00  0.00     0.210 HD
ENDBRANCH  30  31
ENDBRANCH   4  30
BRANCH  13  33
ATOM     33  O   UNL     1      -8.214  85.879 -10.594  1.00  0.00    -0.393 OA
ATOM     34  H   UNL     1      -7.828  85.222 -11.233  1.00  0.00     0.210 HD
ENDBRANCH  13  33
TORSDOF 4
ENDMDL
MODEL 2
REMARK VINA RESULT:    -5.919      3.346      7.162
REMARK INTER + INTRA:          -7.495
REMARK INTER:                  -6.959
REMARK INTRA:                  -0.536
REMARK UNBOUND:                -0.539
REMARK SMILES C=C(C)[C@H]1CC[C@@]2(CO)CC[C@@]3(C)[C@H](CC[C@@H]4[C@]5(C)CC[C@H](O)C(C)(C)[C@@H]5CC[C@@]43C)[C@H]12
REMARK SMILES IDX 4 1 5 2 6 3 7 4 32 5 14 6 15 7 16 8 17 9 18 10 20 11 21 12
REMARK SMILES IDX 22 13 24 14 27 15 28 16 29 17 30 18 12 19 11 20 10 21 13 22
REMARK SMILES IDX 31 23 25 24 26 25 19 26 2 27 3 28 1 29 8 30 9 31 23 33
REMARK H PARENT 9 32 23 34
REMARK Flexibility Score: inf
ROOT
ATOM      1  C   UNL     1      -5.226  95.241  -9.024  1.00  0.00     0.018 C 
ATOM      2  C   UNL     1      -5.223  95.241  -7.480  1.00  0.00     0.009 C 
ATOM      3  C   UNL     1      -5.562  93.800  -7.034  1.00  0.00     0.010 C 
ATOM      4  C   UNL     1      -5.337  92.919  -8.289  1.00  0.00    -0.003 C 
ATOM      5  C   UNL     1      -5.876  93.894  -9.361  1.00  0.00     0.008 C 
ATOM      6  C   UNL     1      -5.956  93.377 -10.827  1.00  0.00    -0.000 C 
ATOM      7  C   UNL     1      -4.575  93.243 -11.466  1.00  0.00     0.005 C 
ATOM      8  C   UNL     1      -4.697  92.840 -12.912  1.00  0.00     0.005 C 
ATOM      9  C   UNL     1      -5.297  91.410 -13.075  1.00  0.00     0.002 C 
ATOM     10  C   UNL     1      -5.198  90.881 -14.597  1.00  0.00    -0.026 C 
ATOM     11  C   UNL     1      -3.733  91.025 -15.196  1.00  0.00     0.010 C 
ATOM     12  C   UNL     1      -3.682  91.615 -16.605  1.00  0.00     0.033 C 
ATOM     13  C   UNL     1      -4.397  92.964 -16.663  1.00  0.00     0.120 C 
ATOM     14  C   UNL     1      -5.941  92.800 -16.472  1.00  0.00    -0.006 C 
ATOM     15  C   UNL     1      -6.307  91.545 -15.534  1.00  0.00     0.003 C 
ATOM     16  C   UNL     1      -7.703  91.613 -14.860  1.00  0.00     0.005 C 
ATOM     17  C   UNL     1      -7.717  92.125 -13.406  1.00  0.00     0.008 C 
ATOM     18  C   UNL     1      -6.758  91.371 -12.417  1.00  0.00    -0.024 C 
ATOM     19  C   UNL     1      -6.807  92.045 -10.919  1.00  0.00    -0.024 C 
ATOM     20  C   UNL     1      -6.285  91.054  -9.795  1.00  0.00     0.008 C 
ATOM     21  C   UNL     1      -6.188  91.634  -8.349  1.00  0.00     0.010 C 
ATOM     22  C   UNL     1      -8.301  92.398 -10.571  1.00  0.00     0.012 C 
ATOM     23  C   UNL     1      -7.269  89.894 -12.266  1.00  0.00     0.012 C 
ATOM     24  C   UNL     1      -6.557  92.545 -17.884  1.00  0.00     0.014 C 
ATOM     25  C   UNL     1      -6.555  94.161 -16.023  1.00  0.00     0.014 C 
ATOM     26  C   UNL     1      -5.425  89.325 -14.625  1.00  0.00     0.012 C 
ENDROOT
BRANCH   1  27
ATOM     27  C   UNL     1      -5.867  96.503  -9.602  1.00  0.00    -0.077 C 
ATOM     28  C   UNL     1      -5.398  96.990 -10.951  1.00  0.00     0.039 C 
ATOM     29  C   UNL     1      -6.748  97.268  -8.929  1.00  0.00     0.008 C 
ENDBRANCH   1  27
BRANCH   4  30
ATOM     30  C   UNL     1      -3.814  92.533  -8.364  1.00  0.00     0.163 C 
BRANCH  30  31
ATOM     31  O   UNL     1      -3.549  91.345  -7.657  1.00  0.00    -0.396 OA
ATOM     32  H   UNL     1      -4.133  90.635  -8.038  1.00  0.00     0.210 HD
ENDBRANCH  30  31
ENDBRANCH   4  30
BRANCH  13  33
ATOM     33  O   UNL     1      -3.841  93.818 -15.693  1.00  0.00    -0.393 OA
ATOM     34  H   UNL     1      -3.759  93.306 -14.846  1.00  0.00     0.210 HD
ENDBRANCH  13  33
TORSDOF 4
ENDMDL
MODEL 3
REMARK VINA RESULT:    -5.678      1.462      7.228
REMARK INTER + INTRA:          -7.212
REMARK INTER:                  -6.680
REMARK INTRA:                  -0.532
REMARK UNBOUND:                -0.539
REMARK SMILES C=C(C)[C@H]1CC[C@@]2(CO)CC[C@@]3(C)[C@H](CC[C@@H]4[C@]5(C)CC[C@H](O)C(C)(C)[C@@H]5CC[C@@]43C)[C@H]12
REMARK SMILES IDX 4 1 5 2 6 3 7 4 32 5 14 6 15 7 16 8 17 9 18 10 20 11 21 12
REMARK SMILES IDX 22 13 24 14 27 15 28 16 29 17 30 18 12 19 11 20 10 21 13 22
REMARK SMILES IDX 31 23 25 24 26 25 19 26 2 27 3 28 1 29 8 30 9 31 23 33
REMARK H PARENT 9 32 23 34
REMARK Flexibility Score: inf
ROOT
ATOM      1  C   UNL     1      -6.635  86.508  -9.353  1.00  0.00     0.018 C 
ATOM      2  C   UNL     1      -7.250  85.947  -8.052  1.00  0.00     0.009 C 
ATOM      3  C   UNL     1      -7.872  87.146  -7.299  1.00  0.00     0.010 C 
ATOM      4  C   UNL     1      -7.981  88.279  -8.352  1.00  0.00    -0.003 C 
ATOM      5  C   UNL     1      -6.659  88.022  -9.111  1.00  0.00     0.008 C 
ATOM      6  C   UNL     1      -6.269  89.028 -10.234  1.00  0.00    -0.000 C 
ATOM      7  C   UNL     1      -7.152  88.880 -11.471  1.00  0.00     0.005 C 
ATOM      8  C   UNL     1      -6.682  89.796 -12.571  1.00  0.00     0.005 C 
ATOM      9  C   UNL     1      -6.854  91.299 -12.197  1.00  0.00     0.002 C 
ATOM     10  C   UNL     1      -6.586  92.271 -13.458  1.00  0.00    -0.026 C 
ATOM     11  C   UNL     1      -7.414  91.839 -14.744  1.00  0.00     0.010 C 
ATOM     12  C   UNL     1      -6.605  91.826 -16.041  1.00  0.00     0.033 C 
ATOM     13  C   UNL     1      -5.365  90.943 -15.906  1.00  0.00     0.120 C 
ATOM     14  C   UNL     1      -4.324  91.568 -14.920  1.00  0.00    -0.006 C 
ATOM     15  C   UNL     1      -5.028  92.438 -13.765  1.00  0.00     0.003 C 
ATOM     16  C   UNL     1      -4.180  92.635 -12.481  1.00  0.00     0.005 C 
ATOM     17  C   UNL     1      -4.494  91.673 -11.319  1.00  0.00     0.008 C 
ATOM     18  C   UNL     1      -6.001  91.618 -10.878  1.00  0.00    -0.024 C 
ATOM     19  C   UNL     1      -6.226  90.512  -9.684  1.00  0.00    -0.024 C 
ATOM     20  C   UNL     1      -7.564  90.769  -8.869  1.00  0.00     0.008 C 
ATOM     21  C   UNL     1      -7.927  89.711  -7.781  1.00  0.00     0.010 C 
ATOM     22  C   UNL     1      -5.032  90.618  -8.663  1.00  0.00     0.012 C 
ATOM     23  C   UNL     1      -6.389  93.017 -10.280  1.00  0.00     0.012 C 
ATOM     24  C   UNL     1      -3.411  92.521 -15.755  1.00  0.00     0.014 C 
ATOM     25  C   UNL     1      -3.358  90.455 -14.413  1.00  0.00     0.014 C 
ATOM     26  C   UNL     1      -7.163  93.701 -13.147  1.00  0.00     0.012 C 
ENDROOT
BRANCH   1  27
ATOM     27  C   UNL     1      -5.289  85.863  -9.683  1.00  0.00    -0.077 C 
ATOM     28  C   UNL     1      -5.284  84.612 -10.525  1.00  0.00     0.039 C 
ATOM     29  C   UNL     1      -4.115  86.283  -9.173  1.00  0.00     0.008 C 
ENDBRANCH   1  27
BRANCH   4  30
ATOM     30  C   UNL     1      -9.322  88.092  -9.152  1.00  0.00     0.163 C 
BRANCH  30  31
ATOM     31  O   UNL     1     -10.362  87.643  -8.316  1.00  0.00    -0.396 OA
ATOM     32  H   UNL     1     -11.221  87.866  -8.763  1.00  0.00     0.210 HD
ENDBRANCH  30  31
ENDBRANCH   4  30
BRANCH  13  33
ATOM     33  O   UNL     1      -5.762  89.656 -15.497  1.00  0.00    -0.393 OA
ATOM     34  H   UNL     1      -5.882  89.674 -14.510  1.00  0.00     0.210 HD
ENDBRANCH  13  33
TORSDOF 4
ENDMDL
MODEL 4
REMARK VINA RESULT:    -5.598      3.669      6.889
REMARK INTER + INTRA:          -7.119
REMARK INTER:                  -6.547
REMARK INTRA:                  -0.572
REMARK UNBOUND:                -0.539
REMARK SMILES C=C(C)[C@H]1CC[C@@]2(CO)CC[C@@]3(C)[C@H](CC[C@@H]4[C@]5(C)CC[C@H](O)C(C)(C)[C@@H]5CC[C@@]43C)[C@H]12
REMARK SMILES IDX 4 1 5 2 6 3 7 4 32 5 14 6 15 7 16 8 17 9 18 10 20 11 21 12
REMARK SMILES IDX 22 13 24 14 27 15 28 16 29 17 30 18 12 19 11 20 10 21 13 22
REMARK SMILES IDX 31 23 25 24 26 25 19 26 2 27 3 28 1 29 8 30 9 31 23 33
REMARK H PARENT 9 32 23 34
REMARK Flexibility Score: inf
ROOT
ATOM      1  C   UNL     1      -6.418  96.944 -17.389  1.00  0.00     0.018 C 
ATOM      2  C   UNL     1      -6.556  97.508 -18.820  1.00  0.00     0.009 C 
ATOM      3  C   UNL     1      -6.481  96.302 -19.784  1.00  0.00     0.010 C 
ATOM      4  C   UNL     1      -6.725  95.053 -18.899  1.00  0.00    -0.003 C 
ATOM      5  C   UNL     1      -5.952  95.504 -17.638  1.00  0.00     0.008 C 
ATOM      6  C   UNL     1      -5.822  94.481 -16.471  1.00  0.00    -0.000 C 
ATOM      7  C   UNL     1      -7.146  94.276 -15.737  1.00  0.00     0.005 C 
ATOM      8  C   UNL     1      -6.960  93.361 -14.554  1.00  0.00     0.005 C 
ATOM      9  C   UNL     1      -6.571  91.914 -14.986  1.00  0.00     0.002 C 
ATOM     10  C   UNL     1      -6.614  90.880 -13.747  1.00  0.00    -0.026 C 
ATOM     11  C   UNL     1      -7.982  90.955 -12.942  1.00  0.00     0.010 C 
ATOM     12  C   UNL     1      -7.819  90.991 -11.423  1.00  0.00     0.033 C 
ATOM     13  C   UNL     1      -6.906  92.139 -10.994  1.00  0.00     0.120 C 
ATOM     14  C   UNL     1      -5.427  91.888 -11.440  1.00  0.00    -0.006 C 
ATOM     15  C   UNL     1      -5.340  91.031 -12.798  1.00  0.00     0.003 C 
ATOM     16  C   UNL     1      -4.014  91.187 -13.590  1.00  0.00     0.005 C 
ATOM     17  C   UNL     1      -4.051  92.189 -14.759  1.00  0.00     0.008 C 
ATOM     18  C   UNL     1      -5.197  91.959 -15.809  1.00  0.00    -0.024 C 
ATOM     19  C   UNL     1      -5.178  93.124 -16.968  1.00  0.00    -0.024 C 
ATOM     20  C   UNL     1      -5.941  92.675 -18.286  1.00  0.00     0.008 C 
ATOM     21  C   UNL     1      -6.076  93.750 -19.409  1.00  0.00     0.010 C 
ATOM     22  C   UNL     1      -3.684  93.413 -17.372  1.00  0.00     0.012 C 
ATOM     23  C   UNL     1      -4.930  90.592 -16.536  1.00  0.00     0.012 C 
ATOM     24  C   UNL     1      -4.735  91.068 -10.305  1.00  0.00     0.014 C 
ATOM     25  C   UNL     1      -4.657  93.243 -11.463  1.00  0.00     0.014 C 
ATOM     26  C   UNL     1      -6.624  89.407 -14.297  1.00  0.00     0.012 C 
ENDROOT
BRANCH   1  27
ATOM     27  C   UNL     1      -5.544  97.829 -16.499  1.00  0.00    -0.077 C 
ATOM     28  C   UNL     1      -5.928  97.984 -15.049  1.00  0.00     0.039 C 
ATOM     29  C   UNL     1      -4.516  98.567 -16.960  1.00  0.00     0.008 C 
ENDBRANCH   1  27
BRANCH   4  30
ATOM     30  C   UNL     1      -8.276  94.836 -18.756  1.00  0.00     0.163 C 
BRANCH  30  31
ATOM     31  O   UNL     1      -8.940  95.051 -19.979  1.00  0.00    -0.396 OA
ATOM     32  H   UNL     1      -8.248  95.078 -20.693  1.00  0.00     0.210 HD
ENDBRANCH  30  31
ENDBRANCH   4  30
BRANCH  13  33
ATOM     33  O   UNL     1      -7.410  93.344 -11.518  1.00  0.00    -0.393 OA
ATOM     34  H   UNL     1      -6.738  94.055 -11.347  1.00  0.00     0.210 HD
ENDBRANCH  13  33
TORSDOF 4
ENDMDL
MODEL 5
REMARK VINA RESULT:    -5.418      3.783      5.244
REMARK INTER + INTRA:          -6.907
REMARK INTER:                  -6.547
REMARK INTRA:                  -0.359
REMARK UNBOUND:                -0.539
REMARK SMILES C=C(C)[C@H]1CC[C@@]2(CO)CC[C@@]3(C)[C@H](CC[C@@H]4[C@]5(C)CC[C@H](O)C(C)(C)[C@@H]5CC[C@@]43C)[C@H]12
REMARK SMILES IDX 4 1 5 2 6 3 7 4 32 5 14 6 15 7 16 8 17 9 18 10 20 11 21 12
REMARK SMILES IDX 22 13 24 14 27 15 28 16 29 17 30 18 12 19 11 20 10 21 13 22
REMARK SMILES IDX 31 23 25 24 26 25 19 26 2 27 3 28 1 29 8 30 9 31 23 33
REMARK H PARENT 9 32 23 34
REMARK Flexibility Score: inf
ROOT
ATOM      1  C   UNL     1      -5.426  92.003 -16.716  1.00  0.00     0.018 C 
ATOM      2  C   UNL     1      -3.943  92.230 -17.084  1.00  0.00     0.009 C 
ATOM      3  C   UNL     1      -3.219  92.649 -15.784  1.00  0.00     0.010 C 
ATOM      4  C   UNL     1      -4.179  92.250 -14.634  1.00  0.00    -0.003 C 
ATOM      5  C   UNL     1      -5.521  92.611 -15.312  1.00  0.00     0.008 C 
ATOM      6  C   UNL     1      -6.816  92.478 -14.457  1.00  0.00    -0.000 C 
ATOM      7  C   UNL     1      -7.192  91.019 -14.208  1.00  0.00     0.005 C 
ATOM      8  C   UNL     1      -8.501  90.928 -13.467  1.00  0.00     0.005 C 
ATOM      9  C   UNL     1      -8.403  91.515 -12.026  1.00  0.00     0.002 C 
ATOM     10  C   UNL     1      -9.722  91.196 -11.151  1.00  0.00    -0.026 C 
ATOM     11  C   UNL     1     -10.114  89.657 -11.184  1.00  0.00     0.010 C 
ATOM     12  C   UNL     1     -11.600  89.389 -11.420  1.00  0.00     0.033 C 
ATOM     13  C   UNL     1     -12.086  90.071 -12.699  1.00  0.00     0.120 C 
ATOM     14  C   UNL     1     -12.091  91.628 -12.548  1.00  0.00    -0.006 C 
ATOM     15  C   UNL     1     -10.944  92.145 -11.545  1.00  0.00     0.003 C 
ATOM     16  C   UNL     1     -10.520  93.625 -11.739  1.00  0.00     0.005 C 
ATOM     17  C   UNL     1      -9.250  93.849 -12.583  1.00  0.00     0.008 C 
ATOM     18  C   UNL     1      -7.978  93.057 -12.111  1.00  0.00    -0.024 C 
ATOM     19  C   UNL     1      -6.710  93.322 -13.122  1.00  0.00    -0.024 C 
ATOM     20  C   UNL     1      -5.316  92.985 -12.441  1.00  0.00     0.008 C 
ATOM     21  C   UNL     1      -4.054  93.098 -13.352  1.00  0.00     0.010 C 
ATOM     22  C   UNL     1      -6.681  94.847 -13.511  1.00  0.00     0.012 C 
ATOM     23  C   UNL     1      -7.555  93.604 -10.700  1.00  0.00     0.012 C 
ATOM     24  C   UNL     1     -13.475  92.030 -11.947  1.00  0.00     0.014 C 
ATOM     25  C   UNL     1     -12.078  92.285 -13.962  1.00  0.00     0.014 C 
ATOM     26  C   UNL     1      -9.408  91.435  -9.629  1.00  0.00     0.012 C 
ENDROOT
BRANCH   1  27
ATOM     27  C   UNL     1      -6.378  92.535 -17.787  1.00  0.00    -0.077 C 
ATOM     28  C   UNL     1      -6.258  91.985 -19.186  1.00  0.00     0.039 C 
ATOM     29  C   UNL     1      -7.243  93.547 -17.580  1.00  0.00     0.008 C 
ENDBRANCH   1  27
BRANCH   4  30
ATOM     30  C   UNL     1      -3.933  90.738 -14.279  1.00  0.00     0.163 C 
BRANCH  30  31
ATOM     31  O   UNL     1      -2.598  90.363 -14.520  1.00  0.00    -0.396 OA
ATOM     32  H   UNL     1      -2.022  90.916 -13.927  1.00  0.00     0.210 HD
ENDBRANCH  30  31
ENDBRANCH   4  30
BRANCH  13  33
ATOM     33  O   UNL     1     -11.278  89.655 -13.774  1.00  0.00    -0.393 OA
ATOM     34  H   UNL     1     -11.253  88.662 -13.770  1.00  0.00     0.210 HD
ENDBRANCH  13  33
TORSDOF 4
ENDMDL
MODEL 6
REMARK VINA RESULT:    -5.385      1.580      2.179
REMARK INTER + INTRA:          -6.869
REMARK INTER:                  -6.456
REMARK INTRA:                  -0.413
REMARK UNBOUND:                -0.539
REMARK SMILES C=C(C)[C@H]1CC[C@@]2(CO)CC[C@@]3(C)[C@H](CC[C@@H]4[C@]5(C)CC[C@H](O)C(C)(C)[C@@H]5CC[C@@]43C)[C@H]12
REMARK SMILES IDX 4 1 5 2 6 3 7 4 32 5 14 6 15 7 16 8 17 9 18 10 20 11 21 12
REMARK SMILES IDX 22 13 24 14 27 15 28 16 29 17 30 18 12 19 11 20 10 21 13 22
REMARK SMILES IDX 31 23 25 24 26 25 19 26 2 27 3 28 1 29 8 30 9 31 23 33
REMARK H PARENT 9 32 23 34
REMARK Flexibility Score: inf
ROOT
ATOM      1  C   UNL     1      -7.419  92.693 -15.386  1.00  0.00     0.018 C 
ATOM      2  C   UNL     1      -6.613  93.302 -16.555  1.00  0.00     0.009 C 
ATOM      3  C   UNL     1      -5.119  93.068 -16.235  1.00  0.00     0.010 C 
ATOM      4  C   UNL     1      -5.101  91.980 -15.131  1.00  0.00    -0.003 C 
ATOM      5  C   UNL     1      -6.340  92.440 -14.328  1.00  0.00     0.008 C 
ATOM      6  C   UNL     1      -6.662  91.679 -13.008  1.00  0.00    -0.000 C 
ATOM      7  C   UNL     1      -7.200  90.274 -13.270  1.00  0.00     0.005 C 
ATOM      8  C   UNL     1      -7.597  89.608 -11.978  1.00  0.00     0.005 C 
ATOM      9  C   UNL     1      -6.370  89.346 -11.052  1.00  0.00     0.002 C 
ATOM     10  C   UNL     1      -6.753  88.417  -9.789  1.00  0.00    -0.026 C 
ATOM     11  C   UNL     1      -7.517  87.092 -10.219  1.00  0.00     0.010 C 
ATOM     12  C   UNL     1      -8.749  86.771  -9.373  1.00  0.00     0.033 C 
ATOM     13  C   UNL     1      -9.726  87.947  -9.356  1.00  0.00     0.120 C 
ATOM     14  C   UNL     1      -9.139  89.163  -8.566  1.00  0.00    -0.006 C 
ATOM     15  C   UNL     1      -7.535  89.233  -8.662  1.00  0.00     0.003 C 
ATOM     16  C   UNL     1      -6.921  90.633  -8.397  1.00  0.00     0.005 C 
ATOM     17  C   UNL     1      -6.579  91.460  -9.651  1.00  0.00     0.008 C 
ATOM     18  C   UNL     1      -5.661  90.740 -10.704  1.00  0.00    -0.024 C 
ATOM     19  C   UNL     1      -5.422  91.688 -12.024  1.00  0.00    -0.024 C 
ATOM     20  C   UNL     1      -4.139  91.255 -12.853  1.00  0.00     0.008 C 
ATOM     21  C   UNL     1      -3.883  92.024 -14.186  1.00  0.00     0.010 C 
ATOM     22  C   UNL     1      -5.189  93.171 -11.548  1.00  0.00     0.012 C 
ATOM     23  C   UNL     1      -4.252  90.509 -10.050  1.00  0.00     0.012 C 
ATOM     24  C   UNL     1      -9.526  88.971  -7.065  1.00  0.00     0.014 C 
ATOM     25  C   UNL     1      -9.884  90.465  -8.993  1.00  0.00     0.014 C 
ATOM     26  C   UNL     1      -5.437  87.853  -9.138  1.00  0.00     0.012 C 
ENDROOT
BRANCH   1  27
ATOM     27  C   UNL     1      -8.612  93.564 -14.990  1.00  0.00    -0.077 C 
ATOM     28  C   UNL     1      -8.760  94.915 -15.645  1.00  0.00     0.039 C 
ATOM     29  C   UNL     1      -9.477  93.243 -14.009  1.00  0.00     0.008 C 
ENDBRANCH   1  27
BRANCH   4  30
ATOM     30  C   UNL     1      -5.170  90.567 -15.819  1.00  0.00     0.163 C 
BRANCH  30  31
ATOM     31  O   UNL     1      -4.351  90.512 -16.963  1.00  0.00    -0.396 OA
ATOM     32  H   UNL     1      -3.411  90.421 -16.652  1.00  0.00     0.210 HD
ENDBRANCH  30  31
ENDBRANCH   4  30
BRANCH  13  33
ATOM     33  O   UNL     1     -10.048  88.293 -10.681  1.00  0.00    -0.393 OA
ATOM     34  H   UNL     1     -10.266  87.456 -11.170  1.00  0.00     0.210 HD
ENDBRANCH  13  33
TORSDOF 4
ENDMDL
MODEL 7
REMARK VINA RESULT:    -5.321      3.456      6.267
REMARK INTER + INTRA:          -6.793
REMARK INTER:                  -6.187
REMARK INTRA:                  -0.606
REMARK UNBOUND:                -0.539
REMARK SMILES C=C(C)[C@H]1CC[C@@]2(CO)CC[C@@]3(C)[C@H](CC[C@@H]4[C@]5(C)CC[C@H](O)C(C)(C)[C@@H]5CC[C@@]43C)[C@H]12
REMARK SMILES IDX 4 1 5 2 6 3 7 4 32 5 14 6 15 7 16 8 17 9 18 10 20 11 21 12
REMARK SMILES IDX 22 13 24 14 27 15 28 16 29 17 30 18 12 19 11 20 10 21 13 22
REMARK SMILES IDX 31 23 25 24 26 25 19 26 2 27 3 28 1 29 8 30 9 31 23 33
REMARK H PARENT 9 32 23 34
REMARK Flexibility Score: inf
ROOT
ATOM      1  C   UNL     1     -11.572  93.175 -12.817  1.00  0.00     0.018 C 
ATOM      2  C   UNL     1     -12.745  92.489 -13.552  1.00  0.00     0.009 C 
ATOM      3  C   UNL     1     -12.246  91.088 -13.977  1.00  0.00     0.010 C 
ATOM      4  C   UNL     1     -10.975  90.831 -13.129  1.00  0.00    -0.003 C 
ATOM      5  C   UNL     1     -10.386  92.260 -13.147  1.00  0.00     0.008 C 
ATOM      6  C   UNL     1      -8.992  92.471 -12.486  1.00  0.00    -0.000 C 
ATOM      7  C   UNL     1      -9.059  92.384 -10.962  1.00  0.00     0.005 C 
ATOM      8  C   UNL     1      -7.716  92.694 -10.354  1.00  0.00     0.005 C 
ATOM      9  C   UNL     1      -6.645  91.621 -10.719  1.00  0.00     0.002 C 
ATOM     10  C   UNL     1      -5.282  91.814  -9.874  1.00  0.00    -0.026 C 
ATOM     11  C   UNL     1      -5.549  91.938  -8.312  1.00  0.00     0.010 C 
ATOM     12  C   UNL     1      -4.784  93.071  -7.629  1.00  0.00     0.033 C 
ATOM     13  C   UNL     1      -5.064  94.411  -8.307  1.00  0.00     0.120 C 
ATOM     14  C   UNL     1      -4.443  94.465  -9.742  1.00  0.00    -0.006 C 
ATOM     15  C   UNL     1      -4.394  93.015 -10.437  1.00  0.00     0.003 C 
ATOM     16  C   UNL     1      -4.317  93.031 -11.987  1.00  0.00     0.005 C 
ATOM     17  C   UNL     1      -5.656  92.838 -12.724  1.00  0.00     0.008 C 
ATOM     18  C   UNL     1      -6.475  91.563 -12.311  1.00  0.00    -0.024 C 
ATOM     19  C   UNL     1      -7.910  91.499 -13.110  1.00  0.00    -0.024 C 
ATOM     20  C   UNL     1      -8.524  90.035 -13.131  1.00  0.00     0.008 C 
ATOM     21  C   UNL     1      -9.939  89.886 -13.771  1.00  0.00     0.010 C 
ATOM     22  C   UNL     1      -7.677  91.927 -14.606  1.00  0.00     0.012 C 
ATOM     23  C   UNL     1      -5.658  90.293 -12.745  1.00  0.00     0.012 C 
ATOM     24  C   UNL     1      -2.976  94.979  -9.593  1.00  0.00     0.014 C 
ATOM     25  C   UNL     1      -5.158  95.573 -10.575  1.00  0.00     0.014 C 
ATOM     26  C   UNL     1      -4.420  90.502  -9.968  1.00  0.00     0.012 C 
ENDROOT
BRANCH   1  27
ATOM     27  C   UNL     1     -11.449  94.655 -13.177  1.00  0.00    -0.077 C 
ATOM     28  C   UNL     1     -11.120  95.019 -14.603  1.00  0.00     0.039 C 
ATOM     29  C   UNL     1     -11.507  95.651 -12.272  1.00  0.00     0.008 C 
ENDBRANCH   1  27
BRANCH   4  30
ATOM     30  C   UNL     1     -11.413  90.247 -11.735  1.00  0.00     0.163 C 
BRANCH  30  31
ATOM     31  O   UNL     1     -11.852  88.914 -11.851  1.00  0.00    -0.396 OA
ATOM     32  H   UNL     1     -11.122  88.330 -11.514  1.00  0.00     0.210 HD
ENDBRANCH  30  31
ENDBRANCH   4  30
BRANCH  13  33
ATOM     33  O   UNL     1      -6.454  94.629  -8.333  1.00  0.00    -0.393 OA
ATOM     34  H   UNL     1      -6.854  93.971  -8.960  1.00  0.00     0.210 HD
ENDBRANCH  13  33
TORSDOF 4
ENDMDL
MODEL 8
REMARK VINA RESULT:    -5.261      3.724      5.867
REMARK INTER + INTRA:          -6.722
REMARK INTER:                  -6.409
REMARK INTRA:                  -0.313
REMARK UNBOUND:                -0.539
REMARK SMILES C=C(C)[C@H]1CC[C@@]2(CO)CC[C@@]3(C)[C@H](CC[C@@H]4[C@]5(C)CC[C@H](O)C(C)(C)[C@@H]5CC[C@@]43C)[C@H]12
REMARK SMILES IDX 4 1 5 2 6 3 7 4 32 5 14 6 15 7 16 8 17 9 18 10 20 11 21 12
REMARK SMILES IDX 22 13 24 14 27 15 28 16 29 17 30 18 12 19 11 20 10 21 13 22
REMARK SMILES IDX 31 23 25 24 26 25 19 26 2 27 3 28 1 29 8 30 9 31 23 33
REMARK H PARENT 9 32 23 34
REMARK Flexibility Score: inf
ROOT
ATOM      1  C   UNL     1      -5.778  95.498 -17.484  1.00  0.00     0.018 C 
ATOM      2  C   UNL     1      -5.000  95.668 -18.807  1.00  0.00     0.009 C 
ATOM      3  C   UNL     1      -4.352  94.300 -19.123  1.00  0.00     0.010 C 
ATOM      4  C   UNL     1      -5.099  93.277 -18.230  1.00  0.00    -0.003 C 
ATOM      5  C   UNL     1      -5.267  94.149 -16.964  1.00  0.00     0.008 C 
ATOM      6  C   UNL     1      -5.892  93.476 -15.706  1.00  0.00    -0.000 C 
ATOM      7  C   UNL     1      -7.388  93.217 -15.876  1.00  0.00     0.005 C 
ATOM      8  C   UNL     1      -7.977  92.661 -14.606  1.00  0.00     0.005 C 
ATOM      9  C   UNL     1      -7.414  91.248 -14.266  1.00  0.00     0.002 C 
ATOM     10  C   UNL     1      -8.220  90.550 -13.054  1.00  0.00    -0.026 C 
ATOM     11  C   UNL     1      -9.793  90.568 -13.281  1.00  0.00     0.010 C 
ATOM     12  C   UNL     1     -10.602  90.995 -12.057  1.00  0.00     0.033 C 
ATOM     13  C   UNL     1     -10.141  92.358 -11.540  1.00  0.00     0.120 C 
ATOM     14  C   UNL     1      -8.705  92.278 -10.926  1.00  0.00    -0.006 C 
ATOM     15  C   UNL     1      -7.802  91.151 -11.635  1.00  0.00     0.003 C 
ATOM     16  C   UNL     1      -6.270  91.349 -11.492  1.00  0.00     0.005 C 
ATOM     17  C   UNL     1      -5.570  92.019 -12.691  1.00  0.00     0.008 C 
ATOM     18  C   UNL     1      -5.825  91.341 -14.085  1.00  0.00    -0.024 C 
ATOM     19  C   UNL     1      -5.087  92.178 -15.291  1.00  0.00    -0.024 C 
ATOM     20  C   UNL     1      -4.877  91.297 -16.595  1.00  0.00     0.008 C 
ATOM     21  C   UNL     1      -4.282  92.029 -17.838  1.00  0.00     0.010 C 
ATOM     22  C   UNL     1      -3.661  92.627 -14.798  1.00  0.00     0.012 C 
ATOM     23  C   UNL     1      -5.175  89.911 -14.062  1.00  0.00     0.012 C 
ATOM     24  C   UNL     1      -8.866  91.893  -9.421  1.00  0.00     0.014 C 
ATOM     25  C   UNL     1      -8.075  93.704 -10.894  1.00  0.00     0.014 C 
ATOM     26  C   UNL     1      -7.897  89.011 -13.030  1.00  0.00     0.012 C 
ENDROOT
BRANCH   1  27
ATOM     27  C   UNL     1      -5.635  96.713 -16.567  1.00  0.00    -0.077 C 
ATOM     28  C   UNL     1      -6.430  96.739 -15.285  1.00  0.00     0.039 C 
ATOM     29  C   UNL     1      -4.925  97.811 -16.888  1.00  0.00     0.008 C 
ENDBRANCH   1  27
BRANCH   4  30
ATOM     30  C   UNL     1      -6.409  92.824 -18.974  1.00  0.00     0.163 C 
BRANCH  30  31
ATOM     31  O   UNL     1      -6.227  91.593 -19.632  1.00  0.00    -0.396 OA
ATOM     32  H   UNL     1      -5.512  91.722 -20.312  1.00  0.00     0.210 HD
ENDBRANCH  30  31
ENDBRANCH   4  30
BRANCH  13  33
ATOM     33  O   UNL     1     -10.207  93.291 -12.591  1.00  0.00    -0.393 OA
ATOM     34  H   UNL     1     -10.100  92.796 -13.446  1.00  0.00     0.210 HD
ENDBRANCH  13  33
TORSDOF 4
ENDMDL
MODEL 9
REMARK VINA RESULT:    -5.215      4.246      9.589
REMARK INTER + INTRA:          -6.668
REMARK INTER:                  -6.121
REMARK INTRA:                  -0.547
REMARK UNBOUND:                -0.539
REMARK SMILES C=C(C)[C@H]1CC[C@@]2(CO)CC[C@@]3(C)[C@H](CC[C@@H]4[C@]5(C)CC[C@H](O)C(C)(C)[C@@H]5CC[C@@]43C)[C@H]12
REMARK SMILES IDX 4 1 5 2 6 3 7 4 32 5 14 6 15 7 16 8 17 9 18 10 20 11 21 12
REMARK SMILES IDX 22 13 24 14 27 15 28 16 29 17 30 18 12 19 11 20 10 21 13 22
REMARK SMILES IDX 31 23 25 24 26 25 19 26 2 27 3 28 1 29 8 30 9 31 23 33
REMARK H PARENT 9 32 23 34
REMARK Flexibility Score: inf
ROOT
ATOM      1  C   UNL     1      -6.696  91.217 -13.604  1.00  0.00     0.018 C 
ATOM      2  C   UNL     1      -5.494  90.421 -13.049  1.00  0.00     0.009 C 
ATOM      3  C   UNL     1      -4.235  90.954 -13.771  1.00  0.00     0.010 C 
ATOM      4  C   UNL     1      -4.663  92.305 -14.398  1.00  0.00    -0.003 C 
ATOM      5  C   UNL     1      -6.098  91.921 -14.828  1.00  0.00     0.008 C 
ATOM      6  C   UNL     1      -6.912  92.975 -15.635  1.00  0.00    -0.000 C 
ATOM      7  C   UNL     1      -7.354  94.149 -14.764  1.00  0.00     0.005 C 
ATOM      8  C   UNL     1      -8.224  95.095 -15.552  1.00  0.00     0.005 C 
ATOM      9  C   UNL     1      -7.439  95.791 -16.706  1.00  0.00     0.002 C 
ATOM     10  C   UNL     1      -8.294  96.979 -17.388  1.00  0.00    -0.026 C 
ATOM     11  C   UNL     1      -8.881  97.996 -16.317  1.00  0.00     0.010 C 
ATOM     12  C   UNL     1     -10.348  98.363 -16.534  1.00  0.00     0.033 C 
ATOM     13  C   UNL     1     -11.226  97.114 -16.592  1.00  0.00     0.120 C 
ATOM     14  C   UNL     1     -10.942  96.277 -17.883  1.00  0.00    -0.006 C 
ATOM     15  C   UNL     1      -9.416  96.418 -18.374  1.00  0.00     0.003 C 
ATOM     16  C   UNL     1      -8.905  95.260 -19.272  1.00  0.00     0.005 C 
ATOM     17  C   UNL     1      -8.095  94.165 -18.551  1.00  0.00     0.008 C 
ATOM     18  C   UNL     1      -6.872  94.676 -17.707  1.00  0.00    -0.024 C 
ATOM     19  C   UNL     1      -6.129  93.432 -16.932  1.00  0.00    -0.024 C 
ATOM     20  C   UNL     1      -4.643  93.790 -16.505  1.00  0.00     0.008 C 
ATOM     21  C   UNL     1      -3.885  92.715 -15.666  1.00  0.00     0.010 C 
ATOM     22  C   UNL     1      -6.048  92.202 -17.911  1.00  0.00     0.012 C 
ATOM     23  C   UNL     1      -5.817  95.290 -18.695  1.00  0.00     0.012 C 
ATOM     24  C   UNL     1     -11.867  96.836 -19.010  1.00  0.00     0.014 C 
ATOM     25  C   UNL     1     -11.434  94.813 -17.670  1.00  0.00     0.014 C 
ATOM     26  C   UNL     1      -7.333  97.893 -18.233  1.00  0.00     0.012 C 
ENDROOT
BRANCH   1  27
ATOM     27  C   UNL     1      -7.924  90.334 -13.823  1.00  0.00    -0.077 C 
ATOM     28  C   UNL     1      -9.289  90.950 -13.642  1.00  0.00     0.039 C 
ATOM     29  C   UNL     1      -7.859  89.009 -14.060  1.00  0.00     0.008 C 
ENDBRANCH   1  27
BRANCH   4  30
ATOM     30  C   UNL     1      -4.511  93.432 -13.312  1.00  0.00     0.163 C 
BRANCH  30  31
ATOM     31  O   UNL     1      -3.446  93.159 -12.433  1.00  0.00    -0.396 OA
ATOM     32  H   UNL     1      -3.057  94.031 -12.157  1.00  0.00     0.210 HD
ENDBRANCH  30  31
ENDBRANCH   4  30
BRANCH  13  33
ATOM     33  O   UNL     1     -11.020  96.356 -15.425  1.00  0.00    -0.393 OA
ATOM     34  H   UNL     1     -11.044  95.395 -15.677  1.00  0.00     0.210 HD
ENDBRANCH  13  33
TORSDOF 4
ENDMDL
