MODEL 1
REMARK VINA RESULT:    -6.309      0.000      0.000
REMARK INTER + INTRA:          -7.434
REMARK INTER:                  -7.231
REMARK INTRA:                  -0.203
REMARK UNBOUND:                -0.203
REMARK SMILES O=C1C[C@H](c2ccc(O)cc2)Oc2cc(O)cc(O)c21
REMARK SMILES IDX 3 1 4 2 12 3 13 4 14 5 15 6 17 7 18 8 20 9 2 10 1 11 5 12
REMARK SMILES IDX 6 13 11 14 7 15 10 16 8 17 9 18 19 20 16 22
REMARK H PARENT 9 19 19 21 16 23
REMARK Flexibility Score: inf
ROOT
ATOM      1  C   UNL     1       9.568  -7.330 -12.132  1.00  0.00     0.131 C 
ATOM      2  C   UNL     1       8.092  -6.937 -11.933  1.00  0.00     0.211 C 
ATOM      3  O   UNL     1       7.721  -6.949 -10.548  1.00  0.00    -0.484 OA
ATOM      4  C   UNL     1       8.602  -6.646  -9.501  1.00  0.00     0.138 A 
ATOM      5  C   UNL     1       8.101  -6.522  -8.202  1.00  0.00     0.093 A 
ATOM      6  C   UNL     1       8.955  -6.180  -7.145  1.00  0.00     0.123 A 
ATOM      7  C   UNL     1      10.315  -5.972  -7.390  1.00  0.00     0.093 A 
ATOM      8  C   UNL     1      10.835  -6.112  -8.686  1.00  0.00     0.133 A 
ATOM      9  C   UNL     1       9.974  -6.454  -9.751  1.00  0.00     0.102 A 
ATOM     10  C   UNL     1      10.456  -6.644 -11.136  1.00  0.00     0.174 C 
ATOM     11  O   UNL     1      11.615  -6.285 -11.480  1.00  0.00    -0.294 OA
ENDROOT
BRANCH   2  12
ATOM     12  C   UNL     1       7.779  -5.597 -12.575  1.00  0.00    -0.007 A 
ATOM     13  C   UNL     1       7.505  -5.482 -13.951  1.00  0.00     0.011 A 
ATOM     14  C   UNL     1       7.700  -4.448 -11.767  1.00  0.00     0.011 A 
ATOM     15  C   UNL     1       7.181  -4.240 -14.507  1.00  0.00     0.046 A 
ATOM     16  C   UNL     1       7.377  -3.207 -12.327  1.00  0.00     0.046 A 
ATOM     17  C   UNL     1       7.119  -3.101 -13.699  1.00  0.00     0.115 A 
BRANCH  17  18
ATOM     18  O   UNL     1       6.797  -1.870 -14.266  1.00  0.00    -0.508 OA
ATOM     19  H   UNL     1       5.968  -1.748 -14.835  1.00  0.00     0.293 HD
ENDBRANCH  17  18
ENDBRANCH   2  12
BRANCH   8  20
ATOM     20  O   UNL     1      12.199  -5.920  -8.906  1.00  0.00    -0.507 OA
ATOM     21  H   UNL     1      12.883  -6.618  -8.646  1.00  0.00     0.293 HD
ENDBRANCH   8  20
BRANCH   6  22
ATOM     22  O   UNL     1       8.460  -6.042  -5.849  1.00  0.00    -0.508 OA
ATOM     23  H   UNL     1       8.613  -6.756  -5.146  1.00  0.00     0.293 HD
ENDBRANCH   6  22
TORSDOF 4
ENDMDL
MODEL 2
REMARK VINA RESULT:    -6.204      2.874      4.301
REMARK INTER + INTRA:          -7.313
REMARK INTER:                  -6.914
REMARK INTRA:                  -0.400
REMARK UNBOUND:                -0.203
REMARK SMILES O=C1C[C@H](c2ccc(O)cc2)Oc2cc(O)cc(O)c21
REMARK SMILES IDX 3 1 4 2 12 3 13 4 14 5 15 6 17 7 18 8 20 9 2 10 1 11 5 12
REMARK SMILES IDX 6 13 11 14 7 15 10 16 8 17 9 18 19 20 16 22
REMARK H PARENT 9 19 19 21 16 23
REMARK Flexibility Score: inf
ROOT
ATOM      1  C   UNL     1       8.479  -8.021 -11.036  1.00  0.00     0.131 C 
ATOM      2  C   UNL     1       8.959  -6.558 -11.068  1.00  0.00     0.211 C 
ATOM      3  O   UNL     1       8.505  -5.825  -9.922  1.00  0.00    -0.484 OA
ATOM      4  C   UNL     1       8.305  -6.396  -8.658  1.00  0.00     0.138 A 
ATOM      5  C   UNL     1       8.023  -5.565  -7.570  1.00  0.00     0.093 A 
ATOM      6  C   UNL     1       7.859  -6.109  -6.290  1.00  0.00     0.123 A 
ATOM      7  C   UNL     1       7.967  -7.490  -6.101  1.00  0.00     0.093 A 
ATOM      8  C   UNL     1       8.230  -8.338  -7.188  1.00  0.00     0.133 A 
ATOM      9  C   UNL     1       8.398  -7.789  -8.478  1.00  0.00     0.102 A 
ATOM     10  C   UNL     1       8.651  -8.624  -9.673  1.00  0.00     0.174 C 
ATOM     11  O   UNL     1       8.958  -9.842  -9.566  1.00  0.00    -0.294 OA
ENDROOT
BRANCH   2  12
ATOM     12  C   UNL     1      10.467  -6.468 -11.216  1.00  0.00    -0.007 A 
ATOM     13  C   UNL     1      11.231  -7.556 -11.683  1.00  0.00     0.011 A 
ATOM     14  C   UNL     1      11.117  -5.251 -10.939  1.00  0.00     0.011 A 
ATOM     15  C   UNL     1      12.614  -7.431 -11.847  1.00  0.00     0.046 A 
ATOM     16  C   UNL     1      12.500  -5.130 -11.103  1.00  0.00     0.046 A 
ATOM     17  C   UNL     1      13.252  -6.220 -11.556  1.00  0.00     0.115 A 
BRANCH  17  18
ATOM     18  O   UNL     1      14.631  -6.111 -11.722  1.00  0.00    -0.508 OA
ATOM     19  H   UNL     1      15.227  -5.747 -10.987  1.00  0.00     0.293 HD
ENDBRANCH  17  18
ENDBRANCH   2  12
BRANCH   8  20
ATOM     20  O   UNL     1       8.313  -9.715  -6.984  1.00  0.00    -0.507 OA
ATOM     21  H   UNL     1       7.613 -10.218  -6.454  1.00  0.00     0.293 HD
ENDBRANCH   8  20
BRANCH   6  22
ATOM     22  O   UNL     1       7.591  -5.285  -5.197  1.00  0.00    -0.508 OA
ATOM     23  H   UNL     1       7.801  -4.294  -5.218  1.00  0.00     0.293 HD
ENDBRANCH   6  22
TORSDOF 4
ENDMDL
MODEL 3
REMARK VINA RESULT:    -6.088      1.830      6.013
REMARK INTER + INTRA:          -7.180
REMARK INTER:                  -6.857
REMARK INTRA:                  -0.323
REMARK UNBOUND:                -0.203
REMARK SMILES O=C1C[C@H](c2ccc(O)cc2)Oc2cc(O)cc(O)c21
REMARK SMILES IDX 3 1 4 2 12 3 13 4 14 5 15 6 17 7 18 8 20 9 2 10 1 11 5 12
REMARK SMILES IDX 6 13 11 14 7 15 10 16 8 17 9 18 19 20 16 22
REMARK H PARENT 9 19 19 21 16 23
REMARK Flexibility Score: inf
ROOT
ATOM      1  C   UNL     1      10.849  -7.515  -9.782  1.00  0.00     0.131 C 
ATOM      2  C   UNL     1      10.426  -6.387  -8.822  1.00  0.00     0.211 C 
ATOM      3  O   UNL     1       9.858  -5.275  -9.526  1.00  0.00    -0.484 OA
ATOM      4  C   UNL     1       9.131  -5.395 -10.719  1.00  0.00     0.138 A 
ATOM      5  C   UNL     1       8.478  -4.272 -11.235  1.00  0.00     0.093 A 
ATOM      6  C   UNL     1       7.713  -4.376 -12.404  1.00  0.00     0.123 A 
ATOM      7  C   UNL     1       7.612  -5.604 -13.063  1.00  0.00     0.093 A 
ATOM      8  C   UNL     1       8.278  -6.735 -12.566  1.00  0.00     0.133 A 
ATOM      9  C   UNL     1       9.047  -6.631 -11.386  1.00  0.00     0.102 A 
ATOM     10  C   UNL     1       9.797  -7.773 -10.821  1.00  0.00     0.174 C 
ATOM     11  O   UNL     1       9.604  -8.950 -11.230  1.00  0.00    -0.294 OA
ENDROOT
BRANCH   2  12
ATOM     12  C   UNL     1       9.484  -6.896  -7.745  1.00  0.00    -0.007 A 
ATOM     13  C   UNL     1       9.238  -8.271  -7.566  1.00  0.00     0.011 A 
ATOM     14  C   UNL     1       8.887  -5.978  -6.861  1.00  0.00     0.011 A 
ATOM     15  C   UNL     1       8.397  -8.712  -6.539  1.00  0.00     0.046 A 
ATOM     16  C   UNL     1       8.045  -6.422  -5.836  1.00  0.00     0.046 A 
ATOM     17  C   UNL     1       7.797  -7.790  -5.674  1.00  0.00     0.115 A 
BRANCH  17  18
ATOM     18  O   UNL     1       6.959  -8.244  -4.658  1.00  0.00    -0.508 OA
ATOM     19  H   UNL     1       6.881  -7.752  -3.776  1.00  0.00     0.293 HD
ENDBRANCH  17  18
ENDBRANCH   2  12
BRANCH   8  20
ATOM     20  O   UNL     1       8.182  -7.948 -13.248  1.00  0.00    -0.507 OA
ATOM     21  H   UNL     1       8.898  -8.253 -13.896  1.00  0.00     0.293 HD
ENDBRANCH   8  20
BRANCH   6  22
ATOM     22  O   UNL     1       7.047  -3.263 -12.918  1.00  0.00    -0.508 OA
ATOM     23  H   UNL     1       7.010  -2.388 -12.409  1.00  0.00     0.293 HD
ENDBRANCH   6  22
TORSDOF 4
ENDMDL
MODEL 4
REMARK VINA RESULT:    -6.061      2.641      5.491
REMARK INTER + INTRA:          -7.150
REMARK INTER:                  -6.722
REMARK INTRA:                  -0.428
REMARK UNBOUND:                -0.203
REMARK SMILES O=C1C[C@H](c2ccc(O)cc2)Oc2cc(O)cc(O)c21
REMARK SMILES IDX 3 1 4 2 12 3 13 4 14 5 15 6 17 7 18 8 20 9 2 10 1 11 5 12
REMARK SMILES IDX 6 13 11 14 7 15 10 16 8 17 9 18 19 20 16 22
REMARK H PARENT 9 19 19 21 16 23
REMARK Flexibility Score: inf
ROOT
ATOM      1  C   UNL     1       8.401  -6.489 -11.172  1.00  0.00     0.131 C 
ATOM      2  C   UNL     1       8.193  -7.787 -10.368  1.00  0.00     0.211 C 
ATOM      3  O   UNL     1       9.216  -8.753 -10.646  1.00  0.00    -0.484 OA
ATOM      4  C   UNL     1      10.536  -8.419 -10.977  1.00  0.00     0.138 A 
ATOM      5  C   UNL     1      11.495  -9.433 -11.064  1.00  0.00     0.093 A 
ATOM      6  C   UNL     1      12.829  -9.120 -11.354  1.00  0.00     0.123 A 
ATOM      7  C   UNL     1      13.201  -7.790 -11.567  1.00  0.00     0.093 A 
ATOM      8  C   UNL     1      12.246  -6.764 -11.502  1.00  0.00     0.133 A 
ATOM      9  C   UNL     1      10.901  -7.079 -11.207  1.00  0.00     0.102 A 
ATOM     10  C   UNL     1       9.837  -6.054 -11.148  1.00  0.00     0.174 C 
ATOM     11  O   UNL     1      10.114  -4.825 -11.129  1.00  0.00    -0.294 OA
ENDROOT
BRANCH   2  12
ATOM     12  C   UNL     1       8.087  -7.510  -8.879  1.00  0.00    -0.007 A 
ATOM     13  C   UNL     1       8.461  -8.472  -7.920  1.00  0.00     0.011 A 
ATOM     14  C   UNL     1       7.663  -6.242  -8.441  1.00  0.00     0.011 A 
ATOM     15  C   UNL     1       8.390  -8.175  -6.555  1.00  0.00     0.046 A 
ATOM     16  C   UNL     1       7.592  -5.949  -7.076  1.00  0.00     0.046 A 
ATOM     17  C   UNL     1       7.954  -6.915  -6.129  1.00  0.00     0.115 A 
BRANCH  17  18
ATOM     18  O   UNL     1       7.886  -6.634  -4.767  1.00  0.00    -0.508 OA
ATOM     19  H   UNL     1       8.146  -5.727  -4.399  1.00  0.00     0.293 HD
ENDBRANCH  17  18
ENDBRANCH   2  12
BRANCH   8  20
ATOM     20  O   UNL     1      12.632  -5.445 -11.737  1.00  0.00    -0.507 OA
ATOM     21  H   UNL     1      12.454  -4.710 -11.066  1.00  0.00     0.293 HD
ENDBRANCH   8  20
BRANCH   6  22
ATOM     22  O   UNL     1      13.794 -10.125 -11.429  1.00  0.00    -0.508 OA
ATOM     23  H   UNL     1      13.681 -11.004 -10.938  1.00  0.00     0.293 HD
ENDBRANCH   6  22
TORSDOF 4
ENDMDL
MODEL 5
REMARK VINA RESULT:    -5.891      3.586      6.268
REMARK INTER + INTRA:          -6.955
REMARK INTER:                  -6.524
REMARK INTRA:                  -0.430
REMARK UNBOUND:                -0.203
REMARK SMILES O=C1C[C@H](c2ccc(O)cc2)Oc2cc(O)cc(O)c21
REMARK SMILES IDX 3 1 4 2 12 3 13 4 14 5 15 6 17 7 18 8 20 9 2 10 1 11 5 12
REMARK SMILES IDX 6 13 11 14 7 15 10 16 8 17 9 18 19 20 16 22
REMARK H PARENT 9 19 19 21 16 23
REMARK Flexibility Score: inf
ROOT
ATOM      1  C   UNL     1       7.913 -10.006  -9.024  1.00  0.00     0.131 C 
ATOM      2  C   UNL     1       9.251  -9.566  -8.399  1.00  0.00     0.211 C 
ATOM      3  O   UNL     1      10.311  -9.559  -9.364  1.00  0.00    -0.484 OA
ATOM      4  C   UNL     1      10.128  -9.278 -10.725  1.00  0.00     0.138 A 
ATOM      5  C   UNL     1      11.247  -9.133 -11.549  1.00  0.00     0.093 A 
ATOM      6  C   UNL     1      11.090  -8.811 -12.903  1.00  0.00     0.123 A 
ATOM      7  C   UNL     1       9.808  -8.647 -13.435  1.00  0.00     0.093 A 
ATOM      8  C   UNL     1       8.675  -8.810 -12.624  1.00  0.00     0.133 A 
ATOM      9  C   UNL     1       8.833  -9.130 -11.258  1.00  0.00     0.102 A 
ATOM     10  C   UNL     1       7.685  -9.342 -10.351  1.00  0.00     0.174 C 
ATOM     11  O   UNL     1       6.514  -9.022 -10.692  1.00  0.00    -0.294 OA
ENDROOT
BRANCH   2  12
ATOM     12  C   UNL     1       9.128  -8.220  -7.708  1.00  0.00    -0.007 A 
ATOM     13  C   UNL     1       8.066  -7.934  -6.828  1.00  0.00     0.011 A 
ATOM     14  C   UNL     1      10.131  -7.252  -7.899  1.00  0.00     0.011 A 
ATOM     15  C   UNL     1       8.000  -6.700  -6.174  1.00  0.00     0.046 A 
ATOM     16  C   UNL     1      10.062  -6.018  -7.244  1.00  0.00     0.046 A 
ATOM     17  C   UNL     1       8.995  -5.739  -6.382  1.00  0.00     0.115 A 
BRANCH  17  18
ATOM     18  O   UNL     1       8.916  -4.512  -5.726  1.00  0.00    -0.508 OA
ATOM     19  H   UNL     1       8.088  -3.931  -5.785  1.00  0.00     0.293 HD
ENDBRANCH  17  18
ENDBRANCH   2  12
BRANCH   8  20
ATOM     20  O   UNL     1       7.403  -8.662 -13.178  1.00  0.00    -0.507 OA
ATOM     21  H   UNL     1       6.568  -8.687 -12.607  1.00  0.00     0.293 HD
ENDBRANCH   8  20
BRANCH   6  22
ATOM     22  O   UNL     1      12.203  -8.652 -13.729  1.00  0.00    -0.508 OA
ATOM     23  H   UNL     1      13.079  -8.291 -13.370  1.00  0.00     0.293 HD
ENDBRANCH   6  22
TORSDOF 4
ENDMDL
MODEL 6
REMARK VINA RESULT:    -5.880      2.711      4.603
REMARK INTER + INTRA:          -6.943
REMARK INTER:                  -6.600
REMARK INTRA:                  -0.342
REMARK UNBOUND:                -0.203
REMARK SMILES O=C1C[C@H](c2ccc(O)cc2)Oc2cc(O)cc(O)c21
REMARK SMILES IDX 3 1 4 2 12 3 13 4 14 5 15 6 17 7 18 8 20 9 2 10 1 11 5 12
REMARK SMILES IDX 6 13 11 14 7 15 10 16 8 17 9 18 19 20 16 22
REMARK H PARENT 9 19 19 21 16 23
REMARK Flexibility Score: inf
ROOT
ATOM      1  C   UNL     1       9.641  -8.598 -10.591  1.00  0.00     0.131 C 
ATOM      2  C   UNL     1       9.862  -7.456 -11.601  1.00  0.00     0.211 C 
ATOM      3  O   UNL     1       8.896  -6.409 -11.439  1.00  0.00    -0.484 OA
ATOM      4  C   UNL     1       8.320  -6.061 -10.210  1.00  0.00     0.138 A 
ATOM      5  C   UNL     1       7.517  -4.920 -10.130  1.00  0.00     0.093 A 
ATOM      6  C   UNL     1       6.963  -4.530  -8.904  1.00  0.00     0.123 A 
ATOM      7  C   UNL     1       7.205  -5.292  -7.758  1.00  0.00     0.093 A 
ATOM      8  C   UNL     1       7.992  -6.451  -7.827  1.00  0.00     0.133 A 
ATOM      9  C   UNL     1       8.554  -6.843  -9.062  1.00  0.00     0.102 A 
ATOM     10  C   UNL     1       9.371  -8.066  -9.214  1.00  0.00     0.174 C 
ATOM     11  O   UNL     1       9.800  -8.694  -8.210  1.00  0.00    -0.294 OA
ENDROOT
BRANCH   2  12
ATOM     12  C   UNL     1      11.278  -6.913 -11.530  1.00  0.00    -0.007 A 
ATOM     13  C   UNL     1      12.392  -7.706 -11.869  1.00  0.00     0.011 A 
ATOM     14  C   UNL     1      11.485  -5.568 -11.175  1.00  0.00     0.011 A 
ATOM     15  C   UNL     1      13.683  -7.167 -11.832  1.00  0.00     0.046 A 
ATOM     16  C   UNL     1      12.776  -5.032 -11.137  1.00  0.00     0.046 A 
ATOM     17  C   UNL     1      13.878  -5.832 -11.465  1.00  0.00     0.115 A 
BRANCH  17  18
ATOM     18  O   UNL     1      15.169  -5.309 -11.429  1.00  0.00    -0.508 OA
ATOM     19  H   UNL     1      15.976  -5.898 -11.258  1.00  0.00     0.293 HD
ENDBRANCH  17  18
ENDBRANCH   2  12
BRANCH   8  20
ATOM     20  O   UNL     1       8.205  -7.210  -6.676  1.00  0.00    -0.507 OA
ATOM     21  H   UNL     1       8.631  -6.814  -5.848  1.00  0.00     0.293 HD
ENDBRANCH   8  20
BRANCH   6  22
ATOM     22  O   UNL     1       6.173  -3.384  -8.814  1.00  0.00    -0.508 OA
ATOM     23  H   UNL     1       5.287  -3.391  -8.322  1.00  0.00     0.293 HD
ENDBRANCH   6  22
TORSDOF 4
ENDMDL
MODEL 7
REMARK VINA RESULT:    -5.841      7.296     11.417
REMARK INTER + INTRA:          -6.898
REMARK INTER:                  -6.520
REMARK INTRA:                  -0.377
REMARK UNBOUND:                -0.203
REMARK SMILES O=C1C[C@H](c2ccc(O)cc2)Oc2cc(O)cc(O)c21
REMARK SMILES IDX 3 1 4 2 12 3 13 4 14 5 15 6 17 7 18 8 20 9 2 10 1 11 5 12
REMARK SMILES IDX 6 13 11 14 7 15 10 16 8 17 9 18 19 20 16 22
REMARK H PARENT 9 19 19 21 16 23
REMARK Flexibility Score: inf
ROOT
ATOM      1  C   UNL     1       8.916   3.999 -15.454  1.00  0.00     0.131 C 
ATOM      2  C   UNL     1       7.694   3.436 -16.206  1.00  0.00     0.211 C 
ATOM      3  O   UNL     1       7.876   3.487 -17.628  1.00  0.00    -0.484 OA
ATOM      4  C   UNL     1       9.120   3.361 -18.261  1.00  0.00     0.138 A 
ATOM      5  C   UNL     1       9.170   3.256 -19.654  1.00  0.00     0.093 A 
ATOM      6  C   UNL     1      10.397   3.089 -20.306  1.00  0.00     0.123 A 
ATOM      7  C   UNL     1      11.580   3.039 -19.562  1.00  0.00     0.093 A 
ATOM      8  C   UNL     1      11.547   3.163 -18.165  1.00  0.00     0.133 A 
ATOM      9  C   UNL     1      10.308   3.328 -17.507  1.00  0.00     0.102 A 
ATOM     10  C   UNL     1      10.200   3.491 -16.041  1.00  0.00     0.174 C 
ATOM     11  O   UNL     1      11.181   3.261 -15.283  1.00  0.00    -0.294 OA
ENDROOT
BRANCH   2  12
ATOM     12  C   UNL     1       7.353   2.031 -15.745  1.00  0.00    -0.007 A 
ATOM     13  C   UNL     1       7.872   1.498 -14.549  1.00  0.00     0.011 A 
ATOM     14  C   UNL     1       6.447   1.260 -16.496  1.00  0.00     0.011 A 
ATOM     15  C   UNL     1       7.508   0.215 -14.129  1.00  0.00     0.046 A 
ATOM     16  C   UNL     1       6.086  -0.024 -16.074  1.00  0.00     0.046 A 
ATOM     17  C   UNL     1       6.617  -0.550 -14.890  1.00  0.00     0.115 A 
BRANCH  17  18
ATOM     18  O   UNL     1       6.266  -1.828 -14.461  1.00  0.00    -0.508 OA
ATOM     19  H   UNL     1       5.989  -2.009 -13.503  1.00  0.00     0.293 HD
ENDBRANCH  17  18
ENDBRANCH   2  12
BRANCH   8  20
ATOM     20  O   UNL     1      12.738   3.131 -17.441  1.00  0.00    -0.507 OA
ATOM     21  H   UNL     1      13.593   2.761 -17.839  1.00  0.00     0.293 HD
ENDBRANCH   8  20
BRANCH   6  22
ATOM     22  O   UNL     1      10.454   2.970 -21.695  1.00  0.00    -0.508 OA
ATOM     23  H   UNL     1      10.704   3.756 -22.283  1.00  0.00     0.293 HD
ENDBRANCH   6  22
TORSDOF 4
ENDMDL
MODEL 8
REMARK VINA RESULT:    -5.758      2.729      4.895
REMARK INTER + INTRA:          -6.802
REMARK INTER:                  -6.530
REMARK INTRA:                  -0.272
REMARK UNBOUND:                -0.203
REMARK SMILES O=C1C[C@H](c2ccc(O)cc2)Oc2cc(O)cc(O)c21
REMARK SMILES IDX 3 1 4 2 12 3 13 4 14 5 15 6 17 7 18 8 20 9 2 10 1 11 5 12
REMARK SMILES IDX 6 13 11 14 7 15 10 16 8 17 9 18 19 20 16 22
REMARK H PARENT 9 19 19 21 16 23
REMARK Flexibility Score: inf
ROOT
ATOM      1  C   UNL     1       9.951  -8.123  -8.055  1.00  0.00     0.131 C 
ATOM      2  C   UNL     1      10.219  -6.606  -8.069  1.00  0.00     0.211 C 
ATOM      3  O   UNL     1      11.384  -6.279  -8.839  1.00  0.00    -0.484 OA
ATOM      4  C   UNL     1      11.808  -7.006  -9.960  1.00  0.00     0.138 A 
ATOM      5  C   UNL     1      12.857  -6.509 -10.738  1.00  0.00     0.093 A 
ATOM      6  C   UNL     1      13.272  -7.196 -11.886  1.00  0.00     0.123 A 
ATOM      7  C   UNL     1      12.642  -8.389 -12.248  1.00  0.00     0.093 A 
ATOM      8  C   UNL     1      11.600  -8.910 -11.465  1.00  0.00     0.133 A 
ATOM      9  C   UNL     1      11.180  -8.216 -10.310  1.00  0.00     0.102 A 
ATOM     10  C   UNL     1      10.108  -8.719  -9.424  1.00  0.00     0.174 C 
ATOM     11  O   UNL     1       9.359  -9.669  -9.777  1.00  0.00    -0.294 OA
ENDROOT
BRANCH   2  12
ATOM     12  C   UNL     1       9.007  -5.829  -8.549  1.00  0.00    -0.007 A 
ATOM     13  C   UNL     1       7.875  -5.643  -7.731  1.00  0.00     0.011 A 
ATOM     14  C   UNL     1       9.033  -5.226  -9.820  1.00  0.00     0.011 A 
ATOM     15  C   UNL     1       6.789  -4.888  -8.186  1.00  0.00     0.046 A 
ATOM     16  C   UNL     1       7.945  -4.473 -10.272  1.00  0.00     0.046 A 
ATOM     17  C   UNL     1       6.819  -4.304  -9.456  1.00  0.00     0.115 A 
BRANCH  17  18
ATOM     18  O   UNL     1       5.729  -3.557  -9.897  1.00  0.00    -0.508 OA
ATOM     19  H   UNL     1       5.010  -3.240  -9.258  1.00  0.00     0.293 HD
ENDBRANCH  17  18
ENDBRANCH   2  12
BRANCH   8  20
ATOM     20  O   UNL     1      10.997 -10.113 -11.831  1.00  0.00    -0.507 OA
ATOM     21  H   UNL     1      11.432 -10.748 -12.489  1.00  0.00     0.293 HD
ENDBRANCH   8  20
BRANCH   6  22
ATOM     22  O   UNL     1      14.309  -6.699 -12.675  1.00  0.00    -0.508 OA
ATOM     23  H   UNL     1      14.608  -5.733 -12.608  1.00  0.00     0.293 HD
ENDBRANCH   6  22
TORSDOF 4
ENDMDL
MODEL 9
REMARK VINA RESULT:    -5.712      2.510      5.705
REMARK INTER + INTRA:          -6.749
REMARK INTER:                  -6.392
REMARK INTRA:                  -0.357
REMARK UNBOUND:                -0.203
REMARK SMILES O=C1C[C@H](c2ccc(O)cc2)Oc2cc(O)cc(O)c21
REMARK SMILES IDX 3 1 4 2 12 3 13 4 14 5 15 6 17 7 18 8 20 9 2 10 1 11 5 12
REMARK SMILES IDX 6 13 11 14 7 15 10 16 8 17 9 18 19 20 16 22
REMARK H PARENT 9 19 19 21 16 23
REMARK Flexibility Score: inf
ROOT
ATOM      1  C   UNL     1       9.977  -5.184 -10.091  1.00  0.00     0.131 C 
ATOM      2  C   UNL     1       8.486  -5.544  -9.943  1.00  0.00     0.211 C 
ATOM      3  O   UNL     1       8.013  -6.315 -11.055  1.00  0.00    -0.484 OA
ATOM      4  C   UNL     1       8.809  -7.211 -11.780  1.00  0.00     0.138 A 
ATOM      5  C   UNL     1       8.212  -8.036 -12.737  1.00  0.00     0.093 A 
ATOM      6  C   UNL     1       8.981  -8.968 -13.446  1.00  0.00     0.123 A 
ATOM      7  C   UNL     1      10.353  -9.066 -13.203  1.00  0.00     0.093 A 
ATOM      8  C   UNL     1      10.970  -8.230 -12.259  1.00  0.00     0.133 A 
ATOM      9  C   UNL     1      10.195  -7.293 -11.542  1.00  0.00     0.102 A 
ATOM     10  C   UNL     1      10.781  -6.363 -10.553  1.00  0.00     0.174 C 
ATOM     11  O   UNL     1      11.959  -6.516 -10.131  1.00  0.00    -0.294 OA
ENDROOT
BRANCH   2  12
ATOM     12  C   UNL     1       8.211  -6.250  -8.627  1.00  0.00    -0.007 A 
ATOM     13  C   UNL     1       7.841  -7.609  -8.580  1.00  0.00     0.011 A 
ATOM     14  C   UNL     1       8.387  -5.551  -7.419  1.00  0.00     0.011 A 
ATOM     15  C   UNL     1       7.633  -8.243  -7.351  1.00  0.00     0.046 A 
ATOM     16  C   UNL     1       8.177  -6.188  -6.192  1.00  0.00     0.046 A 
ATOM     17  C   UNL     1       7.797  -7.535  -6.155  1.00  0.00     0.115 A 
BRANCH  17  18
ATOM     18  O   UNL     1       7.583  -8.179  -4.938  1.00  0.00    -0.508 OA
ATOM     19  H   UNL     1       7.547  -7.666  -4.066  1.00  0.00     0.293 HD
ENDBRANCH  17  18
ENDBRANCH   2  12
BRANCH   8  20
ATOM     20  O   UNL     1      12.345  -8.328 -12.045  1.00  0.00    -0.507 OA
ATOM     21  H   UNL     1      12.919  -8.984 -12.560  1.00  0.00     0.293 HD
ENDBRANCH   8  20
BRANCH   6  22
ATOM     22  O   UNL     1       8.389  -9.804 -14.392  1.00  0.00    -0.508 OA
ATOM     23  H   UNL     1       8.091  -9.452 -15.295  1.00  0.00     0.293 HD
ENDBRANCH   6  22
TORSDOF 4
ENDMDL
