MODEL 1
REMARK VINA RESULT:    -4.090      0.000      0.000
REMARK INTER + INTRA:          -4.329
REMARK INTER:                  -4.329
REMARK INTRA:                   0.000
REMARK UNBOUND:                 0.000
REMARK SMILES Cc1cc(O)c(C)c(C)c1O
REMARK SMILES IDX 1 1 2 2 3 3 4 4 6 5 8 6 10 7 9 8 7 9 11 10 5 12
REMARK H PARENT 11 11 5 13
REMARK Flexibility Score: inf
ROOT
ATOM      1  C   UNL     1      -1.934  86.243  -6.111  1.00  0.00     0.048 C 
ATOM      2  C   UNL     1      -2.663  85.358  -7.083  1.00  0.00    -0.005 A 
ATOM      3  C   UNL     1      -3.418  85.925  -8.112  1.00  0.00     0.053 A 
ATOM      4  C   UNL     1      -4.127  85.120  -9.007  1.00  0.00     0.119 A 
ATOM      5  C   UNL     1      -4.088  83.716  -8.884  1.00  0.00    -0.003 A 
ATOM      6  C   UNL     1      -3.288  83.124  -7.865  1.00  0.00    -0.002 A 
ATOM      7  C   UNL     1      -2.609  83.960  -6.943  1.00  0.00     0.121 A 
ATOM      8  C   UNL     1      -3.167  81.622  -7.728  1.00  0.00     0.049 C 
ATOM      9  C   UNL     1      -4.882  82.863  -9.848  1.00  0.00     0.049 C 
ENDROOT
BRANCH   7  10
ATOM     10  O   UNL     1      -1.875  83.430  -5.875  1.00  0.00    -0.507 OA
ATOM     11  H   UNL     1      -2.253  83.290  -4.948  1.00  0.00     0.293 HD
ENDBRANCH   7  10
BRANCH   4  12
ATOM     12  O   UNL     1      -4.875  85.721 -10.021  1.00  0.00    -0.508 OA
ATOM     13  H   UNL     1      -5.799  86.100  -9.849  1.00  0.00     0.293 HD
ENDBRANCH   4  12
TORSDOF 2
ENDMDL
MODEL 2
REMARK VINA RESULT:    -4.048      1.518      2.904
REMARK INTER + INTRA:          -4.284
REMARK INTER:                  -4.284
REMARK INTRA:                   0.000
REMARK UNBOUND:                 0.000
REMARK SMILES Cc1cc(O)c(C)c(C)c1O
REMARK SMILES IDX 1 1 2 2 3 3 4 4 6 5 8 6 10 7 9 8 7 9 11 10 5 12
REMARK H PARENT 11 11 5 13
REMARK Flexibility Score: inf
ROOT
ATOM      1  C   UNL     1      -2.169  81.987  -6.626  1.00  0.00     0.048 C 
ATOM      2  C   UNL     1      -3.013  82.868  -7.506  1.00  0.00    -0.005 A 
ATOM      3  C   UNL     1      -3.790  82.302  -8.520  1.00  0.00     0.053 A 
ATOM      4  C   UNL     1      -4.557  83.105  -9.367  1.00  0.00     0.119 A 
ATOM      5  C   UNL     1      -4.561  84.506  -9.207  1.00  0.00    -0.003 A 
ATOM      6  C   UNL     1      -3.807  85.092  -8.151  1.00  0.00    -0.002 A 
ATOM      7  C   UNL     1      -3.004  84.262  -7.328  1.00  0.00     0.121 A 
ATOM      8  C   UNL     1      -3.823  86.584  -7.902  1.00  0.00     0.049 C 
ATOM      9  C   UNL     1      -5.380  85.360 -10.149  1.00  0.00     0.049 C 
ENDROOT
BRANCH   7  10
ATOM     10  O   UNL     1      -2.182  84.795  -6.328  1.00  0.00    -0.507 OA
ATOM     11  H   UNL     1      -1.780  84.249  -5.579  1.00  0.00     0.293 HD
ENDBRANCH   7  10
BRANCH   4  12
ATOM     12  O   UNL     1      -5.318  82.506 -10.372  1.00  0.00    -0.508 OA
ATOM     13  H   UNL     1      -5.097  81.584 -10.731  1.00  0.00     0.293 HD
ENDBRANCH   4  12
TORSDOF 2
ENDMDL
MODEL 3
REMARK VINA RESULT:    -3.972      1.872      3.255
REMARK INTER + INTRA:          -4.205
REMARK INTER:                  -4.205
REMARK INTRA:                   0.000
REMARK UNBOUND:                 0.000
REMARK SMILES Cc1cc(O)c(C)c(C)c1O
REMARK SMILES IDX 1 1 2 2 3 3 4 4 6 5 8 6 10 7 9 8 7 9 11 10 5 12
REMARK H PARENT 11 11 5 13
REMARK Flexibility Score: inf
ROOT
ATOM      1  C   UNL     1      -6.005  87.188  -9.678  1.00  0.00     0.048 C 
ATOM      2  C   UNL     1      -5.234  85.935  -9.368  1.00  0.00    -0.005 A 
ATOM      3  C   UNL     1      -5.534  84.748 -10.041  1.00  0.00     0.053 A 
ATOM      4  C   UNL     1      -4.851  83.565  -9.745  1.00  0.00     0.119 A 
ATOM      5  C   UNL     1      -3.842  83.555  -8.761  1.00  0.00    -0.003 A 
ATOM      6  C   UNL     1      -3.497  84.767  -8.099  1.00  0.00    -0.002 A 
ATOM      7  C   UNL     1      -4.231  85.947  -8.385  1.00  0.00     0.121 A 
ATOM      8  C   UNL     1      -2.383  84.820  -7.077  1.00  0.00     0.049 C 
ATOM      9  C   UNL     1      -3.130  82.260  -8.440  1.00  0.00     0.049 C 
ENDROOT
BRANCH   7  10
ATOM     10  O   UNL     1      -3.986  87.145  -7.704  1.00  0.00    -0.507 OA
ATOM     11  H   UNL     1      -3.068  87.555  -7.597  1.00  0.00     0.293 HD
ENDBRANCH   7  10
BRANCH   4  12
ATOM     12  O   UNL     1      -5.180  82.396 -10.434  1.00  0.00    -0.508 OA
ATOM     13  H   UNL     1      -5.125  81.484  -9.995  1.00  0.00     0.293 HD
ENDBRANCH   4  12
TORSDOF 2
ENDMDL
MODEL 4
REMARK VINA RESULT:    -3.971      1.661      3.465
REMARK INTER + INTRA:          -4.203
REMARK INTER:                  -4.203
REMARK INTRA:                   0.000
REMARK UNBOUND:                 0.000
REMARK SMILES Cc1cc(O)c(C)c(C)c1O
REMARK SMILES IDX 1 1 2 2 3 3 4 4 6 5 8 6 10 7 9 8 7 9 11 10 5 12
REMARK H PARENT 11 11 5 13
REMARK Flexibility Score: inf
ROOT
ATOM      1  C   UNL     1      -3.493  82.040  -9.058  1.00  0.00     0.048 C 
ATOM      2  C   UNL     1      -4.123  83.405  -9.085  1.00  0.00    -0.005 A 
ATOM      3  C   UNL     1      -5.324  83.606  -9.770  1.00  0.00     0.053 A 
ATOM      4  C   UNL     1      -5.909  84.873  -9.833  1.00  0.00     0.119 A 
ATOM      5  C   UNL     1      -5.293  85.972  -9.200  1.00  0.00    -0.003 A 
ATOM      6  C   UNL     1      -4.092  85.772  -8.462  1.00  0.00    -0.002 A 
ATOM      7  C   UNL     1      -3.494  84.486  -8.445  1.00  0.00     0.121 A 
ATOM      8  C   UNL     1      -3.424  86.908  -7.717  1.00  0.00     0.049 C 
ATOM      9  C   UNL     1      -5.931  87.340  -9.299  1.00  0.00     0.049 C 
ENDROOT
BRANCH   7  10
ATOM     10  O   UNL     1      -2.272  84.255  -7.803  1.00  0.00    -0.507 OA
ATOM     11  H   UNL     1      -1.842  84.906  -7.160  1.00  0.00     0.293 HD
ENDBRANCH   7  10
BRANCH   4  12
ATOM     12  O   UNL     1      -7.107  85.038 -10.530  1.00  0.00    -0.508 OA
ATOM     13  H   UNL     1      -7.123  85.220 -11.528  1.00  0.00     0.293 HD
ENDBRANCH   4  12
TORSDOF 2
ENDMDL
MODEL 5
REMARK VINA RESULT:    -3.901      3.025      3.842
REMARK INTER + INTRA:          -4.129
REMARK INTER:                  -4.129
REMARK INTRA:                   0.000
REMARK UNBOUND:                 0.000
REMARK SMILES Cc1cc(O)c(C)c(C)c1O
REMARK SMILES IDX 1 1 2 2 3 3 4 4 6 5 8 6 10 7 9 8 7 9 11 10 5 12
REMARK H PARENT 11 11 5 13
REMARK Flexibility Score: inf
ROOT
ATOM      1  C   UNL     1      -7.536  84.429  -9.454  1.00  0.00     0.048 C 
ATOM      2  C   UNL     1      -6.270  83.716  -9.065  1.00  0.00    -0.005 A 
ATOM      3  C   UNL     1      -5.398  83.254 -10.054  1.00  0.00     0.053 A 
ATOM      4  C   UNL     1      -4.232  82.563  -9.714  1.00  0.00     0.119 A 
ATOM      5  C   UNL     1      -3.917  82.324  -8.360  1.00  0.00    -0.003 A 
ATOM      6  C   UNL     1      -4.775  82.828  -7.342  1.00  0.00    -0.002 A 
ATOM      7  C   UNL     1      -5.974  83.492  -7.710  1.00  0.00     0.121 A 
ATOM      8  C   UNL     1      -4.451  82.649  -5.875  1.00  0.00     0.049 C 
ATOM      9  C   UNL     1      -2.662  81.554  -8.014  1.00  0.00     0.049 C 
ENDROOT
BRANCH   7  10
ATOM     10  O   UNL     1      -6.891  83.934  -6.750  1.00  0.00    -0.507 OA
ATOM     11  H   UNL     1      -6.662  84.582  -6.009  1.00  0.00     0.293 HD
ENDBRANCH   7  10
BRANCH   4  12
ATOM     12  O   UNL     1      -3.386  82.110 -10.728  1.00  0.00    -0.508 OA
ATOM     13  H   UNL     1      -3.001  81.173 -10.723  1.00  0.00     0.293 HD
ENDBRANCH   4  12
TORSDOF 2
ENDMDL
MODEL 6
REMARK VINA RESULT:    -3.886      1.583      3.838
REMARK INTER + INTRA:          -4.113
REMARK INTER:                  -4.113
REMARK INTRA:                   0.000
REMARK UNBOUND:                 0.000
REMARK SMILES Cc1cc(O)c(C)c(C)c1O
REMARK SMILES IDX 1 1 2 2 3 3 4 4 6 5 8 6 10 7 9 8 7 9 11 10 5 12
REMARK H PARENT 11 11 5 13
REMARK Flexibility Score: inf
ROOT
ATOM      1  C   UNL     1      -2.901  81.634  -8.520  1.00  0.00     0.048 C 
ATOM      2  C   UNL     1      -3.366  83.061  -8.428  1.00  0.00    -0.005 A 
ATOM      3  C   UNL     1      -2.952  83.862  -7.361  1.00  0.00     0.053 A 
ATOM      4  C   UNL     1      -3.396  85.181  -7.240  1.00  0.00     0.119 A 
ATOM      5  C   UNL     1      -4.271  85.726  -8.202  1.00  0.00    -0.003 A 
ATOM      6  C   UNL     1      -4.666  84.934  -9.318  1.00  0.00    -0.002 A 
ATOM      7  C   UNL     1      -4.236  83.586  -9.399  1.00  0.00     0.121 A 
ATOM      8  C   UNL     1      -5.557  85.492 -10.407  1.00  0.00     0.049 C 
ATOM      9  C   UNL     1      -4.759  87.149  -8.041  1.00  0.00     0.049 C 
ENDROOT
BRANCH   7  10
ATOM     10  O   UNL     1      -4.661  82.742 -10.431  1.00  0.00    -0.507 OA
ATOM     11  H   UNL     1      -4.050  82.107 -10.928  1.00  0.00     0.293 HD
ENDBRANCH   7  10
BRANCH   4  12
ATOM     12  O   UNL     1      -2.967  85.950  -6.158  1.00  0.00    -0.508 OA
ATOM     13  H   UNL     1      -2.518  85.532  -5.351  1.00  0.00     0.293 HD
ENDBRANCH   4  12
TORSDOF 2
ENDMDL
MODEL 7
REMARK VINA RESULT:    -3.873      7.653      9.487
REMARK INTER + INTRA:          -4.099
REMARK INTER:                  -4.099
REMARK INTRA:                   0.000
REMARK UNBOUND:                 0.000
REMARK SMILES Cc1cc(O)c(C)c(C)c1O
REMARK SMILES IDX 1 1 2 2 3 3 4 4 6 5 8 6 10 7 9 8 7 9 11 10 5 12
REMARK H PARENT 11 11 5 13
REMARK Flexibility Score: inf
ROOT
ATOM      1  C   UNL     1      -4.317  90.692 -16.620  1.00  0.00     0.048 C 
ATOM      2  C   UNL     1      -4.519  90.923 -15.148  1.00  0.00    -0.005 A 
ATOM      3  C   UNL     1      -4.029  92.086 -14.551  1.00  0.00     0.053 A 
ATOM      4  C   UNL     1      -4.179  92.305 -13.179  1.00  0.00     0.119 A 
ATOM      5  C   UNL     1      -4.834  91.350 -12.375  1.00  0.00    -0.003 A 
ATOM      6  C   UNL     1      -5.376  90.180 -12.979  1.00  0.00    -0.002 A 
ATOM      7  C   UNL     1      -5.177  89.959 -14.366  1.00  0.00     0.121 A 
ATOM      8  C   UNL     1      -6.138  89.153 -12.170  1.00  0.00     0.049 C 
ATOM      9  C   UNL     1      -4.966  91.594 -10.888  1.00  0.00     0.049 C 
ENDROOT
BRANCH   7  10
ATOM     10  O   UNL     1      -5.619  88.788 -14.992  1.00  0.00    -0.507 OA
ATOM     11  H   UNL     1      -6.500  88.708 -15.480  1.00  0.00     0.293 HD
ENDBRANCH   7  10
BRANCH   4  12
ATOM     12  O   UNL     1      -3.672  93.476 -12.615  1.00  0.00    -0.508 OA
ATOM     13  H   UNL     1      -3.374  93.517 -11.647  1.00  0.00     0.293 HD
ENDBRANCH   4  12
TORSDOF 2
ENDMDL
MODEL 8
REMARK VINA RESULT:    -3.859      1.727      3.366
REMARK INTER + INTRA:          -4.084
REMARK INTER:                  -4.084
REMARK INTRA:                   0.000
REMARK UNBOUND:                 0.000
REMARK SMILES Cc1cc(O)c(C)c(C)c1O
REMARK SMILES IDX 1 1 2 2 3 3 4 4 6 5 8 6 10 7 9 8 7 9 11 10 5 12
REMARK H PARENT 11 11 5 13
REMARK Flexibility Score: inf
ROOT
ATOM      1  C   UNL     1      -3.287  87.686  -7.222  1.00  0.00     0.048 C 
ATOM      2  C   UNL     1      -3.762  86.443  -7.923  1.00  0.00    -0.005 A 
ATOM      3  C   UNL     1      -3.000  85.274  -7.862  1.00  0.00     0.053 A 
ATOM      4  C   UNL     1      -3.408  84.117  -8.531  1.00  0.00     0.119 A 
ATOM      5  C   UNL     1      -4.604  84.113  -9.278  1.00  0.00    -0.003 A 
ATOM      6  C   UNL     1      -5.412  85.285  -9.312  1.00  0.00    -0.002 A 
ATOM      7  C   UNL     1      -4.959  86.460  -8.659  1.00  0.00     0.121 A 
ATOM      8  C   UNL     1      -6.732  85.314 -10.051  1.00  0.00     0.049 C 
ATOM      9  C   UNL     1      -5.017  82.858 -10.013  1.00  0.00     0.049 C 
ENDROOT
BRANCH   7  10
ATOM     10  O   UNL     1      -5.674  87.661  -8.730  1.00  0.00    -0.507 OA
ATOM     11  H   UNL     1      -6.383  87.854  -9.425  1.00  0.00     0.293 HD
ENDBRANCH   7  10
BRANCH   4  12
ATOM     12  O   UNL     1      -2.619  82.969  -8.453  1.00  0.00    -0.508 OA
ATOM     13  H   UNL     1      -1.808  82.837  -9.046  1.00  0.00     0.293 HD
ENDBRANCH   4  12
TORSDOF 2
ENDMDL
