MODEL 1
REMARK VINA RESULT:    -6.737      0.000      0.000
REMARK INTER + INTRA:          -7.740
REMARK INTER:                  -7.525
REMARK INTRA:                  -0.215
REMARK UNBOUND:                -0.215
REMARK SMILES CC(C)c1ccc(C(=O)[O-])cc1
REMARK SMILES IDX 7 1 6 2 11 3 5 4 12 5 4 6 8 7 9 8 10 9 2 10 1 11 3 12
REMARK H PARENT
REMARK Flexibility Score: inf
ROOT
ATOM      1  C   UNL     1      57.014  -0.779 210.572  1.00  0.00    -0.003 A 
ATOM      2  C   UNL     1      58.187  -0.065 210.270  1.00  0.00     0.010 A 
ATOM      3  C   UNL     1      57.038  -1.716 211.619  1.00  0.00     0.010 A 
ATOM      4  C   UNL     1      59.358  -0.284 211.000  1.00  0.00     0.004 A 
ATOM      5  C   UNL     1      58.210  -1.934 212.349  1.00  0.00     0.004 A 
ATOM      6  C   UNL     1      59.382  -1.222 212.049  1.00  0.00    -0.045 A 
ENDROOT
BRANCH   1   7
ATOM      7  C   UNL     1      55.772  -0.551 209.800  1.00  0.00     0.071 C 
ATOM      8  O   UNL     1      54.752  -1.262 210.003  1.00  0.00    -0.545 OA
ATOM      9  O   UNL     1      55.713   0.452 208.839  1.00  0.00    -0.545 OA
ENDBRANCH   1   7
BRANCH   6  10
ATOM     10  C   UNL     1      60.647  -1.469 212.850  1.00  0.00     0.013 C 
ATOM     11  C   UNL     1      61.726  -0.431 212.514  1.00  0.00     0.012 C 
ATOM     12  C   UNL     1      61.168  -2.894 212.636  1.00  0.00     0.012 C 
ENDBRANCH   6  10
TORSDOF 2
ENDMDL
MODEL 2
REMARK VINA RESULT:    -6.704      0.065      1.399
REMARK INTER + INTRA:          -7.703
REMARK INTER:                  -7.487
REMARK INTRA:                  -0.216
REMARK UNBOUND:                -0.215
REMARK SMILES CC(C)c1ccc(C(=O)[O-])cc1
REMARK SMILES IDX 7 1 6 2 11 3 5 4 12 5 4 6 8 7 9 8 10 9 2 10 1 11 3 12
REMARK H PARENT
REMARK Flexibility Score: inf
ROOT
ATOM      1  C   UNL     1      57.026  -0.787 210.623  1.00  0.00    -0.003 A 
ATOM      2  C   UNL     1      57.071  -1.731 211.664  1.00  0.00     0.010 A 
ATOM      3  C   UNL     1      58.188  -0.058 210.315  1.00  0.00     0.010 A 
ATOM      4  C   UNL     1      58.251  -1.940 212.381  1.00  0.00     0.004 A 
ATOM      5  C   UNL     1      59.369  -0.268 211.032  1.00  0.00     0.004 A 
ATOM      6  C   UNL     1      59.414  -1.211 212.073  1.00  0.00    -0.045 A 
ENDROOT
BRANCH   1   7
ATOM      7  C   UNL     1      55.778  -0.562 209.861  1.00  0.00     0.071 C 
ATOM      8  O   UNL     1      54.768  -1.287 210.057  1.00  0.00    -0.545 OA
ATOM      9  O   UNL     1      55.704   0.455 208.916  1.00  0.00    -0.545 OA
ENDBRANCH   1   7
BRANCH   6  10
ATOM     10  C   UNL     1      60.703  -1.428 212.844  1.00  0.00     0.013 C 
ATOM     11  C   UNL     1      61.745  -0.359 212.492  1.00  0.00     0.012 C 
ATOM     12  C   UNL     1      61.259  -2.837 212.609  1.00  0.00     0.012 C 
ENDBRANCH   6  10
TORSDOF 2
ENDMDL
MODEL 3
REMARK VINA RESULT:    -6.542      3.117      5.069
REMARK INTER + INTRA:          -7.523
REMARK INTER:                  -7.320
REMARK INTRA:                  -0.202
REMARK UNBOUND:                -0.215
REMARK SMILES CC(C)c1ccc(C(=O)[O-])cc1
REMARK SMILES IDX 7 1 6 2 11 3 5 4 12 5 4 6 8 7 9 8 10 9 2 10 1 11 3 12
REMARK H PARENT
REMARK Flexibility Score: inf
ROOT
ATOM      1  C   UNL     1      59.550  -1.396 212.112  1.00  0.00    -0.003 A 
ATOM      2  C   UNL     1      59.724  -0.388 211.149  1.00  0.00     0.010 A 
ATOM      3  C   UNL     1      58.260  -1.906 212.338  1.00  0.00     0.010 A 
ATOM      4  C   UNL     1      58.632   0.100 210.427  1.00  0.00     0.004 A 
ATOM      5  C   UNL     1      57.167  -1.418 211.615  1.00  0.00     0.004 A 
ATOM      6  C   UNL     1      57.340  -0.410 210.653  1.00  0.00    -0.045 A 
ENDROOT
BRANCH   1   7
ATOM      7  C   UNL     1      60.704  -1.916 212.879  1.00  0.00     0.071 C 
ATOM      8  O   UNL     1      61.268  -1.203 213.750  1.00  0.00    -0.545 OA
ATOM      9  O   UNL     1      61.183  -3.200 212.647  1.00  0.00    -0.545 OA
ENDBRANCH   1   7
BRANCH   6  10
ATOM     10  C   UNL     1      56.145   0.112 209.876  1.00  0.00     0.013 C 
ATOM     11  C   UNL     1      55.888  -0.734 208.623  1.00  0.00     0.012 C 
ATOM     12  C   UNL     1      56.321   1.591 209.517  1.00  0.00     0.012 C 
ENDBRANCH   6  10
TORSDOF 2
ENDMDL
MODEL 4
REMARK VINA RESULT:    -6.541      3.124      5.247
REMARK INTER + INTRA:          -7.522
REMARK INTER:                  -7.318
REMARK INTRA:                  -0.204
REMARK UNBOUND:                -0.215
REMARK SMILES CC(C)c1ccc(C(=O)[O-])cc1
REMARK SMILES IDX 7 1 6 2 11 3 5 4 12 5 4 6 8 7 9 8 10 9 2 10 1 11 3 12
REMARK H PARENT
REMARK Flexibility Score: inf
ROOT
ATOM      1  C   UNL     1      59.545  -1.448 212.121  1.00  0.00    -0.003 A 
ATOM      2  C   UNL     1      58.250  -1.954 212.330  1.00  0.00     0.010 A 
ATOM      3  C   UNL     1      59.733  -0.430 211.171  1.00  0.00     0.010 A 
ATOM      4  C   UNL     1      57.167  -1.451 211.605  1.00  0.00     0.004 A 
ATOM      5  C   UNL     1      58.648   0.074 210.446  1.00  0.00     0.004 A 
ATOM      6  C   UNL     1      57.354  -0.431 210.654  1.00  0.00    -0.045 A 
ENDROOT
BRANCH   1   7
ATOM      7  C   UNL     1      60.695  -1.979 212.886  1.00  0.00     0.071 C 
ATOM      8  O   UNL     1      61.234  -1.290 213.792  1.00  0.00    -0.545 OA
ATOM      9  O   UNL     1      61.198  -3.246 212.614  1.00  0.00    -0.545 OA
ENDBRANCH   1   7
BRANCH   6  10
ATOM     10  C   UNL     1      56.186   0.124 209.860  1.00  0.00     0.013 C 
ATOM     11  C   UNL     1      55.961  -0.681 208.573  1.00  0.00     0.012 C 
ATOM     12  C   UNL     1      56.383   1.612 209.551  1.00  0.00     0.012 C 
ENDBRANCH   6  10
TORSDOF 2
ENDMDL
MODEL 5
REMARK VINA RESULT:    -5.915      1.470      2.608
REMARK INTER + INTRA:          -6.822
REMARK INTER:                  -6.601
REMARK INTRA:                  -0.221
REMARK UNBOUND:                -0.215
REMARK SMILES CC(C)c1ccc(C(=O)[O-])cc1
REMARK SMILES IDX 7 1 6 2 11 3 5 4 12 5 4 6 8 7 9 8 10 9 2 10 1 11 3 12
REMARK H PARENT
REMARK Flexibility Score: inf
ROOT
ATOM      1  C   UNL     1      55.383  -2.080 210.310  1.00  0.00    -0.003 A 
ATOM      2  C   UNL     1      55.921  -3.037 211.188  1.00  0.00     0.010 A 
ATOM      3  C   UNL     1      56.108  -0.904 210.058  1.00  0.00     0.010 A 
ATOM      4  C   UNL     1      57.158  -2.821 211.800  1.00  0.00     0.004 A 
ATOM      5  C   UNL     1      57.347  -0.688 210.670  1.00  0.00     0.004 A 
ATOM      6  C   UNL     1      57.886  -1.644 211.547  1.00  0.00    -0.045 A 
ENDROOT
BRANCH   1   7
ATOM      7  C   UNL     1      54.072  -2.304 209.660  1.00  0.00     0.071 C 
ATOM      8  O   UNL     1      53.686  -1.557 208.723  1.00  0.00    -0.545 OA
ATOM      9  O   UNL     1      53.248  -3.343 210.077  1.00  0.00    -0.545 OA
ENDBRANCH   1   7
BRANCH   6  10
ATOM     10  C   UNL     1      59.230  -1.397 212.205  1.00  0.00     0.013 C 
ATOM     11  C   UNL     1      59.992  -0.267 211.500  1.00  0.00     0.012 C 
ATOM     12  C   UNL     1      60.068  -2.680 212.253  1.00  0.00     0.012 C 
ENDBRANCH   6  10
TORSDOF 2
ENDMDL
MODEL 6
REMARK VINA RESULT:    -5.756      2.749      5.225
REMARK INTER + INTRA:          -6.644
REMARK INTER:                  -6.423
REMARK INTRA:                  -0.221
REMARK UNBOUND:                -0.215
REMARK SMILES CC(C)c1ccc(C(=O)[O-])cc1
REMARK SMILES IDX 7 1 6 2 11 3 5 4 12 5 4 6 8 7 9 8 10 9 2 10 1 11 3 12
REMARK H PARENT
REMARK Flexibility Score: inf
ROOT
ATOM      1  C   UNL     1      58.113  -1.310 211.311  1.00  0.00    -0.003 A 
ATOM      2  C   UNL     1      57.659  -0.391 210.350  1.00  0.00     0.010 A 
ATOM      3  C   UNL     1      57.330  -2.443 211.593  1.00  0.00     0.010 A 
ATOM      4  C   UNL     1      56.448  -0.600 209.685  1.00  0.00     0.004 A 
ATOM      5  C   UNL     1      56.118  -2.652 210.928  1.00  0.00     0.004 A 
ATOM      6  C   UNL     1      55.664  -1.734 209.967  1.00  0.00    -0.045 A 
ENDROOT
BRANCH   1   7
ATOM      7  C   UNL     1      59.395  -1.093 212.019  1.00  0.00     0.071 C 
ATOM      8  O   UNL     1      60.128  -0.112 211.728  1.00  0.00    -0.545 OA
ATOM      9  O   UNL     1      59.807  -1.971 213.014  1.00  0.00    -0.545 OA
ENDBRANCH   1   7
BRANCH   6  10
ATOM     10  C   UNL     1      54.347  -1.973 209.252  1.00  0.00     0.013 C 
ATOM     11  C   UNL     1      53.600  -0.654 209.013  1.00  0.00     0.012 C 
ATOM     12  C   UNL     1      53.472  -2.970 210.021  1.00  0.00     0.012 C 
ENDBRANCH   6  10
TORSDOF 2
ENDMDL
MODEL 7
REMARK VINA RESULT:    -5.746      3.106      4.835
REMARK INTER + INTRA:          -6.633
REMARK INTER:                  -6.427
REMARK INTRA:                  -0.206
REMARK UNBOUND:                -0.215
REMARK SMILES CC(C)c1ccc(C(=O)[O-])cc1
REMARK SMILES IDX 7 1 6 2 11 3 5 4 12 5 4 6 8 7 9 8 10 9 2 10 1 11 3 12
REMARK H PARENT
REMARK Flexibility Score: inf
ROOT
ATOM      1  C   UNL     1      55.076   2.475 207.899  1.00  0.00    -0.003 A 
ATOM      2  C   UNL     1      56.031   2.846 208.861  1.00  0.00     0.010 A 
ATOM      3  C   UNL     1      54.787   1.111 207.719  1.00  0.00     0.010 A 
ATOM      4  C   UNL     1      56.682   1.875 209.626  1.00  0.00     0.004 A 
ATOM      5  C   UNL     1      55.438   0.140 208.485  1.00  0.00     0.004 A 
ATOM      6  C   UNL     1      56.393   0.510 209.446  1.00  0.00    -0.045 A 
ENDROOT
BRANCH   1   7
ATOM      7  C   UNL     1      54.384   3.500 207.086  1.00  0.00     0.071 C 
ATOM      8  O   UNL     1      54.255   3.351 205.843  1.00  0.00    -0.545 OA
ATOM      9  O   UNL     1      53.867   4.643 207.685  1.00  0.00    -0.545 OA
ENDBRANCH   1   7
BRANCH   6  10
ATOM     10  C   UNL     1      57.093  -0.555 210.270  1.00  0.00     0.013 C 
ATOM     11  C   UNL     1      56.293  -0.891 211.535  1.00  0.00     0.012 C 
ATOM     12  C   UNL     1      58.524  -0.132 210.619  1.00  0.00     0.012 C 
ENDBRANCH   6  10
TORSDOF 2
ENDMDL
MODEL 8
REMARK VINA RESULT:    -5.699      2.724      3.906
REMARK INTER + INTRA:          -6.581
REMARK INTER:                  -6.367
REMARK INTRA:                  -0.213
REMARK UNBOUND:                -0.215
REMARK SMILES CC(C)c1ccc(C(=O)[O-])cc1
REMARK SMILES IDX 7 1 6 2 11 3 5 4 12 5 4 6 8 7 9 8 10 9 2 10 1 11 3 12
REMARK H PARENT
REMARK Flexibility Score: inf
ROOT
ATOM      1  C   UNL     1      55.408   0.578 208.617  1.00  0.00    -0.003 A 
ATOM      2  C   UNL     1      55.841   0.896 209.915  1.00  0.00     0.010 A 
ATOM      3  C   UNL     1      55.492  -0.754 208.178  1.00  0.00     0.010 A 
ATOM      4  C   UNL     1      56.348  -0.098 210.757  1.00  0.00     0.004 A 
ATOM      5  C   UNL     1      55.999  -1.748 209.020  1.00  0.00     0.004 A 
ATOM      6  C   UNL     1      56.432  -1.432 210.318  1.00  0.00    -0.045 A 
ENDROOT
BRANCH   1   7
ATOM      7  C   UNL     1      54.871   1.628 207.722  1.00  0.00     0.071 C 
ATOM      8  O   UNL     1      55.311   2.806 207.780  1.00  0.00    -0.545 OA
ATOM      9  O   UNL     1      53.872   1.327 206.804  1.00  0.00    -0.545 OA
ENDBRANCH   1   7
BRANCH   6  10
ATOM     10  C   UNL     1      56.981  -2.521 211.221  1.00  0.00     0.013 C 
ATOM     11  C   UNL     1      55.927  -3.605 211.484  1.00  0.00     0.012 C 
ATOM     12  C   UNL     1      57.509  -1.936 212.535  1.00  0.00     0.012 C 
ENDBRANCH   6  10
TORSDOF 2
ENDMDL
MODEL 9
REMARK VINA RESULT:    -5.643      3.344      4.539
REMARK INTER + INTRA:          -6.518
REMARK INTER:                  -6.298
REMARK INTRA:                  -0.221
REMARK UNBOUND:                -0.215
REMARK SMILES CC(C)c1ccc(C(=O)[O-])cc1
REMARK SMILES IDX 7 1 6 2 11 3 5 4 12 5 4 6 8 7 9 8 10 9 2 10 1 11 3 12
REMARK H PARENT
REMARK Flexibility Score: inf
ROOT
ATOM      1  C   UNL     1      56.063   1.291 209.094  1.00  0.00    -0.003 A 
ATOM      2  C   UNL     1      55.153   0.427 208.462  1.00  0.00     0.010 A 
ATOM      3  C   UNL     1      56.972   0.759 210.025  1.00  0.00     0.010 A 
ATOM      4  C   UNL     1      55.151  -0.939 208.754  1.00  0.00     0.004 A 
ATOM      5  C   UNL     1      56.970  -0.609 210.317  1.00  0.00     0.004 A 
ATOM      6  C   UNL     1      56.061  -1.472 209.685  1.00  0.00    -0.045 A 
ENDROOT
BRANCH   1   7
ATOM      7  C   UNL     1      56.069   2.739 208.788  1.00  0.00     0.071 C 
ATOM      8  O   UNL     1      56.710   3.544 209.513  1.00  0.00    -0.545 OA
ATOM      9  O   UNL     1      55.364   3.230 207.696  1.00  0.00    -0.545 OA
ENDBRANCH   1   7
BRANCH   6  10
ATOM     10  C   UNL     1      56.069  -2.954 210.012  1.00  0.00     0.013 C 
ATOM     11  C   UNL     1      54.746  -3.617 209.607  1.00  0.00     0.012 C 
ATOM     12  C   UNL     1      56.373  -3.193 211.495  1.00  0.00     0.012 C 
ENDBRANCH   6  10
TORSDOF 2
ENDMDL
