MODEL 1
REMARK VINA RESULT:   144.063      0.000      0.000
REMARK INTER + INTRA:         158.686
REMARK INTER:                 156.696
REMARK INTRA:                   1.989
REMARK UNBOUND:                 1.989
REMARK SMILES CC1(C)CC[C@@]2(C(=O)[O-])CC[C@@]3(C)C(=CC[C@H]4[C@@]5(C)CC[C@H](O)C(C)(C)[C@@H]5CC[C@@]43C)[C@@H]2C1
REMARK SMILES IDX 6 1 5 2 10 3 32 4 4 5 11 6 14 7 33 8 2 9 12 10 15 11 1 12
REMARK SMILES IDX 3 13 13 14 30 15 16 16 17 17 29 18 31 19 18 20 28 21 27 22
REMARK SMILES IDX 20 23 19 24 24 25 21 26 22 27 25 28 26 29 7 30 8 31 9 32
REMARK SMILES IDX 23 33
REMARK H PARENT 23 34
REMARK Flexibility Score: inf
ROOT
ATOM      1  C   UNL     1     -31.739  31.157 -17.842  1.00  0.00     0.017 C 
ATOM      2  C   UNL     1     -31.753  32.626 -18.349  1.00  0.00     0.014 C 
ATOM      3  C   UNL     1     -31.258  30.229 -19.012  1.00  0.00     0.014 C 
ATOM      4  C   UNL     1     -30.707  31.032 -16.680  1.00  0.00     0.028 C 
ATOM      5  C   UNL     1     -31.964  33.663 -17.226  1.00  0.00     0.007 C 
ATOM      6  C   UNL     1     -30.911  28.769 -18.575  1.00  0.00     0.013 C 
ATOM      7  C   UNL     1     -30.592  29.562 -16.276  1.00  0.00    -0.064 C 
ATOM      8  C   UNL     1     -30.919  32.056 -15.534  1.00  0.00     0.015 C 
ATOM      9  C   UNL     1     -30.958  33.523 -16.048  1.00  0.00    -0.035 C 
ATOM     10  C   UNL     1     -29.951  28.606 -17.321  1.00  0.00    -0.006 C 
ATOM     11  C   UNL     1     -31.467  29.079 -15.358  1.00  0.00    -0.027 C 
ATOM     12  C   UNL     1     -29.550  34.004 -16.480  1.00  0.00     0.011 C 
ATOM     13  C   UNL     1     -31.426  34.436 -14.896  1.00  0.00     0.011 C 
ATOM     14  C   UNL     1     -28.569  29.172 -17.772  1.00  0.00     0.017 C 
ATOM     15  C   UNL     1     -29.786  27.034 -16.776  1.00  0.00    -0.020 C 
ATOM     16  C   UNL     1     -31.687  27.621 -15.166  1.00  0.00     0.032 C 
ATOM     17  C   UNL     1     -30.340  26.911 -15.304  1.00  0.00     0.006 C 
ATOM     18  C   UNL     1     -28.268  26.526 -16.687  1.00  0.00     0.008 C 
ATOM     19  C   UNL     1     -30.556  26.081 -17.763  1.00  0.00     0.012 C 
ATOM     20  C   UNL     1     -30.241  25.510 -14.537  1.00  0.00    -0.025 C 
ATOM     21  C   UNL     1     -27.894  25.519 -15.554  1.00  0.00     0.005 C 
ATOM     22  C   UNL     1     -29.092  24.641 -15.160  1.00  0.00     0.003 C 
ATOM     23  C   UNL     1     -31.542  24.659 -14.627  1.00  0.00     0.010 C 
ATOM     24  C   UNL     1     -29.974  25.871 -13.037  1.00  0.00     0.012 C 
ATOM     25  C   UNL     1     -28.820  23.238 -14.493  1.00  0.00    -0.006 C 
ATOM     26  C   UNL     1     -31.395  23.264 -13.972  1.00  0.00     0.033 C 
ATOM     27  C   UNL     1     -30.183  22.453 -14.485  1.00  0.00     0.120 C 
ATOM     28  C   UNL     1     -28.200  23.326 -13.073  1.00  0.00     0.014 C 
ATOM     29  C   UNL     1     -27.825  22.427 -15.385  1.00  0.00     0.014 C 
ENDROOT
BRANCH   1  30
ATOM     30  C   UNL     1     -33.162  30.754 -17.424  1.00  0.00     0.048 C 
ATOM     31  O   UNL     1     -34.169  31.239 -18.007  1.00  0.00    -0.550 OA
ATOM     32  O   UNL     1     -33.382  29.813 -16.419  1.00  0.00    -0.550 OA
ENDBRANCH   1  30
BRANCH  27  33
ATOM     33  O   UNL     1     -30.055  21.272 -13.731  1.00  0.00    -0.393 OA
ATOM     34  H   UNL     1     -30.922  21.135 -13.263  1.00  0.00     0.210 HD
ENDBRANCH  27  33
TORSDOF 2
ENDMDL
MODEL 2
REMARK VINA RESULT:   144.505      2.080      3.994
REMARK INTER + INTRA:         159.166
REMARK INTER:                 158.415
REMARK INTRA:                   0.750
REMARK UNBOUND:                 1.989
REMARK SMILES CC1(C)CC[C@@]2(C(=O)[O-])CC[C@@]3(C)C(=CC[C@H]4[C@@]5(C)CC[C@H](O)C(C)(C)[C@@H]5CC[C@@]43C)[C@@H]2C1
REMARK SMILES IDX 6 1 5 2 10 3 32 4 4 5 11 6 14 7 33 8 2 9 12 10 15 11 1 12
REMARK SMILES IDX 3 13 13 14 30 15 16 16 17 17 29 18 31 19 18 20 28 21 27 22
REMARK SMILES IDX 20 23 19 24 24 25 21 26 22 27 25 28 26 29 7 30 8 31 9 32
REMARK SMILES IDX 23 33
REMARK H PARENT 23 34
REMARK Flexibility Score: inf
ROOT
ATOM      1  C   UNL     1     -31.217  29.632 -16.831  1.00  0.00     0.017 C 
ATOM      2  C   UNL     1     -31.879  30.642 -17.810  1.00  0.00     0.014 C 
ATOM      3  C   UNL     1     -32.274  29.220 -15.748  1.00  0.00     0.014 C 
ATOM      4  C   UNL     1     -30.820  28.349 -17.623  1.00  0.00     0.028 C 
ATOM      5  C   UNL     1     -31.029  30.932 -19.065  1.00  0.00     0.007 C 
ATOM      6  C   UNL     1     -31.855  27.995 -14.874  1.00  0.00     0.013 C 
ATOM      7  C   UNL     1     -30.297  27.303 -16.638  1.00  0.00    -0.064 C 
ATOM      8  C   UNL     1     -29.948  28.622 -18.876  1.00  0.00     0.015 C 
ATOM      9  C   UNL     1     -30.602  29.654 -19.839  1.00  0.00    -0.035 C 
ATOM     10  C   UNL     1     -31.336  26.707 -15.645  1.00  0.00    -0.006 C 
ATOM     11  C   UNL     1     -28.982  27.333 -16.308  1.00  0.00    -0.027 C 
ATOM     12  C   UNL     1     -31.816  29.039 -20.578  1.00  0.00     0.011 C 
ATOM     13  C   UNL     1     -29.563  30.055 -20.908  1.00  0.00     0.011 C 
ATOM     14  C   UNL     1     -32.568  26.166 -16.436  1.00  0.00     0.017 C 
ATOM     15  C   UNL     1     -30.709  25.515 -14.657  1.00  0.00    -0.020 C 
ATOM     16  C   UNL     1     -28.449  26.624 -15.114  1.00  0.00     0.032 C 
ATOM     17  C   UNL     1     -29.182  25.289 -14.983  1.00  0.00     0.006 C 
ATOM     18  C   UNL     1     -31.388  24.075 -14.853  1.00  0.00     0.008 C 
ATOM     19  C   UNL     1     -30.921  25.947 -13.158  1.00  0.00     0.012 C 
ATOM     20  C   UNL     1     -28.368  24.152 -14.205  1.00  0.00    -0.025 C 
ATOM     21  C   UNL     1     -30.496  22.809 -14.660  1.00  0.00     0.005 C 
ATOM     22  C   UNL     1     -29.359  23.065 -13.658  1.00  0.00     0.003 C 
ATOM     23  C   UNL     1     -27.573  24.687 -12.977  1.00  0.00     0.010 C 
ATOM     24  C   UNL     1     -27.356  23.571 -15.249  1.00  0.00     0.012 C 
ATOM     25  C   UNL     1     -28.721  21.837 -12.901  1.00  0.00    -0.006 C 
ATOM     26  C   UNL     1     -26.877  23.561 -12.174  1.00  0.00     0.033 C 
ATOM     27  C   UNL     1     -27.823  22.415 -11.747  1.00  0.00     0.120 C 
ATOM     28  C   UNL     1     -27.923  20.876 -13.822  1.00  0.00     0.014 C 
ATOM     29  C   UNL     1     -29.856  21.000 -12.228  1.00  0.00     0.014 C 
ENDROOT
BRANCH   1  30
ATOM     30  C   UNL     1     -30.019  30.306 -16.144  1.00  0.00     0.048 C 
ATOM     31  O   UNL     1     -30.188  31.079 -15.164  1.00  0.00    -0.550 OA
ATOM     32  O   UNL     1     -28.712  30.053 -16.557  1.00  0.00    -0.550 OA
ENDBRANCH   1  30
BRANCH  27  33
ATOM     33  O   UNL     1     -27.074  21.383 -11.155  1.00  0.00    -0.393 OA
ATOM     34  H   UNL     1     -27.326  21.360 -10.194  1.00  0.00     0.210 HD
ENDBRANCH  27  33
TORSDOF 2
ENDMDL
MODEL 3
REMARK VINA RESULT:   144.920      1.674      8.230
REMARK INTER + INTRA:         159.617
REMARK INTER:                 159.044
REMARK INTRA:                   0.573
REMARK UNBOUND:                 1.989
REMARK SMILES CC1(C)CC[C@@]2(C(=O)[O-])CC[C@@]3(C)C(=CC[C@H]4[C@@]5(C)CC[C@H](O)C(C)(C)[C@@H]5CC[C@@]43C)[C@@H]2C1
REMARK SMILES IDX 6 1 5 2 10 3 32 4 4 5 11 6 14 7 33 8 2 9 12 10 15 11 1 12
REMARK SMILES IDX 3 13 13 14 30 15 16 16 17 17 29 18 31 19 18 20 28 21 27 22
REMARK SMILES IDX 20 23 19 24 24 25 21 26 22 27 25 28 26 29 7 30 8 31 9 32
REMARK SMILES IDX 23 33
REMARK H PARENT 23 34
REMARK Flexibility Score: inf
ROOT
ATOM      1  C   UNL     1     -28.948  24.367 -14.908  1.00  0.00     0.017 C 
ATOM      2  C   UNL     1     -28.689  22.852 -14.677  1.00  0.00     0.014 C 
ATOM      3  C   UNL     1     -28.010  24.864 -16.063  1.00  0.00     0.014 C 
ATOM      4  C   UNL     1     -30.423  24.563 -15.374  1.00  0.00     0.028 C 
ATOM      5  C   UNL     1     -29.722  22.185 -13.744  1.00  0.00     0.007 C 
ATOM      6  C   UNL     1     -28.360  26.286 -16.608  1.00  0.00     0.013 C 
ATOM      7  C   UNL     1     -30.637  26.033 -15.734  1.00  0.00    -0.064 C 
ATOM      8  C   UNL     1     -31.474  23.915 -14.435  1.00  0.00     0.015 C 
ATOM      9  C   UNL     1     -31.197  22.406 -14.186  1.00  0.00    -0.035 C 
ATOM     10  C   UNL     1     -29.878  26.556 -16.986  1.00  0.00    -0.006 C 
ATOM     11  C   UNL     1     -30.987  26.892 -14.743  1.00  0.00    -0.027 C 
ATOM     12  C   UNL     1     -31.515  21.562 -15.445  1.00  0.00     0.011 C 
ATOM     13  C   UNL     1     -32.123  21.916 -13.053  1.00  0.00     0.011 C 
ATOM     14  C   UNL     1     -30.179  25.631 -18.206  1.00  0.00     0.017 C 
ATOM     15  C   UNL     1     -30.225  28.147 -17.362  1.00  0.00    -0.020 C 
ATOM     16  C   UNL     1     -30.865  28.366 -14.893  1.00  0.00     0.032 C 
ATOM     17  C   UNL     1     -31.258  28.736 -16.325  1.00  0.00     0.006 C 
ATOM     18  C   UNL     1     -30.922  28.347 -18.792  1.00  0.00     0.008 C 
ATOM     19  C   UNL     1     -28.880  28.964 -17.363  1.00  0.00     0.012 C 
ATOM     20  C   UNL     1     -31.793  30.233 -16.505  1.00  0.00    -0.025 C 
ATOM     21  C   UNL     1     -31.956  29.505 -18.951  1.00  0.00     0.005 C 
ATOM     22  C   UNL     1     -31.647  30.674 -18.004  1.00  0.00     0.003 C 
ATOM     23  C   UNL     1     -31.014  31.279 -15.655  1.00  0.00     0.010 C 
ATOM     24  C   UNL     1     -33.285  30.205 -16.030  1.00  0.00     0.012 C 
ATOM     25  C   UNL     1     -32.173  32.114 -18.376  1.00  0.00    -0.006 C 
ATOM     26  C   UNL     1     -31.473  32.733 -15.920  1.00  0.00     0.033 C 
ATOM     27  C   UNL     1     -31.461  33.134 -17.414  1.00  0.00     0.120 C 
ATOM     28  C   UNL     1     -33.718  32.254 -18.319  1.00  0.00     0.014 C 
ATOM     29  C   UNL     1     -31.728  32.466 -19.832  1.00  0.00     0.014 C 
ENDROOT
BRANCH   1  30
ATOM     30  C   UNL     1     -28.621  25.137 -13.618  1.00  0.00     0.048 C 
ATOM     31  O   UNL     1     -29.506  25.338 -12.744  1.00  0.00    -0.550 OA
ATOM     32  O   UNL     1     -27.331  25.598 -13.358  1.00  0.00    -0.550 OA
ENDBRANCH   1  30
BRANCH  27  33
ATOM     33  O   UNL     1     -32.028  34.413 -17.561  1.00  0.00    -0.393 OA
ATOM     34  H   UNL     1     -31.390  34.948 -18.105  1.00  0.00     0.210 HD
ENDBRANCH  27  33
TORSDOF 2
ENDMDL
