MODEL 1
REMARK VINA RESULT:    -2.728      0.000      0.000
REMARK INTER + INTRA:          -2.728
REMARK INTER:                  -2.728
REMARK INTRA:                   0.000
REMARK UNBOUND:                 0.000
REMARK SMILES CC(C)=C1CC[C@H](C)CC1=O
REMARK SMILES IDX 8 1 7 2 6 3 5 4 4 5 2 6 1 7 3 8 10 9 11 10 9 11
REMARK H PARENT
REMARK Flexibility Score: inf
ROOT
ATOM      1  C   UNL     1      30.203  25.097  32.568  1.00  0.00     0.008 C 
ATOM      2  C   UNL     1      30.948  25.125  31.229  1.00  0.00    -0.006 C 
ATOM      3  C   UNL     1      32.464  24.997  31.452  1.00  0.00     0.008 C 
ATOM      4  C   UNL     1      33.234  25.125  30.131  1.00  0.00     0.039 C 
ATOM      5  C   UNL     1      32.719  24.173  29.059  1.00  0.00    -0.006 C 
ATOM      6  C   UNL     1      33.553  23.648  28.116  1.00  0.00    -0.070 C 
ATOM      7  C   UNL     1      35.023  24.003  28.083  1.00  0.00     0.039 C 
ATOM      8  C   UNL     1      33.064  22.658  27.083  1.00  0.00     0.039 C 
ATOM      9  C   UNL     1      31.242  23.949  29.037  1.00  0.00     0.159 C 
ATOM     10  O   UNL     1      30.630  23.727  27.959  1.00  0.00    -0.295 OA
ATOM     11  C   UNL     1      30.455  23.992  30.315  1.00  0.00     0.084 C 
ENDROOT
TORSDOF 0
ENDMDL
MODEL 2
REMARK VINA RESULT:    -2.542      2.075      3.257
REMARK INTER + INTRA:          -2.542
REMARK INTER:                  -2.542
REMARK INTRA:                   0.000
REMARK UNBOUND:                 0.000
REMARK SMILES CC(C)=C1CC[C@H](C)CC1=O
REMARK SMILES IDX 8 1 7 2 6 3 5 4 4 5 2 6 1 7 3 8 10 9 11 10 9 11
REMARK H PARENT
REMARK Flexibility Score: inf
ROOT
ATOM      1  C   UNL     1      29.543  24.437  27.953  1.00  0.00     0.008 C 
ATOM      2  C   UNL     1      30.958  23.977  28.320  1.00  0.00    -0.006 C 
ATOM      3  C   UNL     1      31.758  23.626  27.055  1.00  0.00     0.008 C 
ATOM      4  C   UNL     1      33.142  23.067  27.409  1.00  0.00     0.039 C 
ATOM      5  C   UNL     1      33.915  23.976  28.356  1.00  0.00    -0.006 C 
ATOM      6  C   UNL     1      35.277  24.058  28.307  1.00  0.00    -0.070 C 
ATOM      7  C   UNL     1      36.077  23.236  27.322  1.00  0.00     0.039 C 
ATOM      8  C   UNL     1      36.050  24.998  29.203  1.00  0.00     0.039 C 
ATOM      9  C   UNL     1      33.108  24.670  29.403  1.00  0.00     0.159 C 
ATOM     10  O   UNL     1      33.590  24.929  30.538  1.00  0.00    -0.295 OA
ATOM     11  C   UNL     1      31.688  25.069  29.117  1.00  0.00     0.084 C 
ENDROOT
TORSDOF 0
ENDMDL
MODEL 3
REMARK VINA RESULT:    -2.240      1.843      2.808
REMARK INTER + INTRA:          -2.240
REMARK INTER:                  -2.240
REMARK INTRA:                   0.000
REMARK UNBOUND:                 0.000
REMARK SMILES CC(C)=C1CC[C@H](C)CC1=O
REMARK SMILES IDX 8 1 7 2 6 3 5 4 4 5 2 6 1 7 3 8 10 9 11 10 9 11
REMARK H PARENT
REMARK Flexibility Score: inf
ROOT
ATOM      1  C   UNL     1      31.468  25.123  33.546  1.00  0.00     0.008 C 
ATOM      2  C   UNL     1      31.428  24.574  32.115  1.00  0.00    -0.006 C 
ATOM      3  C   UNL     1      30.099  24.940  31.434  1.00  0.00     0.008 C 
ATOM      4  C   UNL     1      29.999  24.312  30.037  1.00  0.00     0.039 C 
ATOM      5  C   UNL     1      31.208  24.627  29.166  1.00  0.00    -0.006 C 
ATOM      6  C   UNL     1      31.094  24.756  27.813  1.00  0.00    -0.070 C 
ATOM      7  C   UNL     1      29.764  24.573  27.117  1.00  0.00     0.039 C 
ATOM      8  C   UNL     1      32.276  25.125  26.945  1.00  0.00     0.039 C 
ATOM      9  C   UNL     1      32.527  24.669  29.866  1.00  0.00     0.159 C 
ATOM     10  O   UNL     1      33.589  24.323  29.284  1.00  0.00    -0.295 OA
ATOM     11  C   UNL     1      32.606  25.123  31.296  1.00  0.00     0.084 C 
ENDROOT
TORSDOF 0
ENDMDL
MODEL 4
REMARK VINA RESULT:    -2.082      1.983      3.765
REMARK INTER + INTRA:          -2.082
REMARK INTER:                  -2.082
REMARK INTRA:                   0.000
REMARK UNBOUND:                 0.000
REMARK SMILES CC(C)=C1CC[C@H](C)CC1=O
REMARK SMILES IDX 8 1 7 2 6 3 5 4 4 5 2 6 1 7 3 8 10 9 11 10 9 11
REMARK H PARENT
REMARK Flexibility Score: inf
ROOT
ATOM      1  C   UNL     1      29.963  24.807  27.369  1.00  0.00     0.008 C 
ATOM      2  C   UNL     1      30.799  24.388  28.584  1.00  0.00    -0.006 C 
ATOM      3  C   UNL     1      32.170  25.084  28.563  1.00  0.00     0.008 C 
ATOM      4  C   UNL     1      33.058  24.599  29.716  1.00  0.00     0.039 C 
ATOM      5  C   UNL     1      32.369  24.706  31.070  1.00  0.00    -0.006 C 
ATOM      6  C   UNL     1      33.078  24.957  32.209  1.00  0.00    -0.070 C 
ATOM      7  C   UNL     1      34.581  25.121  32.177  1.00  0.00     0.039 C 
ATOM      8  C   UNL     1      32.399  25.123  33.549  1.00  0.00     0.039 C 
ATOM      9  C   UNL     1      30.906  24.407  31.086  1.00  0.00     0.159 C 
ATOM     10  O   UNL     1      30.356  23.882  32.091  1.00  0.00    -0.295 OA
ATOM     11  C   UNL     1      30.059  24.726  29.888  1.00  0.00     0.084 C 
ENDROOT
TORSDOF 0
ENDMDL
MODEL 5
REMARK VINA RESULT:    -2.051      2.008      4.384
REMARK INTER + INTRA:          -2.051
REMARK INTER:                  -2.051
REMARK INTRA:                   0.000
REMARK UNBOUND:                 0.000
REMARK SMILES CC(C)=C1CC[C@H](C)CC1=O
REMARK SMILES IDX 8 1 7 2 6 3 5 4 4 5 2 6 1 7 3 8 10 9 11 10 9 11
REMARK H PARENT
REMARK Flexibility Score: inf
ROOT
ATOM      1  C   UNL     1      30.716  23.981  27.822  1.00  0.00     0.008 C 
ATOM      2  C   UNL     1      31.260  24.655  29.087  1.00  0.00    -0.006 C 
ATOM      3  C   UNL     1      30.343  24.372  30.287  1.00  0.00     0.008 C 
ATOM      4  C   UNL     1      30.816  25.122  31.539  1.00  0.00     0.039 C 
ATOM      5  C   UNL     1      32.285  24.867  31.853  1.00  0.00    -0.006 C 
ATOM      6  C   UNL     1      32.745  24.860  33.138  1.00  0.00    -0.070 C 
ATOM      7  C   UNL     1      31.819  25.125  34.304  1.00  0.00     0.039 C 
ATOM      8  C   UNL     1      34.188  24.552  33.465  1.00  0.00     0.039 C 
ATOM      9  C   UNL     1      33.195  24.743  30.675  1.00  0.00     0.159 C 
ATOM     10  O   UNL     1      34.395  25.123  30.732  1.00  0.00    -0.295 OA
ATOM     11  C   UNL     1      32.684  24.163  29.387  1.00  0.00     0.084 C 
ENDROOT
TORSDOF 0
ENDMDL
MODEL 6
REMARK VINA RESULT:    -2.004      1.782      4.471
REMARK INTER + INTRA:          -2.004
REMARK INTER:                  -2.004
REMARK INTRA:                   0.000
REMARK UNBOUND:                 0.000
REMARK SMILES CC(C)=C1CC[C@H](C)CC1=O
REMARK SMILES IDX 8 1 7 2 6 3 5 4 4 5 2 6 1 7 3 8 10 9 11 10 9 11
REMARK H PARENT
REMARK Flexibility Score: inf
ROOT
ATOM      1  C   UNL     1      36.003  24.530  27.419  1.00  0.00     0.008 C 
ATOM      2  C   UNL     1      34.635  24.996  27.931  1.00  0.00    -0.006 C 
ATOM      3  C   UNL     1      33.521  24.569  26.962  1.00  0.00     0.008 C 
ATOM      4  C   UNL     1      32.157  25.114  27.406  1.00  0.00     0.039 C 
ATOM      5  C   UNL     1      31.834  24.772  28.854  1.00  0.00    -0.006 C 
ATOM      6  C   UNL     1      30.549  24.565  29.265  1.00  0.00    -0.070 C 
ATOM      7  C   UNL     1      29.389  24.684  28.302  1.00  0.00     0.039 C 
ATOM      8  C   UNL     1      30.222  24.169  30.686  1.00  0.00     0.039 C 
ATOM      9  C   UNL     1      32.986  24.794  29.805  1.00  0.00     0.159 C 
ATOM     10  O   UNL     1      32.833  25.125  31.011  1.00  0.00    -0.295 OA
ATOM     11  C   UNL     1      34.361  24.423  29.330  1.00  0.00     0.084 C 
ENDROOT
TORSDOF 0
ENDMDL
MODEL 7
REMARK VINA RESULT:    -1.981      1.351      4.350
REMARK INTER + INTRA:          -1.981
REMARK INTER:                  -1.981
REMARK INTRA:                   0.000
REMARK UNBOUND:                 0.000
REMARK SMILES CC(C)=C1CC[C@H](C)CC1=O
REMARK SMILES IDX 8 1 7 2 6 3 5 4 4 5 2 6 1 7 3 8 10 9 11 10 9 11
REMARK H PARENT
REMARK Flexibility Score: inf
ROOT
ATOM      1  C   UNL     1      36.952  24.198  26.956  1.00  0.00     0.008 C 
ATOM      2  C   UNL     1      35.729  23.862  27.817  1.00  0.00    -0.006 C 
ATOM      3  C   UNL     1      35.340  25.062  28.696  1.00  0.00     0.008 C 
ATOM      4  C   UNL     1      34.181  24.711  29.638  1.00  0.00     0.039 C 
ATOM      5  C   UNL     1      32.989  24.116  28.900  1.00  0.00    -0.006 C 
ATOM      6  C   UNL     1      31.712  24.317  29.338  1.00  0.00    -0.070 C 
ATOM      7  C   UNL     1      31.427  25.124  30.584  1.00  0.00     0.039 C 
ATOM      8  C   UNL     1      30.517  23.780  28.582  1.00  0.00     0.039 C 
ATOM      9  C   UNL     1      33.310  23.215  27.753  1.00  0.00     0.159 C 
ATOM     10  O   UNL     1      32.568  22.241  27.457  1.00  0.00    -0.295 OA
ATOM     11  C   UNL     1      34.542  23.456  26.929  1.00  0.00     0.084 C 
ENDROOT
TORSDOF 0
ENDMDL
MODEL 8
REMARK VINA RESULT:    -1.967      2.008      3.200
REMARK INTER + INTRA:          -1.967
REMARK INTER:                  -1.967
REMARK INTRA:                   0.000
REMARK UNBOUND:                 0.000
REMARK SMILES CC(C)=C1CC[C@H](C)CC1=O
REMARK SMILES IDX 8 1 7 2 6 3 5 4 4 5 2 6 1 7 3 8 10 9 11 10 9 11
REMARK H PARENT
REMARK Flexibility Score: inf
ROOT
ATOM      1  C   UNL     1      30.390  23.600  28.600  1.00  0.00     0.008 C 
ATOM      2  C   UNL     1      31.809  24.177  28.572  1.00  0.00    -0.006 C 
ATOM      3  C   UNL     1      32.310  24.452  29.999  1.00  0.00     0.008 C 
ATOM      4  C   UNL     1      33.689  25.125  29.985  1.00  0.00     0.039 C 
ATOM      5  C   UNL     1      34.705  24.359  29.147  1.00  0.00    -0.006 C 
ATOM      6  C   UNL     1      36.031  24.354  29.469  1.00  0.00    -0.070 C 
ATOM      7  C   UNL     1      36.551  25.125  30.662  1.00  0.00     0.039 C 
ATOM      8  C   UNL     1      37.039  23.552  28.679  1.00  0.00     0.039 C 
ATOM      9  C   UNL     1      34.180  23.720  27.903  1.00  0.00     0.159 C 
ATOM     10  O   UNL     1      34.899  23.600  26.875  1.00  0.00    -0.295 OA
ATOM     11  C   UNL     1      32.768  23.211  27.857  1.00  0.00     0.084 C 
ENDROOT
TORSDOF 0
ENDMDL
MODEL 9
REMARK VINA RESULT:    -1.933      1.457      1.979
REMARK INTER + INTRA:          -1.933
REMARK INTER:                  -1.933
REMARK INTRA:                   0.000
REMARK UNBOUND:                 0.000
REMARK SMILES CC(C)=C1CC[C@H](C)CC1=O
REMARK SMILES IDX 8 1 7 2 6 3 5 4 4 5 2 6 1 7 3 8 10 9 11 10 9 11
REMARK H PARENT
REMARK Flexibility Score: inf
ROOT
ATOM      1  C   UNL     1      31.574  24.848  34.737  1.00  0.00     0.008 C 
ATOM      2  C   UNL     1      31.684  25.125  33.233  1.00  0.00    -0.006 C 
ATOM      3  C   UNL     1      33.076  24.733  32.712  1.00  0.00     0.008 C 
ATOM      4  C   UNL     1      33.240  25.097  31.231  1.00  0.00     0.039 C 
ATOM      5  C   UNL     1      32.115  24.544  30.365  1.00  0.00    -0.006 C 
ATOM      6  C   UNL     1      32.332  24.176  29.069  1.00  0.00    -0.070 C 
ATOM      7  C   UNL     1      33.696  24.319  28.431  1.00  0.00     0.039 C 
ATOM      8  C   UNL     1      31.238  23.573  28.219  1.00  0.00     0.039 C 
ATOM      9  C   UNL     1      30.754  24.541  30.981  1.00  0.00     0.159 C 
ATOM     10  O   UNL     1      29.718  24.699  30.282  1.00  0.00    -0.295 OA
ATOM     11  C   UNL     1      30.600  24.354  32.464  1.00  0.00     0.084 C 
ENDROOT
TORSDOF 0
ENDMDL
