MODEL 1
REMARK VINA RESULT:    -4.041      0.000      0.000
REMARK INTER + INTRA:          -9.582
REMARK INTER:                  -7.112
REMARK INTRA:                  -2.470
REMARK UNBOUND:                -2.470
REMARK SMILES CCCCCCC=CCCCCCCCC(=O)[O-]
REMARK SMILES IDX 10 1 11 2 12 3 13 4 14 5 15 6 16 7 17 8 18 9 9 10 8 11 7 12
REMARK SMILES IDX 6 13 5 14 4 15 3 16 2 17 1 18
REMARK H PARENT
REMARK Flexibility Score: inf
ROOT
ATOM      1  C   UNL     1      19.365  19.478  20.412  1.00  0.00     0.004 C 
ENDROOT
BRANCH   1   2
ATOM      2  C   UNL     1      19.483  21.008  20.511  1.00  0.00     0.000 C 
BRANCH   2   3
ATOM      3  C   UNL     1      18.178  21.732  20.139  1.00  0.00     0.000 C 
BRANCH   3   4
ATOM      4  C   UNL     1      17.151  21.788  21.292  1.00  0.00     0.000 C 
BRANCH   4   5
ATOM      5  C   UNL     1      17.831  21.899  22.667  1.00  0.00     0.006 C 
BRANCH   5   6
ATOM      6  C   UNL     1      16.813  21.965  23.814  1.00  0.00     0.053 C 
BRANCH   6   7
ATOM      7  C   UNL     1      17.476  22.225  25.132  1.00  0.00     0.041 C 
ATOM      8  O   UNL     1      18.571  22.845  25.179  1.00  0.00    -0.550 OA
ATOM      9  O   UNL     1      16.901  21.753  26.305  1.00  0.00    -0.550 OA
ENDBRANCH   6   7
ENDBRANCH   5   6
ENDBRANCH   4   5
ENDBRANCH   3   4
ENDBRANCH   2   3
ENDBRANCH   1   2
BRANCH   1  10
ATOM     10  C   UNL     1      20.629  18.767  20.920  1.00  0.00     0.027 C 
BRANCH  10  11
ATOM     11  C   UNL     1      21.674  19.748  21.394  1.00  0.00    -0.031 C 
ATOM     12  C   UNL     1      22.069  19.887  22.673  1.00  0.00    -0.031 C 
BRANCH  12  13
ATOM     13  C   UNL     1      21.459  19.154  23.844  1.00  0.00     0.027 C 
BRANCH  13  14
ATOM     14  C   UNL     1      20.314  19.952  24.484  1.00  0.00     0.004 C 
BRANCH  14  15
ATOM     15  C   UNL     1      19.205  19.040  25.032  1.00  0.00     0.000 C 
BRANCH  15  16
ATOM     16  C   UNL     1      18.612  18.168  23.916  1.00  0.00    -0.000 C 
BRANCH  16  17
ATOM     17  C   UNL     1      17.077  18.222  23.878  1.00  0.00    -0.003 C 
ATOM     18  C   UNL     1      16.524  18.373  22.461  1.00  0.00     0.004 C 
ENDBRANCH  16  17
ENDBRANCH  15  16
ENDBRANCH  14  15
ENDBRANCH  13  14
ENDBRANCH  12  13
ENDBRANCH  10  11
ENDBRANCH   1  10
TORSDOF 13
ENDMDL
MODEL 2
REMARK VINA RESULT:    -3.939     12.761     14.648
REMARK INTER + INTRA:          -9.401
REMARK INTER:                  -8.309
REMARK INTRA:                  -1.092
REMARK UNBOUND:                -2.470
REMARK SMILES CCCCCCC=CCCCCCCCC(=O)[O-]
REMARK SMILES IDX 10 1 11 2 12 3 13 4 14 5 15 6 16 7 17 8 18 9 9 10 8 11 7 12
REMARK SMILES IDX 6 13 5 14 4 15 3 16 2 17 1 18
REMARK H PARENT
REMARK Flexibility Score: inf
ROOT
ATOM      1  C   UNL     1      17.385  30.266  32.473  1.00  0.00     0.004 C 
ENDROOT
BRANCH   1   2
ATOM      2  C   UNL     1      18.237  31.535  32.310  1.00  0.00     0.000 C 
BRANCH   2   3
ATOM      3  C   UNL     1      19.499  31.525  33.190  1.00  0.00     0.000 C 
BRANCH   3   4
ATOM      4  C   UNL     1      20.773  31.986  32.449  1.00  0.00     0.000 C 
BRANCH   4   5
ATOM      5  C   UNL     1      20.450  32.895  31.251  1.00  0.00     0.006 C 
BRANCH   5   6
ATOM      6  C   UNL     1      21.252  32.513  29.999  1.00  0.00     0.053 C 
BRANCH   6   7
ATOM      7  C   UNL     1      21.820  33.717  29.313  1.00  0.00     0.041 C 
ATOM      8  O   UNL     1      22.170  33.653  28.105  1.00  0.00    -0.550 OA
ATOM      9  O   UNL     1      21.995  34.902  30.018  1.00  0.00    -0.550 OA
ENDBRANCH   6   7
ENDBRANCH   5   6
ENDBRANCH   4   5
ENDBRANCH   3   4
ENDBRANCH   2   3
ENDBRANCH   1   2
BRANCH   1  10
ATOM     10  C   UNL     1      17.286  29.822  33.941  1.00  0.00     0.027 C 
BRANCH  10  11
ATOM     11  C   UNL     1      17.607  28.357  34.109  1.00  0.00    -0.031 C 
ATOM     12  C   UNL     1      18.693  27.880  34.747  1.00  0.00    -0.031 C 
BRANCH  12  13
ATOM     13  C   UNL     1      19.805  28.734  35.306  1.00  0.00     0.027 C 
BRANCH  13  14
ATOM     14  C   UNL     1      21.158  28.409  34.657  1.00  0.00     0.004 C 
BRANCH  14  15
ATOM     15  C   UNL     1      21.844  27.204  35.318  1.00  0.00     0.000 C 
BRANCH  15  16
ATOM     16  C   UNL     1      21.981  26.039  34.326  1.00  0.00    -0.000 C 
BRANCH  16  17
ATOM     17  C   UNL     1      23.386  25.417  34.337  1.00  0.00    -0.003 C 
ATOM     18  C   UNL     1      23.438  24.061  33.634  1.00  0.00     0.004 C 
ENDBRANCH  16  17
ENDBRANCH  15  16
ENDBRANCH  14  15
ENDBRANCH  13  14
ENDBRANCH  12  13
ENDBRANCH  10  11
ENDBRANCH   1  10
TORSDOF 13
ENDMDL
MODEL 3
REMARK VINA RESULT:    -3.883     13.773     15.767
REMARK INTER + INTRA:          -9.303
REMARK INTER:                  -8.619
REMARK INTRA:                  -0.685
REMARK UNBOUND:                -2.470
REMARK SMILES CCCCCCC=CCCCCCCCC(=O)[O-]
REMARK SMILES IDX 10 1 11 2 12 3 13 4 14 5 15 6 16 7 17 8 18 9 9 10 8 11 7 12
REMARK SMILES IDX 6 13 5 14 4 15 3 16 2 17 1 18
REMARK H PARENT
REMARK Flexibility Score: inf
ROOT
ATOM      1  C   UNL     1      19.710  32.573  30.602  1.00  0.00     0.004 C 
ENDROOT
BRANCH   1   2
ATOM      2  C   UNL     1      21.220  32.559  30.313  1.00  0.00     0.000 C 
BRANCH   2   3
ATOM      3  C   UNL     1      21.642  33.630  29.292  1.00  0.00     0.000 C 
BRANCH   3   4
ATOM      4  C   UNL     1      22.298  34.872  29.933  1.00  0.00     0.000 C 
BRANCH   4   5
ATOM      5  C   UNL     1      23.267  35.577  28.969  1.00  0.00     0.006 C 
BRANCH   5   6
ATOM      6  C   UNL     1      24.465  36.199  29.700  1.00  0.00     0.053 C 
BRANCH   6   7
ATOM      7  C   UNL     1      25.656  36.335  28.803  1.00  0.00     0.041 C 
ATOM      8  O   UNL     1      26.735  36.809  29.249  1.00  0.00    -0.550 OA
ATOM      9  O   UNL     1      25.565  35.972  27.465  1.00  0.00    -0.550 OA
ENDBRANCH   6   7
ENDBRANCH   5   6
ENDBRANCH   4   5
ENDBRANCH   3   4
ENDBRANCH   2   3
ENDBRANCH   1   2
BRANCH   1  10
ATOM     10  C   UNL     1      19.404  32.336  32.089  1.00  0.00     0.027 C 
BRANCH  10  11
ATOM     11  C   UNL     1      20.612  31.827  32.837  1.00  0.00    -0.031 C 
ATOM     12  C   UNL     1      20.589  30.828  33.739  1.00  0.00    -0.031 C 
BRANCH  12  13
ATOM     13  C   UNL     1      19.338  30.127  34.212  1.00  0.00     0.027 C 
BRANCH  13  14
ATOM     14  C   UNL     1      19.636  28.714  34.734  1.00  0.00     0.004 C 
BRANCH  14  15
ATOM     15  C   UNL     1      21.142  28.410  34.760  1.00  0.00     0.000 C 
BRANCH  15  16
ATOM     16  C   UNL     1      21.404  26.980  35.254  1.00  0.00    -0.000 C 
BRANCH  16  17
ATOM     17  C   UNL     1      21.785  26.023  34.113  1.00  0.00    -0.003 C 
ATOM     18  C   UNL     1      23.118  25.315  34.355  1.00  0.00     0.004 C 
ENDBRANCH  16  17
ENDBRANCH  15  16
ENDBRANCH  14  15
ENDBRANCH  13  14
ENDBRANCH  12  13
ENDBRANCH  10  11
ENDBRANCH   1  10
TORSDOF 13
ENDMDL
MODEL 4
REMARK VINA RESULT:    -3.882      1.581      4.625
REMARK INTER + INTRA:          -9.303
REMARK INTER:                  -7.217
REMARK INTRA:                  -2.086
REMARK UNBOUND:                -2.470
REMARK SMILES CCCCCCC=CCCCCCCCC(=O)[O-]
REMARK SMILES IDX 10 1 11 2 12 3 13 4 14 5 15 6 16 7 17 8 18 9 9 10 8 11 7 12
REMARK SMILES IDX 6 13 5 14 4 15 3 16 2 17 1 18
REMARK H PARENT
REMARK Flexibility Score: inf
ROOT
ATOM      1  C   UNL     1      21.618  19.566  22.306  1.00  0.00     0.004 C 
ENDROOT
BRANCH   1   2
ATOM      2  C   UNL     1      21.023  19.477  23.721  1.00  0.00     0.000 C 
BRANCH   2   3
ATOM      3  C   UNL     1      19.696  18.700  23.764  1.00  0.00     0.000 C 
BRANCH   3   4
ATOM      4  C   UNL     1      18.594  19.401  24.587  1.00  0.00     0.000 C 
BRANCH   4   5
ATOM      5  C   UNL     1      17.497  20.001  23.691  1.00  0.00     0.006 C 
BRANCH   5   6
ATOM      6  C   UNL     1      17.565  21.534  23.636  1.00  0.00     0.053 C 
BRANCH   6   7
ATOM      7  C   UNL     1      17.705  22.135  25.000  1.00  0.00     0.041 C 
ATOM      8  O   UNL     1      16.739  22.103  25.808  1.00  0.00    -0.550 OA
ATOM      9  O   UNL     1      18.889  22.760  25.368  1.00  0.00    -0.550 OA
ENDBRANCH   6   7
ENDBRANCH   5   6
ENDBRANCH   4   5
ENDBRANCH   3   4
ENDBRANCH   2   3
ENDBRANCH   1   2
BRANCH   1  10
ATOM     10  C   UNL     1      20.529  19.596  21.223  1.00  0.00     0.027 C 
BRANCH  10  11
ATOM     11  C   UNL     1      20.174  21.008  20.822  1.00  0.00    -0.031 C 
ATOM     12  C   UNL     1      18.982  21.385  20.323  1.00  0.00    -0.031 C 
BRANCH  12  13
ATOM     13  C   UNL     1      17.851  20.440  19.995  1.00  0.00     0.027 C 
BRANCH  13  14
ATOM     14  C   UNL     1      16.492  21.155  19.985  1.00  0.00     0.004 C 
BRANCH  14  15
ATOM     15  C   UNL     1      16.622  22.653  20.302  1.00  0.00     0.000 C 
BRANCH  15  16
ATOM     16  C   UNL     1      16.117  23.507  19.130  1.00  0.00    -0.000 C 
BRANCH  16  17
ATOM     17  C   UNL     1      16.564  22.959  17.765  1.00  0.00    -0.003 C 
ATOM     18  C   UNL     1      17.933  23.487  17.335  1.00  0.00     0.004 C 
ENDBRANCH  16  17
ENDBRANCH  15  16
ENDBRANCH  14  15
ENDBRANCH  13  14
ENDBRANCH  12  13
ENDBRANCH  10  11
ENDBRANCH   1  10
TORSDOF 13
ENDMDL
MODEL 5
REMARK VINA RESULT:    -3.801      1.035      3.037
REMARK INTER + INTRA:          -9.160
REMARK INTER:                  -6.776
REMARK INTRA:                  -2.384
REMARK UNBOUND:                -2.470
REMARK SMILES CCCCCCC=CCCCCCCCC(=O)[O-]
REMARK SMILES IDX 10 1 11 2 12 3 13 4 14 5 15 6 16 7 17 8 18 9 9 10 8 11 7 12
REMARK SMILES IDX 6 13 5 14 4 15 3 16 2 17 1 18
REMARK H PARENT
REMARK Flexibility Score: inf
ROOT
ATOM      1  C   UNL     1      17.903  19.870  19.504  1.00  0.00     0.004 C 
ENDROOT
BRANCH   1   2
ATOM      2  C   UNL     1      18.287  21.176  20.219  1.00  0.00     0.000 C 
BRANCH   2   3
ATOM      3  C   UNL     1      17.102  22.145  20.368  1.00  0.00     0.000 C 
BRANCH   3   4
ATOM      4  C   UNL     1      16.501  22.174  21.791  1.00  0.00     0.000 C 
BRANCH   4   5
ATOM      5  C   UNL     1      17.585  22.086  22.878  1.00  0.00     0.006 C 
BRANCH   5   6
ATOM      6  C   UNL     1      17.026  21.585  24.217  1.00  0.00     0.053 C 
BRANCH   6   7
ATOM      7  C   UNL     1      17.998  21.788  25.338  1.00  0.00     0.041 C 
ATOM      8  O   UNL     1      17.956  21.047  26.355  1.00  0.00    -0.550 OA
ATOM      9  O   UNL     1      18.928  22.819  25.275  1.00  0.00    -0.550 OA
ENDBRANCH   6   7
ENDBRANCH   5   6
ENDBRANCH   4   5
ENDBRANCH   3   4
ENDBRANCH   2   3
ENDBRANCH   1   2
BRANCH   1  10
ATOM     10  C   UNL     1      18.214  18.631  20.358  1.00  0.00     0.027 C 
BRANCH  10  11
ATOM     11  C   UNL     1      17.335  18.558  21.583  1.00  0.00    -0.031 C 
ATOM     12  C   UNL     1      17.765  18.221  22.814  1.00  0.00    -0.031 C 
BRANCH  12  13
ATOM     13  C   UNL     1      19.169  17.769  23.139  1.00  0.00     0.027 C 
BRANCH  13  14
ATOM     14  C   UNL     1      19.754  18.535  24.335  1.00  0.00     0.004 C 
BRANCH  14  15
ATOM     15  C   UNL     1      21.010  19.333  23.956  1.00  0.00     0.000 C 
BRANCH  15  16
ATOM     16  C   UNL     1      20.749  20.212  22.724  1.00  0.00    -0.000 C 
BRANCH  16  17
ATOM     17  C   UNL     1      21.584  19.784  21.507  1.00  0.00    -0.003 C 
ATOM     18  C   UNL     1      23.087  19.941  21.735  1.00  0.00     0.004 C 
ENDBRANCH  16  17
ENDBRANCH  15  16
ENDBRANCH  14  15
ENDBRANCH  13  14
ENDBRANCH  12  13
ENDBRANCH  10  11
ENDBRANCH   1  10
TORSDOF 13
ENDMDL
MODEL 6
REMARK VINA RESULT:    -3.737      2.609      5.677
REMARK INTER + INTRA:          -9.046
REMARK INTER:                  -6.957
REMARK INTRA:                  -2.089
REMARK UNBOUND:                -2.470
REMARK SMILES CCCCCCC=CCCCCCCCC(=O)[O-]
REMARK SMILES IDX 10 1 11 2 12 3 13 4 14 5 15 6 16 7 17 8 18 9 9 10 8 11 7 12
REMARK SMILES IDX 6 13 5 14 4 15 3 16 2 17 1 18
REMARK H PARENT
REMARK Flexibility Score: inf
ROOT
ATOM      1  C   UNL     1      18.820  21.261  25.761  1.00  0.00     0.004 C 
ENDROOT
BRANCH   1   2
ATOM      2  C   UNL     1      18.773  19.813  26.277  1.00  0.00     0.000 C 
BRANCH   2   3
ATOM      3  C   UNL     1      18.537  18.787  25.156  1.00  0.00     0.000 C 
BRANCH   3   4
ATOM      4  C   UNL     1      19.829  18.097  24.667  1.00  0.00     0.000 C 
BRANCH   4   5
ATOM      5  C   UNL     1      20.255  18.587  23.272  1.00  0.00     0.006 C 
BRANCH   5   6
ATOM      6  C   UNL     1      21.292  19.716  23.344  1.00  0.00     0.053 C 
BRANCH   6   7
ATOM      7  C   UNL     1      22.057  19.853  22.064  1.00  0.00     0.041 C 
ATOM      8  O   UNL     1      23.249  20.259  22.077  1.00  0.00    -0.550 OA
ATOM      9  O   UNL     1      21.442  19.565  20.852  1.00  0.00    -0.550 OA
ENDBRANCH   6   7
ENDBRANCH   5   6
ENDBRANCH   4   5
ENDBRANCH   3   4
ENDBRANCH   2   3
ENDBRANCH   1   2
BRANCH   1  10
ATOM     10  C   UNL     1      17.614  21.596  24.871  1.00  0.00     0.027 C 
BRANCH  10  11
ATOM     11  C   UNL     1      18.014  22.411  23.665  1.00  0.00    -0.031 C 
ATOM     12  C   UNL     1      17.969  21.970  22.394  1.00  0.00    -0.031 C 
BRANCH  12  13
ATOM     13  C   UNL     1      17.606  20.562  21.987  1.00  0.00     0.027 C 
BRANCH  13  14
ATOM     14  C   UNL     1      17.925  20.294  20.509  1.00  0.00     0.004 C 
BRANCH  14  15
ATOM     15  C   UNL     1      18.758  21.421  19.880  1.00  0.00     0.000 C 
BRANCH  15  16
ATOM     16  C   UNL     1      18.126  21.904  18.567  1.00  0.00    -0.000 C 
BRANCH  16  17
ATOM     17  C   UNL     1      16.614  22.146  18.694  1.00  0.00    -0.003 C 
ATOM     18  C   UNL     1      16.283  23.472  19.381  1.00  0.00     0.004 C 
ENDBRANCH  16  17
ENDBRANCH  15  16
ENDBRANCH  14  15
ENDBRANCH  13  14
ENDBRANCH  12  13
ENDBRANCH  10  11
ENDBRANCH   1  10
TORSDOF 13
ENDMDL
MODEL 7
REMARK VINA RESULT:    -3.711      1.170      2.216
REMARK INTER + INTRA:          -9.001
REMARK INTER:                  -6.494
REMARK INTRA:                  -2.508
REMARK UNBOUND:                -2.470
REMARK SMILES CCCCCCC=CCCCCCCCC(=O)[O-]
REMARK SMILES IDX 10 1 11 2 12 3 13 4 14 5 15 6 16 7 17 8 18 9 9 10 8 11 7 12
REMARK SMILES IDX 6 13 5 14 4 15 3 16 2 17 1 18
REMARK H PARENT
REMARK Flexibility Score: inf
ROOT
ATOM      1  C   UNL     1      21.264  20.004  21.129  1.00  0.00     0.004 C 
ENDROOT
BRANCH   1   2
ATOM      2  C   UNL     1      20.117  21.024  21.222  1.00  0.00     0.000 C 
BRANCH   2   3
ATOM      3  C   UNL     1      18.825  20.533  20.545  1.00  0.00     0.000 C 
BRANCH   3   4
ATOM      4  C   UNL     1      17.546  20.843  21.353  1.00  0.00     0.000 C 
BRANCH   4   5
ATOM      5  C   UNL     1      17.817  21.816  22.514  1.00  0.00     0.006 C 
BRANCH   5   6
ATOM      6  C   UNL     1      16.891  21.562  23.712  1.00  0.00     0.053 C 
BRANCH   6   7
ATOM      7  C   UNL     1      17.457  22.122  24.981  1.00  0.00     0.041 C 
ATOM      8  O   UNL     1      16.767  22.126  26.035  1.00  0.00    -0.550 OA
ATOM      9  O   UNL     1      18.733  22.672  24.992  1.00  0.00    -0.550 OA
ENDBRANCH   6   7
ENDBRANCH   5   6
ENDBRANCH   4   5
ENDBRANCH   3   4
ENDBRANCH   2   3
ENDBRANCH   1   2
BRANCH   1  10
ATOM     10  C   UNL     1      21.622  19.412  22.500  1.00  0.00     0.027 C 
BRANCH  10  11
ATOM     11  C   UNL     1      20.834  20.055  23.615  1.00  0.00    -0.031 C 
ATOM     12  C   UNL     1      20.016  19.392  24.454  1.00  0.00    -0.031 C 
BRANCH  12  13
ATOM     13  C   UNL     1      19.683  17.923  24.349  1.00  0.00     0.027 C 
BRANCH  13  14
ATOM     14  C   UNL     1      18.744  17.632  23.169  1.00  0.00     0.004 C 
BRANCH  14  15
ATOM     15  C   UNL     1      17.272  17.902  23.518  1.00  0.00     0.000 C 
BRANCH  15  16
ATOM     16  C   UNL     1      16.961  17.462  24.956  1.00  0.00    -0.000 C 
BRANCH  16  17
ATOM     17  C   UNL     1      16.096  18.484  25.711  1.00  0.00    -0.003 C 
ATOM     18  C   UNL     1      16.679  18.859  27.074  1.00  0.00     0.004 C 
ENDBRANCH  16  17
ENDBRANCH  15  16
ENDBRANCH  14  15
ENDBRANCH  13  14
ENDBRANCH  12  13
ENDBRANCH  10  11
ENDBRANCH   1  10
TORSDOF 13
ENDMDL
MODEL 8
REMARK VINA RESULT:    -3.686     14.290     16.225
REMARK INTER + INTRA:          -8.957
REMARK INTER:                  -7.912
REMARK INTRA:                  -1.045
REMARK UNBOUND:                -2.470
REMARK SMILES CCCCCCC=CCCCCCCCC(=O)[O-]
REMARK SMILES IDX 10 1 11 2 12 3 13 4 14 5 15 6 16 7 17 8 18 9 9 10 8 11 7 12
REMARK SMILES IDX 6 13 5 14 4 15 3 16 2 17 1 18
REMARK H PARENT
REMARK Flexibility Score: inf
ROOT
ATOM      1  C   UNL     1      28.350  31.477  18.289  1.00  0.00     0.004 C 
ENDROOT
BRANCH   1   2
ATOM      2  C   UNL     1      27.839  30.028  18.278  1.00  0.00     0.000 C 
BRANCH   2   3
ATOM      3  C   UNL     1      28.115  29.307  16.947  1.00  0.00     0.000 C 
BRANCH   3   4
ATOM      4  C   UNL     1      26.848  29.069  16.097  1.00  0.00     0.000 C 
BRANCH   4   5
ATOM      5  C   UNL     1      25.562  29.163  16.936  1.00  0.00     0.006 C 
BRANCH   5   6
ATOM      6  C   UNL     1      24.812  27.826  17.001  1.00  0.00     0.053 C 
BRANCH   6   7
ATOM      7  C   UNL     1      23.328  28.016  16.941  1.00  0.00     0.041 C 
ATOM      8  O   UNL     1      22.562  27.017  16.885  1.00  0.00    -0.550 OA
ATOM      9  O   UNL     1      22.791  29.297  16.912  1.00  0.00    -0.550 OA
ENDBRANCH   6   7
ENDBRANCH   5   6
ENDBRANCH   4   5
ENDBRANCH   3   4
ENDBRANCH   2   3
ENDBRANCH   1   2
BRANCH   1  10
ATOM     10  C   UNL     1      29.453  31.709  17.245  1.00  0.00     0.027 C 
BRANCH  10  11
ATOM     11  C   UNL     1      30.192  33.003  17.484  1.00  0.00    -0.031 C 
ATOM     12  C   UNL     1      31.268  33.133  18.282  1.00  0.00    -0.031 C 
BRANCH  12  13
ATOM     13  C   UNL     1      31.842  32.029  19.138  1.00  0.00     0.027 C 
BRANCH  13  14
ATOM     14  C   UNL     1      31.461  32.194  20.616  1.00  0.00     0.004 C 
BRANCH  14  15
ATOM     15  C   UNL     1      31.606  33.647  21.095  1.00  0.00     0.000 C 
BRANCH  15  16
ATOM     16  C   UNL     1      33.076  33.986  21.381  1.00  0.00    -0.000 C 
BRANCH  16  17
ATOM     17  C   UNL     1      33.654  33.166  22.546  1.00  0.00    -0.003 C 
ATOM     18  C   UNL     1      35.172  33.301  22.668  1.00  0.00     0.004 C 
ENDBRANCH  16  17
ENDBRANCH  15  16
ENDBRANCH  14  15
ENDBRANCH  13  14
ENDBRANCH  12  13
ENDBRANCH  10  11
ENDBRANCH   1  10
TORSDOF 13
ENDMDL
MODEL 9
REMARK VINA RESULT:    -3.663     12.344     14.527
REMARK INTER + INTRA:          -8.917
REMARK INTER:                  -7.385
REMARK INTRA:                  -1.533
REMARK UNBOUND:                -2.470
REMARK SMILES CCCCCCC=CCCCCCCCC(=O)[O-]
REMARK SMILES IDX 10 1 11 2 12 3 13 4 14 5 15 6 16 7 17 8 18 9 9 10 8 11 7 12
REMARK SMILES IDX 6 13 5 14 4 15 3 16 2 17 1 18
REMARK H PARENT
REMARK Flexibility Score: inf
ROOT
ATOM      1  C   UNL     1      17.349  26.075  33.500  1.00  0.00     0.004 C 
ENDROOT
BRANCH   1   2
ATOM      2  C   UNL     1      18.364  26.217  34.646  1.00  0.00     0.000 C 
BRANCH   2   3
ATOM      3  C   UNL     1      18.522  27.669  35.127  1.00  0.00     0.000 C 
BRANCH   3   4
ATOM      4  C   UNL     1      19.883  27.953  35.801  1.00  0.00     0.000 C 
BRANCH   4   5
ATOM      5  C   UNL     1      21.043  27.939  34.790  1.00  0.00     0.006 C 
BRANCH   5   6
ATOM      6  C   UNL     1      22.189  27.020  35.235  1.00  0.00     0.053 C 
BRANCH   6   7
ATOM      7  C   UNL     1      22.387  25.877  34.287  1.00  0.00     0.041 C 
ATOM      8  O   UNL     1      21.478  25.564  33.473  1.00  0.00    -0.550 OA
ATOM      9  O   UNL     1      23.561  25.136  34.325  1.00  0.00    -0.550 OA
ENDBRANCH   6   7
ENDBRANCH   5   6
ENDBRANCH   4   5
ENDBRANCH   3   4
ENDBRANCH   2   3
ENDBRANCH   1   2
BRANCH   1  10
ATOM     10  C   UNL     1      16.304  27.201  33.513  1.00  0.00     0.027 C 
BRANCH  10  11
ATOM     11  C   UNL     1      16.207  27.893  32.175  1.00  0.00    -0.031 C 
ATOM     12  C   UNL     1      16.544  29.177  31.951  1.00  0.00    -0.031 C 
BRANCH  12  13
ATOM     13  C   UNL     1      16.976  30.151  33.022  1.00  0.00     0.027 C 
BRANCH  13  14
ATOM     14  C   UNL     1      18.107  31.069  32.537  1.00  0.00     0.004 C 
BRANCH  14  15
ATOM     15  C   UNL     1      19.323  31.038  33.475  1.00  0.00     0.000 C 
BRANCH  15  16
ATOM     16  C   UNL     1      20.543  31.693  32.813  1.00  0.00    -0.000 C 
BRANCH  16  17
ATOM     17  C   UNL     1      20.153  32.664  31.688  1.00  0.00    -0.003 C 
ATOM     18  C   UNL     1      21.114  32.611  30.500  1.00  0.00     0.004 C 
ENDBRANCH  16  17
ENDBRANCH  15  16
ENDBRANCH  14  15
ENDBRANCH  13  14
ENDBRANCH  12  13
ENDBRANCH  10  11
ENDBRANCH   1  10
TORSDOF 13
ENDMDL
