MODEL 1
REMARK VINA RESULT:    -6.635      0.000      0.000
REMARK INTER + INTRA:         -11.354
REMARK INTER:                 -10.126
REMARK INTRA:                  -1.228
REMARK UNBOUND:                -1.228
REMARK SMILES CC(=O)CCC=C(C)CCC=C(C)CCC=C(C)C
REMARK SMILES IDX 10 1 11 2 12 3 13 4 14 5 15 6 16 7 18 8 17 9 19 10 9 11 7 12
REMARK SMILES IDX 6 13 8 14 5 15 4 16 2 17 3 18 1 19
REMARK H PARENT
REMARK Flexibility Score: inf
ROOT
ATOM      1  C   UNL     1     -26.267  17.709 -30.510  1.00  0.00     0.032 C 
ENDROOT
BRANCH   1   2
ATOM      2  C   UNL     1     -26.254  16.230 -30.220  1.00  0.00    -0.028 C 
ATOM      3  C   UNL     1     -25.213  15.409 -30.486  1.00  0.00    -0.077 C 
ATOM      4  C   UNL     1     -23.923  15.927 -31.078  1.00  0.00     0.039 C 
BRANCH   3   5
ATOM      5  C   UNL     1     -25.339  13.934 -30.169  1.00  0.00     0.034 C 
BRANCH   5   6
ATOM      6  C   UNL     1     -26.732  13.413 -30.535  1.00  0.00     0.032 C 
BRANCH   6   7
ATOM      7  C   UNL     1     -27.410  12.797 -29.336  1.00  0.00    -0.028 C 
ATOM      8  C   UNL     1     -29.686  13.552 -30.046  1.00  0.00     0.039 C 
ATOM      9  C   UNL     1     -28.734  12.875 -29.090  1.00  0.00    -0.080 C 
ATOM     10  C   UNL     1     -29.307  12.244 -27.849  1.00  0.00     0.039 C 
ENDBRANCH   6   7
ENDBRANCH   5   6
ENDBRANCH   3   5
ENDBRANCH   1   2
BRANCH   1  11
ATOM     11  C   UNL     1     -27.257  18.034 -31.632  1.00  0.00     0.034 C 
BRANCH  11  12
ATOM     12  C   UNL     1     -26.709  19.130 -32.519  1.00  0.00    -0.077 C 
ATOM     13  C   UNL     1     -25.395  19.442 -32.442  1.00  0.00    -0.028 C 
ATOM     14  C   UNL     1     -27.651  19.871 -33.435  1.00  0.00     0.039 C 
BRANCH  13  15
ATOM     15  C   UNL     1     -24.746  20.577 -33.192  1.00  0.00     0.035 C 
BRANCH  15  16
ATOM     16  C   UNL     1     -24.044  21.525 -32.215  1.00  0.00     0.079 C 
BRANCH  16  17
ATOM     17  C   UNL     1     -23.061  20.777 -31.353  1.00  0.00     0.130 C 
ATOM     18  O   UNL     1     -22.061  20.293 -31.861  1.00  0.00    -0.300 OA
ATOM     19  C   UNL     1     -23.291  20.598 -29.881  1.00  0.00     0.087 C 
ENDBRANCH  16  17
ENDBRANCH  15  16
ENDBRANCH  13  15
ENDBRANCH  11  12
ENDBRANCH   1  11
TORSDOF 9
ENDMDL
MODEL 2
REMARK VINA RESULT:    -6.475      2.179      3.932
REMARK INTER + INTRA:         -11.110
REMARK INTER:                  -9.983
REMARK INTRA:                  -1.127
REMARK UNBOUND:                -1.228
REMARK SMILES CC(=O)CCC=C(C)CCC=C(C)CCC=C(C)C
REMARK SMILES IDX 10 1 11 2 12 3 13 4 14 5 15 6 16 7 18 8 17 9 19 10 9 11 7 12
REMARK SMILES IDX 6 13 8 14 5 15 4 16 2 17 3 18 1 19
REMARK H PARENT
REMARK Flexibility Score: inf
ROOT
ATOM      1  C   UNL     1     -24.274  19.409 -31.178  1.00  0.00     0.032 C 
ENDROOT
BRANCH   1   2
ATOM      2  C   UNL     1     -24.091  17.913 -31.149  1.00  0.00    -0.028 C 
ATOM      3  C   UNL     1     -25.046  17.034 -30.771  1.00  0.00    -0.077 C 
ATOM      4  C   UNL     1     -26.431  17.488 -30.371  1.00  0.00     0.039 C 
BRANCH   3   5
ATOM      5  C   UNL     1     -24.725  15.555 -30.763  1.00  0.00     0.034 C 
BRANCH   5   6
ATOM      6  C   UNL     1     -25.818  14.762 -30.040  1.00  0.00     0.032 C 
BRANCH   6   7
ATOM      7  C   UNL     1     -26.210  13.539 -30.832  1.00  0.00    -0.028 C 
ATOM      8  C   UNL     1     -28.384  13.272 -29.627  1.00  0.00     0.039 C 
ATOM      9  C   UNL     1     -27.349  12.844 -30.638  1.00  0.00    -0.080 C 
ATOM     10  C   UNL     1     -27.635  11.621 -31.470  1.00  0.00     0.039 C 
ENDBRANCH   6   7
ENDBRANCH   5   6
ENDBRANCH   3   5
ENDBRANCH   1   2
BRANCH   1  11
ATOM     11  C   UNL     1     -23.687  20.003 -32.462  1.00  0.00     0.034 C 
BRANCH  11  12
ATOM     12  C   UNL     1     -24.759  20.130 -33.522  1.00  0.00    -0.077 C 
ATOM     13  C   UNL     1     -26.036  20.364 -33.140  1.00  0.00    -0.028 C 
ATOM     14  C   UNL     1     -24.382  19.952 -34.971  1.00  0.00     0.039 C 
BRANCH  13  15
ATOM     15  C   UNL     1     -27.210  20.409 -34.085  1.00  0.00     0.035 C 
BRANCH  15  16
ATOM     16  C   UNL     1     -28.494  20.743 -33.319  1.00  0.00     0.079 C 
BRANCH  16  17
ATOM     17  C   UNL     1     -29.351  19.517 -33.147  1.00  0.00     0.130 C 
ATOM     18  O   UNL     1     -28.941  18.583 -32.474  1.00  0.00    -0.300 OA
ATOM     19  C   UNL     1     -30.699  19.409 -33.799  1.00  0.00     0.087 C 
ENDBRANCH  16  17
ENDBRANCH  15  16
ENDBRANCH  13  15
ENDBRANCH  11  12
ENDBRANCH   1  11
TORSDOF 9
ENDMDL
MODEL 3
REMARK VINA RESULT:    -6.341      2.401      7.798
REMARK INTER + INTRA:         -10.905
REMARK INTER:                  -9.722
REMARK INTRA:                  -1.182
REMARK UNBOUND:                -1.228
REMARK SMILES CC(=O)CCC=C(C)CCC=C(C)CCC=C(C)C
REMARK SMILES IDX 10 1 11 2 12 3 13 4 14 5 15 6 16 7 18 8 17 9 19 10 9 11 7 12
REMARK SMILES IDX 6 13 8 14 5 15 4 16 2 17 3 18 1 19
REMARK H PARENT
REMARK Flexibility Score: inf
ROOT
ATOM      1  C   UNL     1     -27.019  17.920 -31.074  1.00  0.00     0.032 C 
ENDROOT
BRANCH   1   2
ATOM      2  C   UNL     1     -26.240  18.793 -32.024  1.00  0.00    -0.028 C 
ATOM      3  C   UNL     1     -26.777  19.433 -33.087  1.00  0.00    -0.077 C 
ATOM      4  C   UNL     1     -28.254  19.356 -33.399  1.00  0.00     0.039 C 
BRANCH   3   5
ATOM      5  C   UNL     1     -25.877  20.261 -33.980  1.00  0.00     0.034 C 
BRANCH   5   6
ATOM      6  C   UNL     1     -24.450  20.309 -33.424  1.00  0.00     0.032 C 
BRANCH   6   7
ATOM      7  C   UNL     1     -24.162  21.650 -32.795  1.00  0.00    -0.028 C 
ATOM      8  C   UNL     1     -23.388  20.641 -30.642  1.00  0.00     0.039 C 
ATOM      9  C   UNL     1     -23.709  21.814 -31.535  1.00  0.00    -0.080 C 
ATOM     10  C   UNL     1     -23.475  23.200 -30.994  1.00  0.00     0.039 C 
ENDBRANCH   6   7
ENDBRANCH   5   6
ENDBRANCH   3   5
ENDBRANCH   1   2
BRANCH   1  11
ATOM     11  C   UNL     1     -26.110  17.379 -29.965  1.00  0.00     0.034 C 
BRANCH  11  12
ATOM     12  C   UNL     1     -25.569  16.018 -30.343  1.00  0.00    -0.077 C 
ATOM     13  C   UNL     1     -26.332  14.923 -30.121  1.00  0.00    -0.028 C 
ATOM     14  C   UNL     1     -24.179  15.917 -30.920  1.00  0.00     0.039 C 
BRANCH  13  15
ATOM     15  C   UNL     1     -25.872  13.506 -30.356  1.00  0.00     0.035 C 
BRANCH  15  16
ATOM     16  C   UNL     1     -27.022  12.662 -30.915  1.00  0.00     0.079 C 
BRANCH  16  17
ATOM     17  C   UNL     1     -26.809  12.364 -32.375  1.00  0.00     0.130 C 
ATOM     18  O   UNL     1     -26.323  13.218 -33.101  1.00  0.00    -0.300 OA
ATOM     19  C   UNL     1     -27.198  11.040 -32.966  1.00  0.00     0.087 C 
ENDBRANCH  16  17
ENDBRANCH  15  16
ENDBRANCH  13  15
ENDBRANCH  11  12
ENDBRANCH   1  11
TORSDOF 9
ENDMDL
MODEL 4
REMARK VINA RESULT:    -6.336      2.468      7.271
REMARK INTER + INTRA:         -10.897
REMARK INTER:                  -9.974
REMARK INTRA:                  -0.923
REMARK UNBOUND:                -1.228
REMARK SMILES CC(=O)CCC=C(C)CCC=C(C)CCC=C(C)C
REMARK SMILES IDX 10 1 11 2 12 3 13 4 14 5 15 6 16 7 18 8 17 9 19 10 9 11 7 12
REMARK SMILES IDX 6 13 8 14 5 15 4 16 2 17 3 18 1 19
REMARK H PARENT
REMARK Flexibility Score: inf
ROOT
ATOM      1  C   UNL     1     -24.996  18.483 -30.616  1.00  0.00     0.032 C 
ENDROOT
BRANCH   1   2
ATOM      2  C   UNL     1     -24.968  18.913 -32.060  1.00  0.00    -0.028 C 
ATOM      3  C   UNL     1     -24.491  20.102 -32.493  1.00  0.00    -0.077 C 
ATOM      4  C   UNL     1     -23.894  21.113 -31.541  1.00  0.00     0.039 C 
BRANCH   3   5
ATOM      5  C   UNL     1     -24.544  20.423 -33.971  1.00  0.00     0.034 C 
BRANCH   5   6
ATOM      6  C   UNL     1     -25.917  20.079 -34.556  1.00  0.00     0.032 C 
BRANCH   6   7
ATOM      7  C   UNL     1     -26.985  20.986 -33.995  1.00  0.00    -0.028 C 
ATOM      8  C   UNL     1     -28.441  19.082 -33.285  1.00  0.00     0.039 C 
ATOM      9  C   UNL     1     -28.137  20.551 -33.445  1.00  0.00    -0.080 C 
ATOM     10  C   UNL     1     -29.149  21.543 -32.934  1.00  0.00     0.039 C 
ENDBRANCH   6   7
ENDBRANCH   5   6
ENDBRANCH   3   5
ENDBRANCH   1   2
BRANCH   1  11
ATOM     11  C   UNL     1     -26.069  17.412 -30.390  1.00  0.00     0.034 C 
BRANCH  11  12
ATOM     12  C   UNL     1     -25.465  16.030 -30.500  1.00  0.00    -0.077 C 
ATOM     13  C   UNL     1     -26.222  14.954 -30.184  1.00  0.00    -0.028 C 
ATOM     14  C   UNL     1     -24.023  15.892 -30.922  1.00  0.00     0.039 C 
BRANCH  13  15
ATOM     15  C   UNL     1     -25.712  13.536 -30.152  1.00  0.00     0.035 C 
BRANCH  15  16
ATOM     16  C   UNL     1     -26.804  12.570 -30.622  1.00  0.00     0.079 C 
BRANCH  16  17
ATOM     17  C   UNL     1     -26.767  12.404 -32.118  1.00  0.00     0.130 C 
ATOM     18  O   UNL     1     -26.340  13.311 -32.815  1.00  0.00    -0.300 OA
ATOM     19  C   UNL     1     -27.262  11.149 -32.777  1.00  0.00     0.087 C 
ENDBRANCH  16  17
ENDBRANCH  15  16
ENDBRANCH  13  15
ENDBRANCH  11  12
ENDBRANCH   1  11
TORSDOF 9
ENDMDL
MODEL 5
REMARK VINA RESULT:    -6.271      2.668      7.475
REMARK INTER + INTRA:         -10.798
REMARK INTER:                  -9.547
REMARK INTRA:                  -1.250
REMARK UNBOUND:                -1.228
REMARK SMILES CC(=O)CCC=C(C)CCC=C(C)CCC=C(C)C
REMARK SMILES IDX 10 1 11 2 12 3 13 4 14 5 15 6 16 7 18 8 17 9 19 10 9 11 7 12
REMARK SMILES IDX 6 13 8 14 5 15 4 16 2 17 3 18 1 19
REMARK H PARENT
REMARK Flexibility Score: inf
ROOT
ATOM      1  C   UNL     1     -24.275  17.399 -30.887  1.00  0.00     0.032 C 
ENDROOT
BRANCH   1   2
ATOM      2  C   UNL     1     -24.431  18.498 -31.906  1.00  0.00    -0.028 C 
ATOM      3  C   UNL     1     -24.159  19.802 -31.672  1.00  0.00    -0.077 C 
ATOM      4  C   UNL     1     -23.624  20.275 -30.340  1.00  0.00     0.039 C 
BRANCH   3   5
ATOM      5  C   UNL     1     -24.384  20.812 -32.777  1.00  0.00     0.034 C 
BRANCH   5   6
ATOM      6  C   UNL     1     -25.375  20.275 -33.814  1.00  0.00     0.032 C 
BRANCH   6   7
ATOM      7  C   UNL     1     -26.726  20.927 -33.656  1.00  0.00    -0.028 C 
ATOM      8  C   UNL     1     -27.797  18.842 -32.784  1.00  0.00     0.039 C 
ATOM      9  C   UNL     1     -27.830  20.287 -33.219  1.00  0.00    -0.080 C 
ATOM     10  C   UNL     1     -29.139  21.025 -33.119  1.00  0.00     0.039 C 
ENDBRANCH   6   7
ENDBRANCH   5   6
ENDBRANCH   3   5
ENDBRANCH   1   2
BRANCH   1  11
ATOM     11  C   UNL     1     -25.642  16.844 -30.474  1.00  0.00     0.034 C 
BRANCH  11  12
ATOM     12  C   UNL     1     -25.577  15.340 -30.326  1.00  0.00    -0.077 C 
ATOM     13  C   UNL     1     -26.725  14.647 -30.153  1.00  0.00    -0.028 C 
ATOM     14  C   UNL     1     -24.230  14.661 -30.335  1.00  0.00     0.039 C 
BRANCH  13  15
ATOM     15  C   UNL     1     -26.791  13.163 -29.891  1.00  0.00     0.035 C 
BRANCH  15  16
ATOM     16  C   UNL     1     -28.045  12.566 -30.536  1.00  0.00     0.079 C 
BRANCH  16  17
ATOM     17  C   UNL     1     -29.288  13.028 -29.823  1.00  0.00     0.130 C 
ATOM     18  O   UNL     1     -30.155  13.622 -30.445  1.00  0.00    -0.300 OA
ATOM     19  C   UNL     1     -29.479  12.789 -28.353  1.00  0.00     0.087 C 
ENDBRANCH  16  17
ENDBRANCH  15  16
ENDBRANCH  13  15
ENDBRANCH  11  12
ENDBRANCH   1  11
TORSDOF 9
ENDMDL
MODEL 6
REMARK VINA RESULT:    -6.204      1.519      2.943
REMARK INTER + INTRA:         -10.696
REMARK INTER:                  -9.445
REMARK INTRA:                  -1.251
REMARK UNBOUND:                -1.228
REMARK SMILES CC(=O)CCC=C(C)CCC=C(C)CCC=C(C)C
REMARK SMILES IDX 10 1 11 2 12 3 13 4 14 5 15 6 16 7 18 8 17 9 19 10 9 11 7 12
REMARK SMILES IDX 6 13 8 14 5 15 4 16 2 17 3 18 1 19
REMARK H PARENT
REMARK Flexibility Score: inf
ROOT
ATOM      1  C   UNL     1     -25.532  15.012 -29.970  1.00  0.00     0.032 C 
ENDROOT
BRANCH   1   2
ATOM      2  C   UNL     1     -26.123  13.913 -30.815  1.00  0.00    -0.028 C 
ATOM      3  C   UNL     1     -25.922  12.593 -30.601  1.00  0.00    -0.077 C 
ATOM      4  C   UNL     1     -25.095  12.093 -29.438  1.00  0.00     0.039 C 
BRANCH   3   5
ATOM      5  C   UNL     1     -26.554  11.589 -31.541  1.00  0.00     0.034 C 
BRANCH   5   6
ATOM      6  C   UNL     1     -28.082  11.670 -31.481  1.00  0.00     0.032 C 
BRANCH   6   7
ATOM      7  C   UNL     1     -28.582  11.392 -30.085  1.00  0.00    -0.028 C 
ATOM      8  C   UNL     1     -29.828  13.555 -29.939  1.00  0.00     0.039 C 
ATOM      9  C   UNL     1     -29.346  12.243 -29.369  1.00  0.00    -0.080 C 
ATOM     10  C   UNL     1     -29.774  11.879 -27.972  1.00  0.00     0.039 C 
ENDBRANCH   6   7
ENDBRANCH   5   6
ENDBRANCH   3   5
ENDBRANCH   1   2
BRANCH   1  11
ATOM     11  C   UNL     1     -25.950  16.387 -30.499  1.00  0.00     0.034 C 
BRANCH  11  12
ATOM     12  C   UNL     1     -24.736  17.169 -30.951  1.00  0.00    -0.077 C 
ATOM     13  C   UNL     1     -24.802  18.520 -30.992  1.00  0.00    -0.028 C 
ATOM     14  C   UNL     1     -23.500  16.419 -31.380  1.00  0.00     0.039 C 
BRANCH  13  15
ATOM     15  C   UNL     1     -23.704  19.408 -31.518  1.00  0.00     0.035 C 
BRANCH  15  16
ATOM     16  C   UNL     1     -24.302  20.599 -32.274  1.00  0.00     0.079 C 
BRANCH  16  17
ATOM     17  C   UNL     1     -24.759  20.188 -33.648  1.00  0.00     0.130 C 
ATOM     18  O   UNL     1     -23.938  19.813 -34.471  1.00  0.00    -0.300 OA
ATOM     19  C   UNL     1     -26.208  20.244 -34.038  1.00  0.00     0.087 C 
ENDBRANCH  16  17
ENDBRANCH  15  16
ENDBRANCH  13  15
ENDBRANCH  11  12
ENDBRANCH   1  11
TORSDOF 9
ENDMDL
MODEL 7
REMARK VINA RESULT:    -6.180      3.002      8.350
REMARK INTER + INTRA:         -10.659
REMARK INTER:                  -9.596
REMARK INTRA:                  -1.063
REMARK UNBOUND:                -1.228
REMARK SMILES CC(=O)CCC=C(C)CCC=C(C)CCC=C(C)C
REMARK SMILES IDX 10 1 11 2 12 3 13 4 14 5 15 6 16 7 18 8 17 9 19 10 9 11 7 12
REMARK SMILES IDX 6 13 8 14 5 15 4 16 2 17 3 18 1 19
REMARK H PARENT
REMARK Flexibility Score: inf
ROOT
ATOM      1  C   UNL     1     -26.274  17.234 -30.656  1.00  0.00     0.032 C 
ENDROOT
BRANCH   1   2
ATOM      2  C   UNL     1     -25.840  18.375 -31.539  1.00  0.00    -0.028 C 
ATOM      3  C   UNL     1     -26.654  19.025 -32.402  1.00  0.00    -0.077 C 
ATOM      4  C   UNL     1     -28.119  18.677 -32.529  1.00  0.00     0.039 C 
BRANCH   3   5
ATOM      5  C   UNL     1     -26.085  20.141 -33.252  1.00  0.00     0.034 C 
BRANCH   5   6
ATOM      6  C   UNL     1     -24.574  20.274 -33.041  1.00  0.00     0.032 C 
BRANCH   6   7
ATOM      7  C   UNL     1     -24.212  21.670 -32.601  1.00  0.00    -0.028 C 
ATOM      8  C   UNL     1     -23.341  20.908 -30.384  1.00  0.00     0.039 C 
ATOM      9  C   UNL     1     -23.681  21.973 -31.398  1.00  0.00    -0.080 C 
ATOM     10  C   UNL     1     -23.377  23.406 -31.048  1.00  0.00     0.039 C 
ENDBRANCH   6   7
ENDBRANCH   5   6
ENDBRANCH   3   5
ENDBRANCH   1   2
BRANCH   1  11
ATOM     11  C   UNL     1     -25.127  16.238 -30.453  1.00  0.00     0.034 C 
BRANCH  11  12
ATOM     12  C   UNL     1     -25.673  14.853 -30.184  1.00  0.00    -0.077 C 
ATOM     13  C   UNL     1     -27.010  14.685 -30.067  1.00  0.00    -0.028 C 
ATOM     14  C   UNL     1     -24.708  13.706 -30.015  1.00  0.00     0.039 C 
BRANCH  13  15
ATOM     15  C   UNL     1     -27.673  13.381 -29.699  1.00  0.00     0.035 C 
BRANCH  15  16
ATOM     16  C   UNL     1     -29.193  13.504 -29.832  1.00  0.00     0.079 C 
BRANCH  16  17
ATOM     17  C   UNL     1     -29.884  12.308 -29.233  1.00  0.00     0.130 C 
ATOM     18  O   UNL     1     -30.644  11.643 -29.921  1.00  0.00    -0.300 OA
ATOM     19  C   UNL     1     -29.671  11.920 -27.799  1.00  0.00     0.087 C 
ENDBRANCH  16  17
ENDBRANCH  15  16
ENDBRANCH  13  15
ENDBRANCH  11  12
ENDBRANCH   1  11
TORSDOF 9
ENDMDL
MODEL 8
REMARK VINA RESULT:    -5.922      1.554      3.003
REMARK INTER + INTRA:         -10.266
REMARK INTER:                  -9.057
REMARK INTRA:                  -1.209
REMARK UNBOUND:                -1.228
REMARK SMILES CC(=O)CCC=C(C)CCC=C(C)CCC=C(C)C
REMARK SMILES IDX 10 1 11 2 12 3 13 4 14 5 15 6 16 7 18 8 17 9 19 10 9 11 7 12
REMARK SMILES IDX 6 13 8 14 5 15 4 16 2 17 3 18 1 19
REMARK H PARENT
REMARK Flexibility Score: inf
ROOT
ATOM      1  C   UNL     1     -25.733  14.348 -30.851  1.00  0.00     0.032 C 
ENDROOT
BRANCH   1   2
ATOM      2  C   UNL     1     -26.220  13.513 -29.695  1.00  0.00    -0.028 C 
ATOM      3  C   UNL     1     -26.415  12.176 -29.747  1.00  0.00    -0.077 C 
ATOM      4  C   UNL     1     -26.117  11.377 -30.995  1.00  0.00     0.039 C 
BRANCH   3   5
ATOM      5  C   UNL     1     -26.933  11.458 -28.519  1.00  0.00     0.034 C 
BRANCH   5   6
ATOM      6  C   UNL     1     -28.364  11.896 -28.193  1.00  0.00     0.032 C 
BRANCH   6   7
ATOM      7  C   UNL     1     -29.332  11.392 -29.234  1.00  0.00    -0.028 C 
ATOM      8  C   UNL     1     -29.864  13.688 -30.068  1.00  0.00     0.039 C 
ATOM      9  C   UNL     1     -30.034  12.189 -30.067  1.00  0.00    -0.080 C 
ATOM     10  C   UNL     1     -30.994  11.584 -31.057  1.00  0.00     0.039 C 
ENDBRANCH   6   7
ENDBRANCH   5   6
ENDBRANCH   3   5
ENDBRANCH   1   2
BRANCH   1  11
ATOM     11  C   UNL     1     -24.724  15.397 -30.376  1.00  0.00     0.034 C 
BRANCH  11  12
ATOM     12  C   UNL     1     -25.216  16.789 -30.705  1.00  0.00    -0.077 C 
ATOM     13  C   UNL     1     -24.378  17.654 -31.321  1.00  0.00    -0.028 C 
ATOM     14  C   UNL     1     -26.614  17.187 -30.302  1.00  0.00     0.039 C 
BRANCH  13  15
ATOM     15  C   UNL     1     -24.708  19.097 -31.611  1.00  0.00     0.035 C 
BRANCH  15  16
ATOM     16  C   UNL     1     -23.421  19.912 -31.775  1.00  0.00     0.079 C 
BRANCH  16  17
ATOM     17  C   UNL     1     -23.350  21.014 -30.751  1.00  0.00     0.130 C 
ATOM     18  O   UNL     1     -23.203  20.733 -29.571  1.00  0.00    -0.300 OA
ATOM     19  C   UNL     1     -23.471  22.457 -31.147  1.00  0.00     0.087 C 
ENDBRANCH  16  17
ENDBRANCH  15  16
ENDBRANCH  13  15
ENDBRANCH  11  12
ENDBRANCH   1  11
TORSDOF 9
ENDMDL
MODEL 9
REMARK VINA RESULT:    -5.740      2.710      7.993
REMARK INTER + INTRA:          -9.989
REMARK INTER:                  -8.862
REMARK INTRA:                  -1.127
REMARK UNBOUND:                -1.228
REMARK SMILES CC(=O)CCC=C(C)CCC=C(C)CCC=C(C)C
REMARK SMILES IDX 10 1 11 2 12 3 13 4 14 5 15 6 16 7 18 8 17 9 19 10 9 11 7 12
REMARK SMILES IDX 6 13 8 14 5 15 4 16 2 17 3 18 1 19
REMARK H PARENT
REMARK Flexibility Score: inf
ROOT
ATOM      1  C   UNL     1     -25.528  14.704 -30.257  1.00  0.00     0.032 C 
ENDROOT
BRANCH   1   2
ATOM      2  C   UNL     1     -24.624  15.816 -30.723  1.00  0.00    -0.028 C 
ATOM      3  C   UNL     1     -24.974  17.122 -30.756  1.00  0.00    -0.077 C 
ATOM      4  C   UNL     1     -26.328  17.594 -30.278  1.00  0.00     0.039 C 
BRANCH   3   5
ATOM      5  C   UNL     1     -23.979  18.139 -31.273  1.00  0.00     0.034 C 
BRANCH   5   6
ATOM      6  C   UNL     1     -24.643  19.507 -31.460  1.00  0.00     0.032 C 
BRANCH   6   7
ATOM      7  C   UNL     1     -24.658  19.903 -32.916  1.00  0.00    -0.028 C 
ATOM      8  C   UNL     1     -27.128  19.578 -33.133  1.00  0.00     0.039 C 
ATOM      9  C   UNL     1     -25.765  19.914 -33.687  1.00  0.00    -0.080 C 
ATOM     10  C   UNL     1     -25.668  20.305 -35.138  1.00  0.00     0.039 C 
ENDBRANCH   6   7
ENDBRANCH   5   6
ENDBRANCH   3   5
ENDBRANCH   1   2
BRANCH   1  11
ATOM     11  C   UNL     1     -24.714  13.455 -29.905  1.00  0.00     0.034 C 
BRANCH  11  12
ATOM     12  C   UNL     1     -25.630  12.269 -29.701  1.00  0.00    -0.077 C 
ATOM     13  C   UNL     1     -26.694  12.112 -30.521  1.00  0.00    -0.028 C 
ATOM     14  C   UNL     1     -25.354  11.317 -28.564  1.00  0.00     0.039 C 
BRANCH  13  15
ATOM     15  C   UNL     1     -27.738  11.035 -30.363  1.00  0.00     0.035 C 
BRANCH  15  16
ATOM     16  C   UNL     1     -29.135  11.612 -30.605  1.00  0.00     0.079 C 
BRANCH  16  17
ATOM     17  C   UNL     1     -29.386  12.804 -29.719  1.00  0.00     0.130 C 
ATOM     18  O   UNL     1     -29.596  13.897 -30.222  1.00  0.00    -0.300 OA
ATOM     19  C   UNL     1     -29.367  12.681 -28.223  1.00  0.00     0.087 C 
ENDBRANCH  16  17
ENDBRANCH  15  16
ENDBRANCH  13  15
ENDBRANCH  11  12
ENDBRANCH   1  11
TORSDOF 9
ENDMDL
