MODEL 1
REMARK VINA RESULT:    -5.308      0.000      0.000
REMARK INTER + INTRA:          -5.308
REMARK INTER:                  -5.308
REMARK INTRA:                   0.000
REMARK UNBOUND:                 0.000
REMARK SMILES CC1=CC(=O)[C@@H]2C[C@H]1C2(C)C
REMARK SMILES IDX 1 1 2 2 3 3 4 4 5 5 6 6 7 7 8 8 9 9 10 10 11 11
REMARK H PARENT
REMARK Flexibility Score: inf
ROOT
ATOM      1  C   UNL     1     209.480 151.096 181.364  1.00  0.00     0.040 C 
ATOM      2  C   UNL     1     210.834 151.450 181.892  1.00  0.00    -0.066 C 
ATOM      3  C   UNL     1     211.859 150.551 181.925  1.00  0.00     0.047 C 
ATOM      4  C   UNL     1     213.159 151.050 182.481  1.00  0.00     0.159 C 
ATOM      5  O   UNL     1     214.190 150.331 182.524  1.00  0.00    -0.295 OA
ATOM      6  C   UNL     1     213.143 152.492 182.988  1.00  0.00     0.067 C 
ATOM      7  C   UNL     1     211.844 152.585 183.818  1.00  0.00     0.021 C 
ATOM      8  C   UNL     1     211.113 152.847 182.482  1.00  0.00     0.022 C 
ATOM      9  C   UNL     1     212.459 153.388 181.918  1.00  0.00    -0.019 C 
ATOM     10  C   UNL     1     212.654 154.899 182.200  1.00  0.00     0.012 C 
ATOM     11  C   UNL     1     212.785 153.128 180.419  1.00  0.00     0.012 C 
ENDROOT
TORSDOF 0
ENDMDL
MODEL 2
REMARK VINA RESULT:    -5.271      1.953      3.225
REMARK INTER + INTRA:          -5.271
REMARK INTER:                  -5.271
REMARK INTRA:                   0.000
REMARK UNBOUND:                 0.000
REMARK SMILES CC1=CC(=O)[C@@H]2C[C@H]1C2(C)C
REMARK SMILES IDX 1 1 2 2 3 3 4 4 5 5 6 6 7 7 8 8 9 9 10 10 11 11
REMARK H PARENT
REMARK Flexibility Score: inf
ROOT
ATOM      1  C   UNL     1     213.973 149.875 184.942  1.00  0.00     0.040 C 
ATOM      2  C   UNL     1     213.878 151.216 184.284  1.00  0.00    -0.066 C 
ATOM      3  C   UNL     1     214.481 151.484 183.091  1.00  0.00     0.047 C 
ATOM      4  C   UNL     1     214.296 152.871 182.554  1.00  0.00     0.159 C 
ATOM      5  O   UNL     1     214.766 153.229 181.443  1.00  0.00    -0.295 OA
ATOM      6  C   UNL     1     213.495 153.819 183.449  1.00  0.00     0.067 C 
ATOM      7  C   UNL     1     214.084 153.591 184.859  1.00  0.00     0.021 C 
ATOM      8  C   UNL     1     213.130 152.380 184.966  1.00  0.00     0.022 C 
ATOM      9  C   UNL     1     212.211 153.084 183.926  1.00  0.00    -0.019 C 
ATOM     10  C   UNL     1     211.194 154.045 184.592  1.00  0.00     0.012 C 
ATOM     11  C   UNL     1     211.444 152.197 182.903  1.00  0.00     0.012 C 
ENDROOT
TORSDOF 0
ENDMDL
MODEL 3
REMARK VINA RESULT:    -5.161      1.523      3.180
REMARK INTER + INTRA:          -5.161
REMARK INTER:                  -5.161
REMARK INTRA:                   0.000
REMARK UNBOUND:                 0.000
REMARK SMILES CC1=CC(=O)[C@@H]2C[C@H]1C2(C)C
REMARK SMILES IDX 1 1 2 2 3 3 4 4 5 5 6 6 7 7 8 8 9 9 10 10 11 11
REMARK H PARENT
REMARK Flexibility Score: inf
ROOT
ATOM      1  C   UNL     1     213.416 151.862 185.523  1.00  0.00     0.040 C 
ATOM      2  C   UNL     1     213.099 152.336 184.139  1.00  0.00    -0.066 C 
ATOM      3  C   UNL     1     214.069 152.732 183.267  1.00  0.00     0.047 C 
ATOM      4  C   UNL     1     213.599 153.180 181.915  1.00  0.00     0.159 C 
ATOM      5  O   UNL     1     214.399 153.528 181.008  1.00  0.00    -0.295 OA
ATOM      6  C   UNL     1     212.083 153.184 181.717  1.00  0.00     0.067 C 
ATOM      7  C   UNL     1     211.537 153.846 183.001  1.00  0.00     0.021 C 
ATOM      8  C   UNL     1     211.638 152.452 183.659  1.00  0.00     0.022 C 
ATOM      9  C   UNL     1     211.512 151.834 182.236  1.00  0.00    -0.019 C 
ATOM     10  C   UNL     1     210.036 151.617 181.815  1.00  0.00     0.012 C 
ATOM     11  C   UNL     1     212.302 150.530 181.927  1.00  0.00     0.012 C 
ENDROOT
TORSDOF 0
ENDMDL
MODEL 4
REMARK VINA RESULT:    -5.137      1.599      2.727
REMARK INTER + INTRA:          -5.137
REMARK INTER:                  -5.137
REMARK INTRA:                   0.000
REMARK UNBOUND:                 0.000
REMARK SMILES CC1=CC(=O)[C@@H]2C[C@H]1C2(C)C
REMARK SMILES IDX 1 1 2 2 3 3 4 4 5 5 6 6 7 7 8 8 9 9 10 10 11 11
REMARK H PARENT
REMARK Flexibility Score: inf
ROOT
ATOM      1  C   UNL     1     211.157 154.354 184.531  1.00  0.00     0.040 C 
ATOM      2  C   UNL     1     211.630 153.176 183.738  1.00  0.00    -0.066 C 
ATOM      3  C   UNL     1     210.801 152.471 182.917  1.00  0.00     0.047 C 
ATOM      4  C   UNL     1     211.418 151.317 182.186  1.00  0.00     0.159 C 
ATOM      5  O   UNL     1     210.768 150.616 181.367  1.00  0.00    -0.295 OA
ATOM      6  C   UNL     1     212.890 151.052 182.504  1.00  0.00     0.067 C 
ATOM      7  C   UNL     1     212.964 151.140 184.044  1.00  0.00     0.021 C 
ATOM      8  C   UNL     1     213.082 152.670 183.864  1.00  0.00     0.022 C 
ATOM      9  C   UNL     1     213.660 152.401 182.445  1.00  0.00    -0.019 C 
ATOM     10  C   UNL     1     215.198 152.204 182.461  1.00  0.00     0.012 C 
ATOM     11  C   UNL     1     213.311 153.402 181.306  1.00  0.00     0.012 C 
ENDROOT
TORSDOF 0
ENDMDL
MODEL 5
REMARK VINA RESULT:    -5.041      1.736      2.905
REMARK INTER + INTRA:          -5.041
REMARK INTER:                  -5.041
REMARK INTRA:                   0.000
REMARK UNBOUND:                 0.000
REMARK SMILES CC1=CC(=O)[C@@H]2C[C@H]1C2(C)C
REMARK SMILES IDX 1 1 2 2 3 3 4 4 5 5 6 6 7 7 8 8 9 9 10 10 11 11
REMARK H PARENT
REMARK Flexibility Score: inf
ROOT
ATOM      1  C   UNL     1     210.615 151.005 181.443  1.00  0.00     0.040 C 
ATOM      2  C   UNL     1     211.811 151.735 181.968  1.00  0.00    -0.066 C 
ATOM      3  C   UNL     1     212.272 152.882 181.392  1.00  0.00     0.047 C 
ATOM      4  C   UNL     1     213.479 153.502 182.029  1.00  0.00     0.159 C 
ATOM      5  O   UNL     1     213.974 154.584 181.619  1.00  0.00    -0.295 OA
ATOM      6  C   UNL     1     214.064 152.731 183.213  1.00  0.00     0.067 C 
ATOM      7  C   UNL     1     214.095 151.265 182.728  1.00  0.00     0.021 C 
ATOM      8  C   UNL     1     212.614 151.182 183.162  1.00  0.00     0.022 C 
ATOM      9  C   UNL     1     212.904 152.333 184.168  1.00  0.00    -0.019 C 
ATOM     10  C   UNL     1     213.417 151.809 185.534  1.00  0.00     0.012 C 
ATOM     11  C   UNL     1     211.780 153.374 184.439  1.00  0.00     0.012 C 
ENDROOT
TORSDOF 0
ENDMDL
MODEL 6
REMARK VINA RESULT:    -5.023      1.548      2.186
REMARK INTER + INTRA:          -5.023
REMARK INTER:                  -5.023
REMARK INTRA:                   0.000
REMARK UNBOUND:                 0.000
REMARK SMILES CC1=CC(=O)[C@@H]2C[C@H]1C2(C)C
REMARK SMILES IDX 1 1 2 2 3 3 4 4 5 5 6 6 7 7 8 8 9 9 10 10 11 11
REMARK H PARENT
REMARK Flexibility Score: inf
ROOT
ATOM      1  C   UNL     1     210.556 152.081 182.276  1.00  0.00     0.040 C 
ATOM      2  C   UNL     1     211.997 151.803 182.569  1.00  0.00    -0.066 C 
ATOM      3  C   UNL     1     212.835 151.259 181.641  1.00  0.00     0.047 C 
ATOM      4  C   UNL     1     214.252 151.039 182.077  1.00  0.00     0.159 C 
ATOM      5  O   UNL     1     215.131 150.584 181.300  1.00  0.00    -0.295 OA
ATOM      6  C   UNL     1     214.554 151.407 183.530  1.00  0.00     0.067 C 
ATOM      7  C   UNL     1     213.380 150.795 184.325  1.00  0.00     0.021 C 
ATOM      8  C   UNL     1     212.587 152.072 183.968  1.00  0.00     0.022 C 
ATOM      9  C   UNL     1     213.949 152.809 183.823  1.00  0.00    -0.019 C 
ATOM     10  C   UNL     1     214.448 153.399 185.167  1.00  0.00     0.012 C 
ATOM     11  C   UNL     1     214.077 153.911 182.732  1.00  0.00     0.012 C 
ENDROOT
TORSDOF 0
ENDMDL
MODEL 7
REMARK VINA RESULT:    -4.998      1.264      3.252
REMARK INTER + INTRA:          -4.998
REMARK INTER:                  -4.998
REMARK INTRA:                   0.000
REMARK UNBOUND:                 0.000
REMARK SMILES CC1=CC(=O)[C@@H]2C[C@H]1C2(C)C
REMARK SMILES IDX 1 1 2 2 3 3 4 4 5 5 6 6 7 7 8 8 9 9 10 10 11 11
REMARK H PARENT
REMARK Flexibility Score: inf
ROOT
ATOM      1  C   UNL     1     214.126 154.687 181.599  1.00  0.00     0.040 C 
ATOM      2  C   UNL     1     213.662 153.383 182.166  1.00  0.00    -0.066 C 
ATOM      3  C   UNL     1     214.175 152.868 183.320  1.00  0.00     0.047 C 
ATOM      4  C   UNL     1     213.611 151.553 183.766  1.00  0.00     0.159 C 
ATOM      5  O   UNL     1     213.970 150.996 184.835  1.00  0.00    -0.295 OA
ATOM      6  C   UNL     1     212.567 150.938 182.833  1.00  0.00     0.067 C 
ATOM      7  C   UNL     1     213.183 151.095 181.425  1.00  0.00     0.021 C 
ATOM      8  C   UNL     1     212.610 152.529 181.429  1.00  0.00     0.022 C 
ATOM      9  C   UNL     1     211.539 152.037 182.445  1.00  0.00    -0.019 C 
ATOM     10  C   UNL     1     210.285 151.453 181.745  1.00  0.00     0.012 C 
ATOM     11  C   UNL     1     211.063 153.026 183.549  1.00  0.00     0.012 C 
ENDROOT
TORSDOF 0
ENDMDL
MODEL 8
REMARK VINA RESULT:    -4.905      2.014      3.496
REMARK INTER + INTRA:          -4.905
REMARK INTER:                  -4.905
REMARK INTRA:                   0.000
REMARK UNBOUND:                 0.000
REMARK SMILES CC1=CC(=O)[C@@H]2C[C@H]1C2(C)C
REMARK SMILES IDX 1 1 2 2 3 3 4 4 5 5 6 6 7 7 8 8 9 9 10 10 11 11
REMARK H PARENT
REMARK Flexibility Score: inf
ROOT
ATOM      1  C   UNL     1     210.812 151.765 182.357  1.00  0.00     0.040 C 
ATOM      2  C   UNL     1     212.194 151.986 182.886  1.00  0.00    -0.066 C 
ATOM      3  C   UNL     1     212.434 152.734 184.001  1.00  0.00     0.047 C 
ATOM      4  C   UNL     1     213.870 152.865 184.412  1.00  0.00     0.159 C 
ATOM      5  O   UNL     1     214.218 153.492 185.446  1.00  0.00    -0.295 OA
ATOM      6  C   UNL     1     214.881 152.184 183.489  1.00  0.00     0.067 C 
ATOM      7  C   UNL     1     214.426 152.590 182.070  1.00  0.00     0.021 C 
ATOM      8  C   UNL     1     213.424 151.417 182.150  1.00  0.00     0.022 C 
ATOM      9  C   UNL     1     214.378 150.746 183.179  1.00  0.00    -0.019 C 
ATOM     10  C   UNL     1     215.464 149.875 182.497  1.00  0.00     0.012 C 
ATOM     11  C   UNL     1     213.748 149.918 184.336  1.00  0.00     0.012 C 
ENDROOT
TORSDOF 0
ENDMDL
MODEL 9
REMARK VINA RESULT:    -4.861      1.659      3.285
REMARK INTER + INTRA:          -4.861
REMARK INTER:                  -4.861
REMARK INTRA:                   0.000
REMARK UNBOUND:                 0.000
REMARK SMILES CC1=CC(=O)[C@@H]2C[C@H]1C2(C)C
REMARK SMILES IDX 1 1 2 2 3 3 4 4 5 5 6 6 7 7 8 8 9 9 10 10 11 11
REMARK H PARENT
REMARK Flexibility Score: inf
ROOT
ATOM      1  C   UNL     1     211.170 154.096 184.387  1.00  0.00     0.040 C 
ATOM      2  C   UNL     1     211.715 153.344 183.214  1.00  0.00    -0.066 C 
ATOM      3  C   UNL     1     212.097 153.968 182.064  1.00  0.00     0.047 C 
ATOM      4  C   UNL     1     212.625 153.083 180.975  1.00  0.00     0.159 C 
ATOM      5  O   UNL     1     213.050 153.542 179.884  1.00  0.00    -0.295 OA
ATOM      6  C   UNL     1     212.613 151.586 181.285  1.00  0.00     0.067 C 
ATOM      7  C   UNL     1     211.215 151.339 181.892  1.00  0.00     0.021 C 
ATOM      8  C   UNL     1     211.814 151.805 183.238  1.00  0.00     0.022 C 
ATOM      9  C   UNL     1     213.208 151.368 182.704  1.00  0.00    -0.019 C 
ATOM     10  C   UNL     1     213.511 149.875 182.995  1.00  0.00     0.012 C 
ATOM     11  C   UNL     1     214.451 152.205 183.120  1.00  0.00     0.012 C 
ENDROOT
TORSDOF 0
ENDMDL
