MODEL 1
REMARK VINA RESULT:    -4.968      0.000      0.000
REMARK INTER + INTRA:         -11.629
REMARK INTER:                  -9.325
REMARK INTRA:                  -2.304
REMARK UNBOUND:                -2.304
REMARK SMILES CCCCCCCCC=CCCCCCCCC(=O)[O-]
REMARK SMILES IDX 10 1 9 2 11 3 12 4 13 5 14 6 15 7 16 8 17 9 18 10 19 11
REMARK SMILES IDX 20 12 8 13 7 14 6 15 5 16 4 17 3 18 2 19 1 20
REMARK H PARENT
REMARK Flexibility Score: inf
ROOT
ATOM      1  C   UNL     1      -0.328 -22.175  47.791  1.00  0.00    -0.031 C 
ATOM      2  C   UNL     1      -1.509 -21.606  47.505  1.00  0.00    -0.031 C 
ENDROOT
BRANCH   1   3
ATOM      3  C   UNL     1       0.486 -21.757  48.986  1.00  0.00     0.027 C 
BRANCH   3   4
ATOM      4  C   UNL     1      -0.104 -22.314  50.287  1.00  0.00     0.004 C 
BRANCH   4   5
ATOM      5  C   UNL     1      -0.504 -23.794  50.157  1.00  0.00     0.000 C 
BRANCH   5   6
ATOM      6  C   UNL     1      -1.911 -24.070  50.727  1.00  0.00     0.000 C 
BRANCH   6   7
ATOM      7  C   UNL     1      -2.946 -24.472  49.659  1.00  0.00     0.000 C 
BRANCH   7   8
ATOM      8  C   UNL     1      -4.262 -23.677  49.704  1.00  0.00     0.006 C 
BRANCH   8   9
ATOM      9  C   UNL     1      -4.070 -22.236  50.193  1.00  0.00     0.053 C 
BRANCH   9  10
ATOM     10  C   UNL     1      -5.135 -21.350  49.632  1.00  0.00     0.041 C 
ATOM     11  O   UNL     1      -5.736 -21.673  48.574  1.00  0.00    -0.550 OA
ATOM     12  O   UNL     1      -5.499 -20.189  50.304  1.00  0.00    -0.550 OA
ENDBRANCH   9  10
ENDBRANCH   8   9
ENDBRANCH   7   8
ENDBRANCH   6   7
ENDBRANCH   5   6
ENDBRANCH   4   5
ENDBRANCH   3   4
ENDBRANCH   1   3
BRANCH   2  13
ATOM     13  C   UNL     1      -2.335 -22.054  46.332  1.00  0.00     0.027 C 
BRANCH  13  14
ATOM     14  C   UNL     1      -2.397 -23.584  46.242  1.00  0.00     0.004 C 
BRANCH  14  15
ATOM     15  C   UNL     1      -3.832 -24.059  45.973  1.00  0.00     0.000 C 
BRANCH  15  16
ATOM     16  C   UNL     1      -3.969 -25.593  45.978  1.00  0.00     0.000 C 
BRANCH  16  17
ATOM     17  C   UNL     1      -2.649 -26.369  46.136  1.00  0.00    -0.000 C 
BRANCH  17  18
ATOM     18  C   UNL     1      -2.601 -27.649  45.284  1.00  0.00    -0.000 C 
BRANCH  18  19
ATOM     19  C   UNL     1      -4.000 -28.141  44.881  1.00  0.00    -0.003 C 
ATOM     20  C   UNL     1      -4.032 -29.636  44.562  1.00  0.00     0.004 C 
ENDBRANCH  18  19
ENDBRANCH  17  18
ENDBRANCH  16  17
ENDBRANCH  15  16
ENDBRANCH  14  15
ENDBRANCH  13  14
ENDBRANCH   2  13
TORSDOF 15
ENDMDL
MODEL 2
REMARK VINA RESULT:    -4.946      2.972      5.540
REMARK INTER + INTRA:         -11.587
REMARK INTER:                  -8.961
REMARK INTRA:                  -2.626
REMARK UNBOUND:                -2.304
REMARK SMILES CCCCCCCCC=CCCCCCCCC(=O)[O-]
REMARK SMILES IDX 10 1 9 2 11 3 12 4 13 5 14 6 15 7 16 8 17 9 18 10 19 11
REMARK SMILES IDX 20 12 8 13 7 14 6 15 5 16 4 17 3 18 2 19 1 20
REMARK H PARENT
REMARK Flexibility Score: inf
ROOT
ATOM      1  C   UNL     1      -4.604 -22.328  50.123  1.00  0.00    -0.031 C 
ATOM      2  C   UNL     1      -3.800 -23.402  50.122  1.00  0.00    -0.031 C 
ENDROOT
BRANCH   1   3
ATOM      3  C   UNL     1      -4.144 -20.993  50.647  1.00  0.00     0.027 C 
BRANCH   3   4
ATOM      4  C   UNL     1      -4.994 -19.848  50.083  1.00  0.00     0.004 C 
BRANCH   4   5
ATOM      5  C   UNL     1      -6.173 -20.361  49.239  1.00  0.00     0.000 C 
BRANCH   5   6
ATOM      6  C   UNL     1      -6.113 -19.856  47.783  1.00  0.00     0.000 C 
BRANCH   6   7
ATOM      7  C   UNL     1      -5.391 -20.820  46.821  1.00  0.00     0.000 C 
BRANCH   7   8
ATOM      8  C   UNL     1      -5.769 -20.657  45.339  1.00  0.00     0.006 C 
BRANCH   8   9
ATOM      9  C   UNL     1      -6.545 -19.363  45.062  1.00  0.00     0.053 C 
BRANCH   9  10
ATOM     10  C   UNL     1      -5.709 -18.416  44.264  1.00  0.00     0.041 C 
ATOM     11  O   UNL     1      -6.191 -17.843  43.251  1.00  0.00    -0.550 OA
ATOM     12  O   UNL     1      -4.411 -18.127  44.665  1.00  0.00    -0.550 OA
ENDBRANCH   9  10
ENDBRANCH   8   9
ENDBRANCH   7   8
ENDBRANCH   6   7
ENDBRANCH   5   6
ENDBRANCH   4   5
ENDBRANCH   3   4
ENDBRANCH   1   3
BRANCH   2  13
ATOM     13  C   UNL     1      -4.252 -24.723  49.564  1.00  0.00     0.027 C 
BRANCH  13  14
ATOM     14  C   UNL     1      -5.154 -24.532  48.337  1.00  0.00     0.004 C 
BRANCH  14  15
ATOM     15  C   UNL     1      -4.317 -24.393  47.059  1.00  0.00     0.000 C 
BRANCH  15  16
ATOM     16  C   UNL     1      -2.915 -25.015  47.186  1.00  0.00     0.000 C 
BRANCH  16  17
ATOM     17  C   UNL     1      -1.742 -24.030  47.019  1.00  0.00    -0.000 C 
BRANCH  17  18
ATOM     18  C   UNL     1      -2.204 -22.591  46.735  1.00  0.00    -0.000 C 
BRANCH  18  19
ATOM     19  C   UNL     1      -1.595 -21.574  47.714  1.00  0.00    -0.003 C 
ATOM     20  C   UNL     1      -0.591 -22.208  48.676  1.00  0.00     0.004 C 
ENDBRANCH  18  19
ENDBRANCH  17  18
ENDBRANCH  16  17
ENDBRANCH  15  16
ENDBRANCH  14  15
ENDBRANCH  13  14
ENDBRANCH   2  13
TORSDOF 15
ENDMDL
MODEL 3
REMARK VINA RESULT:    -4.937      3.280      5.230
REMARK INTER + INTRA:         -11.571
REMARK INTER:                  -8.985
REMARK INTRA:                  -2.586
REMARK UNBOUND:                -2.304
REMARK SMILES CCCCCCCCC=CCCCCCCCC(=O)[O-]
REMARK SMILES IDX 10 1 9 2 11 3 12 4 13 5 14 6 15 7 16 8 17 9 18 10 19 11
REMARK SMILES IDX 20 12 8 13 7 14 6 15 5 16 4 17 3 18 2 19 1 20
REMARK H PARENT
REMARK Flexibility Score: inf
ROOT
ATOM      1  C   UNL     1      -5.497 -22.835  48.319  1.00  0.00    -0.031 C 
ATOM      2  C   UNL     1      -5.414 -21.839  49.214  1.00  0.00    -0.031 C 
ENDROOT
BRANCH   1   3
ATOM      3  C   UNL     1      -5.649 -24.272  48.742  1.00  0.00     0.027 C 
BRANCH   3   4
ATOM      4  C   UNL     1      -4.381 -24.789  49.432  1.00  0.00     0.004 C 
BRANCH   4   5
ATOM      5  C   UNL     1      -3.161 -24.769  48.495  1.00  0.00     0.000 C 
BRANCH   5   6
ATOM      6  C   UNL     1      -1.835 -24.607  49.267  1.00  0.00     0.000 C 
BRANCH   6   7
ATOM      7  C   UNL     1      -1.949 -23.712  50.516  1.00  0.00     0.000 C 
BRANCH   7   8
ATOM      8  C   UNL     1      -1.707 -22.214  50.262  1.00  0.00     0.006 C 
BRANCH   8   9
ATOM      9  C   UNL     1      -0.687 -21.958  49.145  1.00  0.00     0.053 C 
BRANCH   9  10
ATOM     10  C   UNL     1       0.682 -21.787  49.720  1.00  0.00     0.041 C 
ATOM     11  O   UNL     1       1.662 -21.556  48.965  1.00  0.00    -0.550 OA
ATOM     12  O   UNL     1       0.869 -21.834  51.095  1.00  0.00    -0.550 OA
ENDBRANCH   9  10
ENDBRANCH   8   9
ENDBRANCH   7   8
ENDBRANCH   6   7
ENDBRANCH   5   6
ENDBRANCH   4   5
ENDBRANCH   3   4
ENDBRANCH   1   3
BRANCH   2  13
ATOM     13  C   UNL     1      -5.300 -20.402  48.785  1.00  0.00     0.027 C 
BRANCH  13  14
ATOM     14  C   UNL     1      -6.415 -20.021  47.802  1.00  0.00     0.004 C 
BRANCH  14  15
ATOM     15  C   UNL     1      -5.828 -19.585  46.452  1.00  0.00     0.000 C 
BRANCH  15  16
ATOM     16  C   UNL     1      -5.985 -20.652  45.354  1.00  0.00     0.000 C 
BRANCH  16  17
ATOM     17  C   UNL     1      -4.679 -21.071  44.654  1.00  0.00    -0.000 C 
BRANCH  17  18
ATOM     18  C   UNL     1      -3.978 -22.250  45.350  1.00  0.00    -0.000 C 
BRANCH  18  19
ATOM     19  C   UNL     1      -2.615 -21.859  45.941  1.00  0.00    -0.003 C 
ATOM     20  C   UNL     1      -1.550 -22.937  45.738  1.00  0.00     0.004 C 
ENDBRANCH  18  19
ENDBRANCH  17  18
ENDBRANCH  16  17
ENDBRANCH  15  16
ENDBRANCH  14  15
ENDBRANCH  13  14
ENDBRANCH   2  13
TORSDOF 15
ENDMDL
MODEL 4
REMARK VINA RESULT:    -4.926      3.105      6.008
REMARK INTER + INTRA:         -11.550
REMARK INTER:                  -9.091
REMARK INTRA:                  -2.459
REMARK UNBOUND:                -2.304
REMARK SMILES CCCCCCCCC=CCCCCCCCC(=O)[O-]
REMARK SMILES IDX 10 1 9 2 11 3 12 4 13 5 14 6 15 7 16 8 17 9 18 10 19 11
REMARK SMILES IDX 20 12 8 13 7 14 6 15 5 16 4 17 3 18 2 19 1 20
REMARK H PARENT
REMARK Flexibility Score: inf
ROOT
ATOM      1  C   UNL     1      -0.063 -22.210  48.288  1.00  0.00    -0.031 C 
ATOM      2  C   UNL     1      -1.289 -22.357  48.811  1.00  0.00    -0.031 C 
ENDROOT
BRANCH   1   3
ATOM      3  C   UNL     1       0.154 -22.044  46.807  1.00  0.00     0.027 C 
BRANCH   3   4
ATOM      4  C   UNL     1      -1.177 -22.033  46.045  1.00  0.00     0.004 C 
BRANCH   4   5
ATOM      5  C   UNL     1      -1.351 -23.280  45.161  1.00  0.00     0.000 C 
BRANCH   5   6
ATOM      6  C   UNL     1      -2.098 -24.414  45.893  1.00  0.00     0.000 C 
BRANCH   6   7
ATOM      7  C   UNL     1      -3.383 -24.873  45.177  1.00  0.00     0.000 C 
BRANCH   7   8
ATOM      8  C   UNL     1      -3.899 -26.259  45.601  1.00  0.00     0.006 C 
BRANCH   8   9
ATOM      9  C   UNL     1      -2.812 -27.341  45.543  1.00  0.00     0.053 C 
BRANCH   9  10
ATOM     10  C   UNL     1      -3.391 -28.635  45.068  1.00  0.00     0.041 C 
ATOM     11  O   UNL     1      -2.717 -29.695  45.142  1.00  0.00    -0.550 OA
ATOM     12  O   UNL     1      -4.693 -28.679  44.588  1.00  0.00    -0.550 OA
ENDBRANCH   9  10
ENDBRANCH   8   9
ENDBRANCH   7   8
ENDBRANCH   6   7
ENDBRANCH   5   6
ENDBRANCH   4   5
ENDBRANCH   3   4
ENDBRANCH   1   3
BRANCH   2  13
ATOM     13  C   UNL     1      -1.503 -22.485  50.294  1.00  0.00     0.027 C 
BRANCH  13  14
ATOM     14  C   UNL     1      -2.302 -23.749  50.638  1.00  0.00     0.004 C 
BRANCH  14  15
ATOM     15  C   UNL     1      -2.943 -24.350  49.379  1.00  0.00     0.000 C 
BRANCH  15  16
ATOM     16  C   UNL     1      -4.451 -24.617  49.541  1.00  0.00     0.000 C 
BRANCH  16  17
ATOM     17  C   UNL     1      -5.326 -24.179  48.352  1.00  0.00    -0.000 C 
BRANCH  17  18
ATOM     18  C   UNL     1      -5.195 -22.680  48.032  1.00  0.00    -0.000 C 
BRANCH  18  19
ATOM     19  C   UNL     1      -5.474 -21.790  49.253  1.00  0.00    -0.003 C 
ATOM     20  C   UNL     1      -4.548 -20.576  49.325  1.00  0.00     0.004 C 
ENDBRANCH  18  19
ENDBRANCH  17  18
ENDBRANCH  16  17
ENDBRANCH  15  16
ENDBRANCH  14  15
ENDBRANCH  13  14
ENDBRANCH   2  13
TORSDOF 15
ENDMDL
MODEL 5
REMARK VINA RESULT:    -4.902      2.455      3.759
REMARK INTER + INTRA:         -11.505
REMARK INTER:                  -8.713
REMARK INTRA:                  -2.792
REMARK UNBOUND:                -2.304
REMARK SMILES CCCCCCCCC=CCCCCCCCC(=O)[O-]
REMARK SMILES IDX 10 1 9 2 11 3 12 4 13 5 14 6 15 7 16 8 17 9 18 10 19 11
REMARK SMILES IDX 20 12 8 13 7 14 6 15 5 16 4 17 3 18 2 19 1 20
REMARK H PARENT
REMARK Flexibility Score: inf
ROOT
ATOM      1  C   UNL     1      -4.904 -22.072  47.424  1.00  0.00    -0.031 C 
ATOM      2  C   UNL     1      -4.501 -22.756  46.342  1.00  0.00    -0.031 C 
ENDROOT
BRANCH   1   3
ATOM      3  C   UNL     1      -5.618 -22.744  48.567  1.00  0.00     0.027 C 
BRANCH   3   4
ATOM      4  C   UNL     1      -5.450 -24.267  48.513  1.00  0.00     0.004 C 
BRANCH   4   5
ATOM      5  C   UNL     1      -4.649 -24.806  49.711  1.00  0.00     0.000 C 
BRANCH   5   6
ATOM      6  C   UNL     1      -3.291 -24.092  49.873  1.00  0.00     0.000 C 
BRANCH   6   7
ATOM      7  C   UNL     1      -2.153 -24.727  49.051  1.00  0.00     0.000 C 
BRANCH   7   8
ATOM      8  C   UNL     1      -1.303 -23.729  48.246  1.00  0.00     0.006 C 
BRANCH   8   9
ATOM      9  C   UNL     1      -1.268 -22.332  48.878  1.00  0.00     0.053 C 
BRANCH   9  10
ATOM     10  C   UNL     1      -0.072 -22.191  49.763  1.00  0.00     0.041 C 
ATOM     11  O   UNL     1      -0.101 -22.629  50.943  1.00  0.00    -0.550 OA
ATOM     12  O   UNL     1       1.093 -21.618  49.270  1.00  0.00    -0.550 OA
ENDBRANCH   9  10
ENDBRANCH   8   9
ENDBRANCH   7   8
ENDBRANCH   6   7
ENDBRANCH   5   6
ENDBRANCH   4   5
ENDBRANCH   3   4
ENDBRANCH   1   3
BRANCH   2  13
ATOM     13  C   UNL     1      -3.756 -22.088  45.220  1.00  0.00     0.027 C 
BRANCH  13  14
ATOM     14  C   UNL     1      -2.461 -22.839  44.883  1.00  0.00     0.004 C 
BRANCH  14  15
ATOM     15  C   UNL     1      -2.767 -24.171  44.184  1.00  0.00     0.000 C 
BRANCH  15  16
ATOM     16  C   UNL     1      -2.052 -25.370  44.834  1.00  0.00     0.000 C 
BRANCH  16  17
ATOM     17  C   UNL     1      -2.904 -26.182  45.827  1.00  0.00    -0.000 C 
BRANCH  17  18
ATOM     18  C   UNL     1      -4.374 -26.307  45.394  1.00  0.00    -0.000 C 
BRANCH  18  19
ATOM     19  C   UNL     1      -4.646 -27.594  44.600  1.00  0.00    -0.003 C 
ATOM     20  C   UNL     1      -3.657 -28.713  44.930  1.00  0.00     0.004 C 
ENDBRANCH  18  19
ENDBRANCH  17  18
ENDBRANCH  16  17
ENDBRANCH  15  16
ENDBRANCH  14  15
ENDBRANCH  13  14
ENDBRANCH   2  13
TORSDOF 15
ENDMDL
MODEL 6
REMARK VINA RESULT:    -4.869      2.357      4.473
REMARK INTER + INTRA:         -11.443
REMARK INTER:                  -8.905
REMARK INTRA:                  -2.538
REMARK UNBOUND:                -2.304
REMARK SMILES CCCCCCCCC=CCCCCCCCC(=O)[O-]
REMARK SMILES IDX 10 1 9 2 11 3 12 4 13 5 14 6 15 7 16 8 17 9 18 10 19 11
REMARK SMILES IDX 20 12 8 13 7 14 6 15 5 16 4 17 3 18 2 19 1 20
REMARK H PARENT
REMARK Flexibility Score: inf
ROOT
ATOM      1  C   UNL     1      -1.300 -21.635  47.501  1.00  0.00    -0.031 C 
ATOM      2  C   UNL     1      -0.066 -22.062  47.809  1.00  0.00    -0.031 C 
ENDROOT
BRANCH   1   3
ATOM      3  C   UNL     1      -1.937 -21.942  46.171  1.00  0.00     0.027 C 
BRANCH   3   4
ATOM      4  C   UNL     1      -2.962 -20.870  45.781  1.00  0.00     0.004 C 
BRANCH   4   5
ATOM      5  C   UNL     1      -4.306 -21.481  45.349  1.00  0.00     0.000 C 
BRANCH   5   6
ATOM      6  C   UNL     1      -5.341 -21.483  46.494  1.00  0.00     0.000 C 
BRANCH   6   7
ATOM      7  C   UNL     1      -5.831 -20.077  46.890  1.00  0.00     0.000 C 
BRANCH   7   8
ATOM      8  C   UNL     1      -5.636 -19.718  48.373  1.00  0.00     0.006 C 
BRANCH   8   9
ATOM      9  C   UNL     1      -4.769 -20.738  49.122  1.00  0.00     0.053 C 
BRANCH   9  10
ATOM     10  C   UNL     1      -4.426 -20.229  50.484  1.00  0.00     0.041 C 
ATOM     11  O   UNL     1      -5.016 -19.218  50.950  1.00  0.00    -0.550 OA
ATOM     12  O   UNL     1      -3.490 -20.898  51.262  1.00  0.00    -0.550 OA
ENDBRANCH   9  10
ENDBRANCH   8   9
ENDBRANCH   7   8
ENDBRANCH   6   7
ENDBRANCH   5   6
ENDBRANCH   4   5
ENDBRANCH   3   4
ENDBRANCH   1   3
BRANCH   2  13
ATOM     13  C   UNL     1       0.550 -21.784  49.152  1.00  0.00     0.027 C 
BRANCH  13  14
ATOM     14  C   UNL     1      -0.342 -22.291  50.293  1.00  0.00     0.004 C 
BRANCH  14  15
ATOM     15  C   UNL     1      -0.310 -23.823  50.374  1.00  0.00     0.000 C 
BRANCH  15  16
ATOM     16  C   UNL     1      -1.673 -24.471  50.071  1.00  0.00     0.000 C 
BRANCH  16  17
ATOM     17  C   UNL     1      -1.751 -25.248  48.744  1.00  0.00    -0.000 C 
BRANCH  17  18
ATOM     18  C   UNL     1      -3.020 -24.929  47.936  1.00  0.00    -0.000 C 
BRANCH  18  19
ATOM     19  C   UNL     1      -3.986 -24.007  48.696  1.00  0.00    -0.003 C 
ATOM     20  C   UNL     1      -5.420 -24.536  48.712  1.00  0.00     0.004 C 
ENDBRANCH  18  19
ENDBRANCH  17  18
ENDBRANCH  16  17
ENDBRANCH  15  16
ENDBRANCH  14  15
ENDBRANCH  13  14
ENDBRANCH   2  13
TORSDOF 15
ENDMDL
MODEL 7
REMARK VINA RESULT:    -4.860      2.821      5.681
REMARK INTER + INTRA:         -11.426
REMARK INTER:                  -8.917
REMARK INTRA:                  -2.508
REMARK UNBOUND:                -2.304
REMARK SMILES CCCCCCCCC=CCCCCCCCC(=O)[O-]
REMARK SMILES IDX 10 1 9 2 11 3 12 4 13 5 14 6 15 7 16 8 17 9 18 10 19 11
REMARK SMILES IDX 20 12 8 13 7 14 6 15 5 16 4 17 3 18 2 19 1 20
REMARK H PARENT
REMARK Flexibility Score: inf
ROOT
ATOM      1  C   UNL     1      -3.971 -24.293  47.443  1.00  0.00    -0.031 C 
ATOM      2  C   UNL     1      -3.008 -25.224  47.359  1.00  0.00    -0.031 C 
ENDROOT
BRANCH   1   3
ATOM      3  C   UNL     1      -5.247 -24.537  48.204  1.00  0.00     0.027 C 
BRANCH   3   4
ATOM      4  C   UNL     1      -5.701 -23.277  48.952  1.00  0.00     0.004 C 
BRANCH   4   5
ATOM      5  C   UNL     1      -5.196 -21.989  48.281  1.00  0.00     0.000 C 
BRANCH   5   6
ATOM      6  C   UNL     1      -6.111 -20.781  48.572  1.00  0.00     0.000 C 
BRANCH   6   7
ATOM      7  C   UNL     1      -6.142 -19.738  47.439  1.00  0.00     0.000 C 
BRANCH   7   8
ATOM      8  C   UNL     1      -6.738 -20.242  46.113  1.00  0.00     0.006 C 
BRANCH   8   9
ATOM      9  C   UNL     1      -5.741 -20.175  44.949  1.00  0.00     0.053 C 
BRANCH   9  10
ATOM     10  C   UNL     1      -5.579 -18.764  44.484  1.00  0.00     0.041 C 
ATOM     11  O   UNL     1      -4.528 -18.125  44.755  1.00  0.00    -0.550 OA
ATOM     12  O   UNL     1      -6.567 -18.169  43.711  1.00  0.00    -0.550 OA
ENDBRANCH   9  10
ENDBRANCH   8   9
ENDBRANCH   7   8
ENDBRANCH   6   7
ENDBRANCH   5   6
ENDBRANCH   4   5
ENDBRANCH   3   4
ENDBRANCH   1   3
BRANCH   2  13
ATOM     13  C   UNL     1      -1.720 -24.962  46.631  1.00  0.00     0.027 C 
BRANCH  13  14
ATOM     14  C   UNL     1      -1.649 -23.516  46.123  1.00  0.00     0.004 C 
BRANCH  14  15
ATOM     15  C   UNL     1      -0.479 -22.764  46.773  1.00  0.00     0.000 C 
BRANCH  15  16
ATOM     16  C   UNL     1      -0.938 -21.684  47.770  1.00  0.00     0.000 C 
BRANCH  16  17
ATOM     17  C   UNL     1      -0.724 -22.029  49.256  1.00  0.00    -0.000 C 
BRANCH  17  18
ATOM     18  C   UNL     1      -2.041 -22.285  50.008  1.00  0.00    -0.000 C 
BRANCH  18  19
ATOM     19  C   UNL     1      -2.110 -23.697  50.610  1.00  0.00    -0.003 C 
ATOM     20  C   UNL     1      -0.822 -24.493  50.402  1.00  0.00     0.004 C 
ENDBRANCH  18  19
ENDBRANCH  17  18
ENDBRANCH  16  17
ENDBRANCH  15  16
ENDBRANCH  14  15
ENDBRANCH  13  14
ENDBRANCH   2  13
TORSDOF 15
ENDMDL
MODEL 8
REMARK VINA RESULT:    -4.838      4.267      7.632
REMARK INTER + INTRA:         -11.384
REMARK INTER:                  -9.155
REMARK INTRA:                  -2.229
REMARK UNBOUND:                -2.304
REMARK SMILES CCCCCCCCC=CCCCCCCCC(=O)[O-]
REMARK SMILES IDX 10 1 9 2 11 3 12 4 13 5 14 6 15 7 16 8 17 9 18 10 19 11
REMARK SMILES IDX 20 12 8 13 7 14 6 15 5 16 4 17 3 18 2 19 1 20
REMARK H PARENT
REMARK Flexibility Score: inf
ROOT
ATOM      1  C   UNL     1      -2.857 -24.937  45.501  1.00  0.00    -0.031 C 
ATOM      2  C   UNL     1      -2.425 -25.549  46.614  1.00  0.00    -0.031 C 
ENDROOT
BRANCH   1   3
ATOM      3  C   UNL     1      -3.814 -25.604  44.549  1.00  0.00     0.027 C 
BRANCH   3   4
ATOM      4  C   UNL     1      -4.577 -26.746  45.232  1.00  0.00     0.004 C 
BRANCH   4   5
ATOM      5  C   UNL     1      -5.080 -27.793  44.224  1.00  0.00     0.000 C 
BRANCH   5   6
ATOM      6  C   UNL     1      -4.392 -29.161  44.410  1.00  0.00     0.000 C 
BRANCH   6   7
ATOM      7  C   UNL     1      -3.049 -29.083  45.162  1.00  0.00     0.000 C 
BRANCH   7   8
ATOM      8  C   UNL     1      -1.863 -29.740  44.436  1.00  0.00     0.006 C 
BRANCH   8   9
ATOM      9  C   UNL     1      -1.063 -28.747  43.583  1.00  0.00     0.053 C 
BRANCH   9  10
ATOM     10  C   UNL     1      -1.115 -29.139  42.142  1.00  0.00     0.041 C 
ATOM     11  O   UNL     1      -0.071 -29.109  41.439  1.00  0.00    -0.550 OA
ATOM     12  O   UNL     1      -2.307 -29.584  41.585  1.00  0.00    -0.550 OA
ENDBRANCH   9  10
ENDBRANCH   8   9
ENDBRANCH   7   8
ENDBRANCH   6   7
ENDBRANCH   5   6
ENDBRANCH   4   5
ENDBRANCH   3   4
ENDBRANCH   1   3
BRANCH   2  13
ATOM     13  C   UNL     1      -1.499 -24.864  47.580  1.00  0.00     0.027 C 
BRANCH  13  14
ATOM     14  C   UNL     1      -1.848 -25.213  49.033  1.00  0.00     0.004 C 
BRANCH  14  15
ATOM     15  C   UNL     1      -2.015 -23.941  49.877  1.00  0.00     0.000 C 
BRANCH  15  16
ATOM     16  C   UNL     1      -3.488 -23.547  50.087  1.00  0.00     0.000 C 
BRANCH  16  17
ATOM     17  C   UNL     1      -4.517 -24.627  49.704  1.00  0.00    -0.000 C 
BRANCH  17  18
ATOM     18  C   UNL     1      -5.341 -24.255  48.460  1.00  0.00    -0.000 C 
BRANCH  18  19
ATOM     19  C   UNL     1      -5.479 -22.735  48.278  1.00  0.00    -0.003 C 
ATOM     20  C   UNL     1      -4.763 -22.221  47.030  1.00  0.00     0.004 C 
ENDBRANCH  18  19
ENDBRANCH  17  18
ENDBRANCH  16  17
ENDBRANCH  15  16
ENDBRANCH  14  15
ENDBRANCH  13  14
ENDBRANCH   2  13
TORSDOF 15
ENDMDL
MODEL 9
REMARK VINA RESULT:    -4.798      1.958      4.969
REMARK INTER + INTRA:         -11.310
REMARK INTER:                  -8.953
REMARK INTRA:                  -2.357
REMARK UNBOUND:                -2.304
REMARK SMILES CCCCCCCCC=CCCCCCCCC(=O)[O-]
REMARK SMILES IDX 10 1 9 2 11 3 12 4 13 5 14 6 15 7 16 8 17 9 18 10 19 11
REMARK SMILES IDX 20 12 8 13 7 14 6 15 5 16 4 17 3 18 2 19 1 20
REMARK H PARENT
REMARK Flexibility Score: inf
ROOT
ATOM      1  C   UNL     1      -4.497 -24.803  47.551  1.00  0.00    -0.031 C 
ATOM      2  C   UNL     1      -4.010 -24.293  46.410  1.00  0.00    -0.031 C 
ENDROOT
BRANCH   1   3
ATOM      3  C   UNL     1      -5.611 -24.130  48.309  1.00  0.00     0.027 C 
BRANCH   3   4
ATOM      4  C   UNL     1      -5.189 -23.797  49.745  1.00  0.00     0.004 C 
BRANCH   4   5
ATOM      5  C   UNL     1      -3.754 -23.247  49.816  1.00  0.00     0.000 C 
BRANCH   5   6
ATOM      6  C   UNL     1      -3.700 -21.832  50.428  1.00  0.00     0.000 C 
BRANCH   6   7
ATOM      7  C   UNL     1      -5.076 -21.145  50.525  1.00  0.00     0.000 C 
BRANCH   7   8
ATOM      8  C   UNL     1      -5.276 -19.962  49.562  1.00  0.00     0.006 C 
BRANCH   8   9
ATOM      9  C   UNL     1      -6.353 -20.232  48.504  1.00  0.00     0.053 C 
BRANCH   9  10
ATOM     10  C   UNL     1      -5.720 -20.580  47.195  1.00  0.00     0.041 C 
ATOM     11  O   UNL     1      -4.491 -20.845  47.136  1.00  0.00    -0.550 OA
ATOM     12  O   UNL     1      -6.497 -20.657  46.046  1.00  0.00    -0.550 OA
ENDBRANCH   9  10
ENDBRANCH   8   9
ENDBRANCH   7   8
ENDBRANCH   6   7
ENDBRANCH   5   6
ENDBRANCH   4   5
ENDBRANCH   3   4
ENDBRANCH   1   3
BRANCH   2  13
ATOM     13  C   UNL     1      -2.924 -24.988  45.637  1.00  0.00     0.027 C 
BRANCH  13  14
ATOM     14  C   UNL     1      -1.656 -24.128  45.557  1.00  0.00     0.004 C 
BRANCH  14  15
ATOM     15  C   UNL     1      -1.204 -23.687  46.956  1.00  0.00     0.000 C 
BRANCH  15  16
ATOM     16  C   UNL     1      -0.732 -22.222  47.002  1.00  0.00     0.000 C 
BRANCH  16  17
ATOM     17  C   UNL     1      -0.676 -21.595  48.407  1.00  0.00    -0.000 C 
BRANCH  17  18
ATOM     18  C   UNL     1       0.418 -22.211  49.296  1.00  0.00    -0.000 C 
BRANCH  18  19
ATOM     19  C   UNL     1      -0.113 -22.630  50.675  1.00  0.00    -0.003 C 
ATOM     20  C   UNL     1      -0.329 -24.139  50.792  1.00  0.00     0.004 C 
ENDBRANCH  18  19
ENDBRANCH  17  18
ENDBRANCH  16  17
ENDBRANCH  15  16
ENDBRANCH  14  15
ENDBRANCH  13  14
ENDBRANCH   2  13
TORSDOF 15
ENDMDL
