MODEL 1
REMARK VINA RESULT:    -3.393      0.000      0.000
REMARK INTER + INTRA:          -3.943
REMARK INTER:                  -4.781
REMARK INTRA:                   0.839
REMARK UNBOUND:                 0.839
REMARK SMILES CC1=CCCC(C)=CCC(C)(C)C=CC1
REMARK SMILES IDX 2 1 3 2 1 3 4 4 5 5 6 6 7 7 8 8 15 10 14 11 13 12 10 13
REMARK SMILES IDX 11 14 12 15 9 16
REMARK H PARENT
REMARK Flexibility Score: 60.00
ROOT
ATOM      1  C   UNL     1      10.654  19.551  26.357  1.00  0.00    -0.074 C 
ATOM      2  C   UNL     1      11.870  19.650  25.763  1.00  0.00    -0.027 C 
ATOM      3  C   UNL     1      10.502  18.525  27.454  1.00  0.00     0.039 C 
ENDROOT
BRANCH   2   4
ATOM      4  C   UNL     1      12.264  20.623  24.677  1.00  0.00     0.032 C 
BRANCH   4   5
ATOM      5  C   UNL     1      12.071  20.062  23.252  1.00  0.00     0.034 C 
BRANCH   5   6
ATOM      6  C   UNL     1      11.033  20.795  22.415  1.00  0.00    -0.077 C 
ATOM      7  C   UNL     1      11.460  22.006  21.624  1.00  0.00     0.039 C 
ATOM      8  C   UNL     1       9.734  20.429  22.358  1.00  0.00    -0.027 CG0
ATOM      9  G   UNL     1       9.136  19.239  23.077  1.00  0.00     0.000 G0
ENDBRANCH   5   6
ENDBRANCH   4   5
ENDBRANCH   2   4
BRANCH   1  10
ATOM     10  C   UNL     1       9.457  20.435  26.028  1.00  0.00     0.057 C 
BRANCH  10  11
ATOM     11  C   UNL     1       8.171  19.644  26.066  1.00  0.00    -0.026 C 
ATOM     12  C   UNL     1       7.408  19.246  25.022  1.00  0.00    -0.024 C 
BRANCH  12  13
ATOM     13  C   UNL     1       7.639  19.459  23.519  1.00  0.00    -0.014 C 
ATOM     14  C   UNL     1       7.165  20.872  23.111  1.00  0.00     0.016 C 
ATOM     15  C   UNL     1       6.752  18.444  22.757  1.00  0.00     0.016 C 
BRANCH  13  16
ATOM     16  C   UNL     1       9.121  19.234  23.079  1.00  0.00     0.038 CG0
ATOM     17  G   UNL     1       9.717  20.437  22.379  1.00  0.00     0.000 G0
ENDBRANCH  13  16
ENDBRANCH  12  13
ENDBRANCH  10  11
ENDBRANCH   1  10
TORSDOF 0
ENDMDL
MODEL 2
REMARK VINA RESULT:    -3.389      1.252      3.851
REMARK INTER + INTRA:          -3.937
REMARK INTER:                  -4.895
REMARK INTRA:                   0.958
REMARK UNBOUND:                 0.839
REMARK SMILES CC1=CCCC(C)=CCC(C)(C)C=CC1
REMARK SMILES IDX 2 1 3 2 1 3 4 4 5 5 6 6 7 7 8 8 15 10 14 11 13 12 10 13
REMARK SMILES IDX 11 14 12 15 9 16
REMARK H PARENT
REMARK Flexibility Score: 60.00
ROOT
ATOM      1  C   UNL     1       8.006  19.314  26.683  1.00  0.00    -0.074 C 
ATOM      2  C   UNL     1       7.284  19.811  25.646  1.00  0.00    -0.027 C 
ATOM      3  C   UNL     1       7.408  18.159  27.449  1.00  0.00     0.039 C 
ENDROOT
BRANCH   2   4
ATOM      4  C   UNL     1       7.696  20.931  24.719  1.00  0.00     0.032 C 
BRANCH   4   5
ATOM      5  C   UNL     1       7.735  20.515  23.234  1.00  0.00     0.034 C 
BRANCH   5   6
ATOM      6  C   UNL     1       8.796  19.480  22.892  1.00  0.00    -0.077 C 
ATOM      7  C   UNL     1       8.376  18.210  22.196  1.00  0.00     0.039 C 
ATOM      8  C   UNL     1      10.103  19.629  23.198  1.00  0.00    -0.027 CG0
ATOM      9  G   UNL     1      10.702  20.839  23.883  1.00  0.00     0.000 G0
ENDBRANCH   5   6
ENDBRANCH   4   5
ENDBRANCH   2   4
BRANCH   1  10
ATOM     10  C   UNL     1       9.390  19.806  27.087  1.00  0.00     0.057 C 
BRANCH  10  11
ATOM     11  C   UNL     1      10.467  18.874  26.584  1.00  0.00    -0.026 C 
ATOM     12  C   UNL     1      11.451  19.143  25.696  1.00  0.00    -0.024 C 
BRANCH  12  13
ATOM     13  C   UNL     1      11.767  20.460  24.973  1.00  0.00    -0.014 C 
ATOM     14  C   UNL     1      13.182  20.392  24.356  1.00  0.00     0.016 C 
ATOM     15  C   UNL     1      11.788  21.588  26.035  1.00  0.00     0.016 C 
BRANCH  13  16
ATOM     16  C   UNL     1      10.715  20.840  23.882  1.00  0.00     0.038 CG0
ATOM     17  G   UNL     1      10.111  19.632  23.201  1.00  0.00     0.000 G0
ENDBRANCH  13  16
ENDBRANCH  12  13
ENDBRANCH  10  11
ENDBRANCH   1  10
TORSDOF 0
ENDMDL
MODEL 3
REMARK VINA RESULT:    -3.210      1.905      5.015
REMARK INTER + INTRA:          -3.684
REMARK INTER:                  -4.466
REMARK INTRA:                   0.782
REMARK UNBOUND:                 0.839
REMARK SMILES CC1=CCCC(C)=CCC(C)(C)C=CC1
REMARK SMILES IDX 2 1 3 2 1 3 4 4 5 5 6 6 7 7 8 8 15 10 14 11 13 12 10 13
REMARK SMILES IDX 11 14 12 15 9 16
REMARK H PARENT
REMARK Flexibility Score: 60.00
ROOT
ATOM      1  C   UNL     1       8.221  19.248  23.116  1.00  0.00    -0.074 C 
ATOM      2  C   UNL     1       7.188  19.320  23.994  1.00  0.00    -0.027 C 
ATOM      3  C   UNL     1       8.203  18.113  22.121  1.00  0.00     0.039 C 
ENDROOT
BRANCH   2   4
ATOM      4  C   UNL     1       6.976  20.382  25.047  1.00  0.00     0.032 C 
BRANCH   4   5
ATOM      5  C   UNL     1       7.514  19.983  26.438  1.00  0.00     0.034 C 
BRANCH   5   6
ATOM      6  C   UNL     1       8.393  21.032  27.103  1.00  0.00    -0.077 C 
ATOM      7  C   UNL     1       7.735  22.182  27.823  1.00  0.00     0.039 C 
ATOM      8  C   UNL     1       9.743  20.998  27.068  1.00  0.00    -0.027 CG0
ATOM      9  G   UNL     1      10.567  19.917  26.402  1.00  0.00     0.000 G0
ENDBRANCH   5   6
ENDBRANCH   4   5
ENDBRANCH   2   4
BRANCH   1  10
ATOM     10  C   UNL     1       9.359  20.257  23.036  1.00  0.00     0.057 C 
BRANCH  10  11
ATOM     11  C   UNL     1      10.702  19.568  23.098  1.00  0.00    -0.026 C 
ATOM     12  C   UNL     1      11.643  19.665  24.065  1.00  0.00    -0.024 C 
BRANCH  12  13
ATOM     13  C   UNL     1      11.608  20.473  25.371  1.00  0.00    -0.014 C 
ATOM     14  C   UNL     1      11.323  21.959  25.059  1.00  0.00     0.016 C 
ATOM     15  C   UNL     1      13.019  20.404  26.006  1.00  0.00     0.016 C 
BRANCH  13  16
ATOM     16  C   UNL     1      10.579  19.928  26.413  1.00  0.00     0.038 CG0
ATOM     17  G   UNL     1       9.765  21.024  27.065  1.00  0.00     0.000 G0
ENDBRANCH  13  16
ENDBRANCH  12  13
ENDBRANCH  10  11
ENDBRANCH   1  10
TORSDOF 0
ENDMDL
MODEL 4
REMARK VINA RESULT:    -3.197      1.358      4.574
REMARK INTER + INTRA:          -3.667
REMARK INTER:                  -4.673
REMARK INTRA:                   1.006
REMARK UNBOUND:                 0.839
REMARK SMILES CC1=CCCC(C)=CCC(C)(C)C=CC1
REMARK SMILES IDX 2 1 3 2 1 3 4 4 5 5 6 6 7 7 8 8 15 10 14 11 13 12 10 13
REMARK SMILES IDX 11 14 12 15 9 16
REMARK H PARENT
REMARK Flexibility Score: 60.00
ROOT
ATOM      1  C   UNL     1       7.575  19.464  23.948  1.00  0.00    -0.074 C 
ATOM      2  C   UNL     1       7.296  19.556  25.273  1.00  0.00    -0.027 C 
ATOM      3  C   UNL     1       6.483  19.860  22.984  1.00  0.00     0.039 C 
ENDROOT
BRANCH   2   4
ATOM      4  C   UNL     1       8.240  19.252  26.414  1.00  0.00     0.032 C 
BRANCH   4   5
ATOM      5  C   UNL     1       9.315  20.339  26.626  1.00  0.00     0.034 C 
BRANCH   5   6
ATOM      6  C   UNL     1      10.750  19.836  26.553  1.00  0.00    -0.077 C 
ATOM      7  C   UNL     1      11.225  18.844  27.583  1.00  0.00     0.039 C 
ATOM      8  C   UNL     1      11.633  20.250  25.619  1.00  0.00    -0.027 CG0
ATOM      9  G   UNL     1      11.326  21.230  24.507  1.00  0.00     0.000 G0
ENDBRANCH   5   6
ENDBRANCH   4   5
ENDBRANCH   2   4
BRANCH   1  10
ATOM     10  C   UNL     1       8.922  19.041  23.376  1.00  0.00     0.057 C 
BRANCH  10  11
ATOM     11  C   UNL     1       9.342  19.950  22.246  1.00  0.00    -0.026 C 
ATOM     12  C   UNL     1      10.491  20.654  22.127  1.00  0.00    -0.024 C 
BRANCH  12  13
ATOM     13  C   UNL     1      11.692  20.712  23.082  1.00  0.00    -0.014 C 
ATOM     14  C   UNL     1      12.820  21.560  22.454  1.00  0.00     0.016 C 
ATOM     15  C   UNL     1      12.240  19.271  23.237  1.00  0.00     0.016 C 
BRANCH  13  16
ATOM     16  C   UNL     1      11.333  21.250  24.504  1.00  0.00     0.038 CG0
ATOM     17  G   UNL     1      11.626  20.251  25.603  1.00  0.00     0.000 G0
ENDBRANCH  13  16
ENDBRANCH  12  13
ENDBRANCH  10  11
ENDBRANCH   1  10
TORSDOF 0
ENDMDL
MODEL 5
REMARK VINA RESULT:    -3.157      1.392      3.842
REMARK INTER + INTRA:          -3.609
REMARK INTER:                  -4.405
REMARK INTRA:                   0.796
REMARK UNBOUND:                 0.839
REMARK SMILES CC1=CCCC(C)=CCC(C)(C)C=CC1
REMARK SMILES IDX 2 1 3 2 1 3 4 4 5 5 6 6 7 7 8 8 15 10 14 11 13 12 10 13
REMARK SMILES IDX 11 14 12 15 9 16
REMARK H PARENT
REMARK Flexibility Score: 60.00
ROOT
ATOM      1  C   UNL     1      10.323  19.254  26.649  1.00  0.00    -0.074 C 
ATOM      2  C   UNL     1       9.010  19.230  26.993  1.00  0.00    -0.027 C 
ATOM      3  C   UNL     1      11.330  19.336  27.770  1.00  0.00     0.039 C 
ENDROOT
BRANCH   2   4
ATOM      4  C   UNL     1       7.835  19.113  26.050  1.00  0.00     0.032 C 
BRANCH   4   5
ATOM      5  C   UNL     1       7.233  20.477  25.649  1.00  0.00     0.034 C 
BRANCH   5   6
ATOM      6  C   UNL     1       7.065  20.681  24.151  1.00  0.00    -0.077 C 
ATOM      7  C   UNL     1       5.859  20.090  23.466  1.00  0.00     0.039 C 
ATOM      8  C   UNL     1       7.957  21.352  23.390  1.00  0.00    -0.027 CG0
ATOM      9  G   UNL     1       9.214  22.017  23.909  1.00  0.00     0.000 G0
ENDBRANCH   5   6
ENDBRANCH   4   5
ENDBRANCH   2   4
BRANCH   1  10
ATOM     10  C   UNL     1      10.843  19.150  25.221  1.00  0.00     0.057 C 
BRANCH  10  11
ATOM     11  C   UNL     1      11.822  20.260  24.917  1.00  0.00    -0.026 C 
ATOM     12  C   UNL     1      11.683  21.273  24.033  1.00  0.00    -0.024 C 
BRANCH  12  13
ATOM     13  C   UNL     1      10.497  21.598  23.113  1.00  0.00    -0.014 C 
ATOM     14  C   UNL     1      10.193  20.386  22.204  1.00  0.00     0.016 C 
ATOM     15  C   UNL     1      10.923  22.764  22.187  1.00  0.00     0.016 C 
BRANCH  13  16
ATOM     16  C   UNL     1       9.212  22.036  23.885  1.00  0.00     0.038 CG0
ATOM     17  G   UNL     1       7.961  21.342  23.389  1.00  0.00     0.000 G0
ENDBRANCH  13  16
ENDBRANCH  12  13
ENDBRANCH  10  11
ENDBRANCH   1  10
TORSDOF 0
ENDMDL
MODEL 6
REMARK VINA RESULT:    -3.133      3.349      5.344
REMARK INTER + INTRA:          -3.576
REMARK INTER:                  -4.411
REMARK INTRA:                   0.835
REMARK UNBOUND:                 0.839
REMARK SMILES CC1=CCCC(C)=CCC(C)(C)C=CC1
REMARK SMILES IDX 2 1 3 2 1 3 4 4 5 5 6 6 7 7 8 8 15 10 14 11 13 12 10 13
REMARK SMILES IDX 11 14 12 15 9 16
REMARK H PARENT
REMARK Flexibility Score: 60.00
ROOT
ATOM      1  C   UNL     1       7.222  18.974  23.263  1.00  0.00    -0.074 C 
ATOM      2  C   UNL     1       7.906  19.468  24.325  1.00  0.00    -0.027 C 
ATOM      3  C   UNL     1       8.032  18.411  22.121  1.00  0.00     0.039 C 
ENDROOT
BRANCH   2   4
ATOM      4  C   UNL     1       7.311  20.043  25.590  1.00  0.00     0.032 C 
BRANCH   4   5
ATOM      5  C   UNL     1       7.226  21.585  25.581  1.00  0.00     0.034 C 
BRANCH   5   6
ATOM      6  C   UNL     1       5.816  22.143  25.704  1.00  0.00    -0.077 C 
ATOM      7  C   UNL     1       5.260  22.418  27.078  1.00  0.00     0.039 C 
ATOM      8  C   UNL     1       5.022  22.390  24.640  1.00  0.00    -0.027 CG0
ATOM      9  G   UNL     1       5.419  22.183  23.194  1.00  0.00     0.000 G0
ENDBRANCH   5   6
ENDBRANCH   4   5
ENDBRANCH   2   4
BRANCH   1  10
ATOM     10  C   UNL     1       5.703  18.903  23.171  1.00  0.00     0.057 C 
BRANCH  10  11
ATOM     11  C   UNL     1       5.221  19.313  21.800  1.00  0.00    -0.026 C 
ATOM     12  C   UNL     1       4.596  20.459  21.445  1.00  0.00    -0.024 C 
BRANCH  12  13
ATOM     13  C   UNL     1       4.224  21.667  22.318  1.00  0.00    -0.014 C 
ATOM     14  C   UNL     1       3.015  21.313  23.212  1.00  0.00     0.016 C 
ATOM     15  C   UNL     1       3.772  22.809  21.374  1.00  0.00     0.016 C 
BRANCH  13  16
ATOM     16  C   UNL     1       5.408  22.196  23.188  1.00  0.00     0.038 CG0
ATOM     17  G   UNL     1       5.033  22.382  24.643  1.00  0.00     0.000 G0
ENDBRANCH  13  16
ENDBRANCH  12  13
ENDBRANCH  10  11
ENDBRANCH   1  10
TORSDOF 0
ENDMDL
MODEL 7
REMARK VINA RESULT:    -3.061      2.014      4.417
REMARK INTER + INTRA:          -3.475
REMARK INTER:                  -4.606
REMARK INTRA:                   1.131
REMARK UNBOUND:                 0.839
REMARK SMILES CC1=CCCC(C)=CCC(C)(C)C=CC1
REMARK SMILES IDX 2 1 3 2 1 3 4 4 5 5 6 6 7 7 8 8 15 10 14 11 13 12 10 13
REMARK SMILES IDX 11 14 12 15 9 16
REMARK H PARENT
REMARK Flexibility Score: 60.00
ROOT
ATOM      1  C   UNL     1       8.458  19.511  26.275  1.00  0.00    -0.074 C 
ATOM      2  C   UNL     1       8.439  19.461  24.919  1.00  0.00    -0.027 C 
ATOM      3  C   UNL     1       7.332  18.823  27.007  1.00  0.00     0.039 C 
ENDROOT
BRANCH   2   4
ATOM      4  C   UNL     1       9.474  20.042  23.983  1.00  0.00     0.032 C 
BRANCH   4   5
ATOM      5  C   UNL     1      10.839  19.324  24.057  1.00  0.00     0.034 C 
BRANCH   5   6
ATOM      6  C   UNL     1      12.029  20.178  23.645  1.00  0.00    -0.077 C 
ATOM      7  C   UNL     1      12.645  19.961  22.286  1.00  0.00     0.039 C 
ATOM      8  C   UNL     1      12.581  21.115  24.446  1.00  0.00    -0.027 CG0
ATOM      9  G   UNL     1      12.088  21.472  25.832  1.00  0.00     0.000 G0
ENDBRANCH   5   6
ENDBRANCH   4   5
ENDBRANCH   2   4
BRANCH   1  10
ATOM     10  C   UNL     1       9.559  20.166  27.100  1.00  0.00     0.057 C 
BRANCH  10  11
ATOM     11  C   UNL     1      10.656  19.180  27.424  1.00  0.00    -0.026 C 
ATOM     12  C   UNL     1      11.993  19.374  27.368  1.00  0.00    -0.024 C 
BRANCH  12  13
ATOM     13  C   UNL     1      12.770  20.642  26.986  1.00  0.00    -0.014 C 
ATOM     14  C   UNL     1      14.217  20.271  26.593  1.00  0.00     0.016 C 
ATOM     15  C   UNL     1      12.858  21.538  28.247  1.00  0.00     0.016 C 
BRANCH  13  16
ATOM     16  C   UNL     1      12.091  21.470  25.848  1.00  0.00     0.038 CG0
ATOM     17  G   UNL     1      12.582  21.087  24.469  1.00  0.00     0.000 G0
ENDBRANCH  13  16
ENDBRANCH  12  13
ENDBRANCH  10  11
ENDBRANCH   1  10
TORSDOF 0
ENDMDL
MODEL 8
REMARK VINA RESULT:    -3.031      2.957      5.191
REMARK INTER + INTRA:          -3.432
REMARK INTER:                  -4.153
REMARK INTRA:                   0.721
REMARK UNBOUND:                 0.839
REMARK SMILES CC1=CCCC(C)=CCC(C)(C)C=CC1
REMARK SMILES IDX 2 1 3 2 1 3 4 4 5 5 6 6 7 7 8 8 15 10 14 11 13 12 10 13
REMARK SMILES IDX 11 14 12 15 9 16
REMARK H PARENT
REMARK Flexibility Score: 60.00
ROOT
ATOM      1  C   UNL     1      10.529  19.572  24.481  1.00  0.00    -0.074 C 
ATOM      2  C   UNL     1      11.319  19.887  23.423  1.00  0.00    -0.027 C 
ATOM      3  C   UNL     1       9.038  19.719  24.297  1.00  0.00     0.039 C 
ENDROOT
BRANCH   2   4
ATOM      4  C   UNL     1      12.825  19.781  23.364  1.00  0.00     0.032 C 
BRANCH   4   5
ATOM      5  C   UNL     1      13.550  21.021  23.930  1.00  0.00     0.034 C 
BRANCH   5   6
ATOM      6  C   UNL     1      14.537  20.725  25.048  1.00  0.00    -0.077 C 
ATOM      7  C   UNL     1      15.863  20.096  24.700  1.00  0.00     0.039 C 
ATOM      8  C   UNL     1      14.281  20.977  26.350  1.00  0.00    -0.027 CG0
ATOM      9  G   UNL     1      13.011  21.612  26.877  1.00  0.00     0.000 G0
ENDBRANCH   5   6
ENDBRANCH   4   5
ENDBRANCH   2   4
BRANCH   1  10
ATOM     10  C   UNL     1      11.040  19.035  25.812  1.00  0.00     0.057 C 
BRANCH  10  11
ATOM     11  C   UNL     1      10.360  19.721  26.973  1.00  0.00    -0.026 C 
ATOM     12  C   UNL     1      10.926  20.477  27.941  1.00  0.00    -0.024 C 
BRANCH  12  13
ATOM     13  C   UNL     1      12.400  20.868  28.124  1.00  0.00    -0.014 C 
ATOM     14  C   UNL     1      13.238  19.613  28.455  1.00  0.00     0.016 C 
ATOM     15  C   UNL     1      12.489  21.811  29.350  1.00  0.00     0.016 C 
BRANCH  13  16
ATOM     16  C   UNL     1      13.003  21.616  26.892  1.00  0.00     0.038 CG0
ATOM     17  G   UNL     1      14.261  20.962  26.363  1.00  0.00     0.000 G0
ENDBRANCH  13  16
ENDBRANCH  12  13
ENDBRANCH  10  11
ENDBRANCH   1  10
TORSDOF 0
ENDMDL
MODEL 9
REMARK VINA RESULT:    -2.872      2.492      4.867
REMARK INTER + INTRA:          -3.208
REMARK INTER:                  -4.451
REMARK INTRA:                   1.242
REMARK UNBOUND:                 0.839
REMARK SMILES CC1=CCCC(C)=CCC(C)(C)C=CC1
REMARK SMILES IDX 2 1 3 2 1 3 4 4 5 5 6 6 7 7 8 8 15 10 14 11 13 12 10 13
REMARK SMILES IDX 11 14 12 15 9 16
REMARK H PARENT
REMARK Flexibility Score: 60.00
ROOT
ATOM      1  C   UNL     1       9.163  19.612  25.753  1.00  0.00    -0.074 C 
ATOM      2  C   UNL     1       9.699  18.996  26.837  1.00  0.00    -0.027 C 
ATOM      3  C   UNL     1       7.658  19.702  25.683  1.00  0.00     0.039 C 
ENDROOT
BRANCH   2   4
ATOM      4  C   UNL     1      11.170  18.824  27.138  1.00  0.00     0.032 C 
BRANCH   4   5
ATOM      5  C   UNL     1      11.712  19.852  28.154  1.00  0.00     0.034 C 
BRANCH   5   6
ATOM      6  C   UNL     1      11.972  21.237  27.579  1.00  0.00    -0.077 C 
ATOM      7  C   UNL     1      11.316  22.428  28.230  1.00  0.00     0.039 C 
ATOM      8  C   UNL     1      12.749  21.456  26.496  1.00  0.00    -0.027 CG0
ATOM      9  G   UNL     1      13.490  20.383  25.728  1.00  0.00     0.000 G0
ENDBRANCH   5   6
ENDBRANCH   4   5
ENDBRANCH   2   4
BRANCH   1  10
ATOM     10  C   UNL     1       9.974  20.259  24.638  1.00  0.00     0.057 C 
BRANCH  10  11
ATOM     11  C   UNL     1      10.863  19.248  23.954  1.00  0.00    -0.026 C 
ATOM     12  C   UNL     1      12.200  19.311  23.758  1.00  0.00    -0.024 C 
BRANCH  12  13
ATOM     13  C   UNL     1      13.189  20.404  24.191  1.00  0.00    -0.014 C 
ATOM     14  C   UNL     1      12.658  21.790  23.763  1.00  0.00     0.016 C 
ATOM     15  C   UNL     1      14.515  20.169  23.425  1.00  0.00     0.016 C 
BRANCH  13  16
ATOM     16  C   UNL     1      13.503  20.389  25.721  1.00  0.00     0.038 CG0
ATOM     17  G   UNL     1      12.731  21.440  26.490  1.00  0.00     0.000 G0
ENDBRANCH  13  16
ENDBRANCH  12  13
ENDBRANCH  10  11
ENDBRANCH   1  10
TORSDOF 0
ENDMDL
