MODEL 1
REMARK VINA RESULT:    -3.662      0.000      0.000
REMARK INTER + INTRA:          -6.473
REMARK INTER:                  -5.588
REMARK INTRA:                  -0.884
REMARK UNBOUND:                -0.884
REMARK SMILES CCCCCCCCCC=CC(=O)[O-]
REMARK SMILES IDX 7 1 8 2 9 3 10 4 11 5 12 6 13 7 14 8 6 9 5 10 4 11 3 12 2 13
REMARK SMILES IDX 1 14
REMARK H PARENT
REMARK Flexibility Score: inf
ROOT
ATOM      1  C   UNL     1       4.334  -5.996  -6.785  1.00  0.00     0.000 C 
ENDROOT
BRANCH   1   2
ATOM      2  C   UNL     1       2.941  -6.620  -6.922  1.00  0.00     0.004 C 
BRANCH   2   3
ATOM      3  C   UNL     1       1.938  -5.607  -7.487  1.00  0.00     0.027 C 
BRANCH   3   4
ATOM      4  C   UNL     1       2.454  -4.203  -7.363  1.00  0.00    -0.025 C 
ATOM      5  C   UNL     1       1.632  -3.149  -7.414  1.00  0.00     0.020 C 
BRANCH   5   6
ATOM      6  C   UNL     1       2.117  -1.764  -7.309  1.00  0.00     0.064 C 
ATOM      7  O   UNL     1       3.262  -1.441  -7.724  1.00  0.00    -0.545 OA
ATOM      8  O   UNL     1       1.300  -0.795  -6.741  1.00  0.00    -0.545 OA
ENDBRANCH   5   6
ENDBRANCH   3   4
ENDBRANCH   2   3
ENDBRANCH   1   2
BRANCH   1   9
ATOM      9  C   UNL     1       4.942  -6.304  -5.408  1.00  0.00     0.000 C 
BRANCH   9  10
ATOM     10  C   UNL     1       5.576  -5.069  -4.742  1.00  0.00     0.000 C 
BRANCH  10  11
ATOM     11  C   UNL     1       5.809  -3.871  -5.680  1.00  0.00    -0.000 C 
BRANCH  11  12
ATOM     12  C   UNL     1       5.690  -2.516  -4.965  1.00  0.00    -0.000 C 
BRANCH  12  13
ATOM     13  C   UNL     1       6.016  -2.653  -3.473  1.00  0.00    -0.003 C 
ATOM     14  C   UNL     1       7.344  -1.982  -3.134  1.00  0.00     0.004 C 
ENDBRANCH  12  13
ENDBRANCH  11  12
ENDBRANCH  10  11
ENDBRANCH   9  10
ENDBRANCH   1   9
TORSDOF 9
ENDMDL
MODEL 2
REMARK VINA RESULT:    -3.617      1.226      1.570
REMARK INTER + INTRA:          -6.404
REMARK INTER:                  -5.208
REMARK INTRA:                  -1.196
REMARK UNBOUND:                -0.884
REMARK SMILES CCCCCCCCCC=CC(=O)[O-]
REMARK SMILES IDX 7 1 8 2 9 3 10 4 11 5 12 6 13 7 14 8 6 9 5 10 4 11 3 12 2 13
REMARK SMILES IDX 1 14
REMARK H PARENT
REMARK Flexibility Score: inf
ROOT
ATOM      1  C   UNL     1       4.091  -6.584  -5.764  1.00  0.00     0.000 C 
ENDROOT
BRANCH   1   2
ATOM      2  C   UNL     1       3.353  -5.703  -6.778  1.00  0.00     0.004 C 
BRANCH   2   3
ATOM      3  C   UNL     1       4.030  -4.333  -6.911  1.00  0.00     0.027 C 
BRANCH   3   4
ATOM      4  C   UNL     1       3.034  -3.267  -7.266  1.00  0.00    -0.025 C 
ATOM      5  C   UNL     1       3.334  -1.968  -7.158  1.00  0.00     0.020 C 
BRANCH   5   6
ATOM      6  C   UNL     1       2.370  -0.905  -7.486  1.00  0.00     0.064 C 
ATOM      7  O   UNL     1       2.568  -0.121  -8.452  1.00  0.00    -0.545 OA
ATOM      8  O   UNL     1       1.222  -0.764  -6.718  1.00  0.00    -0.545 OA
ENDBRANCH   5   6
ENDBRANCH   3   4
ENDBRANCH   2   3
ENDBRANCH   1   2
BRANCH   1   9
ATOM      9  C   UNL     1       5.555  -6.142  -5.615  1.00  0.00     0.000 C 
BRANCH   9  10
ATOM     10  C   UNL     1       5.966  -5.908  -4.150  1.00  0.00     0.000 C 
BRANCH  10  11
ATOM     11  C   UNL     1       6.735  -4.600  -3.890  1.00  0.00    -0.000 C 
BRANCH  11  12
ATOM     12  C   UNL     1       5.827  -3.453  -3.420  1.00  0.00    -0.000 C 
BRANCH  12  13
ATOM     13  C   UNL     1       5.898  -2.266  -4.386  1.00  0.00    -0.003 C 
ATOM     14  C   UNL     1       6.922  -2.513  -5.491  1.00  0.00     0.004 C 
ENDBRANCH  12  13
ENDBRANCH  11  12
ENDBRANCH  10  11
ENDBRANCH   9  10
ENDBRANCH   1   9
TORSDOF 9
ENDMDL
MODEL 3
REMARK VINA RESULT:    -3.578      2.226      4.823
REMARK INTER + INTRA:          -6.345
REMARK INTER:                  -5.516
REMARK INTRA:                  -0.829
REMARK UNBOUND:                -0.884
REMARK SMILES CCCCCCCCCC=CC(=O)[O-]
REMARK SMILES IDX 7 1 8 2 9 3 10 4 11 5 12 6 13 7 14 8 6 9 5 10 4 11 3 12 2 13
REMARK SMILES IDX 1 14
REMARK H PARENT
REMARK Flexibility Score: inf
ROOT
ATOM      1  C   UNL     1       3.913  -5.845  -7.001  1.00  0.00     0.000 C 
ENDROOT
BRANCH   1   2
ATOM      2  C   UNL     1       4.012  -6.802  -5.808  1.00  0.00     0.004 C 
BRANCH   2   3
ATOM      3  C   UNL     1       5.239  -6.480  -4.945  1.00  0.00     0.027 C 
BRANCH   3   4
ATOM      4  C   UNL     1       5.478  -5.000  -4.870  1.00  0.00    -0.025 C 
ATOM      5  C   UNL     1       6.021  -4.434  -3.786  1.00  0.00     0.020 C 
BRANCH   5   6
ATOM      6  C   UNL     1       6.251  -2.985  -3.684  1.00  0.00     0.064 C 
ATOM      7  O   UNL     1       5.798  -2.191  -4.551  1.00  0.00    -0.545 OA
ATOM      8  O   UNL     1       6.981  -2.483  -2.615  1.00  0.00    -0.545 OA
ENDBRANCH   5   6
ENDBRANCH   3   4
ENDBRANCH   2   3
ENDBRANCH   1   2
BRANCH   1   9
ATOM      9  C   UNL     1       2.447  -5.523  -7.328  1.00  0.00     0.000 C 
BRANCH   9  10
ATOM     10  C   UNL     1       2.151  -4.012  -7.338  1.00  0.00     0.000 C 
BRANCH  10  11
ATOM     11  C   UNL     1       3.378  -3.107  -7.120  1.00  0.00    -0.000 C 
BRANCH  11  12
ATOM     12  C   UNL     1       3.008  -1.626  -6.952  1.00  0.00    -0.000 C 
BRANCH  12  13
ATOM     13  C   UNL     1       1.550  -1.375  -7.354  1.00  0.00    -0.003 C 
ATOM     14  C   UNL     1       1.463  -0.476  -8.584  1.00  0.00     0.004 C 
ENDBRANCH  12  13
ENDBRANCH  11  12
ENDBRANCH  10  11
ENDBRANCH   9  10
ENDBRANCH   1   9
TORSDOF 9
ENDMDL
MODEL 4
REMARK VINA RESULT:    -3.484      2.364      5.088
REMARK INTER + INTRA:          -6.202
REMARK INTER:                  -5.363
REMARK INTRA:                  -0.839
REMARK UNBOUND:                -0.884
REMARK SMILES CCCCCCCCCC=CC(=O)[O-]
REMARK SMILES IDX 7 1 8 2 9 3 10 4 11 5 12 6 13 7 14 8 6 9 5 10 4 11 3 12 2 13
REMARK SMILES IDX 1 14
REMARK H PARENT
REMARK Flexibility Score: inf
ROOT
ATOM      1  C   UNL     1       3.596  -8.084  -5.753  1.00  0.00     0.000 C 
ENDROOT
BRANCH   1   2
ATOM      2  C   UNL     1       4.085  -6.637  -5.877  1.00  0.00     0.004 C 
BRANCH   2   3
ATOM      3  C   UNL     1       5.318  -6.396  -4.997  1.00  0.00     0.027 C 
BRANCH   3   4
ATOM      4  C   UNL     1       5.615  -4.931  -4.864  1.00  0.00    -0.025 C 
ATOM      5  C   UNL     1       5.870  -4.375  -3.675  1.00  0.00     0.020 C 
BRANCH   5   6
ATOM      6  C   UNL     1       6.149  -2.938  -3.519  1.00  0.00     0.064 C 
ATOM      7  O   UNL     1       5.540  -2.078  -4.209  1.00  0.00    -0.545 OA
ATOM      8  O   UNL     1       7.100  -2.524  -2.595  1.00  0.00    -0.545 OA
ENDBRANCH   5   6
ENDBRANCH   3   4
ENDBRANCH   2   3
ENDBRANCH   1   2
BRANCH   1   9
ATOM      9  C   UNL     1       2.413  -8.347  -6.697  1.00  0.00     0.000 C 
BRANCH   9  10
ATOM     10  C   UNL     1       1.634  -7.068  -7.055  1.00  0.00     0.000 C 
BRANCH  10  11
ATOM     11  C   UNL     1       1.627  -6.707  -8.552  1.00  0.00    -0.000 C 
BRANCH  11  12
ATOM     12  C   UNL     1       2.033  -5.250  -8.819  1.00  0.00    -0.000 C 
BRANCH  12  13
ATOM     13  C   UNL     1       1.877  -4.396  -7.556  1.00  0.00    -0.003 C 
ATOM     14  C   UNL     1       3.074  -3.470  -7.363  1.00  0.00     0.004 C 
ENDBRANCH  12  13
ENDBRANCH  11  12
ENDBRANCH  10  11
ENDBRANCH   9  10
ENDBRANCH   1   9
TORSDOF 9
ENDMDL
MODEL 5
REMARK VINA RESULT:    -3.429     13.365     14.942
REMARK INTER + INTRA:          -6.117
REMARK INTER:                  -5.562
REMARK INTRA:                  -0.555
REMARK UNBOUND:                -0.884
REMARK SMILES CCCCCCCCCC=CC(=O)[O-]
REMARK SMILES IDX 7 1 8 2 9 3 10 4 11 5 12 6 13 7 14 8 6 9 5 10 4 11 3 12 2 13
REMARK SMILES IDX 1 14
REMARK H PARENT
REMARK Flexibility Score: inf
ROOT
ATOM      1  C   UNL     1      -7.434   3.103  -0.028  1.00  0.00     0.000 C 
ENDROOT
BRANCH   1   2
ATOM      2  C   UNL     1      -6.201   3.997  -0.203  1.00  0.00     0.004 C 
BRANCH   2   3
ATOM      3  C   UNL     1      -6.062   4.976   0.970  1.00  0.00     0.027 C 
BRANCH   3   4
ATOM      4  C   UNL     1      -4.853   5.852   0.807  1.00  0.00    -0.025 C 
ATOM      5  C   UNL     1      -3.764   5.425   0.159  1.00  0.00     0.020 C 
BRANCH   5   6
ATOM      6  C   UNL     1      -2.563   6.260  -0.001  1.00  0.00     0.064 C 
ATOM      7  O   UNL     1      -1.438   5.745  -0.236  1.00  0.00    -0.545 OA
ATOM      8  O   UNL     1      -2.671   7.640   0.111  1.00  0.00    -0.545 OA
ENDBRANCH   5   6
ENDBRANCH   3   4
ENDBRANCH   2   3
ENDBRANCH   1   2
BRANCH   1   9
ATOM      9  C   UNL     1      -7.034   1.620   0.026  1.00  0.00     0.000 C 
BRANCH   9  10
ATOM     10  C   UNL     1      -7.739   0.849   1.157  1.00  0.00     0.000 C 
BRANCH  10  11
ATOM     11  C   UNL     1      -8.437   1.730   2.209  1.00  0.00    -0.000 C 
BRANCH  11  12
ATOM     12  C   UNL     1      -8.555   1.047   3.580  1.00  0.00    -0.000 C 
BRANCH  12  13
ATOM     13  C   UNL     1      -7.535  -0.090   3.717  1.00  0.00    -0.003 C 
ATOM     14  C   UNL     1      -6.931  -0.125   5.117  1.00  0.00     0.004 C 
ENDBRANCH  12  13
ENDBRANCH  11  12
ENDBRANCH  10  11
ENDBRANCH   9  10
ENDBRANCH   1   9
TORSDOF 9
ENDMDL
MODEL 6
REMARK VINA RESULT:    -3.421      1.648      2.864
REMARK INTER + INTRA:          -6.106
REMARK INTER:                  -5.196
REMARK INTRA:                  -0.910
REMARK UNBOUND:                -0.884
REMARK SMILES CCCCCCCCCC=CC(=O)[O-]
REMARK SMILES IDX 7 1 8 2 9 3 10 4 11 5 12 6 13 7 14 8 6 9 5 10 4 11 3 12 2 13
REMARK SMILES IDX 1 14
REMARK H PARENT
REMARK Flexibility Score: inf
ROOT
ATOM      1  C   UNL     1       1.874  -8.150  -7.735  1.00  0.00     0.000 C 
ENDROOT
BRANCH   1   2
ATOM      2  C   UNL     1       1.376  -6.709  -7.582  1.00  0.00     0.004 C 
BRANCH   2   3
ATOM      3  C   UNL     1       2.503  -5.705  -7.858  1.00  0.00     0.027 C 
BRANCH   3   4
ATOM      4  C   UNL     1       2.155  -4.340  -7.339  1.00  0.00    -0.025 C 
ATOM      5  C   UNL     1       1.522  -3.443  -8.103  1.00  0.00     0.020 C 
BRANCH   5   6
ATOM      6  C   UNL     1       1.183  -2.095  -7.621  1.00  0.00     0.064 C 
ATOM      7  O   UNL     1       1.880  -1.524  -6.741  1.00  0.00    -0.545 OA
ATOM      8  O   UNL     1       0.076  -1.441  -8.145  1.00  0.00    -0.545 OA
ENDBRANCH   5   6
ENDBRANCH   3   4
ENDBRANCH   2   3
ENDBRANCH   1   2
BRANCH   1   9
ATOM      9  C   UNL     1       2.208  -8.764  -6.366  1.00  0.00     0.000 C 
BRANCH   9  10
ATOM     10  C   UNL     1       3.714  -8.733  -6.045  1.00  0.00     0.000 C 
BRANCH  10  11
ATOM     11  C   UNL     1       4.157  -7.591  -5.113  1.00  0.00    -0.000 C 
BRANCH  11  12
ATOM     12  C   UNL     1       5.329  -6.775  -5.680  1.00  0.00    -0.000 C 
BRANCH  12  13
ATOM     13  C   UNL     1       5.178  -5.288  -5.338  1.00  0.00    -0.003 C 
ATOM     14  C   UNL     1       5.950  -4.931  -4.071  1.00  0.00     0.004 C 
ENDBRANCH  12  13
ENDBRANCH  11  12
ENDBRANCH  10  11
ENDBRANCH   9  10
ENDBRANCH   1   9
TORSDOF 9
ENDMDL
MODEL 7
REMARK VINA RESULT:    -3.335      2.215      4.634
REMARK INTER + INTRA:          -5.974
REMARK INTER:                  -5.096
REMARK INTRA:                  -0.878
REMARK UNBOUND:                -0.884
REMARK SMILES CCCCCCCCCC=CC(=O)[O-]
REMARK SMILES IDX 7 1 8 2 9 3 10 4 11 5 12 6 13 7 14 8 6 9 5 10 4 11 3 12 2 13
REMARK SMILES IDX 1 14
REMARK H PARENT
REMARK Flexibility Score: inf
ROOT
ATOM      1  C   UNL     1       3.836  -7.280  -6.984  1.00  0.00     0.000 C 
ENDROOT
BRANCH   1   2
ATOM      2  C   UNL     1       4.067  -6.847  -5.532  1.00  0.00     0.004 C 
BRANCH   2   3
ATOM      3  C   UNL     1       5.497  -6.328  -5.334  1.00  0.00     0.027 C 
BRANCH   3   4
ATOM      4  C   UNL     1       5.501  -4.873  -4.963  1.00  0.00    -0.025 C 
ATOM      5  C   UNL     1       6.226  -4.416  -3.937  1.00  0.00     0.020 C 
BRANCH   5   6
ATOM      6  C   UNL     1       6.234  -2.997  -3.546  1.00  0.00     0.064 C 
ATOM      7  O   UNL     1       6.966  -2.584  -2.608  1.00  0.00    -0.545 OA
ATOM      8  O   UNL     1       5.420  -2.099  -4.222  1.00  0.00    -0.545 OA
ENDBRANCH   5   6
ENDBRANCH   3   4
ENDBRANCH   2   3
ENDBRANCH   1   2
BRANCH   1   9
ATOM      9  C   UNL     1       3.424  -6.083  -7.855  1.00  0.00     0.000 C 
BRANCH   9  10
ATOM     10  C   UNL     1       2.224  -5.307  -7.281  1.00  0.00     0.000 C 
BRANCH  10  11
ATOM     11  C   UNL     1       2.173  -3.815  -7.660  1.00  0.00    -0.000 C 
BRANCH  11  12
ATOM     12  C   UNL     1       3.326  -3.002  -7.053  1.00  0.00    -0.000 C 
BRANCH  12  13
ATOM     13  C   UNL     1       2.946  -1.523  -6.924  1.00  0.00    -0.003 C 
ATOM     14  C   UNL     1       1.504  -1.283  -7.360  1.00  0.00     0.004 C 
ENDBRANCH  12  13
ENDBRANCH  11  12
ENDBRANCH  10  11
ENDBRANCH   9  10
ENDBRANCH   1   9
TORSDOF 9
ENDMDL
MODEL 8
REMARK VINA RESULT:    -3.332      1.496      4.332
REMARK INTER + INTRA:          -5.970
REMARK INTER:                  -5.102
REMARK INTRA:                  -0.868
REMARK UNBOUND:                -0.884
REMARK SMILES CCCCCCCCCC=CC(=O)[O-]
REMARK SMILES IDX 7 1 8 2 9 3 10 4 11 5 12 6 13 7 14 8 6 9 5 10 4 11 3 12 2 13
REMARK SMILES IDX 1 14
REMARK H PARENT
REMARK Flexibility Score: inf
ROOT
ATOM      1  C   UNL     1       5.385  -5.607  -5.486  1.00  0.00     0.000 C 
ENDROOT
BRANCH   1   2
ATOM      2  C   UNL     1       5.897  -4.389  -4.709  1.00  0.00     0.004 C 
BRANCH   2   3
ATOM      3  C   UNL     1       5.680  -3.097  -5.507  1.00  0.00     0.027 C 
BRANCH   3   4
ATOM      4  C   UNL     1       4.469  -3.198  -6.388  1.00  0.00    -0.025 C 
ATOM      5  C   UNL     1       3.793  -2.110  -6.774  1.00  0.00     0.020 C 
BRANCH   5   6
ATOM      6  C   UNL     1       2.595  -2.187  -7.625  1.00  0.00     0.064 C 
ATOM      7  O   UNL     1       2.683  -2.129  -8.881  1.00  0.00    -0.545 OA
ATOM      8  O   UNL     1       1.345  -2.323  -7.035  1.00  0.00    -0.545 OA
ENDBRANCH   5   6
ENDBRANCH   3   4
ENDBRANCH   2   3
ENDBRANCH   1   2
BRANCH   1   9
ATOM      9  C   UNL     1       5.291  -6.841  -4.575  1.00  0.00     0.000 C 
BRANCH   9  10
ATOM     10  C   UNL     1       4.254  -7.870  -5.062  1.00  0.00     0.000 C 
BRANCH  10  11
ATOM     11  C   UNL     1       3.671  -7.594  -6.460  1.00  0.00    -0.000 C 
BRANCH  11  12
ATOM     12  C   UNL     1       2.268  -8.190  -6.653  1.00  0.00    -0.000 C 
BRANCH  12  13
ATOM     13  C   UNL     1       1.407  -7.290  -7.546  1.00  0.00    -0.003 C 
ATOM     14  C   UNL     1       1.927  -5.855  -7.549  1.00  0.00     0.004 C 
ENDBRANCH  12  13
ENDBRANCH  11  12
ENDBRANCH  10  11
ENDBRANCH   9  10
ENDBRANCH   1   9
TORSDOF 9
ENDMDL
MODEL 9
REMARK VINA RESULT:    -3.312     13.804     15.915
REMARK INTER + INTRA:          -5.938
REMARK INTER:                  -4.300
REMARK INTRA:                  -1.638
REMARK UNBOUND:                -0.884
REMARK SMILES CCCCCCCCCC=CC(=O)[O-]
REMARK SMILES IDX 7 1 8 2 9 3 10 4 11 5 12 6 13 7 14 8 6 9 5 10 4 11 3 12 2 13
REMARK SMILES IDX 1 14
REMARK H PARENT
REMARK Flexibility Score: inf
ROOT
ATOM      1  C   UNL     1      -4.013   8.498   3.796  1.00  0.00     0.000 C 
ENDROOT
BRANCH   1   2
ATOM      2  C   UNL     1      -2.747   8.682   2.952  1.00  0.00     0.004 C 
BRANCH   2   3
ATOM      3  C   UNL     1      -1.842   7.447   3.042  1.00  0.00     0.027 C 
BRANCH   3   4
ATOM      4  C   UNL     1      -1.371   7.018   1.682  1.00  0.00    -0.025 C 
ATOM      5  C   UNL     1      -1.401   7.853   0.638  1.00  0.00     0.020 C 
BRANCH   5   6
ATOM      6  C   UNL     1      -0.958   7.451  -0.707  1.00  0.00     0.064 C 
ATOM      7  O   UNL     1      -1.511   6.498  -1.317  1.00  0.00    -0.545 OA
ATOM      8  O   UNL     1       0.089   8.133  -1.313  1.00  0.00    -0.545 OA
ENDBRANCH   5   6
ENDBRANCH   3   4
ENDBRANCH   2   3
ENDBRANCH   1   2
BRANCH   1   9
ATOM      9  C   UNL     1      -4.394   7.013   3.898  1.00  0.00     0.000 C 
BRANCH   9  10
ATOM     10  C   UNL     1      -5.888   6.756   3.627  1.00  0.00     0.000 C 
BRANCH  10  11
ATOM     11  C   UNL     1      -6.235   6.409   2.168  1.00  0.00    -0.000 C 
BRANCH  11  12
ATOM     12  C   UNL     1      -5.104   5.665   1.443  1.00  0.00    -0.000 C 
BRANCH  12  13
ATOM     13  C   UNL     1      -4.760   6.349   0.114  1.00  0.00    -0.003 C 
ATOM     14  C   UNL     1      -5.125   7.830   0.145  1.00  0.00     0.004 C 
ENDBRANCH  12  13
ENDBRANCH  11  12
ENDBRANCH  10  11
ENDBRANCH   9  10
ENDBRANCH   1   9
TORSDOF 9
ENDMDL
