MODEL 1
REMARK VINA RESULT:    -5.277      0.000      0.000
REMARK INTER + INTRA:          -8.218
REMARK INTER:                  -8.053
REMARK INTRA:                  -0.165
REMARK UNBOUND:                -0.165
REMARK SMILES CC1=CCC[C@H](C)C(=O)C[C@@H](C(C)C)C(=O)C1
REMARK SMILES IDX 8 1 9 2 6 3 7 4 5 5 4 6 3 7 2 8 1 9 10 11 11 12 15 13 16 14
REMARK SMILES IDX 17 15 12 17 13 18 14 19
REMARK H PARENT
REMARK Flexibility Score: 70.00
ROOT
ATOM      1  C   UNL     1      -8.906  33.418  25.166  1.00  0.00     0.136 C 
ATOM      2  O   UNL     1      -8.696  33.595  26.358  1.00  0.00    -0.299 OA
ENDROOT
BRANCH   1   3
ATOM      3  C   UNL     1      -8.774  34.571  24.184  1.00  0.00     0.053 C 
ATOM      4  C   UNL     1      -9.069  35.943  24.814  1.00  0.00     0.016 C 
BRANCH   3   5
ATOM      5  C   UNL     1      -7.432  34.560  23.407  1.00  0.00     0.015 C 
BRANCH   5   6
ATOM      6  C   UNL     1      -7.485  34.456  21.865  1.00  0.00     0.028 C 
BRANCH   6   7
ATOM      7  C   UNL     1      -8.559  33.582  21.262  1.00  0.00    -0.028 C 
ATOM      8  C   UNL     1      -8.649  32.236  21.358  1.00  0.00    -0.070 CG0
ATOM      9  C   UNL     1      -9.942  31.599  20.905  1.00  0.00     0.039 C 
ATOM     10  G   UNL     1      -7.554  31.359  21.943  1.00  0.00     0.000 G0
ENDBRANCH   6   7
ENDBRANCH   5   6
ENDBRANCH   3   5
ENDBRANCH   1   3
BRANCH   1  11
ATOM     11  C   UNL     1      -9.413  32.075  24.689  1.00  0.00     0.087 C 
BRANCH  11  12
ATOM     12  C   UNL     1      -8.317  30.990  24.514  1.00  0.00     0.066 C 
BRANCH  12  13
ATOM     13  C   UNL     1      -8.094  30.491  23.086  1.00  0.00     0.140 C 
ATOM     14  O   UNL     1      -8.374  29.328  22.839  1.00  0.00    -0.299 OA
BRANCH  13  15
ATOM     15  C   UNL     1      -7.546  31.339  21.955  1.00  0.00     0.106 CG0
ATOM     16  G   UNL     1      -8.630  32.222  21.358  1.00  0.00     0.000 G0
ENDBRANCH  13  15
ENDBRANCH  12  13
BRANCH  12  17
ATOM     17  C   UNL     1      -8.559  29.811  25.513  1.00  0.00    -0.006 C 
ATOM     18  C   UNL     1      -9.968  29.846  26.126  1.00  0.00     0.008 C 
ATOM     19  C   UNL     1      -7.501  29.735  26.628  1.00  0.00     0.008 C 
ENDBRANCH  12  17
ENDBRANCH  11  12
ENDBRANCH   1  11
TORSDOF 1
ENDMDL
MODEL 2
REMARK VINA RESULT:    -4.558      2.344      4.013
REMARK INTER + INTRA:          -7.121
REMARK INTER:                  -7.436
REMARK INTRA:                   0.316
REMARK UNBOUND:                -0.165
REMARK SMILES CC1=CCC[C@H](C)C(=O)C[C@@H](C(C)C)C(=O)C1
REMARK SMILES IDX 8 1 9 2 6 3 7 4 5 5 4 6 3 7 2 8 1 9 10 11 11 12 15 13 16 14
REMARK SMILES IDX 17 15 12 17 13 18 14 19
REMARK H PARENT
REMARK Flexibility Score: 70.00
ROOT
ATOM      1  C   UNL     1      -9.409  32.722  22.907  1.00  0.00     0.136 C 
ATOM      2  O   UNL     1      -9.779  32.707  21.741  1.00  0.00    -0.299 OA
ENDROOT
BRANCH   1   3
ATOM      3  C   UNL     1      -8.231  33.588  23.327  1.00  0.00     0.053 C 
ATOM      4  C   UNL     1      -7.630  34.400  22.168  1.00  0.00     0.016 C 
BRANCH   3   5
ATOM      5  C   UNL     1      -8.535  34.470  24.565  1.00  0.00     0.015 C 
BRANCH   5   6
ATOM      6  C   UNL     1      -7.836  34.119  25.899  1.00  0.00     0.028 C 
BRANCH   6   7
ATOM      7  C   UNL     1      -8.613  33.294  26.896  1.00  0.00    -0.028 C 
ATOM      8  C   UNL     1      -8.534  31.954  27.067  1.00  0.00    -0.070 CG0
ATOM      9  C   UNL     1      -9.200  31.376  28.294  1.00  0.00     0.039 C 
ATOM     10  G   UNL     1      -7.771  31.030  26.132  1.00  0.00     0.000 G0
ENDBRANCH   6   7
ENDBRANCH   5   6
ENDBRANCH   3   5
ENDBRANCH   1   3
BRANCH   1  11
ATOM     11  C   UNL     1     -10.051  31.785  23.906  1.00  0.00     0.087 C 
BRANCH  11  12
ATOM     12  C   UNL     1      -9.363  30.401  24.036  1.00  0.00     0.066 C 
BRANCH  12  13
ATOM     13  C   UNL     1      -8.748  30.087  25.401  1.00  0.00     0.140 C 
ATOM     14  O   UNL     1      -9.053  29.030  25.932  1.00  0.00    -0.299 OA
BRANCH  13  15
ATOM     15  C   UNL     1      -7.791  30.999  26.142  1.00  0.00     0.106 CG0
ATOM     16  G   UNL     1      -8.542  31.958  27.051  1.00  0.00     0.000 G0
ENDBRANCH  13  15
ENDBRANCH  12  13
BRANCH  12  17
ATOM     17  C   UNL     1      -8.337  30.196  22.873  1.00  0.00    -0.006 C 
ATOM     18  C   UNL     1      -8.746  29.052  21.930  1.00  0.00     0.008 C 
ATOM     19  C   UNL     1      -6.895  29.980  23.369  1.00  0.00     0.008 C 
ENDBRANCH  12  17
ENDBRANCH  11  12
ENDBRANCH   1  11
TORSDOF 1
ENDMDL
MODEL 3
REMARK VINA RESULT:    -4.495      2.180      4.313
REMARK INTER + INTRA:          -7.025
REMARK INTER:                  -6.906
REMARK INTRA:                  -0.118
REMARK UNBOUND:                -0.165
REMARK SMILES CC1=CCC[C@H](C)C(=O)C[C@@H](C(C)C)C(=O)C1
REMARK SMILES IDX 8 1 9 2 6 3 7 4 5 5 4 6 3 7 2 8 1 9 10 11 11 12 15 13 16 14
REMARK SMILES IDX 17 15 12 17 13 18 14 19
REMARK H PARENT
REMARK Flexibility Score: 70.00
ROOT
ATOM      1  C   UNL     1      -7.881  34.033  23.752  1.00  0.00     0.136 C 
ATOM      2  O   UNL     1      -7.843  34.709  22.733  1.00  0.00    -0.299 OA
ENDROOT
BRANCH   1   3
ATOM      3  C   UNL     1      -8.155  34.687  25.097  1.00  0.00     0.053 C 
ATOM      4  C   UNL     1      -8.668  36.133  24.975  1.00  0.00     0.016 C 
BRANCH   3   5
ATOM      5  C   UNL     1      -9.050  33.825  26.023  1.00  0.00     0.015 C 
BRANCH   5   6
ATOM      6  C   UNL     1      -8.364  33.009  27.144  1.00  0.00     0.028 C 
BRANCH   6   7
ATOM      7  C   UNL     1      -9.006  31.703  27.547  1.00  0.00    -0.028 C 
ATOM      8  C   UNL     1      -8.751  30.484  27.018  1.00  0.00    -0.070 CG0
ATOM      9  C   UNL     1      -9.310  29.286  27.750  1.00  0.00     0.039 C 
ATOM     10  G   UNL     1      -7.896  30.266  25.781  1.00  0.00     0.000 G0
ENDBRANCH   6   7
ENDBRANCH   5   6
ENDBRANCH   3   5
ENDBRANCH   1   3
BRANCH   1  11
ATOM     11  C   UNL     1      -7.534  32.562  23.686  1.00  0.00     0.087 C 
BRANCH  11  12
ATOM     12  C   UNL     1      -8.756  31.609  23.592  1.00  0.00     0.066 C 
BRANCH  12  13
ATOM     13  C   UNL     1      -8.706  30.371  24.488  1.00  0.00     0.140 C 
ATOM     14  O   UNL     1      -9.375  29.403  24.158  1.00  0.00    -0.299 OA
BRANCH  13  15
ATOM     15  C   UNL     1      -7.889  30.263  25.761  1.00  0.00     0.106 CG0
ATOM     16  G   UNL     1      -8.760  30.472  26.989  1.00  0.00     0.000 G0
ENDBRANCH  13  15
ENDBRANCH  12  13
BRANCH  12  17
ATOM     17  C   UNL     1      -9.040  31.238  22.099  1.00  0.00    -0.006 C 
ATOM     18  C   UNL     1      -7.754  31.190  21.256  1.00  0.00     0.008 C 
ATOM     19  C   UNL     1     -10.074  32.163  21.431  1.00  0.00     0.008 C 
ENDBRANCH  12  17
ENDBRANCH  11  12
ENDBRANCH   1  11
TORSDOF 1
ENDMDL
MODEL 4
REMARK VINA RESULT:    -4.194      2.274      4.193
REMARK INTER + INTRA:          -6.565
REMARK INTER:                  -6.477
REMARK INTRA:                  -0.088
REMARK UNBOUND:                -0.165
REMARK SMILES CC1=CCC[C@H](C)C(=O)C[C@@H](C(C)C)C(=O)C1
REMARK SMILES IDX 8 1 9 2 6 3 7 4 5 5 4 6 3 7 2 8 1 9 10 11 11 12 15 13 16 14
REMARK SMILES IDX 17 15 12 17 13 18 14 19
REMARK H PARENT
REMARK Flexibility Score: 70.00
ROOT
ATOM      1  C   UNL     1      -9.672  30.709  25.496  1.00  0.00     0.136 C 
ATOM      2  O   UNL     1     -10.091  29.560  25.484  1.00  0.00    -0.299 OA
ENDROOT
BRANCH   1   3
ATOM      3  C   UNL     1      -9.434  31.425  26.816  1.00  0.00     0.053 C 
ATOM      4  C   UNL     1      -9.942  30.636  28.035  1.00  0.00     0.016 C 
BRANCH   3   5
ATOM      5  C   UNL     1      -7.970  31.902  26.995  1.00  0.00     0.015 C 
BRANCH   5   6
ATOM      6  C   UNL     1      -7.724  33.398  27.297  1.00  0.00     0.028 C 
BRANCH   6   7
ATOM      7  C   UNL     1      -8.565  34.407  26.550  1.00  0.00    -0.028 C 
ATOM      8  C   UNL     1      -8.440  34.751  25.247  1.00  0.00    -0.070 CG0
ATOM      9  C   UNL     1      -9.551  35.579  24.646  1.00  0.00     0.039 C 
ATOM     10  G   UNL     1      -7.288  34.301  24.364  1.00  0.00     0.000 G0
ENDBRANCH   6   7
ENDBRANCH   5   6
ENDBRANCH   3   5
ENDBRANCH   1   3
BRANCH   1  11
ATOM     11  C   UNL     1      -9.506  31.457  24.192  1.00  0.00     0.087 C 
BRANCH  11  12
ATOM     12  C   UNL     1      -8.036  31.774  23.806  1.00  0.00     0.066 C 
BRANCH  12  13
ATOM     13  C   UNL     1      -7.751  33.220  23.398  1.00  0.00     0.140 C 
ATOM     14  O   UNL     1      -7.898  33.518  22.222  1.00  0.00    -0.299 OA
BRANCH  13  15
ATOM     15  C   UNL     1      -7.294  34.308  24.349  1.00  0.00     0.106 CG0
ATOM     16  G   UNL     1      -8.434  34.768  25.243  1.00  0.00     0.000 G0
ENDBRANCH  13  15
ENDBRANCH  12  13
BRANCH  12  17
ATOM     17  C   UNL     1      -7.525  30.753  22.737  1.00  0.00    -0.006 C 
ATOM     18  C   UNL     1      -8.668  30.193  21.874  1.00  0.00     0.008 C 
ATOM     19  C   UNL     1      -6.708  29.599  23.343  1.00  0.00     0.008 C 
ENDBRANCH  12  17
ENDBRANCH  11  12
ENDBRANCH   1  11
TORSDOF 1
ENDMDL
MODEL 5
REMARK VINA RESULT:    -4.100      1.995      4.481
REMARK INTER + INTRA:          -6.422
REMARK INTER:                  -6.800
REMARK INTRA:                   0.379
REMARK UNBOUND:                -0.165
REMARK SMILES CC1=CCC[C@H](C)C(=O)C[C@@H](C(C)C)C(=O)C1
REMARK SMILES IDX 8 1 9 2 6 3 7 4 5 5 4 6 3 7 2 8 1 9 10 11 11 12 15 13 16 14
REMARK SMILES IDX 17 15 12 17 13 18 14 19
REMARK H PARENT
REMARK Flexibility Score: 70.00
ROOT
ATOM      1  C   UNL     1      -8.933  32.679  22.331  1.00  0.00     0.136 C 
ATOM      2  O   UNL     1      -9.922  33.387  22.199  1.00  0.00    -0.299 OA
ENDROOT
BRANCH   1   3
ATOM      3  C   UNL     1      -8.927  31.261  21.781  1.00  0.00     0.053 C 
ATOM      4  C   UNL     1      -9.630  31.135  20.419  1.00  0.00     0.016 C 
BRANCH   3   5
ATOM      5  C   UNL     1      -7.517  30.617  21.774  1.00  0.00     0.015 C 
BRANCH   5   6
ATOM      6  C   UNL     1      -7.132  29.696  22.955  1.00  0.00     0.028 C 
BRANCH   6   7
ATOM      7  C   UNL     1      -8.257  29.069  23.745  1.00  0.00    -0.028 C 
ATOM      8  C   UNL     1      -8.799  29.546  24.889  1.00  0.00    -0.070 CG0
ATOM      9  C   UNL     1     -10.083  28.904  25.361  1.00  0.00     0.039 C 
ATOM     10  G   UNL     1      -8.220  30.713  25.672  1.00  0.00     0.000 G0
ENDBRANCH   6   7
ENDBRANCH   5   6
ENDBRANCH   3   5
ENDBRANCH   1   3
BRANCH   1  11
ATOM     11  C   UNL     1      -7.761  33.177  23.148  1.00  0.00     0.087 C 
BRANCH  11  12
ATOM     12  C   UNL     1      -8.008  33.222  24.680  1.00  0.00     0.066 C 
BRANCH  12  13
ATOM     13  C   UNL     1      -8.813  32.058  25.260  1.00  0.00     0.140 C 
ATOM     14  O   UNL     1     -10.018  32.211  25.394  1.00  0.00    -0.299 OA
BRANCH  13  15
ATOM     15  C   UNL     1      -8.218  30.730  25.685  1.00  0.00     0.106 CG0
ATOM     16  G   UNL     1      -8.794  29.586  24.865  1.00  0.00     0.000 G0
ENDBRANCH  13  15
ENDBRANCH  12  13
BRANCH  12  17
ATOM     17  C   UNL     1      -8.608  34.608  25.090  1.00  0.00    -0.006 C 
ATOM     18  C   UNL     1      -8.622  35.606  23.920  1.00  0.00     0.008 C 
ATOM     19  C   UNL     1      -7.906  35.234  26.309  1.00  0.00     0.008 C 
ENDBRANCH  12  17
ENDBRANCH  11  12
ENDBRANCH   1  11
TORSDOF 1
ENDMDL
MODEL 6
REMARK VINA RESULT:    -3.893      1.628      4.194
REMARK INTER + INTRA:          -6.106
REMARK INTER:                  -6.379
REMARK INTRA:                   0.274
REMARK UNBOUND:                -0.165
REMARK SMILES CC1=CCC[C@H](C)C(=O)C[C@@H](C(C)C)C(=O)C1
REMARK SMILES IDX 8 1 9 2 6 3 7 4 5 5 4 6 3 7 2 8 1 9 10 11 11 12 15 13 16 14
REMARK SMILES IDX 17 15 12 17 13 18 14 19
REMARK H PARENT
REMARK Flexibility Score: 70.00
ROOT
ATOM      1  C   UNL     1      -8.501  32.193  26.297  1.00  0.00     0.136 C 
ATOM      2  O   UNL     1      -8.619  33.020  27.191  1.00  0.00    -0.299 OA
ENDROOT
BRANCH   1   3
ATOM      3  C   UNL     1      -8.848  30.734  26.552  1.00  0.00     0.053 C 
ATOM      4  C   UNL     1      -9.188  30.439  28.023  1.00  0.00     0.016 C 
BRANCH   3   5
ATOM      5  C   UNL     1      -9.925  30.186  25.581  1.00  0.00     0.015 C 
BRANCH   5   6
ATOM      6  C   UNL     1      -9.532  29.021  24.643  1.00  0.00     0.028 C 
BRANCH   6   7
ATOM      7  C   UNL     1      -8.433  29.275  23.639  1.00  0.00    -0.028 C 
ATOM      8  C   UNL     1      -8.384  30.284  22.739  1.00  0.00    -0.070 CG0
ATOM      9  C   UNL     1      -7.074  30.499  22.018  1.00  0.00     0.039 C 
ATOM     10  G   UNL     1      -9.543  31.229  22.469  1.00  0.00     0.000 G0
ENDBRANCH   6   7
ENDBRANCH   5   6
ENDBRANCH   3   5
ENDBRANCH   1   3
BRANCH   1  11
ATOM     11  C   UNL     1      -7.895  32.604  24.974  1.00  0.00     0.087 C 
BRANCH  11  12
ATOM     12  C   UNL     1      -8.866  33.343  24.015  1.00  0.00     0.066 C 
BRANCH  12  13
ATOM     13  C   UNL     1      -9.094  32.680  22.656  1.00  0.00     0.140 C 
ATOM     14  O   UNL     1      -8.922  33.360  21.655  1.00  0.00    -0.299 OA
BRANCH  13  15
ATOM     15  C   UNL     1      -9.523  31.239  22.463  1.00  0.00     0.106 CG0
ATOM     16  G   UNL     1      -8.370  30.284  22.731  1.00  0.00     0.000 G0
ENDBRANCH  13  15
ENDBRANCH  12  13
BRANCH  12  17
ATOM     17  C   UNL     1      -8.445  34.842  23.870  1.00  0.00    -0.006 C 
ATOM     18  C   UNL     1      -6.927  35.007  23.691  1.00  0.00     0.008 C 
ATOM     19  C   UNL     1      -8.938  35.725  25.031  1.00  0.00     0.008 C 
ENDBRANCH  12  17
ENDBRANCH  11  12
ENDBRANCH   1  11
TORSDOF 1
ENDMDL
MODEL 7
REMARK VINA RESULT:    -3.883      1.916      4.999
REMARK INTER + INTRA:          -6.092
REMARK INTER:                  -7.608
REMARK INTRA:                   1.516
REMARK UNBOUND:                -0.165
REMARK SMILES CC1=CCC[C@H](C)C(=O)C[C@@H](C(C)C)C(=O)C1
REMARK SMILES IDX 8 1 9 2 6 3 7 4 5 5 4 6 3 7 2 8 1 9 10 11 11 12 15 13 16 14
REMARK SMILES IDX 17 15 12 17 13 18 14 19
REMARK H PARENT
REMARK Flexibility Score: 70.00
ROOT
ATOM      1  C   UNL     1      -8.323  30.061  23.514  1.00  0.00     0.136 C 
ATOM      2  O   UNL     1      -8.389  29.370  22.507  1.00  0.00    -0.299 OA
ENDROOT
BRANCH   1   3
ATOM      3  C   UNL     1      -9.336  29.882  24.635  1.00  0.00     0.053 C 
ATOM      4  C   UNL     1      -8.842  28.954  25.757  1.00  0.00     0.016 C 
BRANCH   3   5
ATOM      5  C   UNL     1      -9.882  31.225  25.183  1.00  0.00     0.015 C 
BRANCH   5   6
ATOM      6  C   UNL     1      -9.388  31.701  26.569  1.00  0.00     0.028 C 
BRANCH   6   7
ATOM      7  C   UNL     1      -8.589  32.981  26.622  1.00  0.00    -0.028 C 
ATOM      8  C   UNL     1      -8.522  33.929  25.658  1.00  0.00    -0.070 CG0
ATOM      9  C   UNL     1      -7.877  35.243  26.030  1.00  0.00     0.039 C 
ATOM     10  G   UNL     1      -9.108  33.756  24.266  1.00  0.00     0.000 G0
ENDBRANCH   6   7
ENDBRANCH   5   6
ENDBRANCH   3   5
ENDBRANCH   1   3
BRANCH   1  11
ATOM     11  C   UNL     1      -7.303  31.176  23.590  1.00  0.00     0.087 C 
BRANCH  11  12
ATOM     12  C   UNL     1      -7.541  32.344  22.596  1.00  0.00     0.066 C 
BRANCH  12  13
ATOM     13  C   UNL     1      -8.011  33.661  23.216  1.00  0.00     0.140 C 
ATOM     14  O   UNL     1      -7.471  34.691  22.841  1.00  0.00    -0.299 OA
BRANCH  13  15
ATOM     15  C   UNL     1      -9.098  33.777  24.267  1.00  0.00     0.106 CG0
ATOM     16  G   UNL     1      -8.501  33.932  25.656  1.00  0.00     0.000 G0
ENDBRANCH  13  15
ENDBRANCH  12  13
BRANCH  12  17
ATOM     17  C   UNL     1      -8.476  31.881  21.431  1.00  0.00    -0.006 C 
ATOM     18  C   UNL     1      -7.895  32.221  20.048  1.00  0.00     0.008 C 
ATOM     19  C   UNL     1      -9.909  32.430  21.550  1.00  0.00     0.008 C 
ENDBRANCH  12  17
ENDBRANCH  11  12
ENDBRANCH   1  11
TORSDOF 1
ENDMDL
MODEL 8
REMARK VINA RESULT:    -3.647     17.979     19.250
REMARK INTER + INTRA:          -5.731
REMARK INTER:                  -6.008
REMARK INTRA:                   0.277
REMARK UNBOUND:                -0.165
REMARK SMILES CC1=CCC[C@H](C)C(=O)C[C@@H](C(C)C)C(=O)C1
REMARK SMILES IDX 8 1 9 2 6 3 7 4 5 5 4 6 3 7 2 8 1 9 10 11 11 12 15 13 16 14
REMARK SMILES IDX 17 15 12 17 13 18 14 19
REMARK H PARENT
REMARK Flexibility Score: 70.00
ROOT
ATOM      1  C   UNL     1      -1.638  47.870  17.885  1.00  0.00     0.136 C 
ATOM      2  O   UNL     1      -2.704  47.271  17.917  1.00  0.00    -0.299 OA
ENDROOT
BRANCH   1   3
ATOM      3  C   UNL     1      -0.992  48.356  19.173  1.00  0.00     0.053 C 
ATOM      4  C   UNL     1      -1.880  48.155  20.412  1.00  0.00     0.016 C 
BRANCH   3   5
ATOM      5  C   UNL     1       0.440  47.800  19.383  1.00  0.00     0.015 C 
BRANCH   5   6
ATOM      6  C   UNL     1       1.601  48.469  18.610  1.00  0.00     0.028 C 
BRANCH   6   7
ATOM      7  C   UNL     1       2.681  47.569  18.060  1.00  0.00    -0.028 C 
ATOM      8  C   UNL     1       2.890  47.265  16.758  1.00  0.00    -0.070 CG0
ATOM      9  C   UNL     1       4.182  46.562  16.414  1.00  0.00     0.039 C 
ATOM     10  G   UNL     1       1.930  47.643  15.642  1.00  0.00     0.000 G0
ENDBRANCH   6   7
ENDBRANCH   5   6
ENDBRANCH   3   5
ENDBRANCH   1   3
BRANCH   1  11
ATOM     11  C   UNL     1      -1.025  48.231  16.550  1.00  0.00     0.087 C 
BRANCH  11  12
ATOM     12  C   UNL     1      -0.694  47.021  15.637  1.00  0.00     0.066 C 
BRANCH  12  13
ATOM     13  C   UNL     1       0.785  46.645  15.538  1.00  0.00     0.140 C 
ATOM     14  O   UNL     1       1.062  45.467  15.366  1.00  0.00    -0.299 OA
BRANCH  13  15
ATOM     15  C   UNL     1       1.931  47.632  15.642  1.00  0.00     0.106 CG0
ATOM     16  G   UNL     1       2.880  47.250  16.767  1.00  0.00     0.000 G0
ENDBRANCH  13  15
ENDBRANCH  12  13
BRANCH  12  17
ATOM     17  C   UNL     1      -1.343  47.214  14.227  1.00  0.00    -0.006 C 
ATOM     18  C   UNL     1      -2.689  47.955  14.301  1.00  0.00     0.008 C 
ATOM     19  C   UNL     1      -1.511  45.894  13.452  1.00  0.00     0.008 C 
ENDBRANCH  12  17
ENDBRANCH  11  12
ENDBRANCH   1  11
TORSDOF 1
ENDMDL
MODEL 9
REMARK VINA RESULT:    -3.604     17.905     19.145
REMARK INTER + INTRA:          -5.666
REMARK INTER:                  -5.662
REMARK INTRA:                  -0.004
REMARK UNBOUND:                -0.165
REMARK SMILES CC1=CCC[C@H](C)C(=O)C[C@@H](C(C)C)C(=O)C1
REMARK SMILES IDX 8 1 9 2 6 3 7 4 5 5 4 6 3 7 2 8 1 9 10 11 11 12 15 13 16 14
REMARK SMILES IDX 17 15 12 17 13 18 14 19
REMARK H PARENT
REMARK Flexibility Score: 70.00
ROOT
ATOM      1  C   UNL     1      -2.194  47.819  15.337  1.00  0.00     0.136 C 
ATOM      2  O   UNL     1      -2.231  49.014  15.078  1.00  0.00    -0.299 OA
ENDROOT
BRANCH   1   3
ATOM      3  C   UNL     1      -2.663  46.798  14.313  1.00  0.00     0.053 C 
ATOM      4  C   UNL     1      -3.755  47.337  13.373  1.00  0.00     0.016 C 
BRANCH   3   5
ATOM      5  C   UNL     1      -1.497  46.135  13.536  1.00  0.00     0.015 C 
BRANCH   5   6
ATOM      6  C   UNL     1      -0.295  45.598  14.347  1.00  0.00     0.028 C 
BRANCH   6   7
ATOM      7  C   UNL     1       0.973  46.419  14.339  1.00  0.00    -0.028 C 
ATOM      8  C   UNL     1       1.679  46.819  15.422  1.00  0.00    -0.070 CG0
ATOM      9  C   UNL     1       3.050  47.402  15.172  1.00  0.00     0.039 C 
ATOM     10  G   UNL     1       1.191  46.657  16.852  1.00  0.00     0.000 G0
ENDBRANCH   6   7
ENDBRANCH   5   6
ENDBRANCH   3   5
ENDBRANCH   1   3
BRANCH   1  11
ATOM     11  C   UNL     1      -1.794  47.367  16.724  1.00  0.00     0.087 C 
BRANCH  11  12
ATOM     12  C   UNL     1      -0.834  48.332  17.471  1.00  0.00     0.066 C 
BRANCH  12  13
ATOM     13  C   UNL     1       0.650  47.964  17.424  1.00  0.00     0.140 C 
ATOM     14  O   UNL     1       1.451  48.777  17.860  1.00  0.00    -0.299 OA
BRANCH  13  15
ATOM     15  C   UNL     1       1.196  46.663  16.871  1.00  0.00     0.106 CG0
ATOM     16  G   UNL     1       1.664  46.833  15.434  1.00  0.00     0.000 G0
ENDBRANCH  13  15
ENDBRANCH  12  13
BRANCH  12  17
ATOM     17  C   UNL     1      -1.332  48.563  18.936  1.00  0.00    -0.006 C 
ATOM     18  C   UNL     1      -1.156  47.315  19.816  1.00  0.00     0.008 C 
ATOM     19  C   UNL     1      -2.788  49.058  19.009  1.00  0.00     0.008 C 
ENDBRANCH  12  17
ENDBRANCH  11  12
ENDBRANCH   1  11
TORSDOF 1
ENDMDL
