MODEL 1
REMARK VINA RESULT:    -3.535      0.000      0.000
REMARK INTER + INTRA:          -5.384
REMARK INTER:                  -5.395
REMARK INTRA:                   0.011
REMARK UNBOUND:                 0.011
REMARK SMILES CC1=CCC[C@@H](C)C(=O)C[C@H](C(C)C)C(=O)C1
REMARK SMILES IDX 8 1 9 2 6 3 7 4 5 5 4 6 3 7 2 8 1 9 10 11 11 12 15 13 16 14
REMARK SMILES IDX 17 15 12 17 13 18 14 19
REMARK H PARENT
REMARK Flexibility Score: 70.00
ROOT
ATOM      1  C   UNL     1      32.583  10.982 105.166  1.00  0.00     0.136 C 
ATOM      2  O   UNL     1      32.973  12.138 105.084  1.00  0.00    -0.299 OA
ENDROOT
BRANCH   1   3
ATOM      3  C   UNL     1      31.083  10.729 105.032  1.00  0.00     0.053 C 
ATOM      4  C   UNL     1      30.179  11.948 105.271  1.00  0.00     0.016 C 
BRANCH   3   5
ATOM      5  C   UNL     1      30.620   9.505 105.858  1.00  0.00     0.015 C 
BRANCH   5   6
ATOM      6  C   UNL     1      30.628   8.159 105.113  1.00  0.00     0.028 C 
BRANCH   6   7
ATOM      7  C   UNL     1      31.056   6.994 105.975  1.00  0.00    -0.028 C 
ATOM      8  C   UNL     1      31.868   6.970 107.070  1.00  0.00    -0.070 CG0
ATOM      9  C   UNL     1      32.117   5.608 107.676  1.00  0.00     0.039 C 
ATOM     10  G   UNL     1      32.424   8.156 107.861  1.00  0.00     0.000 G0
ENDBRANCH   6   7
ENDBRANCH   5   6
ENDBRANCH   3   5
ENDBRANCH   1   3
BRANCH   1  11
ATOM     11  C   UNL     1      33.606   9.901 105.455  1.00  0.00     0.087 C 
BRANCH  11  12
ATOM     12  C   UNL     1      34.163   9.904 106.911  1.00  0.00     0.066 C 
BRANCH  12  13
ATOM     13  C   UNL     1      33.855   8.585 107.631  1.00  0.00     0.140 C 
ATOM     14  O   UNL     1      34.753   7.921 108.129  1.00  0.00    -0.299 OA
BRANCH  13  15
ATOM     15  C   UNL     1      32.434   8.156 107.876  1.00  0.00     0.106 CG0
ATOM     16  G   UNL     1      31.880   6.989 107.055  1.00  0.00     0.000 G0
ENDBRANCH  13  15
ENDBRANCH  12  13
BRANCH  12  17
ATOM     17  C   UNL     1      35.673  10.325 107.033  1.00  0.00    -0.006 C 
ATOM     18  C   UNL     1      36.393  10.423 105.674  1.00  0.00     0.008 C 
ATOM     19  C   UNL     1      35.810  11.691 107.737  1.00  0.00     0.008 C 
ENDBRANCH  12  17
ENDBRANCH  11  12
ENDBRANCH   1  11
TORSDOF 1
ENDMDL
MODEL 2
REMARK VINA RESULT:    -3.518      2.079      4.589
REMARK INTER + INTRA:          -5.358
REMARK INTER:                  -5.170
REMARK INTRA:                  -0.188
REMARK UNBOUND:                 0.011
REMARK SMILES CC1=CCC[C@@H](C)C(=O)C[C@H](C(C)C)C(=O)C1
REMARK SMILES IDX 8 1 9 2 6 3 7 4 5 5 4 6 3 7 2 8 1 9 10 11 11 12 15 13 16 14
REMARK SMILES IDX 17 15 12 17 13 18 14 19
REMARK H PARENT
REMARK Flexibility Score: 70.00
ROOT
ATOM      1  C   UNL     1      34.544   9.865 107.116  1.00  0.00     0.136 C 
ATOM      2  O   UNL     1      34.825  10.370 108.194  1.00  0.00    -0.299 OA
ENDROOT
BRANCH   1   3
ATOM      3  C   UNL     1      34.877  10.657 105.854  1.00  0.00     0.053 C 
ATOM      4  C   UNL     1      36.340  10.585 105.389  1.00  0.00     0.016 C 
BRANCH   3   5
ATOM      5  C   UNL     1      34.374  12.118 105.930  1.00  0.00     0.015 C 
BRANCH   5   6
ATOM      6  C   UNL     1      33.372  12.534 104.839  1.00  0.00     0.028 C 
BRANCH   6   7
ATOM      7  C   UNL     1      31.936  12.214 105.185  1.00  0.00    -0.028 C 
ATOM      8  C   UNL     1      31.268  11.027 105.127  1.00  0.00    -0.070 CG0
ATOM      9  C   UNL     1      29.807  11.074 105.516  1.00  0.00     0.039 C 
ATOM     10  G   UNL     1      31.841   9.630 104.880  1.00  0.00     0.000 G0
ENDBRANCH   6   7
ENDBRANCH   5   6
ENDBRANCH   3   5
ENDBRANCH   1   3
BRANCH   1  11
ATOM     11  C   UNL     1      33.834   8.525 107.118  1.00  0.00     0.087 C 
BRANCH  11  12
ATOM     12  C   UNL     1      32.284   8.610 107.255  1.00  0.00     0.066 C 
BRANCH  12  13
ATOM     13  C   UNL     1      31.596   8.544 105.885  1.00  0.00     0.140 C 
ATOM     14  O   UNL     1      30.759   7.685 105.648  1.00  0.00    -0.299 OA
BRANCH  13  15
ATOM     15  C   UNL     1      31.821   9.621 104.859  1.00  0.00     0.106 CG0
ATOM     16  G   UNL     1      31.249  11.012 105.135  1.00  0.00     0.000 G0
ENDBRANCH  13  15
ENDBRANCH  12  13
BRANCH  12  17
ATOM     17  C   UNL     1      31.662   7.608 108.296  1.00  0.00    -0.006 C 
ATOM     18  C   UNL     1      32.621   6.471 108.698  1.00  0.00     0.008 C 
ATOM     19  C   UNL     1      31.239   8.344 109.584  1.00  0.00     0.008 C 
ENDBRANCH  12  17
ENDBRANCH  11  12
ENDBRANCH   1  11
TORSDOF 1
ENDMDL
MODEL 3
REMARK VINA RESULT:    -3.182      1.427      3.578
REMARK INTER + INTRA:          -4.845
REMARK INTER:                  -5.117
REMARK INTRA:                   0.272
REMARK UNBOUND:                 0.011
REMARK SMILES CC1=CCC[C@@H](C)C(=O)C[C@H](C(C)C)C(=O)C1
REMARK SMILES IDX 8 1 9 2 6 3 7 4 5 5 4 6 3 7 2 8 1 9 10 11 11 12 15 13 16 14
REMARK SMILES IDX 17 15 12 17 13 18 14 19
REMARK H PARENT
REMARK Flexibility Score: 70.00
ROOT
ATOM      1  C   UNL     1      33.523   8.008 107.890  1.00  0.00     0.136 C 
ATOM      2  O   UNL     1      34.063   6.911 107.883  1.00  0.00    -0.299 OA
ENDROOT
BRANCH   1   3
ATOM      3  C   UNL     1      31.997   8.047 107.848  1.00  0.00     0.053 C 
ATOM      4  C   UNL     1      31.295   8.098 109.213  1.00  0.00     0.016 C 
BRANCH   3   5
ATOM      5  C   UNL     1      31.408   6.936 106.944  1.00  0.00     0.015 C 
BRANCH   5   6
ATOM      6  C   UNL     1      31.023   7.372 105.521  1.00  0.00     0.028 C 
BRANCH   6   7
ATOM      7  C   UNL     1      30.629   8.828 105.420  1.00  0.00    -0.028 C 
ATOM      8  C   UNL     1      31.404   9.930 105.209  1.00  0.00    -0.070 CG0
ATOM      9  C   UNL     1      30.676  11.255 105.203  1.00  0.00     0.039 C 
ATOM     10  G   UNL     1      32.881   9.985 104.815  1.00  0.00     0.000 G0
ENDBRANCH   6   7
ENDBRANCH   5   6
ENDBRANCH   3   5
ENDBRANCH   1   3
BRANCH   1  11
ATOM     11  C   UNL     1      34.407   9.240 107.876  1.00  0.00     0.087 C 
BRANCH  11  12
ATOM     12  C   UNL     1      34.901   9.672 106.462  1.00  0.00     0.066 C 
BRANCH  12  13
ATOM     13  C   UNL     1      33.876  10.572 105.760  1.00  0.00     0.140 C 
ATOM     14  O   UNL     1      33.934  11.788 105.872  1.00  0.00    -0.299 OA
BRANCH  13  15
ATOM     15  C   UNL     1      32.875   9.992 104.799  1.00  0.00     0.106 CG0
ATOM     16  G   UNL     1      31.406   9.947 105.226  1.00  0.00     0.000 G0
ENDBRANCH  13  15
ENDBRANCH  12  13
BRANCH  12  17
ATOM     17  C   UNL     1      36.356  10.268 106.431  1.00  0.00    -0.006 C 
ATOM     18  C   UNL     1      36.690  10.996 105.115  1.00  0.00     0.008 C 
ATOM     19  C   UNL     1      36.569  11.265 107.589  1.00  0.00     0.008 C 
ENDBRANCH  12  17
ENDBRANCH  11  12
ENDBRANCH   1  11
TORSDOF 1
ENDMDL
MODEL 4
REMARK VINA RESULT:    -3.179      2.685      5.003
REMARK INTER + INTRA:          -4.841
REMARK INTER:                  -4.482
REMARK INTRA:                  -0.359
REMARK UNBOUND:                 0.011
REMARK SMILES CC1=CCC[C@@H](C)C(=O)C[C@H](C(C)C)C(=O)C1
REMARK SMILES IDX 8 1 9 2 6 3 7 4 5 5 4 6 3 7 2 8 1 9 10 11 11 12 15 13 16 14
REMARK SMILES IDX 17 15 12 17 13 18 14 19
REMARK H PARENT
REMARK Flexibility Score: 70.00
ROOT
ATOM      1  C   UNL     1      35.313   9.726 106.965  1.00  0.00     0.136 C 
ATOM      2  O   UNL     1      35.961   8.904 106.331  1.00  0.00    -0.299 OA
ENDROOT
BRANCH   1   3
ATOM      3  C   UNL     1      33.943   9.298 107.487  1.00  0.00     0.053 C 
ATOM      4  C   UNL     1      33.927   8.032 108.357  1.00  0.00     0.016 C 
BRANCH   3   5
ATOM      5  C   UNL     1      32.883   9.230 106.361  1.00  0.00     0.015 C 
BRANCH   5   6
ATOM      6  C   UNL     1      33.166  10.104 105.128  1.00  0.00     0.028 C 
BRANCH   6   7
ATOM      7  C   UNL     1      32.375  11.392 105.107  1.00  0.00    -0.028 C 
ATOM      8  C   UNL     1      32.806  12.679 104.976  1.00  0.00    -0.070 CG0
ATOM      9  C   UNL     1      31.732  13.742 105.035  1.00  0.00     0.039 C 
ATOM     10  G   UNL     1      34.207  13.175 104.612  1.00  0.00     0.000 G0
ENDBRANCH   6   7
ENDBRANCH   5   6
ENDBRANCH   3   5
ENDBRANCH   1   3
BRANCH   1  11
ATOM     11  C   UNL     1      35.890  11.118 107.129  1.00  0.00     0.087 C 
BRANCH  11  12
ATOM     12  C   UNL     1      36.171  11.869 105.792  1.00  0.00     0.066 C 
BRANCH  12  13
ATOM     13  C   UNL     1      35.293  13.119 105.656  1.00  0.00     0.140 C 
ATOM     14  O   UNL     1      35.532  14.124 106.309  1.00  0.00    -0.299 OA
BRANCH  13  15
ATOM     15  C   UNL     1      34.214  13.190 104.609  1.00  0.00     0.106 CG0
ATOM     16  G   UNL     1      32.821  12.670 104.970  1.00  0.00     0.000 G0
ENDBRANCH  13  15
ENDBRANCH  12  13
BRANCH  12  17
ATOM     17  C   UNL     1      37.691  12.160 105.512  1.00  0.00    -0.006 C 
ATOM     18  C   UNL     1      38.605  11.843 106.711  1.00  0.00     0.008 C 
ATOM     19  C   UNL     1      38.197  11.342 104.306  1.00  0.00     0.008 C 
ENDBRANCH  12  17
ENDBRANCH  11  12
ENDBRANCH   1  11
TORSDOF 1
ENDMDL
MODEL 5
REMARK VINA RESULT:    -3.162      3.228      6.127
REMARK INTER + INTRA:          -4.814
REMARK INTER:                  -4.802
REMARK INTRA:                  -0.012
REMARK UNBOUND:                 0.011
REMARK SMILES CC1=CCC[C@@H](C)C(=O)C[C@H](C(C)C)C(=O)C1
REMARK SMILES IDX 8 1 9 2 6 3 7 4 5 5 4 6 3 7 2 8 1 9 10 11 11 12 15 13 16 14
REMARK SMILES IDX 17 15 12 17 13 18 14 19
REMARK H PARENT
REMARK Flexibility Score: 70.00
ROOT
ATOM      1  C   UNL     1      35.241  10.000 105.916  1.00  0.00     0.136 C 
ATOM      2  O   UNL     1      36.219   9.694 105.249  1.00  0.00    -0.299 OA
ENDROOT
BRANCH   1   3
ATOM      3  C   UNL     1      35.338   9.840 107.432  1.00  0.00     0.053 C 
ATOM      4  C   UNL     1      34.406   8.787 108.051  1.00  0.00     0.016 C 
BRANCH   3   5
ATOM      5  C   UNL     1      35.237  11.196 108.171  1.00  0.00     0.015 C 
BRANCH   5   6
ATOM      6  C   UNL     1      36.578  11.860 108.528  1.00  0.00     0.028 C 
BRANCH   6   7
ATOM      7  C   UNL     1      37.411  12.224 107.321  1.00  0.00    -0.028 C 
ATOM      8  C   UNL     1      37.048  12.849 106.165  1.00  0.00    -0.070 CG0
ATOM      9  C   UNL     1      38.144  13.023 105.138  1.00  0.00     0.039 C 
ATOM     10  G   UNL     1      35.723  13.543 105.842  1.00  0.00     0.000 G0
ENDBRANCH   6   7
ENDBRANCH   5   6
ENDBRANCH   3   5
ENDBRANCH   1   3
BRANCH   1  11
ATOM     11  C   UNL     1      33.991  10.453 105.186  1.00  0.00     0.087 C 
BRANCH  11  12
ATOM     12  C   UNL     1      33.663  11.969 105.335  1.00  0.00     0.066 C 
BRANCH  12  13
ATOM     13  C   UNL     1      34.821  12.845 104.840  1.00  0.00     0.140 C 
ATOM     14  O   UNL     1      34.947  13.098 103.650  1.00  0.00    -0.299 OA
BRANCH  13  15
ATOM     15  C   UNL     1      35.735  13.536 105.816  1.00  0.00     0.106 CG0
ATOM     16  G   UNL     1      37.063  12.860 106.164  1.00  0.00     0.000 G0
ENDBRANCH  13  15
ENDBRANCH  12  13
BRANCH  12  17
ATOM     17  C   UNL     1      32.275  12.401 104.735  1.00  0.00    -0.006 C 
ATOM     18  C   UNL     1      31.121  11.458 105.126  1.00  0.00     0.008 C 
ATOM     19  C   UNL     1      31.894  13.824 105.193  1.00  0.00     0.008 C 
ENDBRANCH  12  17
ENDBRANCH  11  12
ENDBRANCH   1  11
TORSDOF 1
ENDMDL
MODEL 6
REMARK VINA RESULT:    -3.126      2.055      4.514
REMARK INTER + INTRA:          -4.759
REMARK INTER:                  -4.227
REMARK INTRA:                  -0.532
REMARK UNBOUND:                 0.011
REMARK SMILES CC1=CCC[C@@H](C)C(=O)C[C@H](C(C)C)C(=O)C1
REMARK SMILES IDX 8 1 9 2 6 3 7 4 5 5 4 6 3 7 2 8 1 9 10 11 11 12 15 13 16 14
REMARK SMILES IDX 17 15 12 17 13 18 14 19
REMARK H PARENT
REMARK Flexibility Score: 70.00
ROOT
ATOM      1  C   UNL     1      30.836   7.017 105.923  1.00  0.00     0.136 C 
ATOM      2  O   UNL     1      30.537   5.914 105.487  1.00  0.00    -0.299 OA
ENDROOT
BRANCH   1   3
ATOM      3  C   UNL     1      30.664   8.216 104.993  1.00  0.00     0.053 C 
ATOM      4  C   UNL     1      30.904   7.940 103.500  1.00  0.00     0.016 C 
BRANCH   3   5
ATOM      5  C   UNL     1      31.458   9.452 105.479  1.00  0.00     0.015 C 
BRANCH   5   6
ATOM      6  C   UNL     1      32.893   9.575 104.939  1.00  0.00     0.028 C 
BRANCH   6   7
ATOM      7  C   UNL     1      33.815  10.357 105.846  1.00  0.00    -0.028 C 
ATOM      8  C   UNL     1      34.560   9.936 106.907  1.00  0.00    -0.070 CG0
ATOM      9  C   UNL     1      35.351  11.007 107.624  1.00  0.00     0.039 C 
ATOM     10  G   UNL     1      34.829   8.500 107.363  1.00  0.00     0.000 G0
ENDBRANCH   6   7
ENDBRANCH   5   6
ENDBRANCH   3   5
ENDBRANCH   1   3
BRANCH   1  11
ATOM     11  C   UNL     1      31.410   7.101 107.323  1.00  0.00     0.087 C 
BRANCH  11  12
ATOM     12  C   UNL     1      32.908   6.684 107.440  1.00  0.00     0.066 C 
BRANCH  12  13
ATOM     13  C   UNL     1      33.741   7.774 108.126  1.00  0.00     0.140 C 
ATOM     14  O   UNL     1      33.626   7.985 109.324  1.00  0.00    -0.299 OA
BRANCH  13  15
ATOM     15  C   UNL     1      34.825   8.499 107.375  1.00  0.00     0.106 CG0
ATOM     16  G   UNL     1      34.552   9.934 106.921  1.00  0.00     0.000 G0
ENDBRANCH  13  15
ENDBRANCH  12  13
BRANCH  12  17
ATOM     17  C   UNL     1      33.144   5.257 108.059  1.00  0.00    -0.006 C 
ATOM     18  C   UNL     1      31.838   4.527 108.428  1.00  0.00     0.008 C 
ATOM     19  C   UNL     1      33.928   4.355 107.083  1.00  0.00     0.008 C 
ENDBRANCH  12  17
ENDBRANCH  11  12
ENDBRANCH   1  11
TORSDOF 1
ENDMDL
MODEL 7
REMARK VINA RESULT:    -3.047      2.591      5.476
REMARK INTER + INTRA:          -4.638
REMARK INTER:                  -5.013
REMARK INTRA:                   0.375
REMARK UNBOUND:                 0.011
REMARK SMILES CC1=CCC[C@@H](C)C(=O)C[C@H](C(C)C)C(=O)C1
REMARK SMILES IDX 8 1 9 2 6 3 7 4 5 5 4 6 3 7 2 8 1 9 10 11 11 12 15 13 16 14
REMARK SMILES IDX 17 15 12 17 13 18 14 19
REMARK H PARENT
REMARK Flexibility Score: 70.00
ROOT
ATOM      1  C   UNL     1      32.564   8.963 106.406  1.00  0.00     0.136 C 
ATOM      2  O   UNL     1      31.386   8.787 106.685  1.00  0.00    -0.299 OA
ENDROOT
BRANCH   1   3
ATOM      3  C   UNL     1      33.611   8.323 107.315  1.00  0.00     0.053 C 
ATOM      4  C   UNL     1      33.061   7.579 108.542  1.00  0.00     0.016 C 
BRANCH   3   5
ATOM      5  C   UNL     1      34.733   9.315 107.706  1.00  0.00     0.015 C 
BRANCH   5   6
ATOM      6  C   UNL     1      35.718   9.680 106.582  1.00  0.00     0.028 C 
BRANCH   6   7
ATOM      7  C   UNL     1      36.524  10.926 106.867  1.00  0.00    -0.028 C 
ATOM      8  C   UNL     1      36.219  12.235 106.638  1.00  0.00    -0.070 CG0
ATOM      9  C   UNL     1      37.287  13.236 107.017  1.00  0.00     0.039 C 
ATOM     10  G   UNL     1      34.879  12.831 106.204  1.00  0.00     0.000 G0
ENDBRANCH   6   7
ENDBRANCH   5   6
ENDBRANCH   3   5
ENDBRANCH   1   3
BRANCH   1  11
ATOM     11  C   UNL     1      32.893   9.852 105.222  1.00  0.00     0.087 C 
BRANCH  11  12
ATOM     12  C   UNL     1      32.767  11.380 105.499  1.00  0.00     0.066 C 
BRANCH  12  13
ATOM     13  C   UNL     1      34.060  12.124 105.142  1.00  0.00     0.140 C 
ATOM     14  O   UNL     1      34.399  12.261 103.976  1.00  0.00    -0.299 OA
BRANCH  13  15
ATOM     15  C   UNL     1      34.858  12.830 106.204  1.00  0.00     0.106 CG0
ATOM     16  G   UNL     1      36.203  12.228 106.618  1.00  0.00     0.000 G0
ENDBRANCH  13  15
ENDBRANCH  12  13
BRANCH  12  17
ATOM     17  C   UNL     1      31.487  12.054 104.881  1.00  0.00    -0.006 C 
ATOM     18  C   UNL     1      30.168  11.492 105.444  1.00  0.00     0.008 C 
ATOM     19  C   UNL     1      31.492  13.577 105.126  1.00  0.00     0.008 C 
ENDBRANCH  12  17
ENDBRANCH  11  12
ENDBRANCH   1  11
TORSDOF 1
ENDMDL
MODEL 8
REMARK VINA RESULT:    -2.952      4.754      6.585
REMARK INTER + INTRA:          -4.494
REMARK INTER:                  -4.540
REMARK INTRA:                   0.045
REMARK UNBOUND:                 0.011
REMARK SMILES CC1=CCC[C@@H](C)C(=O)C[C@H](C(C)C)C(=O)C1
REMARK SMILES IDX 8 1 9 2 6 3 7 4 5 5 4 6 3 7 2 8 1 9 10 11 11 12 15 13 16 14
REMARK SMILES IDX 17 15 12 17 13 18 14 19
REMARK H PARENT
REMARK Flexibility Score: 70.00
ROOT
ATOM      1  C   UNL     1      35.269  11.233 105.241  1.00  0.00     0.136 C 
ATOM      2  O   UNL     1      34.410  10.381 105.418  1.00  0.00    -0.299 OA
ENDROOT
BRANCH   1   3
ATOM      3  C   UNL     1      34.817  12.599 104.730  1.00  0.00     0.053 C 
ATOM      4  C   UNL     1      33.345  12.954 104.991  1.00  0.00     0.016 C 
BRANCH   3   5
ATOM      5  C   UNL     1      35.206  12.828 103.250  1.00  0.00     0.015 C 
BRANCH   5   6
ATOM      6  C   UNL     1      36.380  13.792 103.012  1.00  0.00     0.028 C 
BRANCH   6   7
ATOM      7  C   UNL     1      37.718  13.099 102.903  1.00  0.00    -0.028 C 
ATOM      8  C   UNL     1      38.721  12.985 103.820  1.00  0.00    -0.070 CG0
ATOM      9  C   UNL     1      39.955  12.244 103.359  1.00  0.00     0.039 C 
ATOM     10  G   UNL     1      38.693  13.364 105.302  1.00  0.00     0.000 G0
ENDBRANCH   6   7
ENDBRANCH   5   6
ENDBRANCH   3   5
ENDBRANCH   1   3
BRANCH   1  11
ATOM     11  C   UNL     1      36.716  10.849 105.481  1.00  0.00     0.087 C 
BRANCH  11  12
ATOM     12  C   UNL     1      37.376  11.533 106.716  1.00  0.00     0.066 C 
BRANCH  12  13
ATOM     13  C   UNL     1      38.677  12.249 106.333  1.00  0.00     0.140 C 
ATOM     14  O   UNL     1      39.754  11.855 106.755  1.00  0.00    -0.299 OA
BRANCH  13  15
ATOM     15  C   UNL     1      38.674  13.353 105.310  1.00  0.00     0.106 CG0
ATOM     16  G   UNL     1      38.700  12.966 103.830  1.00  0.00     0.000 G0
ENDBRANCH  13  15
ENDBRANCH  12  13
BRANCH  12  17
ATOM     17  C   UNL     1      36.406  12.442 107.556  1.00  0.00    -0.006 C 
ATOM     18  C   UNL     1      35.870  11.755 108.827  1.00  0.00     0.008 C 
ATOM     19  C   UNL     1      37.107  13.747 107.988  1.00  0.00     0.008 C 
ENDBRANCH  12  17
ENDBRANCH  11  12
ENDBRANCH   1  11
TORSDOF 1
ENDMDL
MODEL 9
REMARK VINA RESULT:    -2.890      3.928      6.086
REMARK INTER + INTRA:          -4.400
REMARK INTER:                  -4.772
REMARK INTRA:                   0.372
REMARK UNBOUND:                 0.011
REMARK SMILES CC1=CCC[C@@H](C)C(=O)C[C@H](C(C)C)C(=O)C1
REMARK SMILES IDX 8 1 9 2 6 3 7 4 5 5 4 6 3 7 2 8 1 9 10 11 11 12 15 13 16 14
REMARK SMILES IDX 17 15 12 17 13 18 14 19
REMARK H PARENT
REMARK Flexibility Score: 70.00
ROOT
ATOM      1  C   UNL     1      37.090  11.876 106.595  1.00  0.00     0.136 C 
ATOM      2  O   UNL     1      37.592  12.940 106.930  1.00  0.00    -0.299 OA
ENDROOT
BRANCH   1   3
ATOM      3  C   UNL     1      35.837  11.418 107.337  1.00  0.00     0.053 C 
ATOM      4  C   UNL     1      35.968  11.317 108.865  1.00  0.00     0.016 C 
BRANCH   3   5
ATOM      5  C   UNL     1      35.235  10.129 106.729  1.00  0.00     0.015 C 
BRANCH   5   6
ATOM      6  C   UNL     1      34.323  10.333 105.507  1.00  0.00     0.028 C 
BRANCH   6   7
ATOM      7  C   UNL     1      33.848  11.757 105.339  1.00  0.00    -0.028 C 
ATOM      8  C   UNL     1      34.378  12.773 104.599  1.00  0.00    -0.070 CG0
ATOM      9  C   UNL     1      33.658  14.099 104.690  1.00  0.00     0.039 C 
ATOM     10  G   UNL     1      35.502  12.701 103.564  1.00  0.00     0.000 G0
ENDBRANCH   6   7
ENDBRANCH   5   6
ENDBRANCH   3   5
ENDBRANCH   1   3
BRANCH   1  11
ATOM     11  C   UNL     1      37.785  11.068 105.516  1.00  0.00     0.087 C 
BRANCH  11  12
ATOM     12  C   UNL     1      37.933  11.799 104.148  1.00  0.00     0.066 C 
BRANCH  12  13
ATOM     13  C   UNL     1      36.929  12.951 104.016  1.00  0.00     0.140 C 
ATOM     14  O   UNL     1      37.289  14.111 104.157  1.00  0.00    -0.299 OA
BRANCH  13  15
ATOM     15  C   UNL     1      35.519  12.693 103.559  1.00  0.00     0.106 CG0
ATOM     16  G   UNL     1      34.398  12.767 104.599  1.00  0.00     0.000 G0
ENDBRANCH  13  15
ENDBRANCH  12  13
BRANCH  12  17
ATOM     17  C   UNL     1      39.403  12.229 103.792  1.00  0.00    -0.006 C 
ATOM     18  C   UNL     1      40.254  12.580 105.028  1.00  0.00     0.008 C 
ATOM     19  C   UNL     1      40.135  11.111 103.020  1.00  0.00     0.008 C 
ENDBRANCH  12  17
ENDBRANCH  11  12
ENDBRANCH   1  11
TORSDOF 1
ENDMDL
