MODEL 1
REMARK VINA RESULT:    -6.203      0.000      0.000
REMARK INTER + INTRA:          -6.810
REMARK INTER:                  -6.747
REMARK INTRA:                  -0.063
REMARK UNBOUND:                -0.063
REMARK SMILES COc1cc2ccc(=O)oc2cc1O
REMARK SMILES IDX 3 1 13 2 12 3 11 4 5 5 4 6 6 7 7 8 8 9 9 10 10 11 2 12 1 13
REMARK SMILES IDX 14 14
REMARK H PARENT 14 15
REMARK Flexibility Score: inf
ROOT
ATOM      1  C   UNL     1     -33.963  10.353 -36.960  1.00  0.00     0.161 A 
ATOM      2  C   UNL     1     -34.203  11.668 -36.517  1.00  0.00     0.161 A 
ATOM      3  C   UNL     1     -33.895  12.036 -35.202  1.00  0.00     0.098 A 
ATOM      4  C   UNL     1     -33.348  11.105 -34.317  1.00  0.00     0.142 A 
ATOM      5  C   UNL     1     -33.104   9.785 -34.751  1.00  0.00     0.022 A 
ATOM      6  C   UNL     1     -33.410   9.413 -36.067  1.00  0.00     0.062 A 
ATOM      7  C   UNL     1     -32.555   8.875 -33.841  1.00  0.00     0.019 A 
ATOM      8  C   UNL     1     -32.267   9.294 -32.543  1.00  0.00     0.094 A 
ATOM      9  C   UNL     1     -32.537  10.619 -32.183  1.00  0.00     0.336 A 
ATOM     10  O   UNL     1     -32.284  11.018 -31.016  1.00  0.00    -0.246 OA
ATOM     11  O   UNL     1     -33.059  11.464 -33.068  1.00  0.00    -0.423 OA
ENDROOT
BRANCH   1  12
ATOM     12  O   UNL     1     -34.283  10.017 -38.286  1.00  0.00    -0.493 OA
ATOM     13  C   UNL     1     -35.507   9.415 -38.694  1.00  0.00     0.278 C 
ENDBRANCH   1  12
BRANCH   2  14
ATOM     14  O   UNL     1     -34.748  12.627 -37.371  1.00  0.00    -0.504 OA
ATOM     15  H   UNL     1     -35.143  12.385 -38.272  1.00  0.00     0.293 HD
ENDBRANCH   2  14
TORSDOF 2
ENDMDL
MODEL 2
REMARK VINA RESULT:    -5.762      1.582      5.379
REMARK INTER + INTRA:          -6.331
REMARK INTER:                  -6.365
REMARK INTRA:                   0.034
REMARK UNBOUND:                -0.063
REMARK SMILES COc1cc2ccc(=O)oc2cc1O
REMARK SMILES IDX 3 1 13 2 12 3 11 4 5 5 4 6 6 7 7 8 8 9 9 10 10 11 2 12 1 13
REMARK SMILES IDX 14 14
REMARK H PARENT 14 15
REMARK Flexibility Score: inf
ROOT
ATOM      1  C   UNL     1     -33.572  11.194 -32.601  1.00  0.00     0.161 A 
ATOM      2  C   UNL     1     -33.652   9.788 -32.572  1.00  0.00     0.161 A 
ATOM      3  C   UNL     1     -33.839   9.068 -33.758  1.00  0.00     0.098 A 
ATOM      4  C   UNL     1     -33.949   9.735 -34.980  1.00  0.00     0.142 A 
ATOM      5  C   UNL     1     -33.871  11.142 -35.020  1.00  0.00     0.022 A 
ATOM      6  C   UNL     1     -33.683  11.867 -33.834  1.00  0.00     0.062 A 
ATOM      7  C   UNL     1     -33.985  11.782 -36.258  1.00  0.00     0.019 A 
ATOM      8  C   UNL     1     -34.170  11.016 -37.409  1.00  0.00     0.094 A 
ATOM      9  C   UNL     1     -34.238   9.623 -37.293  1.00  0.00     0.336 A 
ATOM     10  O   UNL     1     -34.405   8.915 -38.319  1.00  0.00    -0.246 OA
ATOM     11  O   UNL     1     -34.127   9.041 -36.102  1.00  0.00    -0.423 OA
ENDROOT
BRANCH   1  12
ATOM     12  O   UNL     1     -33.385  11.886 -31.393  1.00  0.00    -0.493 OA
ATOM     13  C   UNL     1     -32.147  11.971 -30.694  1.00  0.00     0.278 C 
ENDBRANCH   1  12
BRANCH   2  14
ATOM     14  O   UNL     1     -33.546   9.086 -31.371  1.00  0.00    -0.504 OA
ATOM     15  H   UNL     1     -33.904   9.453 -30.498  1.00  0.00     0.293 HD
ENDBRANCH   2  14
TORSDOF 2
ENDMDL
MODEL 3
REMARK VINA RESULT:    -5.451      1.911      5.126
REMARK INTER + INTRA:          -5.992
REMARK INTER:                  -6.149
REMARK INTRA:                   0.157
REMARK UNBOUND:                -0.063
REMARK SMILES COc1cc2ccc(=O)oc2cc1O
REMARK SMILES IDX 3 1 13 2 12 3 11 4 5 5 4 6 6 7 7 8 8 9 9 10 10 11 2 12 1 13
REMARK SMILES IDX 14 14
REMARK H PARENT 14 15
REMARK Flexibility Score: inf
ROOT
ATOM      1  C   UNL     1     -32.664  10.992 -31.572  1.00  0.00     0.161 A 
ATOM      2  C   UNL     1     -33.865  11.468 -32.133  1.00  0.00     0.161 A 
ATOM      3  C   UNL     1     -34.192  11.170 -33.460  1.00  0.00     0.098 A 
ATOM      4  C   UNL     1     -33.331  10.397 -34.243  1.00  0.00     0.142 A 
ATOM      5  C   UNL     1     -32.125   9.914 -33.692  1.00  0.00     0.022 A 
ATOM      6  C   UNL     1     -31.796  10.211 -32.362  1.00  0.00     0.062 A 
ATOM      7  C   UNL     1     -31.284   9.144 -34.500  1.00  0.00     0.019 A 
ATOM      8  C   UNL     1     -31.657   8.875 -35.817  1.00  0.00     0.094 A 
ATOM      9  C   UNL     1     -32.868   9.387 -36.296  1.00  0.00     0.336 A 
ATOM     10  O   UNL     1     -33.223   9.156 -37.481  1.00  0.00    -0.246 OA
ATOM     11  O   UNL     1     -33.649  10.118 -35.505  1.00  0.00    -0.423 OA
ENDROOT
BRANCH   1  12
ATOM     12  O   UNL     1     -32.367  11.310 -30.237  1.00  0.00    -0.493 OA
ATOM     13  C   UNL     1     -32.131  12.628 -29.754  1.00  0.00     0.278 C 
ENDBRANCH   1  12
BRANCH   2  14
ATOM     14  O   UNL     1     -34.751  12.243 -31.383  1.00  0.00    -0.504 OA
ATOM     15  H   UNL     1     -35.662  12.513 -31.734  1.00  0.00     0.293 HD
ENDBRANCH   2  14
TORSDOF 2
ENDMDL
MODEL 4
REMARK VINA RESULT:    -5.217      1.463      5.364
REMARK INTER + INTRA:          -5.737
REMARK INTER:                  -5.675
REMARK INTRA:                  -0.062
REMARK UNBOUND:                -0.063
REMARK SMILES COc1cc2ccc(=O)oc2cc1O
REMARK SMILES IDX 3 1 13 2 12 3 11 4 5 5 4 6 6 7 7 8 8 9 9 10 10 11 2 12 1 13
REMARK SMILES IDX 14 14
REMARK H PARENT 14 15
REMARK Flexibility Score: inf
ROOT
ATOM      1  C   UNL     1     -32.893  10.970 -33.780  1.00  0.00     0.161 A 
ATOM      2  C   UNL     1     -32.469   9.644 -33.998  1.00  0.00     0.161 A 
ATOM      3  C   UNL     1     -32.762   9.000 -35.205  1.00  0.00     0.098 A 
ATOM      4  C   UNL     1     -33.478   9.662 -36.205  1.00  0.00     0.142 A 
ATOM      5  C   UNL     1     -33.908  10.990 -35.996  1.00  0.00     0.022 A 
ATOM      6  C   UNL     1     -33.615  11.639 -34.789  1.00  0.00     0.062 A 
ATOM      7  C   UNL     1     -34.623  11.627 -37.015  1.00  0.00     0.019 A 
ATOM      8  C   UNL     1     -34.888  10.939 -38.199  1.00  0.00     0.094 A 
ATOM      9  C   UNL     1     -34.431   9.623 -38.335  1.00  0.00     0.336 A 
ATOM     10  O   UNL     1     -34.659   8.985 -39.395  1.00  0.00    -0.246 OA
ATOM     11  O   UNL     1     -33.753   9.041 -37.349  1.00  0.00    -0.423 OA
ENDROOT
BRANCH   1  12
ATOM     12  O   UNL     1     -32.582  11.587 -32.557  1.00  0.00    -0.493 OA
ATOM     13  C   UNL     1     -33.535  11.911 -31.550  1.00  0.00     0.278 C 
ENDBRANCH   1  12
BRANCH   2  14
ATOM     14  O   UNL     1     -31.751   8.949 -33.025  1.00  0.00    -0.504 OA
ATOM     15  H   UNL     1     -31.414   8.006 -33.173  1.00  0.00     0.293 HD
ENDBRANCH   2  14
TORSDOF 2
ENDMDL
MODEL 5
REMARK VINA RESULT:    -5.193      1.142      2.208
REMARK INTER + INTRA:          -5.712
REMARK INTER:                  -5.647
REMARK INTRA:                  -0.065
REMARK UNBOUND:                -0.063
REMARK SMILES COc1cc2ccc(=O)oc2cc1O
REMARK SMILES IDX 3 1 13 2 12 3 11 4 5 5 4 6 6 7 7 8 8 9 9 10 10 11 2 12 1 13
REMARK SMILES IDX 14 14
REMARK H PARENT 14 15
REMARK Flexibility Score: inf
ROOT
ATOM      1  C   UNL     1     -33.805  10.714 -36.892  1.00  0.00     0.161 A 
ATOM      2  C   UNL     1     -32.891   9.651 -36.746  1.00  0.00     0.161 A 
ATOM      3  C   UNL     1     -32.348   9.354 -35.491  1.00  0.00     0.098 A 
ATOM      4  C   UNL     1     -32.704  10.108 -34.371  1.00  0.00     0.142 A 
ATOM      5  C   UNL     1     -33.618  11.174 -34.505  1.00  0.00     0.022 A 
ATOM      6  C   UNL     1     -34.165  11.474 -35.760  1.00  0.00     0.062 A 
ATOM      7  C   UNL     1     -33.955  11.911 -33.365  1.00  0.00     0.019 A 
ATOM      8  C   UNL     1     -33.385  11.573 -32.138  1.00  0.00     0.094 A 
ATOM      9  C   UNL     1     -32.485  10.502 -32.081  1.00  0.00     0.336 A 
ATOM     10  O   UNL     1     -31.959  10.181 -30.984  1.00  0.00    -0.246 OA
ATOM     11  O   UNL     1     -32.182   9.819 -33.181  1.00  0.00    -0.423 OA
ENDROOT
BRANCH   1  12
ATOM     12  O   UNL     1     -34.331  10.984 -38.165  1.00  0.00    -0.493 OA
ATOM     13  C   UNL     1     -35.627  10.592 -38.605  1.00  0.00     0.278 C 
ENDBRANCH   1  12
BRANCH   2  14
ATOM     14  O   UNL     1     -32.510   8.875 -37.842  1.00  0.00    -0.504 OA
ATOM     15  H   UNL     1     -31.789   9.171 -38.488  1.00  0.00     0.293 HD
ENDBRANCH   2  14
TORSDOF 2
ENDMDL
MODEL 6
REMARK VINA RESULT:    -4.961      1.739      2.786
REMARK INTER + INTRA:          -5.459
REMARK INTER:                  -5.411
REMARK INTRA:                  -0.048
REMARK UNBOUND:                -0.063
REMARK SMILES COc1cc2ccc(=O)oc2cc1O
REMARK SMILES IDX 3 1 13 2 12 3 11 4 5 5 4 6 6 7 7 8 8 9 9 10 10 11 2 12 1 13
REMARK SMILES IDX 14 14
REMARK H PARENT 14 15
REMARK Flexibility Score: inf
ROOT
ATOM      1  C   UNL     1     -32.874  10.396 -35.747  1.00  0.00     0.161 A 
ATOM      2  C   UNL     1     -31.779   9.694 -35.205  1.00  0.00     0.161 A 
ATOM      3  C   UNL     1     -31.472   9.807 -33.845  1.00  0.00     0.098 A 
ATOM      4  C   UNL     1     -32.246  10.618 -33.010  1.00  0.00     0.142 A 
ATOM      5  C   UNL     1     -33.344  11.325 -33.542  1.00  0.00     0.022 A 
ATOM      6  C   UNL     1     -33.655  11.213 -34.905  1.00  0.00     0.062 A 
ATOM      7  C   UNL     1     -34.100  12.128 -32.683  1.00  0.00     0.019 A 
ATOM      8  C   UNL     1     -33.751  12.205 -31.335  1.00  0.00     0.094 A 
ATOM      9  C   UNL     1     -32.648  11.475 -30.877  1.00  0.00     0.336 A 
ATOM     10  O   UNL     1     -32.316  11.531 -29.665  1.00  0.00    -0.246 OA
ATOM     11  O   UNL     1     -31.946  10.719 -31.718  1.00  0.00    -0.423 OA
ENDROOT
BRANCH   1  12
ATOM     12  O   UNL     1     -33.154  10.260 -37.117  1.00  0.00    -0.493 OA
ATOM     13  C   UNL     1     -34.463  10.189 -37.671  1.00  0.00     0.278 C 
ENDBRANCH   1  12
BRANCH   2  14
ATOM     14  O   UNL     1     -30.982   8.875 -36.006  1.00  0.00    -0.504 OA
ATOM     15  H   UNL     1     -30.783   7.912 -35.764  1.00  0.00     0.293 HD
ENDBRANCH   2  14
TORSDOF 2
ENDMDL
MODEL 7
REMARK VINA RESULT:    -4.524      1.445      5.190
REMARK INTER + INTRA:          -4.984
REMARK INTER:                  -4.948
REMARK INTRA:                  -0.036
REMARK UNBOUND:                -0.063
REMARK SMILES COc1cc2ccc(=O)oc2cc1O
REMARK SMILES IDX 3 1 13 2 12 3 11 4 5 5 4 6 6 7 7 8 8 9 9 10 10 11 2 12 1 13
REMARK SMILES IDX 14 14
REMARK H PARENT 14 15
REMARK Flexibility Score: inf
ROOT
ATOM      1  C   UNL     1     -32.531  10.021 -35.322  1.00  0.00     0.161 A 
ATOM      2  C   UNL     1     -33.133  11.290 -35.215  1.00  0.00     0.161 A 
ATOM      3  C   UNL     1     -34.016  11.738 -36.204  1.00  0.00     0.098 A 
ATOM      4  C   UNL     1     -34.310  10.932 -37.307  1.00  0.00     0.142 A 
ATOM      5  C   UNL     1     -33.713   9.660 -37.424  1.00  0.00     0.022 A 
ATOM      6  C   UNL     1     -32.829   9.208 -36.435  1.00  0.00     0.062 A 
ATOM      7  C   UNL     1     -34.027   8.876 -38.539  1.00  0.00     0.019 A 
ATOM      8  C   UNL     1     -34.914   9.370 -39.495  1.00  0.00     0.094 A 
ATOM      9  C   UNL     1     -35.467  10.642 -39.312  1.00  0.00     0.336 A 
ATOM     10  O   UNL     1     -36.270  11.107 -40.163  1.00  0.00    -0.246 OA
ATOM     11  O   UNL     1     -35.151  11.367 -38.242  1.00  0.00    -0.423 OA
ENDROOT
BRANCH   1  12
ATOM     12  O   UNL     1     -31.649   9.603 -34.312  1.00  0.00    -0.493 OA
ATOM     13  C   UNL     1     -32.048   8.957 -33.107  1.00  0.00     0.278 C 
ENDBRANCH   1  12
BRANCH   2  14
ATOM     14  O   UNL     1     -32.864  12.124 -34.129  1.00  0.00    -0.504 OA
ATOM     15  H   UNL     1     -33.553  12.314 -33.411  1.00  0.00     0.293 HD
ENDBRANCH   2  14
TORSDOF 2
ENDMDL
MODEL 8
REMARK VINA RESULT:    -3.829     18.249     19.580
REMARK INTER + INTRA:          -4.228
REMARK INTER:                  -4.163
REMARK INTRA:                  -0.065
REMARK UNBOUND:                -0.063
REMARK SMILES COc1cc2ccc(=O)oc2cc1O
REMARK SMILES IDX 3 1 13 2 12 3 11 4 5 5 4 6 6 7 7 8 8 9 9 10 10 11 2 12 1 13
REMARK SMILES IDX 14 14
REMARK H PARENT 14 15
REMARK Flexibility Score: inf
ROOT
ATOM      1  C   UNL     1     -24.337  24.958 -31.250  1.00  0.00     0.161 A 
ATOM      2  C   UNL     1     -23.484  24.268 -30.366  1.00  0.00     0.161 A 
ATOM      3  C   UNL     1     -22.615  24.975 -29.528  1.00  0.00     0.098 A 
ATOM      4  C   UNL     1     -22.583  26.371 -29.559  1.00  0.00     0.142 A 
ATOM      5  C   UNL     1     -23.433  27.072 -30.440  1.00  0.00     0.022 A 
ATOM      6  C   UNL     1     -24.305  26.367 -31.280  1.00  0.00     0.062 A 
ATOM      7  C   UNL     1     -23.378  28.470 -30.448  1.00  0.00     0.019 A 
ATOM      8  C   UNL     1     -22.494  29.125 -29.592  1.00  0.00     0.094 A 
ATOM      9  C   UNL     1     -21.680  28.364 -28.745  1.00  0.00     0.336 A 
ATOM     10  O   UNL     1     -20.876  28.936 -27.965  1.00  0.00    -0.246 OA
ATOM     11  O   UNL     1     -21.753  27.035 -28.758  1.00  0.00    -0.423 OA
ENDROOT
BRANCH   1  12
ATOM     12  O   UNL     1     -25.197  24.217 -32.077  1.00  0.00    -0.493 OA
ATOM     13  C   UNL     1     -26.570  23.968 -31.799  1.00  0.00     0.278 C 
ENDBRANCH   1  12
BRANCH   2  14
ATOM     14  O   UNL     1     -23.487  22.874 -30.306  1.00  0.00    -0.504 OA
ATOM     15  H   UNL     1     -22.928  22.361 -29.634  1.00  0.00     0.293 HD
ENDBRANCH   2  14
TORSDOF 2
ENDMDL
MODEL 9
REMARK VINA RESULT:    -3.543     20.146     22.227
REMARK INTER + INTRA:          -3.917
REMARK INTER:                  -3.867
REMARK INTRA:                  -0.050
REMARK UNBOUND:                -0.063
REMARK SMILES COc1cc2ccc(=O)oc2cc1O
REMARK SMILES IDX 3 1 13 2 12 3 11 4 5 5 4 6 6 7 7 8 8 9 9 10 10 11 2 12 1 13
REMARK SMILES IDX 14 14
REMARK H PARENT 14 15
REMARK Flexibility Score: inf
ROOT
ATOM      1  C   UNL     1     -23.414  27.100 -22.607  1.00  0.00     0.161 A 
ATOM      2  C   UNL     1     -23.454  25.772 -22.137  1.00  0.00     0.161 A 
ATOM      3  C   UNL     1     -24.672  25.086 -22.067  1.00  0.00     0.098 A 
ATOM      4  C   UNL     1     -25.859  25.709 -22.459  1.00  0.00     0.142 A 
ATOM      5  C   UNL     1     -25.830  27.038 -22.931  1.00  0.00     0.022 A 
ATOM      6  C   UNL     1     -24.612  27.728 -23.004  1.00  0.00     0.062 A 
ATOM      7  C   UNL     1     -27.034  27.635 -23.317  1.00  0.00     0.019 A 
ATOM      8  C   UNL     1     -28.219  26.906 -23.226  1.00  0.00     0.094 A 
ATOM      9  C   UNL     1     -28.171  25.591 -22.749  1.00  0.00     0.336 A 
ATOM     10  O   UNL     1     -29.230  24.916 -22.660  1.00  0.00    -0.246 OA
ATOM     11  O   UNL     1     -27.012  25.048 -22.388  1.00  0.00    -0.423 OA
ENDROOT
BRANCH   1  12
ATOM     12  O   UNL     1     -22.176  27.760 -22.664  1.00  0.00    -0.493 OA
ATOM     13  C   UNL     1     -21.725  28.537 -23.769  1.00  0.00     0.278 C 
ENDBRANCH   1  12
BRANCH   2  14
ATOM     14  O   UNL     1     -22.290  25.116 -21.736  1.00  0.00    -0.504 OA
ATOM     15  H   UNL     1     -22.055  24.187 -22.063  1.00  0.00     0.293 HD
ENDBRANCH   2  14
TORSDOF 2
ENDMDL
