MODEL 1
REMARK VINA RESULT:    -3.771      0.000      0.000
REMARK INTER + INTRA:          -4.864
REMARK INTER:                  -4.653
REMARK INTRA:                  -0.211
REMARK UNBOUND:                -0.211
REMARK SMILES CCCCCC(=O)[O-]
REMARK SMILES IDX 4 1 5 2 6 3 7 4 8 5 3 6 2 7 1 8
REMARK H PARENT
REMARK Flexibility Score: inf
ROOT
ATOM      1  C   UNL     1       0.986  57.744  24.404  1.00  0.00     0.006 C 
ENDROOT
BRANCH   1   2
ATOM      2  C   UNL     1       0.171  58.683  25.301  1.00  0.00     0.053 C 
BRANCH   2   3
ATOM      3  C   UNL     1       0.240  60.087  24.787  1.00  0.00     0.041 C 
ATOM      4  O   UNL     1       0.574  60.308  23.593  1.00  0.00    -0.550 OA
ATOM      5  O   UNL     1      -0.111  61.148  25.612  1.00  0.00    -0.550 OA
ENDBRANCH   2   3
ENDBRANCH   1   2
BRANCH   1   6
ATOM      6  C   UNL     1       2.309  57.306  25.052  1.00  0.00     0.000 C 
BRANCH   6   7
ATOM      7  C   UNL     1       3.538  57.772  24.258  1.00  0.00    -0.003 C 
ATOM      8  C   UNL     1       3.162  58.120  22.820  1.00  0.00     0.004 C 
ENDBRANCH   6   7
ENDBRANCH   1   6
TORSDOF 4
ENDMDL
MODEL 2
REMARK VINA RESULT:    -3.769      2.590      3.941
REMARK INTER + INTRA:          -4.861
REMARK INTER:                  -4.710
REMARK INTRA:                  -0.151
REMARK UNBOUND:                -0.211
REMARK SMILES CCCCCC(=O)[O-]
REMARK SMILES IDX 4 1 5 2 6 3 7 4 8 5 3 6 2 7 1 8
REMARK H PARENT
REMARK Flexibility Score: inf
ROOT
ATOM      1  C   UNL     1       1.298  57.398  24.431  1.00  0.00     0.006 C 
ENDROOT
BRANCH   1   2
ATOM      2  C   UNL     1       0.869  57.123  22.985  1.00  0.00     0.053 C 
BRANCH   2   3
ATOM      3  C   UNL     1       2.054  57.162  22.072  1.00  0.00     0.041 C 
ATOM      4  O   UNL     1       2.104  56.405  21.068  1.00  0.00    -0.550 OA
ATOM      5  O   UNL     1       3.081  58.069  22.304  1.00  0.00    -0.550 OA
ENDBRANCH   2   3
ENDBRANCH   1   2
BRANCH   1   6
ATOM      6  C   UNL     1       0.482  58.524  25.087  1.00  0.00     0.000 C 
BRANCH   6   7
ATOM      7  C   UNL     1       0.502  59.822  24.268  1.00  0.00    -0.003 C 
ATOM      8  C   UNL     1      -0.069  60.987  25.073  1.00  0.00     0.004 C 
ENDBRANCH   6   7
ENDBRANCH   1   6
TORSDOF 4
ENDMDL
MODEL 3
REMARK VINA RESULT:    -3.742      2.451      3.599
REMARK INTER + INTRA:          -4.828
REMARK INTER:                  -4.594
REMARK INTRA:                  -0.235
REMARK UNBOUND:                -0.211
REMARK SMILES CCCCCC(=O)[O-]
REMARK SMILES IDX 4 1 5 2 6 3 7 4 8 5 3 6 2 7 1 8
REMARK H PARENT
REMARK Flexibility Score: inf
ROOT
ATOM      1  C   UNL     1       0.502  57.766  23.363  1.00  0.00     0.006 C 
ENDROOT
BRANCH   1   2
ATOM      2  C   UNL     1       1.728  56.943  22.945  1.00  0.00     0.053 C 
BRANCH   2   3
ATOM      3  C   UNL     1       2.971  57.767  23.050  1.00  0.00     0.041 C 
ATOM      4  O   UNL     1       3.210  58.665  22.200  1.00  0.00    -0.550 OA
ATOM      5  O   UNL     1       3.843  57.579  24.115  1.00  0.00    -0.550 OA
ENDBRANCH   2   3
ENDBRANCH   1   2
BRANCH   1   6
ATOM      6  C   UNL     1       0.488  58.083  24.866  1.00  0.00     0.000 C 
BRANCH   6   7
ATOM      7  C   UNL     1       0.113  59.543  25.158  1.00  0.00    -0.003 C 
ATOM      8  C   UNL     1       0.586  60.465  24.037  1.00  0.00     0.004 C 
ENDBRANCH   6   7
ENDBRANCH   1   6
TORSDOF 4
ENDMDL
MODEL 4
REMARK VINA RESULT:    -3.694      2.885      4.288
REMARK INTER + INTRA:          -4.769
REMARK INTER:                  -4.519
REMARK INTRA:                  -0.250
REMARK UNBOUND:                -0.211
REMARK SMILES CCCCCC(=O)[O-]
REMARK SMILES IDX 4 1 5 2 6 3 7 4 8 5 3 6 2 7 1 8
REMARK H PARENT
REMARK Flexibility Score: inf
ROOT
ATOM      1  C   UNL     1       2.344  57.567  22.774  1.00  0.00     0.006 C 
ENDROOT
BRANCH   1   2
ATOM      2  C   UNL     1       3.274  57.511  23.993  1.00  0.00     0.053 C 
BRANCH   2   3
ATOM      3  C   UNL     1       3.012  56.274  24.792  1.00  0.00     0.041 C 
ATOM      4  O   UNL     1       2.707  56.361  26.011  1.00  0.00    -0.550 OA
ATOM      5  O   UNL     1       3.058  55.028  24.181  1.00  0.00    -0.550 OA
ENDBRANCH   2   3
ENDBRANCH   1   2
BRANCH   1   6
ATOM      6  C   UNL     1       0.876  57.810  23.160  1.00  0.00     0.000 C 
BRANCH   6   7
ATOM      7  C   UNL     1       0.700  59.028  24.077  1.00  0.00    -0.003 C 
ATOM      8  C   UNL     1       0.054  58.630  25.401  1.00  0.00     0.004 C 
ENDBRANCH   6   7
ENDBRANCH   1   6
TORSDOF 4
ENDMDL
MODEL 5
REMARK VINA RESULT:    -3.686     11.011     11.786
REMARK INTER + INTRA:          -4.759
REMARK INTER:                  -4.674
REMARK INTRA:                  -0.085
REMARK UNBOUND:                -0.211
REMARK SMILES CCCCCC(=O)[O-]
REMARK SMILES IDX 4 1 5 2 6 3 7 4 8 5 3 6 2 7 1 8
REMARK H PARENT
REMARK Flexibility Score: inf
ROOT
ATOM      1  C   UNL     1       5.948  48.043  25.031  1.00  0.00     0.006 C 
ENDROOT
BRANCH   1   2
ATOM      2  C   UNL     1       7.097  49.000  24.690  1.00  0.00     0.053 C 
BRANCH   2   3
ATOM      3  C   UNL     1       7.780  49.462  25.938  1.00  0.00     0.041 C 
ATOM      4  O   UNL     1       7.629  48.826  27.014  1.00  0.00    -0.550 OA
ATOM      5  O   UNL     1       8.622  50.566  25.903  1.00  0.00    -0.550 OA
ENDBRANCH   2   3
ENDBRANCH   1   2
BRANCH   1   6
ATOM      6  C   UNL     1       4.581  48.745  25.058  1.00  0.00     0.000 C 
BRANCH   6   7
ATOM      7  C   UNL     1       3.544  47.987  25.899  1.00  0.00    -0.003 C 
ATOM      8  C   UNL     1       2.453  47.389  25.014  1.00  0.00     0.004 C 
ENDBRANCH   6   7
ENDBRANCH   1   6
TORSDOF 4
ENDMDL
MODEL 6
REMARK VINA RESULT:    -3.677      1.436      1.782
REMARK INTER + INTRA:          -4.748
REMARK INTER:                  -4.502
REMARK INTRA:                  -0.246
REMARK UNBOUND:                -0.211
REMARK SMILES CCCCCC(=O)[O-]
REMARK SMILES IDX 4 1 5 2 6 3 7 4 8 5 3 6 2 7 1 8
REMARK H PARENT
REMARK Flexibility Score: inf
ROOT
ATOM      1  C   UNL     1       0.897  58.327  24.598  1.00  0.00     0.006 C 
ENDROOT
BRANCH   1   2
ATOM      2  C   UNL     1       0.098  59.599  24.907  1.00  0.00     0.053 C 
BRANCH   2   3
ATOM      3  C   UNL     1       0.290  60.612  23.822  1.00  0.00     0.041 C 
ATOM      4  O   UNL     1      -0.699  61.032  23.166  1.00  0.00    -0.550 OA
ATOM      5  O   UNL     1       1.555  61.128  23.568  1.00  0.00    -0.550 OA
ENDBRANCH   2   3
ENDBRANCH   1   2
BRANCH   1   6
ATOM      6  C   UNL     1       0.523  57.707  23.242  1.00  0.00     0.000 C 
BRANCH   6   7
ATOM      7  C   UNL     1       1.730  57.092  22.520  1.00  0.00    -0.003 C 
ATOM      8  C   UNL     1       2.918  58.052  22.524  1.00  0.00     0.004 C 
ENDBRANCH   6   7
ENDBRANCH   1   6
TORSDOF 4
ENDMDL
MODEL 7
REMARK VINA RESULT:    -3.667     10.952     11.841
REMARK INTER + INTRA:          -4.735
REMARK INTER:                  -4.522
REMARK INTRA:                  -0.214
REMARK UNBOUND:                -0.211
REMARK SMILES CCCCCC(=O)[O-]
REMARK SMILES IDX 4 1 5 2 6 3 7 4 8 5 3 6 2 7 1 8
REMARK H PARENT
REMARK Flexibility Score: inf
ROOT
ATOM      1  C   UNL     1       4.522  46.881  25.787  1.00  0.00     0.006 C 
ENDROOT
BRANCH   1   2
ATOM      2  C   UNL     1       5.711  47.777  26.158  1.00  0.00     0.053 C 
BRANCH   2   3
ATOM      3  C   UNL     1       6.162  48.564  24.969  1.00  0.00     0.041 C 
ATOM      4  O   UNL     1       6.778  49.651  25.126  1.00  0.00    -0.550 OA
ATOM      5  O   UNL     1       5.946  48.074  23.687  1.00  0.00    -0.550 OA
ENDBRANCH   2   3
ENDBRANCH   1   2
BRANCH   1   6
ATOM      6  C   UNL     1       3.174  47.611  25.899  1.00  0.00     0.000 C 
BRANCH   6   7
ATOM      7  C   UNL     1       2.226  47.281  24.737  1.00  0.00    -0.003 C 
ATOM      8  C   UNL     1       2.374  48.294  23.605  1.00  0.00     0.004 C 
ENDBRANCH   6   7
ENDBRANCH   1   6
TORSDOF 4
ENDMDL
MODEL 8
REMARK VINA RESULT:    -3.648      1.259      2.127
REMARK INTER + INTRA:          -4.712
REMARK INTER:                  -4.468
REMARK INTRA:                  -0.244
REMARK UNBOUND:                -0.211
REMARK SMILES CCCCCC(=O)[O-]
REMARK SMILES IDX 4 1 5 2 6 3 7 4 8 5 3 6 2 7 1 8
REMARK H PARENT
REMARK Flexibility Score: inf
ROOT
ATOM      1  C   UNL     1       2.584  58.260  22.861  1.00  0.00     0.006 C 
ENDROOT
BRANCH   1   2
ATOM      2  C   UNL     1       1.091  58.125  23.184  1.00  0.00     0.053 C 
BRANCH   2   3
ATOM      3  C   UNL     1       0.670  59.180  24.158  1.00  0.00     0.041 C 
ATOM      4  O   UNL     1       0.758  60.398  23.849  1.00  0.00    -0.550 OA
ATOM      5  O   UNL     1       0.136  58.818  25.388  1.00  0.00    -0.550 OA
ENDBRANCH   2   3
ENDBRANCH   1   2
BRANCH   1   6
ATOM      6  C   UNL     1       3.484  57.717  23.983  1.00  0.00     0.000 C 
BRANCH   6   7
ATOM      7  C   UNL     1       3.006  56.360  24.519  1.00  0.00    -0.003 C 
ATOM      8  C   UNL     1       2.729  56.429  26.018  1.00  0.00     0.004 C 
ENDBRANCH   6   7
ENDBRANCH   1   6
TORSDOF 4
ENDMDL
MODEL 9
REMARK VINA RESULT:    -3.557      2.218      2.666
REMARK INTER + INTRA:          -4.600
REMARK INTER:                  -4.436
REMARK INTRA:                  -0.164
REMARK UNBOUND:                -0.211
REMARK SMILES CCCCCC(=O)[O-]
REMARK SMILES IDX 4 1 5 2 6 3 7 4 8 5 3 6 2 7 1 8
REMARK H PARENT
REMARK Flexibility Score: inf
ROOT
ATOM      1  C   UNL     1       1.924  56.709  22.906  1.00  0.00     0.006 C 
ENDROOT
BRANCH   1   2
ATOM      2  C   UNL     1       0.580  57.344  23.288  1.00  0.00     0.053 C 
BRANCH   2   3
ATOM      3  C   UNL     1       0.795  58.523  24.182  1.00  0.00     0.041 C 
ATOM      4  O   UNL     1       0.320  58.528  25.348  1.00  0.00    -0.550 OA
ATOM      5  O   UNL     1       1.560  59.597  23.745  1.00  0.00    -0.550 OA
ENDBRANCH   2   3
ENDBRANCH   1   2
BRANCH   1   6
ATOM      6  C   UNL     1       2.718  56.225  24.130  1.00  0.00     0.000 C 
BRANCH   6   7
ATOM      7  C   UNL     1       3.101  54.741  24.035  1.00  0.00    -0.003 C 
ATOM      8  C   UNL     1       2.412  54.072  22.848  1.00  0.00     0.004 C 
ENDBRANCH   6   7
ENDBRANCH   1   6
TORSDOF 4
ENDMDL
