MODEL 1
REMARK VINA RESULT:    -4.032      0.000      0.000
REMARK INTER + INTRA:          -5.141
REMARK INTER:                  -4.974
REMARK INTRA:                  -0.167
REMARK UNBOUND:                -0.167
REMARK SMILES CCCCCC(=O)[O-]
REMARK SMILES IDX 4 1 5 2 6 3 7 4 8 5 3 6 2 7 1 8
REMARK H PARENT
REMARK Flexibility Score: inf
ROOT
ATOM      1  C   UNL     1      13.085 -22.916  20.125  1.00  0.00     0.006 C 
ENDROOT
BRANCH   1   2
ATOM      2  C   UNL     1      12.260 -23.982  20.860  1.00  0.00     0.053 C 
BRANCH   2   3
ATOM      3  C   UNL     1      11.801 -23.463  22.186  1.00  0.00     0.041 C 
ATOM      4  O   UNL     1      10.875 -24.046  22.810  1.00  0.00    -0.550 OA
ATOM      5  O   UNL     1      12.361 -22.305  22.711  1.00  0.00    -0.550 OA
ENDBRANCH   2   3
ENDBRANCH   1   2
BRANCH   1   6
ATOM      6  C   UNL     1      14.575 -23.280  20.036  1.00  0.00     0.000 C 
BRANCH   6   7
ATOM      7  C   UNL     1      14.852 -24.738  20.431  1.00  0.00    -0.003 C 
ATOM      8  C   UNL     1      15.281 -25.562  19.221  1.00  0.00     0.004 C 
ENDBRANCH   6   7
ENDBRANCH   1   6
TORSDOF 4
ENDMDL
MODEL 2
REMARK VINA RESULT:    -3.937      1.672      2.194
REMARK INTER + INTRA:          -5.025
REMARK INTER:                  -4.783
REMARK INTRA:                  -0.242
REMARK UNBOUND:                -0.167
REMARK SMILES CCCCCC(=O)[O-]
REMARK SMILES IDX 4 1 5 2 6 3 7 4 8 5 3 6 2 7 1 8
REMARK H PARENT
REMARK Flexibility Score: inf
ROOT
ATOM      1  C   UNL     1      12.505 -23.360  21.389  1.00  0.00     0.006 C 
ENDROOT
BRANCH   1   2
ATOM      2  C   UNL     1      12.390 -22.394  22.577  1.00  0.00     0.053 C 
BRANCH   2   3
ATOM      3  C   UNL     1      13.673 -22.359  23.347  1.00  0.00     0.041 C 
ATOM      4  O   UNL     1      14.243 -23.431  23.680  1.00  0.00    -0.550 OA
ATOM      5  O   UNL     1      14.214 -21.141  23.740  1.00  0.00    -0.550 OA
ENDBRANCH   2   3
ENDBRANCH   1   2
BRANCH   1   6
ATOM      6  C   UNL     1      13.224 -22.732  20.185  1.00  0.00     0.000 C 
BRANCH   6   7
ATOM      7  C   UNL     1      14.608 -23.348  19.935  1.00  0.00    -0.003 C 
ATOM      8  C   UNL     1      14.619 -24.834  20.283  1.00  0.00     0.004 C 
ENDBRANCH   6   7
ENDBRANCH   1   6
TORSDOF 4
ENDMDL
MODEL 3
REMARK VINA RESULT:    -3.910      1.087      1.846
REMARK INTER + INTRA:          -4.991
REMARK INTER:                  -4.907
REMARK INTRA:                  -0.084
REMARK UNBOUND:                -0.167
REMARK SMILES CCCCCC(=O)[O-]
REMARK SMILES IDX 4 1 5 2 6 3 7 4 8 5 3 6 2 7 1 8
REMARK H PARENT
REMARK Flexibility Score: inf
ROOT
ATOM      1  C   UNL     1      12.690 -23.442  21.252  1.00  0.00     0.006 C 
ENDROOT
BRANCH   1   2
ATOM      2  C   UNL     1      11.629 -24.509  20.945  1.00  0.00     0.053 C 
BRANCH   2   3
ATOM      3  C   UNL     1      10.645 -24.604  22.068  1.00  0.00     0.041 C 
ATOM      4  O   UNL     1      10.688 -23.782  23.020  1.00  0.00    -0.550 OA
ATOM      5  O   UNL     1       9.710 -25.632  22.088  1.00  0.00    -0.550 OA
ENDBRANCH   2   3
ENDBRANCH   1   2
BRANCH   1   6
ATOM      6  C   UNL     1      13.471 -23.010  20.002  1.00  0.00     0.000 C 
BRANCH   6   7
ATOM      7  C   UNL     1      14.926 -23.502  20.014  1.00  0.00    -0.003 C 
ATOM      8  C   UNL     1      15.007 -24.981  19.646  1.00  0.00     0.004 C 
ENDBRANCH   6   7
ENDBRANCH   1   6
TORSDOF 4
ENDMDL
MODEL 4
REMARK VINA RESULT:    -3.893      2.043      3.491
REMARK INTER + INTRA:          -4.970
REMARK INTER:                  -4.767
REMARK INTRA:                  -0.203
REMARK UNBOUND:                -0.167
REMARK SMILES CCCCCC(=O)[O-]
REMARK SMILES IDX 4 1 5 2 6 3 7 4 8 5 3 6 2 7 1 8
REMARK H PARENT
REMARK Flexibility Score: inf
ROOT
ATOM      1  C   UNL     1      12.713 -23.279  20.309  1.00  0.00     0.006 C 
ENDROOT
BRANCH   1   2
ATOM      2  C   UNL     1      14.209 -22.939  20.358  1.00  0.00     0.053 C 
BRANCH   2   3
ATOM      3  C   UNL     1      14.682 -22.863  21.775  1.00  0.00     0.041 C 
ATOM      4  O   UNL     1      14.124 -22.079  22.588  1.00  0.00    -0.550 OA
ATOM      5  O   UNL     1      15.771 -23.621  22.187  1.00  0.00    -0.550 OA
ENDBRANCH   2   3
ENDBRANCH   1   2
BRANCH   1   6
ATOM      6  C   UNL     1      12.429 -24.746  20.667  1.00  0.00     0.000 C 
BRANCH   6   7
ATOM      7  C   UNL     1      11.034 -24.946  21.277  1.00  0.00    -0.003 C 
ATOM      8  C   UNL     1      10.876 -24.139  22.563  1.00  0.00     0.004 C 
ENDBRANCH   6   7
ENDBRANCH   1   6
TORSDOF 4
ENDMDL
MODEL 5
REMARK VINA RESULT:    -3.882      2.340      3.591
REMARK INTER + INTRA:          -4.957
REMARK INTER:                  -4.730
REMARK INTRA:                  -0.227
REMARK UNBOUND:                -0.167
REMARK SMILES CCCCCC(=O)[O-]
REMARK SMILES IDX 4 1 5 2 6 3 7 4 8 5 3 6 2 7 1 8
REMARK H PARENT
REMARK Flexibility Score: inf
ROOT
ATOM      1  C   UNL     1      12.961 -22.962  20.219  1.00  0.00     0.006 C 
ENDROOT
BRANCH   1   2
ATOM      2  C   UNL     1      14.479 -23.155  20.089  1.00  0.00     0.053 C 
BRANCH   2   3
ATOM      3  C   UNL     1      14.868 -24.535  20.518  1.00  0.00     0.041 C 
ATOM      4  O   UNL     1      14.732 -25.506  19.729  1.00  0.00    -0.550 OA
ATOM      5  O   UNL     1      15.334 -24.756  21.808  1.00  0.00    -0.550 OA
ENDBRANCH   2   3
ENDBRANCH   1   2
BRANCH   1   6
ATOM      6  C   UNL     1      12.514 -22.756  21.674  1.00  0.00     0.000 C 
BRANCH   6   7
ATOM      7  C   UNL     1      11.604 -23.884  22.179  1.00  0.00    -0.003 C 
ATOM      8  C   UNL     1      11.277 -24.868  21.059  1.00  0.00     0.004 C 
ENDBRANCH   6   7
ENDBRANCH   1   6
TORSDOF 4
ENDMDL
MODEL 6
REMARK VINA RESULT:    -3.861      2.204      2.890
REMARK INTER + INTRA:          -4.930
REMARK INTER:                  -4.787
REMARK INTRA:                  -0.144
REMARK UNBOUND:                -0.167
REMARK SMILES CCCCCC(=O)[O-]
REMARK SMILES IDX 4 1 5 2 6 3 7 4 8 5 3 6 2 7 1 8
REMARK H PARENT
REMARK Flexibility Score: inf
ROOT
ATOM      1  C   UNL     1      14.129 -22.491  22.501  1.00  0.00     0.006 C 
ENDROOT
BRANCH   1   2
ATOM      2  C   UNL     1      13.841 -21.674  23.768  1.00  0.00     0.053 C 
BRANCH   2   3
ATOM      3  C   UNL     1      12.728 -22.299  24.550  1.00  0.00     0.041 C 
ATOM      4  O   UNL     1      11.676 -21.648  24.786  1.00  0.00    -0.550 OA
ATOM      5  O   UNL     1      12.872 -23.583  25.060  1.00  0.00    -0.550 OA
ENDBRANCH   2   3
ENDBRANCH   1   2
BRANCH   1   6
ATOM      6  C   UNL     1      12.880 -22.685  21.627  1.00  0.00     0.000 C 
BRANCH   6   7
ATOM      7  C   UNL     1      13.223 -22.893  20.144  1.00  0.00    -0.003 C 
ATOM      8  C   UNL     1      14.693 -23.260  19.967  1.00  0.00     0.004 C 
ENDBRANCH   6   7
ENDBRANCH   1   6
TORSDOF 4
ENDMDL
MODEL 7
REMARK VINA RESULT:    -3.851      1.982      2.913
REMARK INTER + INTRA:          -4.919
REMARK INTER:                  -4.686
REMARK INTRA:                  -0.233
REMARK UNBOUND:                -0.167
REMARK SMILES CCCCCC(=O)[O-]
REMARK SMILES IDX 4 1 5 2 6 3 7 4 8 5 3 6 2 7 1 8
REMARK H PARENT
REMARK Flexibility Score: inf
ROOT
ATOM      1  C   UNL     1      14.981 -24.106  21.560  1.00  0.00     0.006 C 
ENDROOT
BRANCH   1   2
ATOM      2  C   UNL     1      15.600 -23.249  22.673  1.00  0.00     0.053 C 
BRANCH   2   3
ATOM      3  C   UNL     1      14.535 -22.745  23.597  1.00  0.00     0.041 C 
ATOM      4  O   UNL     1      13.671 -23.535  24.059  1.00  0.00    -0.550 OA
ATOM      5  O   UNL     1      14.467 -21.393  23.906  1.00  0.00    -0.550 OA
ENDBRANCH   2   3
ENDBRANCH   1   2
BRANCH   1   6
ATOM      6  C   UNL     1      14.757 -23.315  20.262  1.00  0.00     0.000 C 
BRANCH   6   7
ATOM      7  C   UNL     1      13.299 -22.865  20.088  1.00  0.00    -0.003 C 
ATOM      8  C   UNL     1      12.333 -23.911  20.633  1.00  0.00     0.004 C 
ENDBRANCH   6   7
ENDBRANCH   1   6
TORSDOF 4
ENDMDL
MODEL 8
REMARK VINA RESULT:    -3.814      2.937      4.037
REMARK INTER + INTRA:          -4.872
REMARK INTER:                  -4.728
REMARK INTRA:                  -0.144
REMARK UNBOUND:                -0.167
REMARK SMILES CCCCCC(=O)[O-]
REMARK SMILES IDX 4 1 5 2 6 3 7 4 8 5 3 6 2 7 1 8
REMARK H PARENT
REMARK Flexibility Score: inf
ROOT
ATOM      1  C   UNL     1      13.166 -22.986  20.327  1.00  0.00     0.006 C 
ENDROOT
BRANCH   1   2
ATOM      2  C   UNL     1      14.566 -23.571  20.093  1.00  0.00     0.053 C 
BRANCH   2   3
ATOM      3  C   UNL     1      14.486 -25.051  19.889  1.00  0.00     0.041 C 
ATOM      4  O   UNL     1      15.342 -25.641  19.179  1.00  0.00    -0.550 OA
ATOM      5  O   UNL     1      13.435 -25.773  20.442  1.00  0.00    -0.550 OA
ENDBRANCH   2   3
ENDBRANCH   1   2
BRANCH   1   6
ATOM      6  C   UNL     1      12.927 -22.596  21.794  1.00  0.00     0.000 C 
BRANCH   6   7
ATOM      7  C   UNL     1      14.234 -22.449  22.587  1.00  0.00    -0.003 C 
ATOM      8  C   UNL     1      14.053 -21.508  23.774  1.00  0.00     0.004 C 
ENDBRANCH   6   7
ENDBRANCH   1   6
TORSDOF 4
ENDMDL
MODEL 9
REMARK VINA RESULT:    -3.731      2.246      3.169
REMARK INTER + INTRA:          -4.770
REMARK INTER:                  -4.659
REMARK INTRA:                  -0.111
REMARK UNBOUND:                -0.167
REMARK SMILES CCCCCC(=O)[O-]
REMARK SMILES IDX 4 1 5 2 6 3 7 4 8 5 3 6 2 7 1 8
REMARK H PARENT
REMARK Flexibility Score: inf
ROOT
ATOM      1  C   UNL     1      14.303 -23.186  20.336  1.00  0.00     0.006 C 
ENDROOT
BRANCH   1   2
ATOM      2  C   UNL     1      12.770 -23.253  20.377  1.00  0.00     0.053 C 
BRANCH   2   3
ATOM      3  C   UNL     1      12.317 -24.642  20.703  1.00  0.00     0.041 C 
ATOM      4  O   UNL     1      13.004 -25.634  20.342  1.00  0.00    -0.550 OA
ATOM      5  O   UNL     1      11.111 -24.843  21.363  1.00  0.00    -0.550 OA
ENDBRANCH   2   3
ENDBRANCH   1   2
BRANCH   1   6
ATOM      6  C   UNL     1      14.925 -23.038  21.734  1.00  0.00     0.000 C 
BRANCH   6   7
ATOM      7  C   UNL     1      14.063 -22.186  22.677  1.00  0.00    -0.003 C 
ATOM      8  C   UNL     1      14.657 -22.153  24.082  1.00  0.00     0.004 C 
ENDBRANCH   6   7
ENDBRANCH   1   6
TORSDOF 4
ENDMDL
