MODEL 1
REMARK VINA RESULT:    -5.803      0.000      0.000
REMARK INTER + INTRA:          -9.431
REMARK INTER:                  -8.517
REMARK INTRA:                  -0.914
REMARK UNBOUND:                -0.914
REMARK SMILES CCCOC(=O)c1ccccc1C(=O)OCCC
REMARK SMILES IDX 7 1 8 2 9 3 10 4 11 5 12 6 5 7 6 8 4 9 3 10 2 11 1 12 13 13
REMARK SMILES IDX 14 14 15 15 16 16 17 17 18 18
REMARK H PARENT
REMARK Flexibility Score: inf
ROOT
ATOM      1  C   UNL     1     133.667 123.124 139.941  1.00  0.00     0.074 A 
ATOM      2  C   UNL     1     133.062 121.901 140.286  1.00  0.00     0.016 A 
ATOM      3  C   UNL     1     133.812 120.725 140.339  1.00  0.00     0.001 A 
ATOM      4  C   UNL     1     135.175 120.752 140.053  1.00  0.00     0.001 A 
ATOM      5  C   UNL     1     135.790 121.950 139.688  1.00  0.00     0.016 A 
ATOM      6  C   UNL     1     135.048 123.142 139.604  1.00  0.00     0.074 A 
ENDROOT
BRANCH   1   7
ATOM      7  C   UNL     1     132.851 124.359 140.019  1.00  0.00     0.339 C 
ATOM      8  O   UNL     1     132.116 124.689 139.048  1.00  0.00    -0.246 OA
BRANCH   7   9
ATOM      9  O   UNL     1     132.861 125.129 141.185  1.00  0.00    -0.462 OA
BRANCH   9  10
ATOM     10  C   UNL     1     131.674 125.626 141.794  1.00  0.00     0.233 C 
BRANCH  10  11
ATOM     11  C   UNL     1     130.860 124.455 142.340  1.00  0.00     0.038 C 
ATOM     12  C   UNL     1     129.468 124.411 141.718  1.00  0.00     0.007 C 
ENDBRANCH  10  11
ENDBRANCH   9  10
ENDBRANCH   7   9
ENDBRANCH   1   7
BRANCH   6  13
ATOM     13  C   UNL     1     135.737 124.352 139.105  1.00  0.00     0.339 C 
ATOM     14  O   UNL     1     136.384 125.088 139.900  1.00  0.00    -0.246 OA
BRANCH  13  15
ATOM     15  O   UNL     1     135.624 124.704 137.756  1.00  0.00    -0.462 OA
BRANCH  15  16
ATOM     16  C   UNL     1     136.042 125.969 137.255  1.00  0.00     0.233 C 
BRANCH  16  17
ATOM     17  C   UNL     1     135.254 126.298 135.990  1.00  0.00     0.038 C 
ATOM     18  C   UNL     1     133.776 125.956 136.153  1.00  0.00     0.007 C 
ENDBRANCH  16  17
ENDBRANCH  15  16
ENDBRANCH  13  15
ENDBRANCH   6  13
TORSDOF 8
ENDMDL
MODEL 2
REMARK VINA RESULT:    -5.785      0.509      5.051
REMARK INTER + INTRA:          -9.404
REMARK INTER:                  -8.538
REMARK INTRA:                  -0.866
REMARK UNBOUND:                -0.914
REMARK SMILES CCCOC(=O)c1ccccc1C(=O)OCCC
REMARK SMILES IDX 7 1 8 2 9 3 10 4 11 5 12 6 5 7 6 8 4 9 3 10 2 11 1 12 13 13
REMARK SMILES IDX 14 14 15 15 16 16 17 17 18 18
REMARK H PARENT
REMARK Flexibility Score: inf
ROOT
ATOM      1  C   UNL     1     134.974 123.121 139.546  1.00  0.00     0.074 A 
ATOM      2  C   UNL     1     135.835 122.007 139.568  1.00  0.00     0.016 A 
ATOM      3  C   UNL     1     135.361 120.747 139.939  1.00  0.00     0.001 A 
ATOM      4  C   UNL     1     134.024 120.579 140.289  1.00  0.00     0.001 A 
ATOM      5  C   UNL     1     133.158 121.674 140.293  1.00  0.00     0.016 A 
ATOM      6  C   UNL     1     133.620 122.956 139.947  1.00  0.00     0.074 A 
ENDROOT
BRANCH   1   7
ATOM      7  C   UNL     1     135.500 124.406 139.028  1.00  0.00     0.339 C 
ATOM      8  O   UNL     1     135.996 125.248 139.825  1.00  0.00    -0.246 OA
BRANCH   7   9
ATOM      9  O   UNL     1     135.490 124.661 137.653  1.00  0.00    -0.462 OA
BRANCH   9  10
ATOM     10  C   UNL     1     134.537 125.516 137.032  1.00  0.00     0.233 C 
BRANCH  10  11
ATOM     11  C   UNL     1     135.205 126.262 135.880  1.00  0.00     0.038 C 
ATOM     12  C   UNL     1     136.424 127.045 136.361  1.00  0.00     0.007 C 
ENDBRANCH  10  11
ENDBRANCH   9  10
ENDBRANCH   7   9
ENDBRANCH   1   7
BRANCH   6  13
ATOM     13  C   UNL     1     132.680 124.090 140.079  1.00  0.00     0.339 C 
ATOM     14  O   UNL     1     131.895 124.378 139.133  1.00  0.00    -0.246 OA
BRANCH  13  15
ATOM     15  O   UNL     1     132.700 124.872 141.238  1.00  0.00    -0.462 OA
BRANCH  15  16
ATOM     16  C   UNL     1     131.542 125.529 141.741  1.00  0.00     0.233 C 
BRANCH  16  17
ATOM     17  C   UNL     1     130.683 124.525 142.506  1.00  0.00     0.038 C 
ATOM     18  C   UNL     1     129.373 124.246 141.775  1.00  0.00     0.007 C 
ENDBRANCH  16  17
ENDBRANCH  15  16
ENDBRANCH  13  15
ENDBRANCH   6  13
TORSDOF 8
ENDMDL
MODEL 3
REMARK VINA RESULT:    -5.561      1.724      5.602
REMARK INTER + INTRA:          -9.076
REMARK INTER:                  -8.287
REMARK INTRA:                  -0.788
REMARK UNBOUND:                -0.914
REMARK SMILES CCCOC(=O)c1ccccc1C(=O)OCCC
REMARK SMILES IDX 7 1 8 2 9 3 10 4 11 5 12 6 5 7 6 8 4 9 3 10 2 11 1 12 13 13
REMARK SMILES IDX 14 14 15 15 16 16 17 17 18 18
REMARK H PARENT
REMARK Flexibility Score: inf
ROOT
ATOM      1  C   UNL     1     135.203 124.130 139.569  1.00  0.00     0.074 A 
ATOM      2  C   UNL     1     136.063 124.773 138.658  1.00  0.00     0.016 A 
ATOM      3  C   UNL     1     135.552 125.443 137.546  1.00  0.00     0.001 A 
ATOM      4  C   UNL     1     134.177 125.486 137.327  1.00  0.00     0.001 A 
ATOM      5  C   UNL     1     133.308 124.838 138.206  1.00  0.00     0.016 A 
ATOM      6  C   UNL     1     133.804 124.135 139.319  1.00  0.00     0.074 A 
ENDROOT
BRANCH   1   7
ATOM      7  C   UNL     1     135.790 123.540 140.794  1.00  0.00     0.339 C 
ATOM      8  O   UNL     1     136.045 124.276 141.786  1.00  0.00    -0.246 OA
BRANCH   7   9
ATOM      9  O   UNL     1     136.015 122.162 140.867  1.00  0.00    -0.462 OA
BRANCH   9  10
ATOM     10  C   UNL     1     137.304 121.579 140.706  1.00  0.00     0.233 C 
BRANCH  10  11
ATOM     11  C   UNL     1     137.206 120.397 139.745  1.00  0.00     0.038 C 
ATOM     12  C   UNL     1     135.879 120.405 138.992  1.00  0.00     0.007 C 
ENDBRANCH  10  11
ENDBRANCH   9  10
ENDBRANCH   7   9
ENDBRANCH   1   7
BRANCH   6  13
ATOM     13  C   UNL     1     132.838 123.380 140.146  1.00  0.00     0.339 C 
ATOM     14  O   UNL     1     132.768 122.123 140.052  1.00  0.00    -0.246 OA
BRANCH  13  15
ATOM     15  O   UNL     1     131.968 124.070 140.995  1.00  0.00    -0.462 OA
BRANCH  15  16
ATOM     16  C   UNL     1     130.635 124.403 140.623  1.00  0.00     0.233 C 
BRANCH  16  17
ATOM     17  C   UNL     1     129.744 124.391 141.862  1.00  0.00     0.038 C 
ATOM     18  C   UNL     1     130.561 124.604 143.133  1.00  0.00     0.007 C 
ENDBRANCH  16  17
ENDBRANCH  15  16
ENDBRANCH  13  15
ENDBRANCH   6  13
TORSDOF 8
ENDMDL
MODEL 4
REMARK VINA RESULT:    -5.394      1.532      3.839
REMARK INTER + INTRA:          -8.831
REMARK INTER:                  -8.049
REMARK INTRA:                  -0.782
REMARK UNBOUND:                -0.914
REMARK SMILES CCCOC(=O)c1ccccc1C(=O)OCCC
REMARK SMILES IDX 7 1 8 2 9 3 10 4 11 5 12 6 5 7 6 8 4 9 3 10 2 11 1 12 13 13
REMARK SMILES IDX 14 14 15 15 16 16 17 17 18 18
REMARK H PARENT
REMARK Flexibility Score: inf
ROOT
ATOM      1  C   UNL     1     133.748 124.218 139.152  1.00  0.00     0.074 A 
ATOM      2  C   UNL     1     133.122 124.945 138.123  1.00  0.00     0.016 A 
ATOM      3  C   UNL     1     133.878 125.586 137.140  1.00  0.00     0.001 A 
ATOM      4  C   UNL     1     135.269 125.509 137.168  1.00  0.00     0.001 A 
ATOM      5  C   UNL     1     135.910 124.810 138.192  1.00  0.00     0.016 A 
ATOM      6  C   UNL     1     135.168 124.178 139.205  1.00  0.00     0.074 A 
ENDROOT
BRANCH   1   7
ATOM      7  C   UNL     1     132.895 123.457 140.096  1.00  0.00     0.339 C 
ATOM      8  O   UNL     1     132.859 122.198 140.035  1.00  0.00    -0.246 OA
BRANCH   7   9
ATOM      9  O   UNL     1     132.170 124.133 141.081  1.00  0.00    -0.462 OA
BRANCH   9  10
ATOM     10  C   UNL     1     130.747 124.166 141.109  1.00  0.00     0.233 C 
BRANCH  10  11
ATOM     11  C   UNL     1     130.287 125.194 142.140  1.00  0.00     0.038 C 
ATOM     12  C   UNL     1     130.593 124.728 143.560  1.00  0.00     0.007 C 
ENDBRANCH  10  11
ENDBRANCH   9  10
ENDBRANCH   7   9
ENDBRANCH   1   7
BRANCH   6  13
ATOM     13  C   UNL     1     135.912 123.551 140.319  1.00  0.00     0.339 C 
ATOM     14  O   UNL     1     136.079 124.175 141.403  1.00  0.00    -0.246 OA
BRANCH  13  15
ATOM     15  O   UNL     1     136.474 122.282 140.145  1.00  0.00    -0.462 OA
BRANCH  15  16
ATOM     16  C   UNL     1     136.038 121.142 140.879  1.00  0.00     0.233 C 
BRANCH  16  17
ATOM     17  C   UNL     1     135.596 120.052 139.907  1.00  0.00     0.038 C 
ATOM     18  C   UNL     1     136.294 120.196 138.559  1.00  0.00     0.007 C 
ENDBRANCH  16  17
ENDBRANCH  15  16
ENDBRANCH  13  15
ENDBRANCH   6  13
TORSDOF 8
ENDMDL
MODEL 5
REMARK VINA RESULT:    -5.241      1.445      2.415
REMARK INTER + INTRA:          -8.606
REMARK INTER:                  -7.619
REMARK INTRA:                  -0.987
REMARK UNBOUND:                -0.914
REMARK SMILES CCCOC(=O)c1ccccc1C(=O)OCCC
REMARK SMILES IDX 7 1 8 2 9 3 10 4 11 5 12 6 5 7 6 8 4 9 3 10 2 11 1 12 13 13
REMARK SMILES IDX 14 14 15 15 16 16 17 17 18 18
REMARK H PARENT
REMARK Flexibility Score: inf
ROOT
ATOM      1  C   UNL     1     133.399 123.564 139.956  1.00  0.00     0.074 A 
ATOM      2  C   UNL     1     132.854 122.293 140.218  1.00  0.00     0.016 A 
ATOM      3  C   UNL     1     133.668 121.159 140.238  1.00  0.00     0.001 A 
ATOM      4  C   UNL     1     135.035 121.276 140.001  1.00  0.00     0.001 A 
ATOM      5  C   UNL     1     135.592 122.525 139.719  1.00  0.00     0.016 A 
ATOM      6  C   UNL     1     134.787 123.676 139.669  1.00  0.00     0.074 A 
ENDROOT
BRANCH   1   7
ATOM      7  C   UNL     1     132.512 124.746 140.067  1.00  0.00     0.339 C 
ATOM      8  O   UNL     1     132.271 125.246 141.201  1.00  0.00    -0.246 OA
BRANCH   7   9
ATOM      9  O   UNL     1     131.983 125.334 138.914  1.00  0.00    -0.462 OA
BRANCH   9  10
ATOM     10  C   UNL     1     131.431 126.646 138.898  1.00  0.00     0.233 C 
BRANCH  10  11
ATOM     11  C   UNL     1     132.546 127.658 138.644  1.00  0.00     0.038 C 
ATOM     12  C   UNL     1     132.325 128.408 137.334  1.00  0.00     0.007 C 
ENDBRANCH  10  11
ENDBRANCH   9  10
ENDBRANCH   7   9
ENDBRANCH   1   7
BRANCH   6  13
ATOM     13  C   UNL     1     135.421 124.947 139.255  1.00  0.00     0.339 C 
ATOM     14  O   UNL     1     135.620 125.862 140.101  1.00  0.00    -0.246 OA
BRANCH  13  15
ATOM     15  O   UNL     1     135.752 125.147 137.911  1.00  0.00    -0.462 OA
BRANCH  15  16
ATOM     16  C   UNL     1     134.769 125.286 136.891  1.00  0.00     0.233 C 
BRANCH  16  17
ATOM     17  C   UNL     1     135.232 126.331 135.880  1.00  0.00     0.038 C 
ATOM     18  C   UNL     1     136.365 127.183 136.443  1.00  0.00     0.007 C 
ENDBRANCH  16  17
ENDBRANCH  15  16
ENDBRANCH  13  15
ENDBRANCH   6  13
TORSDOF 8
ENDMDL
MODEL 6
REMARK VINA RESULT:    -5.126      1.234      4.079
REMARK INTER + INTRA:          -8.437
REMARK INTER:                  -7.715
REMARK INTRA:                  -0.721
REMARK UNBOUND:                -0.914
REMARK SMILES CCCOC(=O)c1ccccc1C(=O)OCCC
REMARK SMILES IDX 7 1 8 2 9 3 10 4 11 5 12 6 5 7 6 8 4 9 3 10 2 11 1 12 13 13
REMARK SMILES IDX 14 14 15 15 16 16 17 17 18 18
REMARK H PARENT
REMARK Flexibility Score: inf
ROOT
ATOM      1  C   UNL     1     133.723 125.739 138.432  1.00  0.00     0.074 A 
ATOM      2  C   UNL     1     133.162 126.585 137.457  1.00  0.00     0.016 A 
ATOM      3  C   UNL     1     133.798 126.778 136.230  1.00  0.00     0.001 A 
ATOM      4  C   UNL     1     135.000 126.130 135.956  1.00  0.00     0.001 A 
ATOM      5  C   UNL     1     135.584 125.303 136.917  1.00  0.00     0.016 A 
ATOM      6  C   UNL     1     134.972 125.114 138.169  1.00  0.00     0.074 A 
ENDROOT
BRANCH   1   7
ATOM      7  C   UNL     1     132.945 125.474 139.665  1.00  0.00     0.339 C 
ATOM      8  O   UNL     1     133.075 126.233 140.665  1.00  0.00    -0.246 OA
BRANCH   7   9
ATOM      9  O   UNL     1     132.033 124.415 139.702  1.00  0.00    -0.462 OA
BRANCH   9  10
ATOM     10  C   UNL     1     131.331 124.040 140.881  1.00  0.00     0.233 C 
BRANCH  10  11
ATOM     11  C   UNL     1     129.916 124.613 140.829  1.00  0.00     0.038 C 
ATOM     12  C   UNL     1     129.179 124.388 142.146  1.00  0.00     0.007 C 
ENDBRANCH  10  11
ENDBRANCH   9  10
ENDBRANCH   7   9
ENDBRANCH   1   7
BRANCH   6  13
ATOM     13  C   UNL     1     135.699 124.316 139.180  1.00  0.00     0.339 C 
ATOM     14  O   UNL     1     136.432 124.887 140.034  1.00  0.00    -0.246 OA
BRANCH  13  15
ATOM     15  O   UNL     1     135.609 122.920 139.152  1.00  0.00    -0.462 OA
BRANCH  15  16
ATOM     16  C   UNL     1     134.768 122.187 140.037  1.00  0.00     0.233 C 
BRANCH  16  17
ATOM     17  C   UNL     1     135.043 120.695 139.876  1.00  0.00     0.038 C 
ATOM     18  C   UNL     1     136.126 120.440 138.833  1.00  0.00     0.007 C 
ENDBRANCH  16  17
ENDBRANCH  15  16
ENDBRANCH  13  15
ENDBRANCH   6  13
TORSDOF 8
ENDMDL
MODEL 7
REMARK VINA RESULT:    -5.104      1.715      4.311
REMARK INTER + INTRA:          -8.405
REMARK INTER:                  -7.253
REMARK INTRA:                  -1.152
REMARK UNBOUND:                -0.914
REMARK SMILES CCCOC(=O)c1ccccc1C(=O)OCCC
REMARK SMILES IDX 7 1 8 2 9 3 10 4 11 5 12 6 5 7 6 8 4 9 3 10 2 11 1 12 13 13
REMARK SMILES IDX 14 14 15 15 16 16 17 17 18 18
REMARK H PARENT
REMARK Flexibility Score: inf
ROOT
ATOM      1  C   UNL     1     134.748 123.411 139.838  1.00  0.00     0.074 A 
ATOM      2  C   UNL     1     135.952 122.737 140.117  1.00  0.00     0.016 A 
ATOM      3  C   UNL     1     135.945 121.398 140.511  1.00  0.00     0.001 A 
ATOM      4  C   UNL     1     134.739 120.711 140.630  1.00  0.00     0.001 A 
ATOM      5  C   UNL     1     133.533 121.367 140.379  1.00  0.00     0.016 A 
ATOM      6  C   UNL     1     133.516 122.722 140.004  1.00  0.00     0.074 A 
ENDROOT
BRANCH   1   7
ATOM      7  C   UNL     1     134.822 124.792 139.306  1.00  0.00     0.339 C 
ATOM      8  O   UNL     1     134.932 124.982 138.064  1.00  0.00    -0.246 OA
BRANCH   7   9
ATOM      9  O   UNL     1     134.721 125.881 140.176  1.00  0.00    -0.462 OA
BRANCH   9  10
ATOM     10  C   UNL     1     133.579 126.729 140.226  1.00  0.00     0.233 C 
BRANCH  10  11
ATOM     11  C   UNL     1     133.247 127.042 141.683  1.00  0.00     0.038 C 
ATOM     12  C   UNL     1     133.728 125.930 142.611  1.00  0.00     0.007 C 
ENDBRANCH  10  11
ENDBRANCH   9  10
ENDBRANCH   7   9
ENDBRANCH   1   7
BRANCH   6  13
ATOM     13  C   UNL     1     132.201 123.384 139.861  1.00  0.00     0.339 C 
ATOM     14  O   UNL     1     131.753 123.667 138.716  1.00  0.00    -0.246 OA
BRANCH  13  15
ATOM     15  O   UNL     1     131.480 123.740 141.005  1.00  0.00    -0.462 OA
BRANCH  15  16
ATOM     16  C   UNL     1     130.225 124.411 140.944  1.00  0.00     0.233 C 
BRANCH  16  17
ATOM     17  C   UNL     1     130.041 125.257 142.201  1.00  0.00     0.038 C 
ATOM     18  C   UNL     1     130.524 124.515 143.444  1.00  0.00     0.007 C 
ENDBRANCH  16  17
ENDBRANCH  15  16
ENDBRANCH  13  15
ENDBRANCH   6  13
TORSDOF 8
ENDMDL
MODEL 8
REMARK VINA RESULT:    -5.082      1.699      2.836
REMARK INTER + INTRA:          -8.373
REMARK INTER:                  -7.437
REMARK INTRA:                  -0.936
REMARK UNBOUND:                -0.914
REMARK SMILES CCCOC(=O)c1ccccc1C(=O)OCCC
REMARK SMILES IDX 7 1 8 2 9 3 10 4 11 5 12 6 5 7 6 8 4 9 3 10 2 11 1 12 13 13
REMARK SMILES IDX 14 14 15 15 16 16 17 17 18 18
REMARK H PARENT
REMARK Flexibility Score: inf
ROOT
ATOM      1  C   UNL     1     135.412 123.380 140.731  1.00  0.00     0.074 A 
ATOM      2  C   UNL     1     136.577 122.686 141.112  1.00  0.00     0.016 A 
ATOM      3  C   UNL     1     136.744 121.339 140.786  1.00  0.00     0.001 A 
ATOM      4  C   UNL     1     135.755 120.666 140.073  1.00  0.00     0.001 A 
ATOM      5  C   UNL     1     134.583 121.329 139.704  1.00  0.00     0.016 A 
ATOM      6  C   UNL     1     134.384 122.679 140.044  1.00  0.00     0.074 A 
ENDROOT
BRANCH   1   7
ATOM      7  C   UNL     1     135.343 124.836 140.996  1.00  0.00     0.339 C 
ATOM      8  O   UNL     1     135.739 125.654 140.121  1.00  0.00    -0.246 OA
BRANCH   7   9
ATOM      9  O   UNL     1     134.794 125.302 142.195  1.00  0.00    -0.462 OA
BRANCH   9  10
ATOM     10  C   UNL     1     133.528 125.948 142.266  1.00  0.00     0.233 C 
BRANCH  10  11
ATOM     11  C   UNL     1     133.115 126.086 143.730  1.00  0.00     0.038 C 
ATOM     12  C   UNL     1     131.656 125.689 143.933  1.00  0.00     0.007 C 
ENDBRANCH  10  11
ENDBRANCH   9  10
ENDBRANCH   7   9
ENDBRANCH   1   7
BRANCH   6  13
ATOM     13  C   UNL     1     133.076 123.288 139.720  1.00  0.00     0.339 C 
ATOM     14  O   UNL     1     132.059 123.019 140.417  1.00  0.00    -0.246 OA
BRANCH  13  15
ATOM     15  O   UNL     1     132.962 124.125 138.605  1.00  0.00    -0.462 OA
BRANCH  15  16
ATOM     16  C   UNL     1     132.476 125.460 138.693  1.00  0.00     0.233 C 
BRANCH  16  17
ATOM     17  C   UNL     1     133.184 126.327 137.656  1.00  0.00     0.038 C 
ATOM     18  C   UNL     1     134.266 125.541 136.922  1.00  0.00     0.007 C 
ENDBRANCH  16  17
ENDBRANCH  15  16
ENDBRANCH  13  15
ENDBRANCH   6  13
TORSDOF 8
ENDMDL
MODEL 9
REMARK VINA RESULT:    -5.052      1.568      5.362
REMARK INTER + INTRA:          -8.329
REMARK INTER:                  -7.312
REMARK INTRA:                  -1.018
REMARK UNBOUND:                -0.914
REMARK SMILES CCCOC(=O)c1ccccc1C(=O)OCCC
REMARK SMILES IDX 7 1 8 2 9 3 10 4 11 5 12 6 5 7 6 8 4 9 3 10 2 11 1 12 13 13
REMARK SMILES IDX 14 14 15 15 16 16 17 17 18 18
REMARK H PARENT
REMARK Flexibility Score: inf
ROOT
ATOM      1  C   UNL     1     133.634 124.933 139.567  1.00  0.00     0.074 A 
ATOM      2  C   UNL     1     134.808 124.156 139.569  1.00  0.00     0.016 A 
ATOM      3  C   UNL     1     134.749 122.778 139.785  1.00  0.00     0.001 A 
ATOM      4  C   UNL     1     133.522 122.156 139.998  1.00  0.00     0.001 A 
ATOM      5  C   UNL     1     132.348 122.911 140.020  1.00  0.00     0.016 A 
ATOM      6  C   UNL     1     132.387 124.304 139.830  1.00  0.00     0.074 A 
ENDROOT
BRANCH   1   7
ATOM      7  C   UNL     1     133.743 126.368 139.212  1.00  0.00     0.339 C 
ATOM      8  O   UNL     1     134.069 127.210 140.093  1.00  0.00    -0.246 OA
BRANCH   7   9
ATOM      9  O   UNL     1     133.530 126.779 137.893  1.00  0.00    -0.462 OA
BRANCH   9  10
ATOM     10  C   UNL     1     133.759 125.931 136.772  1.00  0.00     0.233 C 
BRANCH  10  11
ATOM     11  C   UNL     1     134.823 126.561 135.875  1.00  0.00     0.038 C 
ATOM     12  C   UNL     1     136.144 126.733 136.619  1.00  0.00     0.007 C 
ENDBRANCH  10  11
ENDBRANCH   9  10
ENDBRANCH   7   9
ENDBRANCH   1   7
BRANCH   6  13
ATOM     13  C   UNL     1     131.123 125.058 139.976  1.00  0.00     0.339 C 
ATOM     14  O   UNL     1     130.354 125.206 138.987  1.00  0.00    -0.246 OA
BRANCH  13  15
ATOM     15  O   UNL     1     130.810 125.649 141.204  1.00  0.00    -0.462 OA
BRANCH  15  16
ATOM     16  C   UNL     1     130.627 124.893 142.396  1.00  0.00     0.233 C 
BRANCH  16  17
ATOM     17  C   UNL     1     131.341 125.587 143.552  1.00  0.00     0.038 C 
ATOM     18  C   UNL     1     132.749 126.017 143.155  1.00  0.00     0.007 C 
ENDBRANCH  16  17
ENDBRANCH  15  16
ENDBRANCH  13  15
ENDBRANCH   6  13
TORSDOF 8
ENDMDL
