MODEL 1
REMARK VINA RESULT:    -4.112      0.000      0.000
REMARK INTER + INTRA:          -4.915
REMARK INTER:                  -4.833
REMARK INTRA:                  -0.082
REMARK UNBOUND:                -0.082
REMARK SMILES CCCCC(=O)[O-]
REMARK SMILES IDX 4 1 5 2 6 3 7 4 3 5 2 6 1 7
REMARK H PARENT
REMARK Flexibility Score: inf
ROOT
ATOM      1  C   UNL     1     -17.245  -8.274  -7.952  1.00  0.00     0.053 C 
ENDROOT
BRANCH   1   2
ATOM      2  C   UNL     1     -16.782  -9.166  -6.840  1.00  0.00     0.041 C 
ATOM      3  O   UNL     1     -17.453 -10.183  -6.524  1.00  0.00    -0.550 OA
ATOM      4  O   UNL     1     -15.628  -8.855  -6.133  1.00  0.00    -0.550 OA
ENDBRANCH   1   2
BRANCH   1   5
ATOM      5  C   UNL     1     -16.608  -8.659  -9.294  1.00  0.00     0.006 C 
BRANCH   5   6
ATOM      6  C   UNL     1     -17.522  -9.565 -10.132  1.00  0.00    -0.003 C 
ATOM      7  C   UNL     1     -18.979  -9.418  -9.708  1.00  0.00     0.004 C 
ENDBRANCH   5   6
ENDBRANCH   1   5
TORSDOF 3
ENDMDL
MODEL 2
REMARK VINA RESULT:    -4.037      2.982      4.215
REMARK INTER + INTRA:          -4.827
REMARK INTER:                  -4.807
REMARK INTRA:                  -0.020
REMARK UNBOUND:                -0.082
REMARK SMILES CCCCC(=O)[O-]
REMARK SMILES IDX 4 1 5 2 6 3 7 4 3 5 2 6 1 7
REMARK H PARENT
REMARK Flexibility Score: inf
ROOT
ATOM      1  C   UNL     1     -18.501  -9.479  -9.810  1.00  0.00     0.053 C 
ENDROOT
BRANCH   1   2
ATOM      2  C   UNL     1     -18.521 -10.422 -10.975  1.00  0.00     0.041 C 
ATOM      3  O   UNL     1     -17.700 -11.375 -11.033  1.00  0.00    -0.550 OA
ATOM      4  O   UNL     1     -19.424 -10.227 -12.012  1.00  0.00    -0.550 OA
ENDBRANCH   1   2
BRANCH   1   5
ATOM      5  C   UNL     1     -17.102  -8.892  -9.576  1.00  0.00     0.006 C 
BRANCH   5   6
ATOM      6  C   UNL     1     -16.936  -8.335  -8.156  1.00  0.00    -0.003 C 
ATOM      7  C   UNL     1     -15.470  -8.335  -7.734  1.00  0.00     0.004 C 
ENDBRANCH   5   6
ENDBRANCH   1   5
TORSDOF 3
ENDMDL
MODEL 3
REMARK VINA RESULT:    -4.032      0.508      1.307
REMARK INTER + INTRA:          -4.821
REMARK INTER:                  -4.725
REMARK INTRA:                  -0.097
REMARK UNBOUND:                -0.082
REMARK SMILES CCCCC(=O)[O-]
REMARK SMILES IDX 4 1 5 2 6 3 7 4 3 5 2 6 1 7
REMARK H PARENT
REMARK Flexibility Score: inf
ROOT
ATOM      1  C   UNL     1     -17.379  -8.370  -8.368  1.00  0.00     0.053 C 
ENDROOT
BRANCH   1   2
ATOM      2  C   UNL     1     -16.845  -8.930  -7.084  1.00  0.00     0.041 C 
ATOM      3  O   UNL     1     -15.872  -8.377  -6.509  1.00  0.00    -0.550 OA
ATOM      4  O   UNL     1     -17.403 -10.081  -6.543  1.00  0.00    -0.550 OA
ENDBRANCH   1   2
BRANCH   1   5
ATOM      5  C   UNL     1     -16.628  -8.924  -9.586  1.00  0.00     0.006 C 
BRANCH   5   6
ATOM      6  C   UNL     1     -17.355 -10.114 -10.226  1.00  0.00    -0.003 C 
ATOM      7  C   UNL     1     -18.861  -9.875 -10.279  1.00  0.00     0.004 C 
ENDBRANCH   5   6
ENDBRANCH   1   5
TORSDOF 3
ENDMDL
MODEL 4
REMARK VINA RESULT:    -4.004      2.888      3.994
REMARK INTER + INTRA:          -4.788
REMARK INTER:                  -4.739
REMARK INTRA:                  -0.049
REMARK UNBOUND:                -0.082
REMARK SMILES CCCCC(=O)[O-]
REMARK SMILES IDX 4 1 5 2 6 3 7 4 3 5 2 6 1 7
REMARK H PARENT
REMARK Flexibility Score: inf
ROOT
ATOM      1  C   UNL     1     -16.838 -10.265  -9.889  1.00  0.00     0.053 C 
ENDROOT
BRANCH   1   2
ATOM      2  C   UNL     1     -18.103 -10.595 -10.623  1.00  0.00     0.041 C 
ATOM      3  O   UNL     1     -19.103  -9.837 -10.533  1.00  0.00    -0.550 OA
ATOM      4  O   UNL     1     -18.185 -11.758 -11.379  1.00  0.00    -0.550 OA
ENDBRANCH   1   2
BRANCH   1   5
ATOM      5  C   UNL     1     -16.670  -8.752  -9.697  1.00  0.00     0.006 C 
BRANCH   5   6
ATOM      6  C   UNL     1     -16.801  -8.334  -8.225  1.00  0.00    -0.003 C 
ATOM      7  C   UNL     1     -15.443  -8.332  -7.532  1.00  0.00     0.004 C 
ENDBRANCH   5   6
ENDBRANCH   1   5
TORSDOF 3
ENDMDL
MODEL 5
REMARK VINA RESULT:    -4.000      2.608      3.294
REMARK INTER + INTRA:          -4.784
REMARK INTER:                  -4.679
REMARK INTRA:                  -0.105
REMARK UNBOUND:                -0.082
REMARK SMILES CCCCC(=O)[O-]
REMARK SMILES IDX 4 1 5 2 6 3 7 4 3 5 2 6 1 7
REMARK H PARENT
REMARK Flexibility Score: inf
ROOT
ATOM      1  C   UNL     1     -15.282 -11.021 -10.014  1.00  0.00     0.053 C 
ENDROOT
BRANCH   1   2
ATOM      2  C   UNL     1     -14.702 -11.502  -8.718  1.00  0.00     0.041 C 
ATOM      3  O   UNL     1     -13.999 -10.730  -8.014  1.00  0.00    -0.550 OA
ATOM      4  O   UNL     1     -14.911 -12.812  -8.306  1.00  0.00    -0.550 OA
ENDBRANCH   1   2
BRANCH   1   5
ATOM      5  C   UNL     1     -16.678 -10.416  -9.823  1.00  0.00     0.006 C 
BRANCH   5   6
ATOM      6  C   UNL     1     -16.649  -8.881  -9.809  1.00  0.00    -0.003 C 
ATOM      7  C   UNL     1     -16.954  -8.338  -8.417  1.00  0.00     0.004 C 
ENDBRANCH   5   6
ENDBRANCH   1   5
TORSDOF 3
ENDMDL
MODEL 6
REMARK VINA RESULT:    -3.999      2.613      3.109
REMARK INTER + INTRA:          -4.782
REMARK INTER:                  -4.677
REMARK INTRA:                  -0.106
REMARK UNBOUND:                -0.082
REMARK SMILES CCCCC(=O)[O-]
REMARK SMILES IDX 4 1 5 2 6 3 7 4 3 5 2 6 1 7
REMARK H PARENT
REMARK Flexibility Score: inf
ROOT
ATOM      1  C   UNL     1     -15.327 -11.061 -10.055  1.00  0.00     0.053 C 
ENDROOT
BRANCH   1   2
ATOM      2  C   UNL     1     -14.686 -11.529  -8.784  1.00  0.00     0.041 C 
ATOM      3  O   UNL     1     -14.777 -12.736  -8.436  1.00  0.00    -0.550 OA
ATOM      4  O   UNL     1     -14.017 -10.625  -7.969  1.00  0.00    -0.550 OA
ENDBRANCH   1   2
BRANCH   1   5
ATOM      5  C   UNL     1     -16.689 -10.404  -9.797  1.00  0.00     0.006 C 
BRANCH   5   6
ATOM      6  C   UNL     1     -16.604  -8.871  -9.789  1.00  0.00    -0.003 C 
ATOM      7  C   UNL     1     -16.986  -8.306  -8.425  1.00  0.00     0.004 C 
ENDBRANCH   5   6
ENDBRANCH   1   5
TORSDOF 3
ENDMDL
MODEL 7
REMARK VINA RESULT:    -3.965      1.680      2.151
REMARK INTER + INTRA:          -4.743
REMARK INTER:                  -4.639
REMARK INTRA:                  -0.104
REMARK UNBOUND:                -0.082
REMARK SMILES CCCCC(=O)[O-]
REMARK SMILES IDX 4 1 5 2 6 3 7 4 3 5 2 6 1 7
REMARK H PARENT
REMARK Flexibility Score: inf
ROOT
ATOM      1  C   UNL     1     -15.311  -8.380  -7.578  1.00  0.00     0.053 C 
ENDROOT
BRANCH   1   2
ATOM      2  C   UNL     1     -14.822  -9.778  -7.343  1.00  0.00     0.041 C 
ATOM      3  O   UNL     1     -13.632 -10.085  -7.615  1.00  0.00    -0.550 OA
ATOM      4  O   UNL     1     -15.690 -10.746  -6.857  1.00  0.00    -0.550 OA
ENDBRANCH   1   2
BRANCH   1   5
ATOM      5  C   UNL     1     -16.694  -8.365  -8.241  1.00  0.00     0.006 C 
BRANCH   5   6
ATOM      6  C   UNL     1     -16.638  -8.795  -9.713  1.00  0.00    -0.003 C 
ATOM      7  C   UNL     1     -17.886  -9.580 -10.104  1.00  0.00     0.004 C 
ENDBRANCH   5   6
ENDBRANCH   1   5
TORSDOF 3
ENDMDL
MODEL 8
REMARK VINA RESULT:    -3.936      2.307      2.437
REMARK INTER + INTRA:          -4.708
REMARK INTER:                  -4.607
REMARK INTRA:                  -0.101
REMARK UNBOUND:                -0.082
REMARK SMILES CCCCC(=O)[O-]
REMARK SMILES IDX 4 1 5 2 6 3 7 4 3 5 2 6 1 7
REMARK H PARENT
REMARK Flexibility Score: inf
ROOT
ATOM      1  C   UNL     1     -15.864  -9.304  -8.359  1.00  0.00     0.053 C 
ENDROOT
BRANCH   1   2
ATOM      2  C   UNL     1     -14.991 -10.444  -8.790  1.00  0.00     0.041 C 
ATOM      3  O   UNL     1     -15.191 -11.011  -9.895  1.00  0.00    -0.550 OA
ATOM      4  O   UNL     1     -13.979 -10.899  -7.954  1.00  0.00    -0.550 OA
ENDBRANCH   1   2
BRANCH   1   5
ATOM      5  C   UNL     1     -16.722  -8.775  -9.516  1.00  0.00     0.006 C 
BRANCH   5   6
ATOM      6  C   UNL     1     -18.201  -9.158  -9.366  1.00  0.00    -0.003 C 
ATOM      7  C   UNL     1     -18.678  -9.985 -10.556  1.00  0.00     0.004 C 
ENDBRANCH   5   6
ENDBRANCH   1   5
TORSDOF 3
ENDMDL
MODEL 9
REMARK VINA RESULT:    -3.932      2.603      3.481
REMARK INTER + INTRA:          -4.703
REMARK INTER:                  -4.599
REMARK INTRA:                  -0.105
REMARK UNBOUND:                -0.082
REMARK SMILES CCCCC(=O)[O-]
REMARK SMILES IDX 4 1 5 2 6 3 7 4 3 5 2 6 1 7
REMARK H PARENT
REMARK Flexibility Score: inf
ROOT
ATOM      1  C   UNL     1     -17.069 -10.211  -9.905  1.00  0.00     0.053 C 
ENDROOT
BRANCH   1   2
ATOM      2  C   UNL     1     -15.893 -11.128 -10.066  1.00  0.00     0.041 C 
ATOM      3  O   UNL     1     -15.930 -12.061 -10.910  1.00  0.00    -0.550 OA
ATOM      4  O   UNL     1     -14.772 -10.969  -9.262  1.00  0.00    -0.550 OA
ENDBRANCH   1   2
BRANCH   1   5
ATOM      5  C   UNL     1     -16.632  -8.776  -9.582  1.00  0.00     0.006 C 
BRANCH   5   6
ATOM      6  C   UNL     1     -17.109  -8.321  -8.196  1.00  0.00    -0.003 C 
ATOM      7  C   UNL     1     -15.971  -8.363  -7.181  1.00  0.00     0.004 C 
ENDBRANCH   5   6
ENDBRANCH   1   5
TORSDOF 3
ENDMDL
