MODEL 1
REMARK VINA RESULT:    -5.643      0.000      0.000
REMARK INTER + INTRA:         -19.721
REMARK INTER:                 -14.716
REMARK INTRA:                  -5.005
REMARK UNBOUND:                -5.005
REMARK SMILES CCCCCCCCCCCCCCCCCCCCCCCCCCCCCO
REMARK SMILES IDX 16 1 15 2 14 3 13 4 12 5 11 6 10 7 9 8 8 9 7 10 6 11 5 12
REMARK SMILES IDX 4 13 3 14 2 15 1 16 17 17 18 18 19 19 20 20 21 21 22 22
REMARK SMILES IDX 23 23 24 24 25 25 26 26 27 27 28 28 29 29 30 30
REMARK H PARENT 30 31
REMARK Flexibility Score: inf
ROOT
ATOM      1  C   UNL     1      21.590   0.565  21.121  1.00  0.00     0.000 C 
ENDROOT
BRANCH   1   2
ATOM      2  C   UNL     1      20.530   0.685  22.228  1.00  0.00     0.000 C 
BRANCH   2   3
ATOM      3  C   UNL     1      19.133   1.037  21.684  1.00  0.00     0.000 C 
BRANCH   3   4
ATOM      4  C   UNL     1      17.992   0.114  22.157  1.00  0.00     0.000 C 
BRANCH   4   5
ATOM      5  C   UNL     1      16.568   0.672  21.959  1.00  0.00     0.000 C 
BRANCH   5   6
ATOM      6  C   UNL     1      15.459  -0.392  21.872  1.00  0.00     0.000 C 
BRANCH   6   7
ATOM      7  C   UNL     1      15.557  -1.251  20.602  1.00  0.00     0.000 C 
BRANCH   7   8
ATOM      8  C   UNL     1      14.975  -0.555  19.358  1.00  0.00    -0.000 C 
BRANCH   8   9
ATOM      9  C   UNL     1      15.978  -0.292  18.214  1.00  0.00    -0.000 C 
BRANCH   9  10
ATOM     10  C   UNL     1      17.463  -0.428  18.600  1.00  0.00    -0.000 C 
BRANCH  10  11
ATOM     11  C   UNL     1      18.336  -1.151  17.556  1.00  0.00    -0.000 C 
BRANCH  11  12
ATOM     12  C   UNL     1      19.642  -1.733  18.138  1.00  0.00    -0.000 C 
BRANCH  12  13
ATOM     13  C   UNL     1      20.129  -2.972  17.365  1.00  0.00    -0.000 C 
BRANCH  13  14
ATOM     14  C   UNL     1      21.325  -3.658  18.040  1.00  0.00    -0.000 C 
BRANCH  14  15
ATOM     15  C   UNL     1      21.868  -4.843  17.226  1.00  0.00    -0.003 C 
ATOM     16  C   UNL     1      20.895  -6.019  17.249  1.00  0.00     0.004 C 
ENDBRANCH  14  15
ENDBRANCH  13  14
ENDBRANCH  12  13
ENDBRANCH  11  12
ENDBRANCH  10  11
ENDBRANCH   9  10
ENDBRANCH   8   9
ENDBRANCH   7   8
ENDBRANCH   6   7
ENDBRANCH   5   6
ENDBRANCH   4   5
ENDBRANCH   3   4
ENDBRANCH   2   3
ENDBRANCH   1   2
BRANCH   1  17
ATOM     17  C   UNL     1      22.998   0.278  21.673  1.00  0.00     0.000 C 
BRANCH  17  18
ATOM     18  C   UNL     1      23.327  -1.213  21.892  1.00  0.00     0.000 C 
BRANCH  18  19
ATOM     19  C   UNL     1      22.429  -2.203  21.127  1.00  0.00     0.000 C 
BRANCH  19  20
ATOM     20  C   UNL     1      21.964  -3.381  21.996  1.00  0.00     0.000 C 
BRANCH  20  21
ATOM     21  C   UNL     1      20.529  -3.166  22.497  1.00  0.00     0.000 C 
BRANCH  21  22
ATOM     22  C   UNL     1      19.577  -2.717  21.374  1.00  0.00     0.000 C 
BRANCH  22  23
ATOM     23  C   UNL     1      18.405  -3.694  21.173  1.00  0.00     0.000 C 
BRANCH  23  24
ATOM     24  C   UNL     1      18.740  -4.819  20.168  1.00  0.00     0.000 C 
BRANCH  24  25
ATOM     25  C   UNL     1      17.654  -5.041  19.099  1.00  0.00     0.000 C 
BRANCH  25  26
ATOM     26  C   UNL     1      16.497  -4.023  19.123  1.00  0.00     0.000 C 
BRANCH  26  27
ATOM     27  C   UNL     1      15.707  -3.907  17.806  1.00  0.00     0.002 C 
BRANCH  27  28
ATOM     28  C   UNL     1      15.553  -5.251  17.077  1.00  0.00     0.028 C 
BRANCH  28  29
ATOM     29  C   UNL     1      14.191  -5.881  17.365  1.00  0.00     0.156 C 
BRANCH  29  30
ATOM     30  O   UNL     1      13.818  -5.606  18.688  1.00  0.00    -0.396 OA
ATOM     31  H   UNL     1      13.150  -6.298  18.937  1.00  0.00     0.210 HD
ENDBRANCH  29  30
ENDBRANCH  28  29
ENDBRANCH  27  28
ENDBRANCH  26  27
ENDBRANCH  25  26
ENDBRANCH  24  25
ENDBRANCH  23  24
ENDBRANCH  22  23
ENDBRANCH  21  22
ENDBRANCH  20  21
ENDBRANCH  19  20
ENDBRANCH  18  19
ENDBRANCH  17  18
ENDBRANCH   1  17
TORSDOF 28
ENDMDL
MODEL 2
REMARK VINA RESULT:    -4.904      3.000      5.825
REMARK INTER + INTRA:         -17.794
REMARK INTER:                 -14.669
REMARK INTRA:                  -3.125
REMARK UNBOUND:                -5.005
REMARK SMILES CCCCCCCCCCCCCCCCCCCCCCCCCCCCCO
REMARK SMILES IDX 16 1 15 2 14 3 13 4 12 5 11 6 10 7 9 8 8 9 7 10 6 11 5 12
REMARK SMILES IDX 4 13 3 14 2 15 1 16 17 17 18 18 19 19 20 20 21 21 22 22
REMARK SMILES IDX 23 23 24 24 25 25 26 26 27 27 28 28 29 29 30 30
REMARK H PARENT 30 31
REMARK Flexibility Score: inf
ROOT
ATOM      1  C   UNL     1      20.699  -3.256  22.596  1.00  0.00     0.000 C 
ENDROOT
BRANCH   1   2
ATOM      2  C   UNL     1      19.622  -2.994  21.531  1.00  0.00     0.000 C 
BRANCH   2   3
ATOM      3  C   UNL     1      18.878  -4.273  21.104  1.00  0.00     0.000 C 
BRANCH   3   4
ATOM      4  C   UNL     1      18.871  -4.554  19.588  1.00  0.00     0.000 C 
BRANCH   4   5
ATOM      5  C   UNL     1      19.221  -3.347  18.693  1.00  0.00     0.000 C 
BRANCH   5   6
ATOM      6  C   UNL     1      20.437  -3.552  17.772  1.00  0.00     0.000 C 
BRANCH   6   7
ATOM      7  C   UNL     1      21.091  -4.932  17.948  1.00  0.00     0.000 C 
BRANCH   7   8
ATOM      8  C   UNL     1      21.971  -5.336  16.750  1.00  0.00    -0.000 C 
BRANCH   8   9
ATOM      9  C   UNL     1      21.846  -6.809  16.303  1.00  0.00    -0.000 C 
BRANCH   9  10
ATOM     10  C   UNL     1      20.405  -7.314  16.104  1.00  0.00    -0.000 C 
BRANCH  10  11
ATOM     11  C   UNL     1      20.219  -8.279  14.918  1.00  0.00    -0.000 C 
BRANCH  11  12
ATOM     12  C   UNL     1      18.767  -8.351  14.399  1.00  0.00    -0.000 C 
BRANCH  12  13
ATOM     13  C   UNL     1      18.626  -9.269  13.172  1.00  0.00    -0.000 C 
BRANCH  13  14
ATOM     14  C   UNL     1      19.180 -10.680  13.423  1.00  0.00    -0.000 C 
BRANCH  14  15
ATOM     15  C   UNL     1      18.998 -11.613  12.215  1.00  0.00    -0.003 C 
ATOM     16  C   UNL     1      17.761 -11.230  11.406  1.00  0.00     0.004 C 
ENDBRANCH  14  15
ENDBRANCH  13  14
ENDBRANCH  12  13
ENDBRANCH  11  12
ENDBRANCH  10  11
ENDBRANCH   9  10
ENDBRANCH   8   9
ENDBRANCH   7   8
ENDBRANCH   6   7
ENDBRANCH   5   6
ENDBRANCH   4   5
ENDBRANCH   3   4
ENDBRANCH   2   3
ENDBRANCH   1   2
BRANCH   1  17
ATOM     17  C   UNL     1      21.245  -1.960  23.224  1.00  0.00     0.000 C 
BRANCH  17  18
ATOM     18  C   UNL     1      20.176  -0.931  23.644  1.00  0.00     0.000 C 
BRANCH  18  19
ATOM     19  C   UNL     1      20.365   0.484  23.067  1.00  0.00     0.000 C 
BRANCH  19  20
ATOM     20  C   UNL     1      20.664   0.479  21.560  1.00  0.00     0.000 C 
BRANCH  20  21
ATOM     21  C   UNL     1      19.367   0.402  20.741  1.00  0.00     0.000 C 
BRANCH  21  22
ATOM     22  C   UNL     1      18.158   0.978  21.499  1.00  0.00     0.000 C 
BRANCH  22  23
ATOM     23  C   UNL     1      16.975  -0.004  21.551  1.00  0.00     0.000 C 
BRANCH  23  24
ATOM     24  C   UNL     1      16.949  -0.962  20.340  1.00  0.00     0.000 C 
BRANCH  24  25
ATOM     25  C   UNL     1      15.848  -0.636  19.313  1.00  0.00     0.000 C 
BRANCH  25  26
ATOM     26  C   UNL     1      15.805  -1.566  18.086  1.00  0.00     0.000 C 
BRANCH  26  27
ATOM     27  C   UNL     1      15.564  -3.053  18.405  1.00  0.00     0.002 C 
BRANCH  27  28
ATOM     28  C   UNL     1      15.770  -3.969  17.188  1.00  0.00     0.028 C 
BRANCH  28  29
ATOM     29  C   UNL     1      15.019  -5.289  17.360  1.00  0.00     0.156 C 
BRANCH  29  30
ATOM     30  O   UNL     1      15.116  -6.040  16.181  1.00  0.00    -0.396 OA
ATOM     31  H   UNL     1      15.973  -6.539  16.240  1.00  0.00     0.210 HD
ENDBRANCH  29  30
ENDBRANCH  28  29
ENDBRANCH  27  28
ENDBRANCH  26  27
ENDBRANCH  25  26
ENDBRANCH  24  25
ENDBRANCH  23  24
ENDBRANCH  22  23
ENDBRANCH  21  22
ENDBRANCH  20  21
ENDBRANCH  19  20
ENDBRANCH  18  19
ENDBRANCH  17  18
ENDBRANCH   1  17
TORSDOF 28
ENDMDL
MODEL 3
REMARK VINA RESULT:    -4.801      4.450      8.277
REMARK INTER + INTRA:         -17.523
REMARK INTER:                 -14.725
REMARK INTRA:                  -2.798
REMARK UNBOUND:                -5.005
REMARK SMILES CCCCCCCCCCCCCCCCCCCCCCCCCCCCCO
REMARK SMILES IDX 16 1 15 2 14 3 13 4 12 5 11 6 10 7 9 8 8 9 7 10 6 11 5 12
REMARK SMILES IDX 4 13 3 14 2 15 1 16 17 17 18 18 19 19 20 20 21 21 22 22
REMARK SMILES IDX 23 23 24 24 25 25 26 26 27 27 28 28 29 29 30 30
REMARK H PARENT 30 31
REMARK Flexibility Score: inf
ROOT
ATOM      1  C   UNL     1      15.118  -4.817  18.042  1.00  0.00     0.000 C 
ENDROOT
BRANCH   1   2
ATOM      2  C   UNL     1      15.716  -3.459  17.643  1.00  0.00     0.000 C 
BRANCH   2   3
ATOM      3  C   UNL     1      15.720  -2.443  18.800  1.00  0.00     0.000 C 
BRANCH   3   4
ATOM      4  C   UNL     1      15.263  -1.018  18.425  1.00  0.00     0.000 C 
BRANCH   4   5
ATOM      5  C   UNL     1      16.397  -0.038  18.062  1.00  0.00     0.000 C 
BRANCH   5   6
ATOM      6  C   UNL     1      17.798  -0.458  18.540  1.00  0.00     0.000 C 
BRANCH   6   7
ATOM      7  C   UNL     1      18.629  -1.125  17.433  1.00  0.00     0.000 C 
BRANCH   7   8
ATOM      8  C   UNL     1      19.814  -1.943  17.980  1.00  0.00    -0.000 C 
BRANCH   8   9
ATOM      9  C   UNL     1      19.954  -3.371  17.409  1.00  0.00    -0.000 C 
BRANCH   9  10
ATOM     10  C   UNL     1      19.996  -4.496  18.460  1.00  0.00    -0.000 C 
BRANCH  10  11
ATOM     11  C   UNL     1      18.660  -4.753  19.182  1.00  0.00    -0.000 C 
BRANCH  11  12
ATOM     12  C   UNL     1      18.751  -4.622  20.718  1.00  0.00    -0.000 C 
BRANCH  12  13
ATOM     13  C   UNL     1      18.548  -3.173  21.197  1.00  0.00    -0.000 C 
BRANCH  13  14
ATOM     14  C   UNL     1      19.875  -2.453  21.483  1.00  0.00    -0.000 C 
BRANCH  14  15
ATOM     15  C   UNL     1      19.675  -1.072  22.126  1.00  0.00    -0.003 C 
ATOM     16  C   UNL     1      20.112  -1.078  23.589  1.00  0.00     0.004 C 
ENDBRANCH  14  15
ENDBRANCH  13  14
ENDBRANCH  12  13
ENDBRANCH  11  12
ENDBRANCH  10  11
ENDBRANCH   9  10
ENDBRANCH   8   9
ENDBRANCH   7   8
ENDBRANCH   6   7
ENDBRANCH   5   6
ENDBRANCH   4   5
ENDBRANCH   3   4
ENDBRANCH   2   3
ENDBRANCH   1   2
BRANCH   1  17
ATOM     17  C   UNL     1      14.954  -5.772  16.846  1.00  0.00     0.000 C 
BRANCH  17  18
ATOM     18  C   UNL     1      16.114  -5.760  15.830  1.00  0.00     0.000 C 
BRANCH  18  19
ATOM     19  C   UNL     1      16.323  -7.075  15.056  1.00  0.00     0.000 C 
BRANCH  19  20
ATOM     20  C   UNL     1      15.005  -7.692  14.563  1.00  0.00     0.000 C 
BRANCH  20  21
ATOM     21  C   UNL     1      15.257  -9.021  13.835  1.00  0.00     0.000 C 
BRANCH  21  22
ATOM     22  C   UNL     1      13.955  -9.675  13.341  1.00  0.00     0.000 C 
BRANCH  22  23
ATOM     23  C   UNL     1      13.732 -11.071  13.950  1.00  0.00     0.000 C 
BRANCH  23  24
ATOM     24  C   UNL     1      12.234 -11.426  14.080  1.00  0.00     0.000 C 
BRANCH  24  25
ATOM     25  C   UNL     1      11.971 -12.759  14.805  1.00  0.00     0.000 C 
BRANCH  25  26
ATOM     26  C   UNL     1      11.556 -12.626  16.283  1.00  0.00     0.000 C 
BRANCH  26  27
ATOM     27  C   UNL     1      12.673 -12.922  17.301  1.00  0.00     0.002 C 
BRANCH  27  28
ATOM     28  C   UNL     1      13.618 -14.045  16.845  1.00  0.00     0.028 C 
BRANCH  28  29
ATOM     29  C   UNL     1      13.270 -15.368  17.526  1.00  0.00     0.156 C 
BRANCH  29  30
ATOM     30  O   UNL     1      12.909 -15.128  18.859  1.00  0.00    -0.396 OA
ATOM     31  H   UNL     1      12.097 -15.674  19.028  1.00  0.00     0.210 HD
ENDBRANCH  29  30
ENDBRANCH  28  29
ENDBRANCH  27  28
ENDBRANCH  26  27
ENDBRANCH  25  26
ENDBRANCH  24  25
ENDBRANCH  23  24
ENDBRANCH  22  23
ENDBRANCH  21  22
ENDBRANCH  20  21
ENDBRANCH  19  20
ENDBRANCH  18  19
ENDBRANCH  17  18
ENDBRANCH   1  17
TORSDOF 28
ENDMDL
MODEL 4
REMARK VINA RESULT:    -4.768      5.908      9.159
REMARK INTER + INTRA:         -17.439
REMARK INTER:                 -14.423
REMARK INTRA:                  -3.016
REMARK UNBOUND:                -5.005
REMARK SMILES CCCCCCCCCCCCCCCCCCCCCCCCCCCCCO
REMARK SMILES IDX 16 1 15 2 14 3 13 4 12 5 11 6 10 7 9 8 8 9 7 10 6 11 5 12
REMARK SMILES IDX 4 13 3 14 2 15 1 16 17 17 18 18 19 19 20 20 21 21 22 22
REMARK SMILES IDX 23 23 24 24 25 25 26 26 27 27 28 28 29 29 30 30
REMARK H PARENT 30 31
REMARK Flexibility Score: inf
ROOT
ATOM      1  C   UNL     1      15.468  -5.638  16.602  1.00  0.00     0.000 C 
ENDROOT
BRANCH   1   2
ATOM      2  C   UNL     1      16.169  -4.422  17.228  1.00  0.00     0.000 C 
BRANCH   2   3
ATOM      3  C   UNL     1      16.140  -4.441  18.768  1.00  0.00     0.000 C 
BRANCH   3   4
ATOM      4  C   UNL     1      17.500  -4.704  19.447  1.00  0.00     0.000 C 
BRANCH   4   5
ATOM      5  C   UNL     1      17.801  -3.826  20.678  1.00  0.00     0.000 C 
BRANCH   5   6
ATOM      6  C   UNL     1      19.160  -4.092  21.350  1.00  0.00     0.000 C 
BRANCH   6   7
ATOM      7  C   UNL     1      20.250  -3.107  20.896  1.00  0.00     0.000 C 
BRANCH   7   8
ATOM      8  C   UNL     1      21.342  -3.772  20.038  1.00  0.00    -0.000 C 
BRANCH   8   9
ATOM      9  C   UNL     1      20.910  -4.179  18.613  1.00  0.00    -0.000 C 
BRANCH   9  10
ATOM     10  C   UNL     1      20.757  -3.014  17.617  1.00  0.00    -0.000 C 
BRANCH  10  11
ATOM     11  C   UNL     1      19.301  -2.639  17.282  1.00  0.00    -0.000 C 
BRANCH  11  12
ATOM     12  C   UNL     1      18.944  -1.176  17.625  1.00  0.00    -0.000 C 
BRANCH  12  13
ATOM     13  C   UNL     1      17.751  -1.074  18.591  1.00  0.00    -0.000 C 
BRANCH  13  14
ATOM     14  C   UNL     1      17.750   0.236  19.394  1.00  0.00    -0.000 C 
BRANCH  14  15
ATOM     15  C   UNL     1      18.209   0.042  20.848  1.00  0.00    -0.003 C 
ATOM     16  C   UNL     1      19.657   0.488  21.032  1.00  0.00     0.004 C 
ENDBRANCH  14  15
ENDBRANCH  13  14
ENDBRANCH  12  13
ENDBRANCH  11  12
ENDBRANCH  10  11
ENDBRANCH   9  10
ENDBRANCH   8   9
ENDBRANCH   7   8
ENDBRANCH   6   7
ENDBRANCH   5   6
ENDBRANCH   4   5
ENDBRANCH   3   4
ENDBRANCH   2   3
ENDBRANCH   1   2
BRANCH   1  17
ATOM     17  C   UNL     1      16.311  -6.313  15.504  1.00  0.00     0.000 C 
BRANCH  17  18
ATOM     18  C   UNL     1      15.593  -7.423  14.711  1.00  0.00     0.000 C 
BRANCH  18  19
ATOM     19  C   UNL     1      16.475  -8.621  14.313  1.00  0.00     0.000 C 
BRANCH  19  20
ATOM     20  C   UNL     1      17.975  -8.345  14.498  1.00  0.00     0.000 C 
BRANCH  20  21
ATOM     21  C   UNL     1      18.760  -8.686  13.223  1.00  0.00     0.000 C 
BRANCH  21  22
ATOM     22  C   UNL     1      19.823  -9.772  13.461  1.00  0.00     0.000 C 
BRANCH  22  23
ATOM     23  C   UNL     1      19.494 -11.087  12.731  1.00  0.00     0.000 C 
BRANCH  23  24
ATOM     24  C   UNL     1      18.030 -11.141  12.245  1.00  0.00     0.000 C 
BRANCH  24  25
ATOM     25  C   UNL     1      17.867 -11.706  10.821  1.00  0.00     0.000 C 
BRANCH  25  26
ATOM     26  C   UNL     1      18.495 -13.095  10.596  1.00  0.00     0.000 C 
BRANCH  26  27
ATOM     27  C   UNL     1      19.175 -13.287   9.228  1.00  0.00     0.002 C 
BRANCH  27  28
ATOM     28  C   UNL     1      18.477 -14.340   8.353  1.00  0.00     0.028 C 
BRANCH  28  29
ATOM     29  C   UNL     1      17.736 -13.685   7.188  1.00  0.00     0.156 C 
BRANCH  29  30
ATOM     30  O   UNL     1      16.598 -13.024   7.669  1.00  0.00    -0.396 OA
ATOM     31  H   UNL     1      16.316 -13.517   8.484  1.00  0.00     0.210 HD
ENDBRANCH  29  30
ENDBRANCH  28  29
ENDBRANCH  27  28
ENDBRANCH  26  27
ENDBRANCH  25  26
ENDBRANCH  24  25
ENDBRANCH  23  24
ENDBRANCH  22  23
ENDBRANCH  21  22
ENDBRANCH  20  21
ENDBRANCH  19  20
ENDBRANCH  18  19
ENDBRANCH  17  18
ENDBRANCH   1  17
TORSDOF 28
ENDMDL
MODEL 5
REMARK VINA RESULT:    -4.763      6.405      9.156
REMARK INTER + INTRA:         -17.427
REMARK INTER:                 -14.878
REMARK INTRA:                  -2.549
REMARK UNBOUND:                -5.005
REMARK SMILES CCCCCCCCCCCCCCCCCCCCCCCCCCCCCO
REMARK SMILES IDX 16 1 15 2 14 3 13 4 12 5 11 6 10 7 9 8 8 9 7 10 6 11 5 12
REMARK SMILES IDX 4 13 3 14 2 15 1 16 17 17 18 18 19 19 20 20 21 21 22 22
REMARK SMILES IDX 23 23 24 24 25 25 26 26 27 27 28 28 29 29 30 30
REMARK H PARENT 30 31
REMARK Flexibility Score: inf
ROOT
ATOM      1  C   UNL     1      21.992  -5.902  16.564  1.00  0.00     0.000 C 
ENDROOT
BRANCH   1   2
ATOM      2  C   UNL     1      21.760  -4.571  17.298  1.00  0.00     0.000 C 
BRANCH   2   3
ATOM      3  C   UNL     1      21.261  -4.763  18.742  1.00  0.00     0.000 C 
BRANCH   3   4
ATOM      4  C   UNL     1      20.314  -3.662  19.261  1.00  0.00     0.000 C 
BRANCH   4   5
ATOM      5  C   UNL     1      19.699  -2.757  18.175  1.00  0.00     0.000 C 
BRANCH   5   6
ATOM      6  C   UNL     1      19.690  -1.254  18.509  1.00  0.00     0.000 C 
BRANCH   6   7
ATOM      7  C   UNL     1      20.081  -0.967  19.968  1.00  0.00     0.000 C 
BRANCH   7   8
ATOM      8  C   UNL     1      19.374   0.273  20.547  1.00  0.00    -0.000 C 
BRANCH   8   9
ATOM      9  C   UNL     1      17.864   0.377  20.243  1.00  0.00    -0.000 C 
BRANCH   9  10
ATOM     10  C   UNL     1      16.941  -0.317  21.262  1.00  0.00    -0.000 C 
BRANCH  10  11
ATOM     11  C   UNL     1      16.179  -1.539  20.714  1.00  0.00    -0.000 C 
BRANCH  11  12
ATOM     12  C   UNL     1      17.014  -2.838  20.708  1.00  0.00    -0.000 C 
BRANCH  12  13
ATOM     13  C   UNL     1      16.512  -3.854  19.667  1.00  0.00    -0.000 C 
BRANCH  13  14
ATOM     14  C   UNL     1      15.828  -3.182  18.467  1.00  0.00    -0.000 C 
BRANCH  14  15
ATOM     15  C   UNL     1      15.927  -4.020  17.182  1.00  0.00    -0.003 C 
ATOM     16  C   UNL     1      15.050  -5.266  17.269  1.00  0.00     0.004 C 
ENDBRANCH  14  15
ENDBRANCH  13  14
ENDBRANCH  12  13
ENDBRANCH  11  12
ENDBRANCH  10  11
ENDBRANCH   9  10
ENDBRANCH   8   9
ENDBRANCH   7   8
ENDBRANCH   6   7
ENDBRANCH   5   6
ENDBRANCH   4   5
ENDBRANCH   3   4
ENDBRANCH   2   3
ENDBRANCH   1   2
BRANCH   1  17
ATOM     17  C   UNL     1      20.771  -6.838  16.626  1.00  0.00     0.000 C 
BRANCH  17  18
ATOM     18  C   UNL     1      20.685  -7.882  15.494  1.00  0.00     0.000 C 
BRANCH  18  19
ATOM     19  C   UNL     1      19.259  -8.213  15.015  1.00  0.00     0.000 C 
BRANCH  19  20
ATOM     20  C   UNL     1      19.230  -9.312  13.942  1.00  0.00     0.000 C 
BRANCH  20  21
ATOM     21  C   UNL     1      17.823  -9.464  13.346  1.00  0.00     0.000 C 
BRANCH  21  22
ATOM     22  C   UNL     1      17.659 -10.773  12.554  1.00  0.00     0.000 C 
BRANCH  22  23
ATOM     23  C   UNL     1      19.010 -11.376  12.129  1.00  0.00     0.000 C 
BRANCH  23  24
ATOM     24  C   UNL     1      18.890 -12.858  11.712  1.00  0.00     0.000 C 
BRANCH  24  25
ATOM     25  C   UNL     1      18.881 -13.076  10.187  1.00  0.00     0.000 C 
BRANCH  25  26
ATOM     26  C   UNL     1      17.919 -14.172   9.691  1.00  0.00     0.000 C 
BRANCH  26  27
ATOM     27  C   UNL     1      18.602 -15.442   9.151  1.00  0.00     0.002 C 
BRANCH  27  28
ATOM     28  C   UNL     1      18.373 -16.672  10.042  1.00  0.00     0.028 C 
BRANCH  28  29
ATOM     29  C   UNL     1      19.034 -16.492  11.409  1.00  0.00     0.156 C 
BRANCH  29  30
ATOM     30  O   UNL     1      20.425 -16.430  11.253  1.00  0.00    -0.396 OA
ATOM     31  H   UNL     1      20.624 -15.525  10.894  1.00  0.00     0.210 HD
ENDBRANCH  29  30
ENDBRANCH  28  29
ENDBRANCH  27  28
ENDBRANCH  26  27
ENDBRANCH  25  26
ENDBRANCH  24  25
ENDBRANCH  23  24
ENDBRANCH  22  23
ENDBRANCH  21  22
ENDBRANCH  20  21
ENDBRANCH  19  20
ENDBRANCH  18  19
ENDBRANCH  17  18
ENDBRANCH   1  17
TORSDOF 28
ENDMDL
MODEL 6
REMARK VINA RESULT:    -4.715      5.176      7.962
REMARK INTER + INTRA:         -17.300
REMARK INTER:                 -14.569
REMARK INTRA:                  -2.730
REMARK UNBOUND:                -5.005
REMARK SMILES CCCCCCCCCCCCCCCCCCCCCCCCCCCCCO
REMARK SMILES IDX 16 1 15 2 14 3 13 4 12 5 11 6 10 7 9 8 8 9 7 10 6 11 5 12
REMARK SMILES IDX 4 13 3 14 2 15 1 16 17 17 18 18 19 19 20 20 21 21 22 22
REMARK SMILES IDX 23 23 24 24 25 25 26 26 27 27 28 28 29 29 30 30
REMARK H PARENT 30 31
REMARK Flexibility Score: inf
ROOT
ATOM      1  C   UNL     1      17.010  -4.316  18.764  1.00  0.00     0.000 C 
ENDROOT
BRANCH   1   2
ATOM      2  C   UNL     1      17.279  -2.840  19.097  1.00  0.00     0.000 C 
BRANCH   2   3
ATOM      3  C   UNL     1      16.734  -2.429  20.477  1.00  0.00     0.000 C 
BRANCH   3   4
ATOM      4  C   UNL     1      17.258  -1.082  21.016  1.00  0.00     0.000 C 
BRANCH   4   5
ATOM      5  C   UNL     1      18.195  -0.312  20.064  1.00  0.00     0.000 C 
BRANCH   5   6
ATOM      6  C   UNL     1      19.317   0.482  20.757  1.00  0.00     0.000 C 
BRANCH   6   7
ATOM      7  C   UNL     1      19.054   0.700  22.256  1.00  0.00     0.000 C 
BRANCH   7   8
ATOM      8  C   UNL     1      20.324   0.558  23.115  1.00  0.00    -0.000 C 
BRANCH   8   9
ATOM      9  C   UNL     1      21.571   0.029  22.374  1.00  0.00    -0.000 C 
BRANCH   9  10
ATOM     10  C   UNL     1      22.034  -1.378  22.793  1.00  0.00    -0.000 C 
BRANCH  10  11
ATOM     11  C   UNL     1      20.896  -2.396  23.001  1.00  0.00    -0.000 C 
BRANCH  11  12
ATOM     12  C   UNL     1      20.371  -3.014  21.687  1.00  0.00    -0.000 C 
BRANCH  12  13
ATOM     13  C   UNL     1      21.494  -3.268  20.666  1.00  0.00    -0.000 C 
BRANCH  13  14
ATOM     14  C   UNL     1      20.972  -3.371  19.226  1.00  0.00    -0.000 C 
BRANCH  14  15
ATOM     15  C   UNL     1      20.958  -4.815  18.701  1.00  0.00    -0.003 C 
ATOM     16  C   UNL     1      21.575  -4.900  17.306  1.00  0.00     0.004 C 
ENDBRANCH  14  15
ENDBRANCH  13  14
ENDBRANCH  12  13
ENDBRANCH  11  12
ENDBRANCH  10  11
ENDBRANCH   9  10
ENDBRANCH   8   9
ENDBRANCH   7   8
ENDBRANCH   6   7
ENDBRANCH   5   6
ENDBRANCH   4   5
ENDBRANCH   3   4
ENDBRANCH   2   3
ENDBRANCH   1   2
BRANCH   1  17
ATOM     17  C   UNL     1      16.432  -4.513  17.350  1.00  0.00     0.000 C 
BRANCH  17  18
ATOM     18  C   UNL     1      15.176  -5.404  17.270  1.00  0.00     0.000 C 
BRANCH  18  19
ATOM     19  C   UNL     1      15.118  -6.348  16.054  1.00  0.00     0.000 C 
BRANCH  19  20
ATOM     20  C   UNL     1      16.464  -6.460  15.321  1.00  0.00     0.000 C 
BRANCH  20  21
ATOM     21  C   UNL     1      16.649  -7.860  14.719  1.00  0.00     0.000 C 
BRANCH  21  22
ATOM     22  C   UNL     1      18.130  -8.210  14.490  1.00  0.00     0.000 C 
BRANCH  22  23
ATOM     23  C   UNL     1      18.360  -9.725  14.343  1.00  0.00     0.000 C 
BRANCH  23  24
ATOM     24  C   UNL     1      18.986 -10.097  12.981  1.00  0.00     0.000 C 
BRANCH  24  25
ATOM     25  C   UNL     1      18.062 -10.939  12.082  1.00  0.00     0.000 C 
BRANCH  25  26
ATOM     26  C   UNL     1      18.480 -12.413  11.918  1.00  0.00     0.000 C 
BRANCH  26  27
ATOM     27  C   UNL     1      18.517 -12.921  10.464  1.00  0.00     0.002 C 
BRANCH  27  28
ATOM     28  C   UNL     1      18.990 -14.378  10.349  1.00  0.00     0.028 C 
BRANCH  28  29
ATOM     29  C   UNL     1      19.539 -14.886  11.683  1.00  0.00     0.156 C 
BRANCH  29  30
ATOM     30  O   UNL     1      20.330 -16.022  11.461  1.00  0.00    -0.396 OA
ATOM     31  H   UNL     1      20.230 -16.590  12.270  1.00  0.00     0.210 HD
ENDBRANCH  29  30
ENDBRANCH  28  29
ENDBRANCH  27  28
ENDBRANCH  26  27
ENDBRANCH  25  26
ENDBRANCH  24  25
ENDBRANCH  23  24
ENDBRANCH  22  23
ENDBRANCH  21  22
ENDBRANCH  20  21
ENDBRANCH  19  20
ENDBRANCH  18  19
ENDBRANCH  17  18
ENDBRANCH   1  17
TORSDOF 28
ENDMDL
MODEL 7
REMARK VINA RESULT:    -4.703      4.637      7.846
REMARK INTER + INTRA:         -17.269
REMARK INTER:                 -13.999
REMARK INTRA:                  -3.270
REMARK UNBOUND:                -5.005
REMARK SMILES CCCCCCCCCCCCCCCCCCCCCCCCCCCCCO
REMARK SMILES IDX 16 1 15 2 14 3 13 4 12 5 11 6 10 7 9 8 8 9 7 10 6 11 5 12
REMARK SMILES IDX 4 13 3 14 2 15 1 16 17 17 18 18 19 19 20 20 21 21 22 22
REMARK SMILES IDX 23 23 24 24 25 25 26 26 27 27 28 28 29 29 30 30
REMARK H PARENT 30 31
REMARK Flexibility Score: inf
ROOT
ATOM      1  C   UNL     1      18.438  -4.825  19.702  1.00  0.00     0.000 C 
ENDROOT
BRANCH   1   2
ATOM      2  C   UNL     1      18.699  -4.819  18.187  1.00  0.00     0.000 C 
BRANCH   2   3
ATOM      3  C   UNL     1      20.082  -4.251  17.819  1.00  0.00     0.000 C 
BRANCH   3   4
ATOM      4  C   UNL     1      21.257  -5.239  17.960  1.00  0.00     0.000 C 
BRANCH   4   5
ATOM      5  C   UNL     1      21.696  -5.930  16.653  1.00  0.00     0.000 C 
BRANCH   5   6
ATOM      6  C   UNL     1      20.855  -7.155  16.251  1.00  0.00     0.000 C 
BRANCH   6   7
ATOM      7  C   UNL     1      21.677  -8.226  15.516  1.00  0.00     0.000 C 
BRANCH   7   8
ATOM      8  C   UNL     1      20.875  -8.952  14.420  1.00  0.00    -0.000 C 
BRANCH   8   9
ATOM      9  C   UNL     1      19.362  -8.644  14.391  1.00  0.00    -0.000 C 
BRANCH   9  10
ATOM     10  C   UNL     1      18.649  -8.985  13.069  1.00  0.00    -0.000 C 
BRANCH  10  11
ATOM     11  C   UNL     1      17.871 -10.315  13.082  1.00  0.00    -0.000 C 
BRANCH  11  12
ATOM     12  C   UNL     1      17.846 -11.030  11.714  1.00  0.00    -0.000 C 
BRANCH  12  13
ATOM     13  C   UNL     1      18.800 -12.236  11.663  1.00  0.00    -0.000 C 
BRANCH  13  14
ATOM     14  C   UNL     1      18.708 -13.008  10.338  1.00  0.00    -0.000 C 
BRANCH  14  15
ATOM     15  C   UNL     1      17.682 -12.402   9.367  1.00  0.00    -0.003 C 
ATOM     16  C   UNL     1      17.870 -12.949   7.954  1.00  0.00     0.004 C 
ENDBRANCH  14  15
ENDBRANCH  13  14
ENDBRANCH  12  13
ENDBRANCH  11  12
ENDBRANCH  10  11
ENDBRANCH   9  10
ENDBRANCH   8   9
ENDBRANCH   7   8
ENDBRANCH   6   7
ENDBRANCH   5   6
ENDBRANCH   4   5
ENDBRANCH   3   4
ENDBRANCH   2   3
ENDBRANCH   1   2
BRANCH   1  17
ATOM     17  C   UNL     1      18.599  -3.433  20.340  1.00  0.00     0.000 C 
BRANCH  17  18
ATOM     18  C   UNL     1      19.614  -3.354  21.499  1.00  0.00     0.000 C 
BRANCH  18  19
ATOM     19  C   UNL     1      20.972  -2.723  21.140  1.00  0.00     0.000 C 
BRANCH  19  20
ATOM     20  C   UNL     1      20.877  -1.722  19.978  1.00  0.00     0.000 C 
BRANCH  20  21
ATOM     21  C   UNL     1      21.168  -0.292  20.457  1.00  0.00     0.000 C 
BRANCH  21  22
ATOM     22  C   UNL     1      20.465   0.036  21.786  1.00  0.00     0.000 C 
BRANCH  22  23
ATOM     23  C   UNL     1      19.154   0.815  21.581  1.00  0.00     0.000 C 
BRANCH  23  24
ATOM     24  C   UNL     1      17.905  -0.039  21.893  1.00  0.00     0.000 C 
BRANCH  24  25
ATOM     25  C   UNL     1      16.943  -0.192  20.700  1.00  0.00     0.000 C 
BRANCH  25  26
ATOM     26  C   UNL     1      17.582   0.024  19.315  1.00  0.00     0.000 C 
BRANCH  26  27
ATOM     27  C   UNL     1      17.205  -1.028  18.255  1.00  0.00     0.002 C 
BRANCH  27  28
ATOM     28  C   UNL     1      15.767  -1.546  18.407  1.00  0.00     0.028 C 
BRANCH  28  29
ATOM     29  C   UNL     1      15.587  -2.887  17.695  1.00  0.00     0.156 C 
BRANCH  29  30
ATOM     30  O   UNL     1      14.973  -3.799  18.564  1.00  0.00    -0.396 OA
ATOM     31  H   UNL     1      15.235  -3.526  19.483  1.00  0.00     0.210 HD
ENDBRANCH  29  30
ENDBRANCH  28  29
ENDBRANCH  27  28
ENDBRANCH  26  27
ENDBRANCH  25  26
ENDBRANCH  24  25
ENDBRANCH  23  24
ENDBRANCH  22  23
ENDBRANCH  21  22
ENDBRANCH  20  21
ENDBRANCH  19  20
ENDBRANCH  18  19
ENDBRANCH  17  18
ENDBRANCH   1  17
TORSDOF 28
ENDMDL
MODEL 8
REMARK VINA RESULT:    -4.702      5.122      8.430
REMARK INTER + INTRA:         -17.267
REMARK INTER:                 -14.965
REMARK INTRA:                  -2.301
REMARK UNBOUND:                -5.005
REMARK SMILES CCCCCCCCCCCCCCCCCCCCCCCCCCCCCO
REMARK SMILES IDX 16 1 15 2 14 3 13 4 12 5 11 6 10 7 9 8 8 9 7 10 6 11 5 12
REMARK SMILES IDX 4 13 3 14 2 15 1 16 17 17 18 18 19 19 20 20 21 21 22 22
REMARK SMILES IDX 23 23 24 24 25 25 26 26 27 27 28 28 29 29 30 30
REMARK H PARENT 30 31
REMARK Flexibility Score: inf
ROOT
ATOM      1  C   UNL     1      17.695  -2.917  17.403  1.00  0.00     0.000 C 
ENDROOT
BRANCH   1   2
ATOM      2  C   UNL     1      16.234  -3.250  17.744  1.00  0.00     0.000 C 
BRANCH   2   3
ATOM      3  C   UNL     1      16.038  -4.715  18.175  1.00  0.00     0.000 C 
BRANCH   3   4
ATOM      4  C   UNL     1      14.702  -5.354  17.744  1.00  0.00     0.000 C 
BRANCH   4   5
ATOM      5  C   UNL     1      14.768  -6.225  16.473  1.00  0.00     0.000 C 
BRANCH   5   6
ATOM      6  C   UNL     1      16.146  -6.274  15.789  1.00  0.00     0.000 C 
BRANCH   6   7
ATOM      7  C   UNL     1      16.276  -7.439  14.796  1.00  0.00     0.000 C 
BRANCH   7   8
ATOM      8  C   UNL     1      17.727  -7.929  14.630  1.00  0.00    -0.000 C 
BRANCH   8   9
ATOM      9  C   UNL     1      17.906  -9.461  14.564  1.00  0.00    -0.000 C 
BRANCH   9  10
ATOM     10  C   UNL     1      18.916  -9.959  13.514  1.00  0.00    -0.000 C 
BRANCH  10  11
ATOM     11  C   UNL     1      18.308 -10.827  12.396  1.00  0.00    -0.000 C 
BRANCH  11  12
ATOM     12  C   UNL     1      19.173 -12.050  12.021  1.00  0.00    -0.000 C 
BRANCH  12  13
ATOM     13  C   UNL     1      18.673 -12.755  10.748  1.00  0.00    -0.000 C 
BRANCH  13  14
ATOM     14  C   UNL     1      18.141 -14.170  11.025  1.00  0.00    -0.000 C 
BRANCH  14  15
ATOM     15  C   UNL     1      18.966 -15.262  10.326  1.00  0.00    -0.003 C 
ATOM     16  C   UNL     1      19.988 -15.876  11.280  1.00  0.00     0.004 C 
ENDBRANCH  14  15
ENDBRANCH  13  14
ENDBRANCH  12  13
ENDBRANCH  11  12
ENDBRANCH  10  11
ENDBRANCH   9  10
ENDBRANCH   8   9
ENDBRANCH   7   8
ENDBRANCH   6   7
ENDBRANCH   5   6
ENDBRANCH   4   5
ENDBRANCH   3   4
ENDBRANCH   2   3
ENDBRANCH   1   2
BRANCH   1  17
ATOM     17  C   UNL     1      18.020  -1.421  17.568  1.00  0.00     0.000 C 
BRANCH  17  18
ATOM     18  C   UNL     1      16.865  -0.552  18.105  1.00  0.00     0.000 C 
BRANCH  18  19
ATOM     19  C   UNL     1      17.285   0.578  19.064  1.00  0.00     0.000 C 
BRANCH  19  20
ATOM     20  C   UNL     1      17.668   0.065  20.460  1.00  0.00     0.000 C 
BRANCH  20  21
ATOM     21  C   UNL     1      19.006   0.663  20.920  1.00  0.00     0.000 C 
BRANCH  21  22
ATOM     22  C   UNL     1      19.098   0.789  22.450  1.00  0.00     0.000 C 
BRANCH  22  23
ATOM     23  C   UNL     1      20.434   0.263  23.004  1.00  0.00     0.000 C 
BRANCH  23  24
ATOM     24  C   UNL     1      20.275  -1.081  23.748  1.00  0.00     0.000 C 
BRANCH  24  25
ATOM     25  C   UNL     1      21.266  -2.167  23.289  1.00  0.00     0.000 C 
BRANCH  25  26
ATOM     26  C   UNL     1      20.625  -3.380  22.588  1.00  0.00     0.000 C 
BRANCH  26  27
ATOM     27  C   UNL     1      19.641  -3.032  21.457  1.00  0.00     0.002 C 
BRANCH  27  28
ATOM     28  C   UNL     1      20.344  -2.636  20.149  1.00  0.00     0.028 C 
BRANCH  28  29
ATOM     29  C   UNL     1      20.766  -3.871  19.355  1.00  0.00     0.156 C 
BRANCH  29  30
ATOM     30  O   UNL     1      22.086  -3.714  18.911  1.00  0.00    -0.396 OA
ATOM     31  H   UNL     1      22.048  -3.725  17.918  1.00  0.00     0.210 HD
ENDBRANCH  29  30
ENDBRANCH  28  29
ENDBRANCH  27  28
ENDBRANCH  26  27
ENDBRANCH  25  26
ENDBRANCH  24  25
ENDBRANCH  23  24
ENDBRANCH  22  23
ENDBRANCH  21  22
ENDBRANCH  20  21
ENDBRANCH  19  20
ENDBRANCH  18  19
ENDBRANCH  17  18
ENDBRANCH   1  17
TORSDOF 28
ENDMDL
MODEL 9
REMARK VINA RESULT:    -4.670      7.871     11.533
REMARK INTER + INTRA:         -17.183
REMARK INTER:                 -15.307
REMARK INTRA:                  -1.876
REMARK UNBOUND:                -5.005
REMARK SMILES CCCCCCCCCCCCCCCCCCCCCCCCCCCCCO
REMARK SMILES IDX 16 1 15 2 14 3 13 4 12 5 11 6 10 7 9 8 8 9 7 10 6 11 5 12
REMARK SMILES IDX 4 13 3 14 2 15 1 16 17 17 18 18 19 19 20 20 21 21 22 22
REMARK SMILES IDX 23 23 24 24 25 25 26 26 27 27 28 28 29 29 30 30
REMARK H PARENT 30 31
REMARK Flexibility Score: inf
ROOT
ATOM      1  C   UNL     1      16.250  -5.840  15.931  1.00  0.00     0.000 C 
ENDROOT
BRANCH   1   2
ATOM      2  C   UNL     1      16.071  -7.114  15.090  1.00  0.00     0.000 C 
BRANCH   2   3
ATOM      3  C   UNL     1      17.408  -7.777  14.713  1.00  0.00     0.000 C 
BRANCH   3   4
ATOM      4  C   UNL     1      17.288  -9.096  13.924  1.00  0.00     0.000 C 
BRANCH   4   5
ATOM      5  C   UNL     1      18.415 -10.118  14.174  1.00  0.00     0.000 C 
BRANCH   5   6
ATOM      6  C   UNL     1      19.301 -10.421  12.953  1.00  0.00     0.000 C 
BRANCH   6   7
ATOM      7  C   UNL     1      19.200 -11.885  12.493  1.00  0.00     0.000 C 
BRANCH   7   8
ATOM      8  C   UNL     1      18.440 -12.046  11.164  1.00  0.00    -0.000 C 
BRANCH   8   9
ATOM      9  C   UNL     1      17.981 -13.483  10.833  1.00  0.00    -0.000 C 
BRANCH   9  10
ATOM     10  C   UNL     1      18.272 -13.949   9.394  1.00  0.00    -0.000 C 
BRANCH  10  11
ATOM     11  C   UNL     1      17.372 -13.314   8.317  1.00  0.00    -0.000 C 
BRANCH  11  12
ATOM     12  C   UNL     1      18.035 -13.233   6.925  1.00  0.00    -0.000 C 
BRANCH  12  13
ATOM     13  C   UNL     1      19.169 -14.259   6.754  1.00  0.00    -0.000 C 
BRANCH  13  14
ATOM     14  C   UNL     1      19.532 -14.500   5.281  1.00  0.00    -0.000 C 
BRANCH  14  15
ATOM     15  C   UNL     1      18.553 -15.453   4.576  1.00  0.00    -0.003 C 
ATOM     16  C   UNL     1      19.122 -16.867   4.498  1.00  0.00     0.004 C 
ENDBRANCH  14  15
ENDBRANCH  13  14
ENDBRANCH  12  13
ENDBRANCH  11  12
ENDBRANCH  10  11
ENDBRANCH   9  10
ENDBRANCH   8   9
ENDBRANCH   7   8
ENDBRANCH   6   7
ENDBRANCH   5   6
ENDBRANCH   4   5
ENDBRANCH   3   4
ENDBRANCH   2   3
ENDBRANCH   1   2
BRANCH   1  17
ATOM     17  C   UNL     1      15.114  -5.631  16.949  1.00  0.00     0.000 C 
BRANCH  17  18
ATOM     18  C   UNL     1      15.428  -4.647  18.094  1.00  0.00     0.000 C 
BRANCH  18  19
ATOM     19  C   UNL     1      15.895  -3.249  17.648  1.00  0.00     0.000 C 
BRANCH  19  20
ATOM     20  C   UNL     1      17.154  -2.776  18.391  1.00  0.00     0.000 C 
BRANCH  20  21
ATOM     21  C   UNL     1      18.123  -2.064  17.436  1.00  0.00     0.000 C 
BRANCH  21  22
ATOM     22  C   UNL     1      19.088  -1.120  18.174  1.00  0.00     0.000 C 
BRANCH  22  23
ATOM     23  C   UNL     1      19.081  -1.346  19.697  1.00  0.00     0.000 C 
BRANCH  23  24
ATOM     24  C   UNL     1      20.504  -1.502  20.276  1.00  0.00     0.000 C 
BRANCH  24  25
ATOM     25  C   UNL     1      20.844  -2.939  20.710  1.00  0.00     0.000 C 
BRANCH  25  26
ATOM     26  C   UNL     1      21.432  -3.833  19.601  1.00  0.00     0.000 C 
BRANCH  26  27
ATOM     27  C   UNL     1      20.398  -4.668  18.822  1.00  0.00     0.002 C 
BRANCH  27  28
ATOM     28  C   UNL     1      20.734  -4.798  17.329  1.00  0.00     0.028 C 
BRANCH  28  29
ATOM     29  C   UNL     1      22.239  -4.965  17.116  1.00  0.00     0.156 C 
BRANCH  29  30
ATOM     30  O   UNL     1      22.773  -3.776  16.601  1.00  0.00    -0.396 OA
ATOM     31  H   UNL     1      23.299  -4.033  15.799  1.00  0.00     0.210 HD
ENDBRANCH  29  30
ENDBRANCH  28  29
ENDBRANCH  27  28
ENDBRANCH  26  27
ENDBRANCH  25  26
ENDBRANCH  24  25
ENDBRANCH  23  24
ENDBRANCH  22  23
ENDBRANCH  21  22
ENDBRANCH  20  21
ENDBRANCH  19  20
ENDBRANCH  18  19
ENDBRANCH  17  18
ENDBRANCH   1  17
TORSDOF 28
ENDMDL
