MODEL 1
REMARK VINA RESULT:    -5.619      0.000      0.000
REMARK INTER + INTRA:          -7.111
REMARK INTER:                  -7.425
REMARK INTRA:                   0.314
REMARK UNBOUND:                 0.314
REMARK SMILES CC(C)=CCC[C@H](C(=O)[O-])[C@@H]1CC[C@@]2(C)C3=C(CC[C@@]12C)[C@@]1(C)CC[C@H](O)C(C)(C)[C@@H]1CC3
REMARK SMILES IDX 6 1 7 2 8 3 9 4 10 5 11 6 12 7 20 8 13 9 14 10 19 11 21 12
REMARK SMILES IDX 15 13 16 14 18 15 17 16 33 17 22 18 32 19 31 20 24 21 23 22
REMARK SMILES IDX 28 23 25 24 26 25 29 26 30 27 27 28 5 30 4 31 2 32 1 33 3 34
REMARK H PARENT 27 29
REMARK Flexibility Score: inf
ROOT
ATOM      1  C   UNL     1       1.912  39.720  12.240  1.00  0.00     0.014 C 
ENDROOT
BRANCH   1   2
ATOM      2  C   UNL     1       3.103  40.680  11.985  1.00  0.00     0.039 C 
BRANCH   2   3
ATOM      3  C   UNL     1       4.337  40.110  12.660  1.00  0.00     0.045 C 
ATOM      4  O   UNL     1       5.026  40.797  13.465  1.00  0.00    -0.550 OA
ATOM      5  O   UNL     1       4.734  38.818  12.368  1.00  0.00    -0.550 OA
ENDBRANCH   2   3
BRANCH   2   6
ATOM      6  C   UNL     1       2.816  42.167  12.405  1.00  0.00     0.004 C 
ATOM      7  C   UNL     1       1.299  42.511  12.433  1.00  0.00     0.006 C 
ATOM      8  C   UNL     1       3.478  43.279  11.494  1.00  0.00    -0.020 C 
ATOM      9  C   UNL     1       1.155  43.897  11.830  1.00  0.00     0.012 C 
ATOM     10  C   UNL     1       2.272  43.949  10.765  1.00  0.00    -0.006 C 
ATOM     11  C   UNL     1       4.157  44.283  12.456  1.00  0.00     0.012 C 
ATOM     12  C   UNL     1       4.568  42.819  10.481  1.00  0.00     0.012 C 
ATOM     13  C   UNL     1       1.833  43.067   9.540  1.00  0.00     0.017 C 
ATOM     14  C   UNL     1       2.535  45.410  10.297  1.00  0.00    -0.064 C 
ATOM     15  C   UNL     1       4.665  45.493  11.711  1.00  0.00     0.032 C 
ATOM     16  C   UNL     1       3.636  46.135  10.772  1.00  0.00    -0.064 C 
ATOM     17  C   UNL     1       1.609  45.991   9.196  1.00  0.00     0.032 C 
ATOM     18  C   UNL     1       3.855  47.601  10.284  1.00  0.00    -0.008 C 
ATOM     19  C   UNL     1       1.971  47.381   8.602  1.00  0.00     0.009 C 
ATOM     20  C   UNL     1       3.460  47.639   8.777  1.00  0.00     0.007 C 
ATOM     21  C   UNL     1       5.368  48.054  10.415  1.00  0.00     0.014 C 
ATOM     22  C   UNL     1       2.979  48.562  11.205  1.00  0.00     0.016 C 
ATOM     23  C   UNL     1       4.146  48.772   7.881  1.00  0.00    -0.006 C 
ATOM     24  C   UNL     1       6.165  47.719   9.146  1.00  0.00     0.033 C 
ATOM     25  C   UNL     1       5.737  48.650   7.994  1.00  0.00     0.120 C 
ATOM     26  C   UNL     1       3.664  50.187   8.258  1.00  0.00     0.014 C 
ATOM     27  C   UNL     1       3.734  48.573   6.383  1.00  0.00     0.014 C 
BRANCH  25  28
ATOM     28  O   UNL     1       6.341  49.908   8.228  1.00  0.00    -0.393 OA
ATOM     29  H   UNL     1       6.926  50.085   7.442  1.00  0.00     0.210 HD
ENDBRANCH  25  28
ENDBRANCH   2   6
ENDBRANCH   1   2
BRANCH   1  30
ATOM     30  C   UNL     1       2.294  38.385  12.907  1.00  0.00     0.028 C 
BRANCH  30  31
ATOM     31  C   UNL     1       1.872  37.198  12.041  1.00  0.00    -0.028 C 
ATOM     32  C   UNL     1       0.640  36.677  12.026  1.00  0.00    -0.080 C 
ATOM     33  C   UNL     1      -0.543  37.376  12.644  1.00  0.00     0.039 C 
ATOM     34  C   UNL     1       0.437  35.365  11.307  1.00  0.00     0.039 C 
ENDBRANCH  30  31
ENDBRANCH   1  30
TORSDOF 6
ENDMDL
MODEL 2
REMARK VINA RESULT:    -4.843      1.089      1.741
REMARK INTER + INTRA:          -6.086
REMARK INTER:                  -5.487
REMARK INTRA:                  -0.600
REMARK UNBOUND:                 0.314
REMARK SMILES CC(C)=CCC[C@H](C(=O)[O-])[C@@H]1CC[C@@]2(C)C3=C(CC[C@@]12C)[C@@]1(C)CC[C@H](O)C(C)(C)[C@@H]1CC3
REMARK SMILES IDX 6 1 7 2 8 3 9 4 10 5 11 6 12 7 20 8 13 9 14 10 19 11 21 12
REMARK SMILES IDX 15 13 16 14 18 15 17 16 33 17 22 18 32 19 31 20 24 21 23 22
REMARK SMILES IDX 28 23 25 24 26 25 29 26 30 27 27 28 5 30 4 31 2 32 1 33 3 34
REMARK H PARENT 27 29
REMARK Flexibility Score: inf
ROOT
ATOM      1  C   UNL     1       1.992  39.782  11.849  1.00  0.00     0.014 C 
ENDROOT
BRANCH   1   2
ATOM      2  C   UNL     1       3.197  40.755  11.775  1.00  0.00     0.039 C 
BRANCH   2   3
ATOM      3  C   UNL     1       4.349  40.160  12.563  1.00  0.00     0.045 C 
ATOM      4  O   UNL     1       4.676  38.946  12.440  1.00  0.00    -0.550 OA
ATOM      5  O   UNL     1       5.042  40.957  13.456  1.00  0.00    -0.550 OA
ENDBRANCH   2   3
BRANCH   2   6
ATOM      6  C   UNL     1       2.852  42.222  12.223  1.00  0.00     0.004 C 
ATOM      7  C   UNL     1       1.327  42.526  12.190  1.00  0.00     0.006 C 
ATOM      8  C   UNL     1       3.524  43.376  11.374  1.00  0.00    -0.020 C 
ATOM      9  C   UNL     1       1.173  43.925  11.620  1.00  0.00     0.012 C 
ATOM     10  C   UNL     1       2.335  44.036  10.609  1.00  0.00    -0.006 C 
ATOM     11  C   UNL     1       4.132  44.368  12.393  1.00  0.00     0.012 C 
ATOM     12  C   UNL     1       4.670  42.973  10.399  1.00  0.00     0.012 C 
ATOM     13  C   UNL     1       1.975  43.179   9.341  1.00  0.00     0.017 C 
ATOM     14  C   UNL     1       2.580  45.516  10.194  1.00  0.00    -0.064 C 
ATOM     15  C   UNL     1       4.641  45.612  11.706  1.00  0.00     0.032 C 
ATOM     16  C   UNL     1       3.639  46.255  10.739  1.00  0.00    -0.064 C 
ATOM     17  C   UNL     1       1.690  46.105   9.069  1.00  0.00     0.032 C 
ATOM     18  C   UNL     1       3.841  47.740  10.302  1.00  0.00    -0.008 C 
ATOM     19  C   UNL     1       2.041  47.521   8.531  1.00  0.00     0.009 C 
ATOM     20  C   UNL     1       3.513  47.811   8.780  1.00  0.00     0.007 C 
ATOM     21  C   UNL     1       5.334  48.226  10.514  1.00  0.00     0.014 C 
ATOM     22  C   UNL     1       2.899  48.651  11.208  1.00  0.00     0.016 C 
ATOM     23  C   UNL     1       4.209  48.986   7.948  1.00  0.00    -0.006 C 
ATOM     24  C   UNL     1       6.196  47.948   9.274  1.00  0.00     0.033 C 
ATOM     25  C   UNL     1       5.795  48.901   8.130  1.00  0.00     0.120 C 
ATOM     26  C   UNL     1       3.672  50.377   8.341  1.00  0.00     0.014 C 
ATOM     27  C   UNL     1       3.869  48.820   6.428  1.00  0.00     0.014 C 
BRANCH  25  28
ATOM     28  O   UNL     1       6.355  50.166   8.426  1.00  0.00    -0.393 OA
ATOM     29  H   UNL     1       6.031  50.407   9.336  1.00  0.00     0.210 HD
ENDBRANCH  25  28
ENDBRANCH   2   6
ENDBRANCH   1   2
BRANCH   1  30
ATOM     30  C   UNL     1       1.862  39.020  13.182  1.00  0.00     0.028 C 
BRANCH  30  31
ATOM     31  C   UNL     1       1.231  39.902  14.259  1.00  0.00    -0.028 C 
ATOM     32  C   UNL     1      -0.074  40.184  14.333  1.00  0.00    -0.080 C 
ATOM     33  C   UNL     1      -1.111  39.436  13.535  1.00  0.00     0.039 C 
ATOM     34  C   UNL     1      -0.512  41.257  15.301  1.00  0.00     0.039 C 
ENDBRANCH  30  31
ENDBRANCH   1  30
TORSDOF 6
ENDMDL
MODEL 3
REMARK VINA RESULT:    -4.063      1.905      2.951
REMARK INTER + INTRA:          -5.055
REMARK INTER:                  -4.469
REMARK INTRA:                  -0.587
REMARK UNBOUND:                 0.314
REMARK SMILES CC(C)=CCC[C@H](C(=O)[O-])[C@@H]1CC[C@@]2(C)C3=C(CC[C@@]12C)[C@@]1(C)CC[C@H](O)C(C)(C)[C@@H]1CC3
REMARK SMILES IDX 6 1 7 2 8 3 9 4 10 5 11 6 12 7 20 8 13 9 14 10 19 11 21 12
REMARK SMILES IDX 15 13 16 14 18 15 17 16 33 17 22 18 32 19 31 20 24 21 23 22
REMARK SMILES IDX 28 23 25 24 26 25 29 26 30 27 27 28 5 30 4 31 2 32 1 33 3 34
REMARK H PARENT 27 29
REMARK Flexibility Score: inf
ROOT
ATOM      1  C   UNL     1       2.163  39.899  13.078  1.00  0.00     0.014 C 
ENDROOT
BRANCH   1   2
ATOM      2  C   UNL     1       1.649  41.359  13.177  1.00  0.00     0.039 C 
BRANCH   2   3
ATOM      3  C   UNL     1       0.377  41.369  14.005  1.00  0.00     0.045 C 
ATOM      4  O   UNL     1       0.377  41.020  15.219  1.00  0.00    -0.550 OA
ATOM      5  O   UNL     1      -0.815  41.744  13.412  1.00  0.00    -0.550 OA
ENDBRANCH   2   3
BRANCH   2   6
ATOM      6  C   UNL     1       1.467  42.059  11.781  1.00  0.00     0.004 C 
ATOM      7  C   UNL     1       2.229  41.338  10.633  1.00  0.00     0.006 C 
ATOM      8  C   UNL     1       1.932  43.570  11.704  1.00  0.00    -0.020 C 
ATOM      9  C   UNL     1       2.849  42.424   9.772  1.00  0.00     0.012 C 
ATOM     10  C   UNL     1       3.191  43.540  10.783  1.00  0.00    -0.006 C 
ATOM     11  C   UNL     1       0.780  44.347  11.025  1.00  0.00     0.012 C 
ATOM     12  C   UNL     1       2.232  44.296  13.049  1.00  0.00     0.012 C 
ATOM     13  C   UNL     1       4.449  43.093  11.613  1.00  0.00     0.017 C 
ATOM     14  C   UNL     1       3.488  44.885  10.057  1.00  0.00    -0.064 C 
ATOM     15  C   UNL     1       1.183  45.769  10.726  1.00  0.00     0.032 C 
ATOM     16  C   UNL     1       2.531  45.906  10.005  1.00  0.00    -0.064 C 
ATOM     17  C   UNL     1       4.920  45.101   9.501  1.00  0.00     0.032 C 
ATOM     18  C   UNL     1       2.868  47.234   9.257  1.00  0.00    -0.008 C 
ATOM     19  C   UNL     1       5.273  46.503   8.930  1.00  0.00     0.009 C 
ATOM     20  C   UNL     1       4.365  47.551   9.553  1.00  0.00     0.007 C 
ATOM     21  C   UNL     1       1.988  48.448   9.770  1.00  0.00     0.014 C 
ATOM     22  C   UNL     1       2.548  47.022   7.710  1.00  0.00     0.016 C 
ATOM     23  C   UNL     1       4.805  49.087   9.470  1.00  0.00    -0.006 C 
ATOM     24  C   UNL     1       2.661  49.169  10.947  1.00  0.00     0.033 C 
ATOM     25  C   UNL     1       3.889  49.958  10.450  1.00  0.00     0.120 C 
ATOM     26  C   UNL     1       4.759  49.630   8.029  1.00  0.00     0.014 C 
ATOM     27  C   UNL     1       6.297  49.226   9.924  1.00  0.00     0.014 C 
BRANCH  25  28
ATOM     28  O   UNL     1       3.404  51.124   9.812  1.00  0.00    -0.393 OA
ATOM     29  H   UNL     1       3.565  51.874  10.446  1.00  0.00     0.210 HD
ENDBRANCH  25  28
ENDBRANCH   2   6
ENDBRANCH   1   2
BRANCH   1  30
ATOM     30  C   UNL     1       1.092  38.822  13.329  1.00  0.00     0.028 C 
BRANCH  30  31
ATOM     31  C   UNL     1       1.309  37.610  12.424  1.00  0.00    -0.028 C 
ATOM     32  C   UNL     1       0.358  36.723  12.111  1.00  0.00    -0.080 C 
ATOM     33  C   UNL     1      -1.104  36.973  12.380  1.00  0.00     0.039 C 
ATOM     34  C   UNL     1       0.779  35.455  11.408  1.00  0.00     0.039 C 
ENDBRANCH  30  31
ENDBRANCH   1  30
TORSDOF 6
ENDMDL
MODEL 4
REMARK VINA RESULT:    -3.366      2.017      3.650
REMARK INTER + INTRA:          -4.135
REMARK INTER:                  -5.601
REMARK INTRA:                   1.466
REMARK UNBOUND:                 0.314
REMARK SMILES CC(C)=CCC[C@H](C(=O)[O-])[C@@H]1CC[C@@]2(C)C3=C(CC[C@@]12C)[C@@]1(C)CC[C@H](O)C(C)(C)[C@@H]1CC3
REMARK SMILES IDX 6 1 7 2 8 3 9 4 10 5 11 6 12 7 20 8 13 9 14 10 19 11 21 12
REMARK SMILES IDX 15 13 16 14 18 15 17 16 33 17 22 18 32 19 31 20 24 21 23 22
REMARK SMILES IDX 28 23 25 24 26 25 29 26 30 27 27 28 5 30 4 31 2 32 1 33 3 34
REMARK H PARENT 27 29
REMARK Flexibility Score: inf
ROOT
ATOM      1  C   UNL     1       1.819  42.525  13.078  1.00  0.00     0.014 C 
ENDROOT
BRANCH   1   2
ATOM      2  C   UNL     1       2.049  41.571  11.877  1.00  0.00     0.039 C 
BRANCH   2   3
ATOM      3  C   UNL     1       2.902  40.405  12.340  1.00  0.00     0.045 C 
ATOM      4  O   UNL     1       4.097  40.568  12.713  1.00  0.00    -0.550 OA
ATOM      5  O   UNL     1       2.368  39.129  12.330  1.00  0.00    -0.550 OA
ENDBRANCH   2   3
BRANCH   2   6
ATOM      6  C   UNL     1       2.640  42.286  10.608  1.00  0.00     0.004 C 
ATOM      7  C   UNL     1       4.195  42.341  10.608  1.00  0.00     0.006 C 
ATOM      8  C   UNL     1       2.172  43.780  10.379  1.00  0.00    -0.020 C 
ATOM      9  C   UNL     1       4.583  43.721  10.109  1.00  0.00     0.012 C 
ATOM     10  C   UNL     1       3.453  44.631  10.639  1.00  0.00    -0.006 C 
ATOM     11  C   UNL     1       1.745  43.881   8.895  1.00  0.00     0.012 C 
ATOM     12  C   UNL     1       0.970  44.292  11.228  1.00  0.00     0.012 C 
ATOM     13  C   UNL     1       3.657  44.829  12.186  1.00  0.00     0.017 C 
ATOM     14  C   UNL     1       3.463  46.014   9.925  1.00  0.00    -0.064 C 
ATOM     15  C   UNL     1       1.454  45.310   8.507  1.00  0.00     0.032 C 
ATOM     16  C   UNL     1       2.548  46.309   8.906  1.00  0.00    -0.064 C 
ATOM     17  C   UNL     1       4.437  47.096  10.462  1.00  0.00     0.032 C 
ATOM     18  C   UNL     1       2.601  47.705   8.209  1.00  0.00    -0.008 C 
ATOM     19  C   UNL     1       4.331  48.528   9.868  1.00  0.00     0.009 C 
ATOM     20  C   UNL     1       2.931  48.750   9.317  1.00  0.00     0.007 C 
ATOM     21  C   UNL     1       1.213  48.096   7.551  1.00  0.00     0.014 C 
ATOM     22  C   UNL     1       3.687  47.633   7.045  1.00  0.00     0.016 C 
ATOM     23  C   UNL     1       2.443  50.251   9.059  1.00  0.00    -0.006 C 
ATOM     24  C   UNL     1       0.312  48.843   8.545  1.00  0.00     0.033 C 
ATOM     25  C   UNL     1       0.865  50.260   8.795  1.00  0.00     0.120 C 
ATOM     26  C   UNL     1       3.210  50.923   7.904  1.00  0.00     0.014 C 
ATOM     27  C   UNL     1       2.744  51.121  10.326  1.00  0.00     0.014 C 
BRANCH  25  28
ATOM     28  O   UNL     1       0.531  51.043   7.665  1.00  0.00    -0.393 OA
ATOM     29  H   UNL     1       1.389  51.240   7.200  1.00  0.00     0.210 HD
ENDBRANCH  25  28
ENDBRANCH   2   6
ENDBRANCH   1   2
BRANCH   1  30
ATOM     30  C   UNL     1       0.345  42.701  13.486  1.00  0.00     0.028 C 
BRANCH  30  31
ATOM     31  C   UNL     1      -0.434  41.398  13.307  1.00  0.00    -0.028 C 
ATOM     32  C   UNL     1      -0.528  40.442  14.238  1.00  0.00    -0.080 C 
ATOM     33  C   UNL     1      -0.117  40.664  15.671  1.00  0.00     0.039 C 
ATOM     34  C   UNL     1      -1.125  39.117  13.832  1.00  0.00     0.039 C 
ENDBRANCH  30  31
ENDBRANCH   1  30
TORSDOF 6
ENDMDL
