MODEL 1
REMARK VINA RESULT:    -4.429      0.000      0.000
REMARK INTER + INTRA:          -4.558
REMARK INTER:                  -4.558
REMARK INTRA:                   0.000
REMARK UNBOUND:                 0.000
REMARK SMILES Cc1ccccc1O
REMARK SMILES IDX 1 1 2 2 3 3 4 4 5 5 6 6 7 7 8 8
REMARK H PARENT 8 9
REMARK Flexibility Score: inf
ROOT
ATOM      1  C   UNL     1     -26.648 -11.375 -27.964  1.00  0.00     0.048 C 
ATOM      2  C   UNL     1     -26.081 -11.636 -29.330  1.00  0.00    -0.009 A 
ATOM      3  C   UNL     1     -24.787 -11.195 -29.656  1.00  0.00     0.007 A 
ATOM      4  C   UNL     1     -24.258 -11.437 -30.927  1.00  0.00     0.001 A 
ATOM      5  C   UNL     1     -25.013 -12.121 -31.881  1.00  0.00     0.004 A 
ATOM      6  C   UNL     1     -26.301 -12.565 -31.567  1.00  0.00     0.046 A 
ATOM      7  C   UNL     1     -26.840 -12.327 -30.294  1.00  0.00     0.118 A 
ENDROOT
BRANCH   7   8
ATOM      8  O   UNL     1     -28.125 -12.771 -29.984  1.00  0.00    -0.508 OA
ATOM      9  H   UNL     1     -28.339 -13.188 -29.086  1.00  0.00     0.293 HD
ENDBRANCH   7   8
TORSDOF 1
ENDMDL
MODEL 2
REMARK VINA RESULT:    -4.367      1.219      2.495
REMARK INTER + INTRA:          -4.495
REMARK INTER:                  -4.495
REMARK INTRA:                   0.000
REMARK UNBOUND:                 0.000
REMARK SMILES Cc1ccccc1O
REMARK SMILES IDX 1 1 2 2 3 3 4 4 5 5 6 6 7 7 8 8
REMARK H PARENT 8 9
REMARK Flexibility Score: inf
ROOT
ATOM      1  C   UNL     1     -28.109 -12.875 -30.498  1.00  0.00     0.048 C 
ATOM      2  C   UNL     1     -26.909 -12.172 -29.932  1.00  0.00    -0.009 A 
ATOM      3  C   UNL     1     -25.732 -12.054 -30.691  1.00  0.00     0.007 A 
ATOM      4  C   UNL     1     -24.615 -11.401 -30.163  1.00  0.00     0.001 A 
ATOM      5  C   UNL     1     -24.662 -10.859 -28.878  1.00  0.00     0.004 A 
ATOM      6  C   UNL     1     -25.828 -10.969 -28.115  1.00  0.00     0.046 A 
ATOM      7  C   UNL     1     -26.955 -11.624 -28.635  1.00  0.00     0.118 A 
ENDROOT
BRANCH   7   8
ATOM      8  O   UNL     1     -28.115 -11.732 -27.871  1.00  0.00    -0.508 OA
ATOM      9  H   UNL     1     -28.841 -11.026 -27.906  1.00  0.00     0.293 HD
ENDBRANCH   7   8
TORSDOF 1
ENDMDL
MODEL 3
REMARK VINA RESULT:    -4.199     11.290     12.500
REMARK INTER + INTRA:          -4.321
REMARK INTER:                  -4.321
REMARK INTRA:                   0.000
REMARK UNBOUND:                 0.000
REMARK SMILES Cc1ccccc1O
REMARK SMILES IDX 1 1 2 2 3 3 4 4 5 5 6 6 7 7 8 8
REMARK H PARENT 8 9
REMARK Flexibility Score: inf
ROOT
ATOM      1  C   UNL     1     -15.038  -7.059 -27.752  1.00  0.00     0.048 C 
ATOM      2  C   UNL     1     -16.076  -6.114 -27.216  1.00  0.00    -0.009 A 
ATOM      3  C   UNL     1     -17.397  -6.168 -27.693  1.00  0.00     0.007 A 
ATOM      4  C   UNL     1     -18.362  -5.289 -27.194  1.00  0.00     0.001 A 
ATOM      5  C   UNL     1     -18.020  -4.353 -26.217  1.00  0.00     0.004 A 
ATOM      6  C   UNL     1     -16.710  -4.291 -25.735  1.00  0.00     0.046 A 
ATOM      7  C   UNL     1     -15.733  -5.169 -26.230  1.00  0.00     0.118 A 
ENDROOT
BRANCH   7   8
ATOM      8  O   UNL     1     -14.426  -5.105 -25.748  1.00  0.00    -0.508 OA
ATOM      9  H   UNL     1     -14.211  -4.669 -24.859  1.00  0.00     0.293 HD
ENDBRANCH   7   8
TORSDOF 1
ENDMDL
MODEL 4
REMARK VINA RESULT:    -4.195      1.608      3.287
REMARK INTER + INTRA:          -4.318
REMARK INTER:                  -4.318
REMARK INTRA:                   0.000
REMARK UNBOUND:                 0.000
REMARK SMILES Cc1ccccc1O
REMARK SMILES IDX 1 1 2 2 3 3 4 4 5 5 6 6 7 7 8 8
REMARK H PARENT 8 9
REMARK Flexibility Score: inf
ROOT
ATOM      1  C   UNL     1     -24.549 -11.439 -29.698  1.00  0.00     0.048 C 
ATOM      2  C   UNL     1     -25.775 -10.927 -28.997  1.00  0.00    -0.009 A 
ATOM      3  C   UNL     1     -25.771  -9.656 -28.398  1.00  0.00     0.007 A 
ATOM      4  C   UNL     1     -26.912  -9.181 -27.745  1.00  0.00     0.001 A 
ATOM      5  C   UNL     1     -28.065  -9.966 -27.686  1.00  0.00     0.004 A 
ATOM      6  C   UNL     1     -28.080 -11.231 -28.280  1.00  0.00     0.046 A 
ATOM      7  C   UNL     1     -26.939 -11.718 -28.937  1.00  0.00     0.118 A 
ENDROOT
BRANCH   7   8
ATOM      8  O   UNL     1     -26.958 -12.981 -29.528  1.00  0.00    -0.508 OA
ATOM      9  H   UNL     1     -27.742 -13.291 -30.090  1.00  0.00     0.293 HD
ENDBRANCH   7   8
TORSDOF 1
ENDMDL
MODEL 5
REMARK VINA RESULT:    -4.193      2.762      4.234
REMARK INTER + INTRA:          -4.315
REMARK INTER:                  -4.315
REMARK INTRA:                   0.000
REMARK UNBOUND:                 0.000
REMARK SMILES Cc1ccccc1O
REMARK SMILES IDX 1 1 2 2 3 3 4 4 5 5 6 6 7 7 8 8
REMARK H PARENT 8 9
REMARK Flexibility Score: inf
ROOT
ATOM      1  C   UNL     1     -23.675 -12.281 -32.652  1.00  0.00     0.048 C 
ATOM      2  C   UNL     1     -23.861 -11.727 -31.268  1.00  0.00    -0.009 A 
ATOM      3  C   UNL     1     -25.147 -11.634 -30.708  1.00  0.00     0.007 A 
ATOM      4  C   UNL     1     -25.321 -11.118 -29.421  1.00  0.00     0.001 A 
ATOM      5  C   UNL     1     -24.215 -10.693 -28.682  1.00  0.00     0.004 A 
ATOM      6  C   UNL     1     -22.932 -10.782 -29.228  1.00  0.00     0.046 A 
ATOM      7  C   UNL     1     -22.748 -11.298 -30.520  1.00  0.00     0.118 A 
ENDROOT
BRANCH   7   8
ATOM      8  O   UNL     1     -21.466 -11.385 -31.062  1.00  0.00    -0.508 OA
ATOM      9  H   UNL     1     -20.810 -10.615 -30.998  1.00  0.00     0.293 HD
ENDBRANCH   7   8
TORSDOF 1
ENDMDL
MODEL 6
REMARK VINA RESULT:    -4.164      1.232      2.812
REMARK INTER + INTRA:          -4.286
REMARK INTER:                  -4.286
REMARK INTRA:                   0.000
REMARK UNBOUND:                 0.000
REMARK SMILES Cc1ccccc1O
REMARK SMILES IDX 1 1 2 2 3 3 4 4 5 5 6 6 7 7 8 8
REMARK H PARENT 8 9
REMARK Flexibility Score: inf
ROOT
ATOM      1  C   UNL     1     -25.046 -12.178 -32.080  1.00  0.00     0.048 C 
ATOM      2  C   UNL     1     -25.917 -11.902 -30.888  1.00  0.00    -0.009 A 
ATOM      3  C   UNL     1     -25.340 -11.627 -29.636  1.00  0.00     0.007 A 
ATOM      4  C   UNL     1     -26.151 -11.371 -28.527  1.00  0.00     0.001 A 
ATOM      5  C   UNL     1     -27.541 -11.385 -28.656  1.00  0.00     0.004 A 
ATOM      6  C   UNL     1     -28.125 -11.656 -29.896  1.00  0.00     0.046 A 
ATOM      7  C   UNL     1     -27.320 -11.915 -31.016  1.00  0.00     0.118 A 
ENDROOT
BRANCH   7   8
ATOM      8  O   UNL     1     -27.906 -12.185 -32.252  1.00  0.00    -0.508 OA
ATOM      9  H   UNL     1     -28.901 -12.067 -32.403  1.00  0.00     0.293 HD
ENDBRANCH   7   8
TORSDOF 1
ENDMDL
MODEL 7
REMARK VINA RESULT:    -4.138      1.696      2.410
REMARK INTER + INTRA:          -4.259
REMARK INTER:                  -4.259
REMARK INTRA:                   0.000
REMARK UNBOUND:                 0.000
REMARK SMILES Cc1ccccc1O
REMARK SMILES IDX 1 1 2 2 3 3 4 4 5 5 6 6 7 7 8 8
REMARK H PARENT 8 9
REMARK Flexibility Score: inf
ROOT
ATOM      1  C   UNL     1     -26.626 -11.412 -27.932  1.00  0.00     0.048 C 
ATOM      2  C   UNL     1     -26.136 -11.719 -29.318  1.00  0.00    -0.009 A 
ATOM      3  C   UNL     1     -26.959 -12.409 -30.225  1.00  0.00     0.007 A 
ATOM      4  C   UNL     1     -26.503 -12.696 -31.514  1.00  0.00     0.001 A 
ATOM      5  C   UNL     1     -25.225 -12.297 -31.911  1.00  0.00     0.004 A 
ATOM      6  C   UNL     1     -24.399 -11.610 -31.018  1.00  0.00     0.046 A 
ATOM      7  C   UNL     1     -24.847 -11.317 -29.720  1.00  0.00     0.118 A 
ENDROOT
BRANCH   7   8
ATOM      8  O   UNL     1     -24.020 -10.632 -28.832  1.00  0.00    -0.508 OA
ATOM      9  H   UNL     1     -23.089 -10.966 -28.610  1.00  0.00     0.293 HD
ENDBRANCH   7   8
TORSDOF 1
ENDMDL
MODEL 8
REMARK VINA RESULT:    -4.051      1.257      2.243
REMARK INTER + INTRA:          -4.170
REMARK INTER:                  -4.170
REMARK INTRA:                   0.000
REMARK UNBOUND:                 0.000
REMARK SMILES Cc1ccccc1O
REMARK SMILES IDX 1 1 2 2 3 3 4 4 5 5 6 6 7 7 8 8
REMARK H PARENT 8 9
REMARK Flexibility Score: inf
ROOT
ATOM      1  C   UNL     1     -28.125 -12.275 -30.077  1.00  0.00     0.048 C 
ATOM      2  C   UNL     1     -26.676 -12.064 -30.409  1.00  0.00    -0.009 A 
ATOM      3  C   UNL     1     -26.200 -12.324 -31.706  1.00  0.00     0.007 A 
ATOM      4  C   UNL     1     -24.852 -12.128 -32.016  1.00  0.00     0.001 A 
ATOM      5  C   UNL     1     -23.967 -11.671 -31.037  1.00  0.00     0.004 A 
ATOM      6  C   UNL     1     -24.429 -11.409 -29.744  1.00  0.00     0.046 A 
ATOM      7  C   UNL     1     -25.781 -11.603 -29.424  1.00  0.00     0.118 A 
ENDROOT
BRANCH   7   8
ATOM      8  O   UNL     1     -26.239 -11.341 -28.133  1.00  0.00    -0.508 OA
ATOM      9  H   UNL     1     -26.933 -10.625 -27.952  1.00  0.00     0.293 HD
ENDBRANCH   7   8
TORSDOF 1
ENDMDL
MODEL 9
REMARK VINA RESULT:    -3.999      1.932      3.565
REMARK INTER + INTRA:          -4.116
REMARK INTER:                  -4.116
REMARK INTRA:                   0.000
REMARK UNBOUND:                 0.000
REMARK SMILES Cc1ccccc1O
REMARK SMILES IDX 1 1 2 2 3 3 4 4 5 5 6 6 7 7 8 8
REMARK H PARENT 8 9
REMARK Flexibility Score: inf
ROOT
ATOM      1  C   UNL     1     -24.070 -12.160 -32.702  1.00  0.00     0.048 C 
ATOM      2  C   UNL     1     -25.058 -12.191 -31.572  1.00  0.00    -0.009 A 
ATOM      3  C   UNL     1     -26.367 -12.656 -31.787  1.00  0.00     0.007 A 
ATOM      4  C   UNL     1     -27.287 -12.685 -30.735  1.00  0.00     0.001 A 
ATOM      5  C   UNL     1     -26.911 -12.252 -29.462  1.00  0.00     0.004 A 
ATOM      6  C   UNL     1     -25.611 -11.789 -29.237  1.00  0.00     0.046 A 
ATOM      7  C   UNL     1     -24.680 -11.756 -30.286  1.00  0.00     0.118 A 
ENDROOT
BRANCH   7   8
ATOM      8  O   UNL     1     -23.385 -11.293 -30.058  1.00  0.00    -0.508 OA
ATOM      9  H   UNL     1     -22.745 -11.788 -29.448  1.00  0.00     0.293 HD
ENDBRANCH   7   8
TORSDOF 1
ENDMDL
