MODEL 1
REMARK VINA RESULT:    -5.981      0.000      0.000
REMARK INTER + INTRA:         -14.969
REMARK INTER:                 -12.975
REMARK INTRA:                  -1.995
REMARK UNBOUND:                -1.995
REMARK SMILES CCCCCCCCCCCCCCCCCCCCCC(=O)[O-]
REMARK SMILES IDX 12 1 11 2 10 3 9 4 8 5 7 6 6 7 5 8 4 9 3 10 2 11 1 12 13 13
REMARK SMILES IDX 14 14 15 15 16 16 17 17 18 18 19 19 20 20 21 21 22 22 23 23
REMARK SMILES IDX 24 24
REMARK H PARENT
REMARK Flexibility Score: inf
ROOT
ATOM      1  C   UNL     1      89.600 326.496 200.630  1.00  0.00     0.000 C 
ENDROOT
BRANCH   1   2
ATOM      2  C   UNL     1      89.163 326.481 199.154  1.00  0.00     0.000 C 
BRANCH   2   3
ATOM      3  C   UNL     1      89.263 325.089 198.490  1.00  0.00     0.000 C 
BRANCH   3   4
ATOM      4  C   UNL     1      88.550 325.045 197.125  1.00  0.00    -0.000 C 
BRANCH   4   5
ATOM      5  C   UNL     1      88.362 326.451 196.514  1.00  0.00    -0.000 C 
BRANCH   5   6
ATOM      6  C   UNL     1      86.990 326.663 195.848  1.00  0.00    -0.000 C 
BRANCH   6   7
ATOM      7  C   UNL     1      87.008 326.641 194.310  1.00  0.00    -0.000 C 
BRANCH   7   8
ATOM      8  C   UNL     1      86.134 325.523 193.720  1.00  0.00    -0.000 C 
BRANCH   8   9
ATOM      9  C   UNL     1      86.943 324.231 193.546  1.00  0.00    -0.000 C 
BRANCH   9  10
ATOM     10  C   UNL     1      88.362 324.482 193.008  1.00  0.00    -0.000 C 
BRANCH  10  11
ATOM     11  C   UNL     1      88.405 324.768 191.493  1.00  0.00    -0.003 C 
ATOM     12  C   UNL     1      87.958 323.567 190.661  1.00  0.00     0.004 C 
ENDBRANCH  10  11
ENDBRANCH   9  10
ENDBRANCH   8   9
ENDBRANCH   7   8
ENDBRANCH   6   7
ENDBRANCH   5   6
ENDBRANCH   4   5
ENDBRANCH   3   4
ENDBRANCH   2   3
ENDBRANCH   1   2
BRANCH   1  13
ATOM     13  C   UNL     1      88.518 325.942 201.574  1.00  0.00     0.000 C 
BRANCH  13  14
ATOM     14  C   UNL     1      88.789 324.492 202.006  1.00  0.00     0.000 C 
BRANCH  14  15
ATOM     15  C   UNL     1      87.545 323.594 201.895  1.00  0.00     0.000 C 
BRANCH  15  16
ATOM     16  C   UNL     1      86.492 323.899 202.976  1.00  0.00     0.000 C 
BRANCH  16  17
ATOM     17  C   UNL     1      86.899 323.514 204.414  1.00  0.00     0.000 C 
BRANCH  17  18
ATOM     18  C   UNL     1      86.987 324.690 205.407  1.00  0.00     0.000 C 
BRANCH  18  19
ATOM     19  C   UNL     1      88.405 325.009 205.917  1.00  0.00     0.000 C 
BRANCH  19  20
ATOM     20  C   UNL     1      88.715 326.509 206.091  1.00  0.00     0.006 C 
BRANCH  20  21
ATOM     21  C   UNL     1      89.048 327.244 204.786  1.00  0.00     0.053 C 
BRANCH  21  22
ATOM     22  C   UNL     1      90.523 327.412 204.597  1.00  0.00     0.041 C 
ATOM     23  O   UNL     1      90.968 327.989 203.569  1.00  0.00    -0.550 OA
ATOM     24  O   UNL     1      91.409 326.912 205.544  1.00  0.00    -0.550 OA
ENDBRANCH  21  22
ENDBRANCH  20  21
ENDBRANCH  19  20
ENDBRANCH  18  19
ENDBRANCH  17  18
ENDBRANCH  16  17
ENDBRANCH  15  16
ENDBRANCH  14  15
ENDBRANCH  13  14
ENDBRANCH   1  13
TORSDOF 20
ENDMDL
MODEL 2
REMARK VINA RESULT:    -5.928      4.623     10.805
REMARK INTER + INTRA:         -14.853
REMARK INTER:                 -13.047
REMARK INTRA:                  -1.806
REMARK UNBOUND:                -1.995
REMARK SMILES CCCCCCCCCCCCCCCCCCCCCC(=O)[O-]
REMARK SMILES IDX 12 1 11 2 10 3 9 4 8 5 7 6 6 7 5 8 4 9 3 10 2 11 1 12 13 13
REMARK SMILES IDX 14 14 15 15 16 16 17 17 18 18 19 19 20 20 21 21 22 22 23 23
REMARK SMILES IDX 24 24
REMARK H PARENT
REMARK Flexibility Score: inf
ROOT
ATOM      1  C   UNL     1      89.176 325.010 198.524  1.00  0.00     0.000 C 
ENDROOT
BRANCH   1   2
ATOM      2  C   UNL     1      89.206 326.417 199.148  1.00  0.00     0.000 C 
BRANCH   2   3
ATOM      3  C   UNL     1      89.303 326.411 200.690  1.00  0.00     0.000 C 
BRANCH   3   4
ATOM      4  C   UNL     1      90.706 326.812 201.185  1.00  0.00    -0.000 C 
BRANCH   4   5
ATOM      5  C   UNL     1      90.770 326.952 202.722  1.00  0.00    -0.000 C 
BRANCH   5   6
ATOM      6  C   UNL     1      89.399 326.847 203.415  1.00  0.00    -0.000 C 
BRANCH   6   7
ATOM      7  C   UNL     1      89.312 327.545 204.783  1.00  0.00    -0.000 C 
BRANCH   7   8
ATOM      8  C   UNL     1      88.688 326.655 205.869  1.00  0.00    -0.000 C 
BRANCH   8   9
ATOM      9  C   UNL     1      88.437 325.237 205.335  1.00  0.00    -0.000 C 
BRANCH   9  10
ATOM     10  C   UNL     1      87.064 324.679 205.745  1.00  0.00    -0.000 C 
BRANCH  10  11
ATOM     11  C   UNL     1      86.349 323.911 204.614  1.00  0.00    -0.003 C 
ATOM     12  C   UNL     1      87.197 323.821 203.346  1.00  0.00     0.004 C 
ENDBRANCH  10  11
ENDBRANCH   9  10
ENDBRANCH   8   9
ENDBRANCH   7   8
ENDBRANCH   6   7
ENDBRANCH   5   6
ENDBRANCH   4   5
ENDBRANCH   3   4
ENDBRANCH   2   3
ENDBRANCH   1   2
BRANCH   1  13
ATOM     13  C   UNL     1      88.691 325.019 197.064  1.00  0.00     0.000 C 
BRANCH  13  14
ATOM     14  C   UNL     1      88.243 326.412 196.593  1.00  0.00     0.000 C 
BRANCH  14  15
ATOM     15  C   UNL     1      86.846 326.404 195.949  1.00  0.00     0.000 C 
BRANCH  15  16
ATOM     16  C   UNL     1      86.853 326.939 194.505  1.00  0.00     0.000 C 
BRANCH  16  17
ATOM     17  C   UNL     1      88.178 326.737 193.739  1.00  0.00     0.000 C 
BRANCH  17  18
ATOM     18  C   UNL     1      88.165 325.602 192.696  1.00  0.00     0.000 C 
BRANCH  18  19
ATOM     19  C   UNL     1      88.092 324.179 193.281  1.00  0.00     0.000 C 
BRANCH  19  20
ATOM     20  C   UNL     1      86.751 323.449 193.061  1.00  0.00     0.006 C 
BRANCH  20  21
ATOM     21  C   UNL     1      86.131 323.667 191.674  1.00  0.00     0.053 C 
BRANCH  21  22
ATOM     22  C   UNL     1      86.797 322.834 190.624  1.00  0.00     0.041 C 
ATOM     23  O   UNL     1      86.464 321.630 190.466  1.00  0.00    -0.550 OA
ATOM     24  O   UNL     1      87.802 323.381 189.834  1.00  0.00    -0.550 OA
ENDBRANCH  21  22
ENDBRANCH  20  21
ENDBRANCH  19  20
ENDBRANCH  18  19
ENDBRANCH  17  18
ENDBRANCH  16  17
ENDBRANCH  15  16
ENDBRANCH  14  15
ENDBRANCH  13  14
ENDBRANCH   1  13
TORSDOF 20
ENDMDL
MODEL 3
REMARK VINA RESULT:    -5.868      2.067      3.116
REMARK INTER + INTRA:         -14.723
REMARK INTER:                 -13.248
REMARK INTRA:                  -1.475
REMARK UNBOUND:                -1.995
REMARK SMILES CCCCCCCCCCCCCCCCCCCCCC(=O)[O-]
REMARK SMILES IDX 12 1 11 2 10 3 9 4 8 5 7 6 6 7 5 8 4 9 3 10 2 11 1 12 13 13
REMARK SMILES IDX 14 14 15 15 16 16 17 17 18 18 19 19 20 20 21 21 22 22 23 23
REMARK SMILES IDX 24 24
REMARK H PARENT
REMARK Flexibility Score: inf
ROOT
ATOM      1  C   UNL     1      89.912 325.191 199.709  1.00  0.00     0.000 C 
ENDROOT
BRANCH   1   2
ATOM      2  C   UNL     1      88.949 325.094 198.512  1.00  0.00     0.000 C 
BRANCH   2   3
ATOM      3  C   UNL     1      88.790 326.420 197.734  1.00  0.00     0.000 C 
BRANCH   3   4
ATOM      4  C   UNL     1      87.774 326.298 196.582  1.00  0.00    -0.000 C 
BRANCH   4   5
ATOM      5  C   UNL     1      88.390 326.665 195.213  1.00  0.00    -0.000 C 
BRANCH   5   6
ATOM      6  C   UNL     1      87.347 326.978 194.124  1.00  0.00    -0.000 C 
BRANCH   6   7
ATOM      7  C   UNL     1      86.147 326.016 194.084  1.00  0.00    -0.000 C 
BRANCH   7   8
ATOM      8  C   UNL     1      86.312 324.901 193.040  1.00  0.00    -0.000 C 
BRANCH   8   9
ATOM      9  C   UNL     1      87.312 323.841 193.524  1.00  0.00    -0.000 C 
BRANCH   9  10
ATOM     10  C   UNL     1      88.594 323.797 192.676  1.00  0.00    -0.000 C 
BRANCH  10  11
ATOM     11  C   UNL     1      88.494 324.606 191.366  1.00  0.00    -0.003 C 
ATOM     12  C   UNL     1      88.337 323.709 190.139  1.00  0.00     0.004 C 
ENDBRANCH  10  11
ENDBRANCH   9  10
ENDBRANCH   8   9
ENDBRANCH   7   8
ENDBRANCH   6   7
ENDBRANCH   5   6
ENDBRANCH   4   5
ENDBRANCH   3   4
ENDBRANCH   2   3
ENDBRANCH   1   2
BRANCH   1  13
ATOM     13  C   UNL     1      89.797 326.531 200.456  1.00  0.00     0.000 C 
BRANCH  13  14
ATOM     14  C   UNL     1      88.864 326.456 201.675  1.00  0.00     0.000 C 
BRANCH  14  15
ATOM     15  C   UNL     1      89.624 326.495 203.012  1.00  0.00     0.000 C 
BRANCH  15  16
ATOM     16  C   UNL     1      89.107 327.595 203.959  1.00  0.00     0.000 C 
BRANCH  16  17
ATOM     17  C   UNL     1      89.693 327.558 205.386  1.00  0.00     0.000 C 
BRANCH  17  18
ATOM     18  C   UNL     1      89.313 326.318 206.219  1.00  0.00     0.000 C 
BRANCH  18  19
ATOM     19  C   UNL     1      87.862 325.832 206.040  1.00  0.00     0.000 C 
BRANCH  19  20
ATOM     20  C   UNL     1      87.712 324.337 205.691  1.00  0.00     0.006 C 
BRANCH  20  21
ATOM     21  C   UNL     1      86.427 323.990 204.927  1.00  0.00     0.053 C 
BRANCH  21  22
ATOM     22  C   UNL     1      86.716 323.372 203.594  1.00  0.00     0.041 C 
ATOM     23  O   UNL     1      86.399 323.975 202.535  1.00  0.00    -0.550 OA
ATOM     24  O   UNL     1      87.315 322.120 203.522  1.00  0.00    -0.550 OA
ENDBRANCH  21  22
ENDBRANCH  20  21
ENDBRANCH  19  20
ENDBRANCH  18  19
ENDBRANCH  17  18
ENDBRANCH  16  17
ENDBRANCH  15  16
ENDBRANCH  14  15
ENDBRANCH  13  14
ENDBRANCH   1  13
TORSDOF 20
ENDMDL
MODEL 4
REMARK VINA RESULT:    -5.843      1.801      3.735
REMARK INTER + INTRA:         -14.669
REMARK INTER:                 -13.025
REMARK INTRA:                  -1.644
REMARK UNBOUND:                -1.995
REMARK SMILES CCCCCCCCCCCCCCCCCCCCCC(=O)[O-]
REMARK SMILES IDX 12 1 11 2 10 3 9 4 8 5 7 6 6 7 5 8 4 9 3 10 2 11 1 12 13 13
REMARK SMILES IDX 14 14 15 15 16 16 17 17 18 18 19 19 20 20 21 21 22 22 23 23
REMARK SMILES IDX 24 24
REMARK H PARENT
REMARK Flexibility Score: inf
ROOT
ATOM      1  C   UNL     1      88.848 325.675 197.526  1.00  0.00     0.000 C 
ENDROOT
BRANCH   1   2
ATOM      2  C   UNL     1      87.891 326.231 196.456  1.00  0.00     0.000 C 
BRANCH   2   3
ATOM      3  C   UNL     1      88.605 326.704 195.170  1.00  0.00     0.000 C 
BRANCH   3   4
ATOM      4  C   UNL     1      87.614 326.979 194.023  1.00  0.00    -0.000 C 
BRANCH   4   5
ATOM      5  C   UNL     1      86.352 326.093 194.112  1.00  0.00    -0.000 C 
BRANCH   5   6
ATOM      6  C   UNL     1      86.344 324.917 193.118  1.00  0.00    -0.000 C 
BRANCH   6   7
ATOM      7  C   UNL     1      87.331 323.784 193.450  1.00  0.00    -0.000 C 
BRANCH   7   8
ATOM      8  C   UNL     1      88.606 323.836 192.595  1.00  0.00    -0.000 C 
BRANCH   8   9
ATOM      9  C   UNL     1      88.296 324.342 191.180  1.00  0.00    -0.000 C 
BRANCH   9  10
ATOM     10  C   UNL     1      87.890 323.214 190.217  1.00  0.00    -0.000 C 
BRANCH  10  11
ATOM     11  C   UNL     1      88.549 323.323 188.827  1.00  0.00    -0.003 C 
ATOM     12  C   UNL     1      89.886 324.062 188.874  1.00  0.00     0.004 C 
ENDBRANCH  10  11
ENDBRANCH   9  10
ENDBRANCH   8   9
ENDBRANCH   7   8
ENDBRANCH   6   7
ENDBRANCH   5   6
ENDBRANCH   4   5
ENDBRANCH   3   4
ENDBRANCH   2   3
ENDBRANCH   1   2
BRANCH   1  13
ATOM     13  C   UNL     1      89.044 326.642 198.707  1.00  0.00     0.000 C 
BRANCH  13  14
ATOM     14  C   UNL     1      89.361 325.918 200.025  1.00  0.00     0.000 C 
BRANCH  14  15
ATOM     15  C   UNL     1      90.680 325.127 199.970  1.00  0.00     0.000 C 
BRANCH  15  16
ATOM     16  C   UNL     1      91.742 325.673 200.941  1.00  0.00     0.000 C 
BRANCH  16  17
ATOM     17  C   UNL     1      91.486 327.107 201.454  1.00  0.00     0.000 C 
BRANCH  17  18
ATOM     18  C   UNL     1      91.911 327.366 202.913  1.00  0.00     0.000 C 
BRANCH  18  19
ATOM     19  C   UNL     1      90.777 327.820 203.852  1.00  0.00     0.000 C 
BRANCH  19  20
ATOM     20  C   UNL     1      89.375 327.293 203.485  1.00  0.00     0.006 C 
BRANCH  20  21
ATOM     21  C   UNL     1      89.088 325.864 203.965  1.00  0.00     0.053 C 
BRANCH  21  22
ATOM     22  C   UNL     1      88.567 325.837 205.368  1.00  0.00     0.041 C 
ATOM     23  O   UNL     1      87.957 324.822 205.797  1.00  0.00    -0.550 OA
ATOM     24  O   UNL     1      88.733 326.942 206.194  1.00  0.00    -0.550 OA
ENDBRANCH  21  22
ENDBRANCH  20  21
ENDBRANCH  19  20
ENDBRANCH  18  19
ENDBRANCH  17  18
ENDBRANCH  16  17
ENDBRANCH  15  16
ENDBRANCH  14  15
ENDBRANCH  13  14
ENDBRANCH   1  13
TORSDOF 20
ENDMDL
MODEL 5
REMARK VINA RESULT:    -5.828      2.037      3.326
REMARK INTER + INTRA:         -14.636
REMARK INTER:                 -13.358
REMARK INTRA:                  -1.279
REMARK UNBOUND:                -1.995
REMARK SMILES CCCCCCCCCCCCCCCCCCCCCC(=O)[O-]
REMARK SMILES IDX 12 1 11 2 10 3 9 4 8 5 7 6 6 7 5 8 4 9 3 10 2 11 1 12 13 13
REMARK SMILES IDX 14 14 15 15 16 16 17 17 18 18 19 19 20 20 21 21 22 22 23 23
REMARK SMILES IDX 24 24
REMARK H PARENT
REMARK Flexibility Score: inf
ROOT
ATOM      1  C   UNL     1      89.680 324.679 198.854  1.00  0.00     0.000 C 
ENDROOT
BRANCH   1   2
ATOM      2  C   UNL     1      88.823 324.236 197.655  1.00  0.00     0.000 C 
BRANCH   2   3
ATOM      3  C   UNL     1      88.919 325.183 196.437  1.00  0.00     0.000 C 
BRANCH   3   4
ATOM      4  C   UNL     1      88.102 326.473 196.639  1.00  0.00    -0.000 C 
BRANCH   4   5
ATOM      5  C   UNL     1      86.788 326.470 195.827  1.00  0.00    -0.000 C 
BRANCH   5   6
ATOM      6  C   UNL     1      86.985 326.735 194.323  1.00  0.00    -0.000 C 
BRANCH   6   7
ATOM      7  C   UNL     1      86.790 325.505 193.420  1.00  0.00    -0.000 C 
BRANCH   7   8
ATOM      8  C   UNL     1      88.115 324.949 192.875  1.00  0.00    -0.000 C 
BRANCH   8   9
ATOM      9  C   UNL     1      87.875 324.095 191.622  1.00  0.00    -0.000 C 
BRANCH   9  10
ATOM     10  C   UNL     1      88.907 324.358 190.513  1.00  0.00    -0.000 C 
BRANCH  10  11
ATOM     11  C   UNL     1      88.816 323.363 189.337  1.00  0.00    -0.003 C 
ATOM     12  C   UNL     1      87.438 322.710 189.235  1.00  0.00     0.004 C 
ENDBRANCH  10  11
ENDBRANCH   9  10
ENDBRANCH   8   9
ENDBRANCH   7   8
ENDBRANCH   6   7
ENDBRANCH   5   6
ENDBRANCH   4   5
ENDBRANCH   3   4
ENDBRANCH   2   3
ENDBRANCH   1   2
BRANCH   1  13
ATOM     13  C   UNL     1      88.831 325.070 200.077  1.00  0.00     0.000 C 
BRANCH  13  14
ATOM     14  C   UNL     1      89.423 326.252 200.860  1.00  0.00     0.000 C 
BRANCH  14  15
ATOM     15  C   UNL     1      89.379 326.042 202.383  1.00  0.00     0.000 C 
BRANCH  15  16
ATOM     16  C   UNL     1      89.952 327.237 203.166  1.00  0.00     0.000 C 
BRANCH  16  17
ATOM     17  C   UNL     1      89.080 327.728 204.341  1.00  0.00     0.000 C 
BRANCH  17  18
ATOM     18  C   UNL     1      89.600 327.352 205.743  1.00  0.00     0.000 C 
BRANCH  18  19
ATOM     19  C   UNL     1      88.659 326.453 206.568  1.00  0.00     0.000 C 
BRANCH  19  20
ATOM     20  C   UNL     1      88.355 325.077 205.942  1.00  0.00     0.006 C 
BRANCH  20  21
ATOM     21  C   UNL     1      86.872 324.835 205.632  1.00  0.00     0.053 C 
BRANCH  21  22
ATOM     22  C   UNL     1      86.672 323.661 204.725  1.00  0.00     0.041 C 
ATOM     23  O   UNL     1      86.562 322.502 205.205  1.00  0.00    -0.550 OA
ATOM     24  O   UNL     1      86.630 323.843 203.348  1.00  0.00    -0.550 OA
ENDBRANCH  21  22
ENDBRANCH  20  21
ENDBRANCH  19  20
ENDBRANCH  18  19
ENDBRANCH  17  18
ENDBRANCH  16  17
ENDBRANCH  15  16
ENDBRANCH  14  15
ENDBRANCH  13  14
ENDBRANCH   1  13
TORSDOF 20
ENDMDL
MODEL 6
REMARK VINA RESULT:    -5.809      5.172     11.511
REMARK INTER + INTRA:         -14.596
REMARK INTER:                 -13.197
REMARK INTRA:                  -1.398
REMARK UNBOUND:                -1.995
REMARK SMILES CCCCCCCCCCCCCCCCCCCCCC(=O)[O-]
REMARK SMILES IDX 12 1 11 2 10 3 9 4 8 5 7 6 6 7 5 8 4 9 3 10 2 11 1 12 13 13
REMARK SMILES IDX 14 14 15 15 16 16 17 17 18 18 19 19 20 20 21 21 22 22 23 23
REMARK SMILES IDX 24 24
REMARK H PARENT
REMARK Flexibility Score: inf
ROOT
ATOM      1  C   UNL     1      88.834 325.633 197.851  1.00  0.00     0.000 C 
ENDROOT
BRANCH   1   2
ATOM      2  C   UNL     1      89.242 326.440 199.096  1.00  0.00     0.000 C 
BRANCH   2   3
ATOM      3  C   UNL     1      89.087 325.660 200.421  1.00  0.00     0.000 C 
BRANCH   3   4
ATOM      4  C   UNL     1      88.741 326.586 201.603  1.00  0.00    -0.000 C 
BRANCH   4   5
ATOM      5  C   UNL     1      89.599 326.289 202.853  1.00  0.00    -0.000 C 
BRANCH   5   6
ATOM      6  C   UNL     1      89.421 327.314 203.989  1.00  0.00    -0.000 C 
BRANCH   6   7
ATOM      7  C   UNL     1      88.861 326.734 205.299  1.00  0.00    -0.000 C 
BRANCH   7   8
ATOM      8  C   UNL     1      88.533 325.237 205.197  1.00  0.00    -0.000 C 
BRANCH   8   9
ATOM      9  C   UNL     1      87.126 324.947 205.738  1.00  0.00    -0.000 C 
BRANCH   9  10
ATOM     10  C   UNL     1      86.303 324.041 204.808  1.00  0.00    -0.000 C 
BRANCH  10  11
ATOM     11  C   UNL     1      87.112 323.480 203.620  1.00  0.00    -0.003 C 
ATOM     12  C   UNL     1      86.407 323.699 202.281  1.00  0.00     0.004 C 
ENDBRANCH  10  11
ENDBRANCH   9  10
ENDBRANCH   8   9
ENDBRANCH   7   8
ENDBRANCH   6   7
ENDBRANCH   5   6
ENDBRANCH   4   5
ENDBRANCH   3   4
ENDBRANCH   2   3
ENDBRANCH   1   2
BRANCH   1  13
ATOM     13  C   UNL     1      88.593 326.524 196.620  1.00  0.00     0.000 C 
BRANCH  13  14
ATOM     14  C   UNL     1      87.208 326.307 195.989  1.00  0.00     0.000 C 
BRANCH  14  15
ATOM     15  C   UNL     1      87.249 326.283 194.452  1.00  0.00     0.000 C 
BRANCH  15  16
ATOM     16  C   UNL     1      85.986 325.657 193.832  1.00  0.00     0.000 C 
BRANCH  16  17
ATOM     17  C   UNL     1      86.243 324.693 192.655  1.00  0.00     0.000 C 
BRANCH  17  18
ATOM     18  C   UNL     1      87.688 324.168 192.542  1.00  0.00     0.000 C 
BRANCH  18  19
ATOM     19  C   UNL     1      88.481 324.695 191.330  1.00  0.00     0.000 C 
BRANCH  19  20
ATOM     20  C   UNL     1      88.713 323.667 190.204  1.00  0.00     0.006 C 
BRANCH  20  21
ATOM     21  C   UNL     1      87.479 322.827 189.847  1.00  0.00     0.053 C 
BRANCH  21  22
ATOM     22  C   UNL     1      87.573 322.249 188.469  1.00  0.00     0.041 C 
ATOM     23  O   UNL     1      88.694 321.934 187.990  1.00  0.00    -0.550 OA
ATOM     24  O   UNL     1      86.425 322.081 187.704  1.00  0.00    -0.550 OA
ENDBRANCH  21  22
ENDBRANCH  20  21
ENDBRANCH  19  20
ENDBRANCH  18  19
ENDBRANCH  17  18
ENDBRANCH  16  17
ENDBRANCH  15  16
ENDBRANCH  14  15
ENDBRANCH  13  14
ENDBRANCH   1  13
TORSDOF 20
ENDMDL
MODEL 7
REMARK VINA RESULT:    -5.739      1.232      2.239
REMARK INTER + INTRA:         -14.444
REMARK INTER:                 -12.527
REMARK INTRA:                  -1.917
REMARK UNBOUND:                -1.995
REMARK SMILES CCCCCCCCCCCCCCCCCCCCCC(=O)[O-]
REMARK SMILES IDX 12 1 11 2 10 3 9 4 8 5 7 6 6 7 5 8 4 9 3 10 2 11 1 12 13 13
REMARK SMILES IDX 14 14 15 15 16 16 17 17 18 18 19 19 20 20 21 21 22 22 23 23
REMARK SMILES IDX 24 24
REMARK H PARENT
REMARK Flexibility Score: inf
ROOT
ATOM      1  C   UNL     1      88.217 324.963 201.516  1.00  0.00     0.000 C 
ENDROOT
BRANCH   1   2
ATOM      2  C   UNL     1      89.069 324.098 200.570  1.00  0.00     0.000 C 
BRANCH   2   3
ATOM      3  C   UNL     1      89.590 324.861 199.331  1.00  0.00     0.000 C 
BRANCH   3   4
ATOM      4  C   UNL     1      89.240 326.361 199.383  1.00  0.00    -0.000 C 
BRANCH   4   5
ATOM      5  C   UNL     1      88.855 326.923 197.997  1.00  0.00    -0.000 C 
BRANCH   5   6
ATOM      6  C   UNL     1      88.431 325.845 196.983  1.00  0.00    -0.000 C 
BRANCH   6   7
ATOM      7  C   UNL     1      88.125 326.372 195.570  1.00  0.00    -0.000 C 
BRANCH   7   8
ATOM      8  C   UNL     1      86.695 326.049 195.110  1.00  0.00    -0.000 C 
BRANCH   8   9
ATOM      9  C   UNL     1      86.669 325.695 193.617  1.00  0.00    -0.000 C 
BRANCH   9  10
ATOM     10  C   UNL     1      88.067 325.704 192.975  1.00  0.00    -0.000 C 
BRANCH  10  11
ATOM     11  C   UNL     1      88.329 324.497 192.051  1.00  0.00    -0.003 C 
ATOM     12  C   UNL     1      88.707 323.238 192.832  1.00  0.00     0.004 C 
ENDBRANCH  10  11
ENDBRANCH   9  10
ENDBRANCH   8   9
ENDBRANCH   7   8
ENDBRANCH   6   7
ENDBRANCH   5   6
ENDBRANCH   4   5
ENDBRANCH   3   4
ENDBRANCH   2   3
ENDBRANCH   1   2
BRANCH   1  13
ATOM     13  C   UNL     1      87.136 324.150 202.251  1.00  0.00     0.000 C 
BRANCH  13  14
ATOM     14  C   UNL     1      87.662 323.474 203.527  1.00  0.00     0.000 C 
BRANCH  14  15
ATOM     15  C   UNL     1      86.626 323.455 204.663  1.00  0.00     0.000 C 
BRANCH  15  16
ATOM     16  C   UNL     1      86.781 324.642 205.631  1.00  0.00     0.000 C 
BRANCH  16  17
ATOM     17  C   UNL     1      88.230 325.129 205.844  1.00  0.00     0.000 C 
BRANCH  17  18
ATOM     18  C   UNL     1      88.365 326.555 206.414  1.00  0.00     0.000 C 
BRANCH  18  19
ATOM     19  C   UNL     1      89.324 327.479 205.640  1.00  0.00     0.000 C 
BRANCH  19  20
ATOM     20  C   UNL     1      89.581 327.074 204.174  1.00  0.00     0.006 C 
BRANCH  20  21
ATOM     21  C   UNL     1      90.833 327.706 203.551  1.00  0.00     0.053 C 
BRANCH  21  22
ATOM     22  C   UNL     1      91.426 326.842 202.483  1.00  0.00     0.041 C 
ATOM     23  O   UNL     1      91.803 327.349 201.394  1.00  0.00    -0.550 OA
ATOM     24  O   UNL     1      91.542 325.470 202.680  1.00  0.00    -0.550 OA
ENDBRANCH  21  22
ENDBRANCH  20  21
ENDBRANCH  19  20
ENDBRANCH  18  19
ENDBRANCH  17  18
ENDBRANCH  16  17
ENDBRANCH  15  16
ENDBRANCH  14  15
ENDBRANCH  13  14
ENDBRANCH   1  13
TORSDOF 20
ENDMDL
MODEL 8
REMARK VINA RESULT:    -5.738      4.814     11.287
REMARK INTER + INTRA:         -14.441
REMARK INTER:                 -12.945
REMARK INTRA:                  -1.495
REMARK UNBOUND:                -1.995
REMARK SMILES CCCCCCCCCCCCCCCCCCCCCC(=O)[O-]
REMARK SMILES IDX 12 1 11 2 10 3 9 4 8 5 7 6 6 7 5 8 4 9 3 10 2 11 1 12 13 13
REMARK SMILES IDX 14 14 15 15 16 16 17 17 18 18 19 19 20 20 21 21 22 22 23 23
REMARK SMILES IDX 24 24
REMARK H PARENT
REMARK Flexibility Score: inf
ROOT
ATOM      1  C   UNL     1      88.529 324.753 197.151  1.00  0.00     0.000 C 
ENDROOT
BRANCH   1   2
ATOM      2  C   UNL     1      89.233 324.873 198.515  1.00  0.00     0.000 C 
BRANCH   2   3
ATOM      3  C   UNL     1      89.193 326.297 199.112  1.00  0.00     0.000 C 
BRANCH   3   4
ATOM      4  C   UNL     1      89.524 326.305 200.617  1.00  0.00    -0.000 C 
BRANCH   4   5
ATOM      5  C   UNL     1      90.727 327.216 200.950  1.00  0.00    -0.000 C 
BRANCH   5   6
ATOM      6  C   UNL     1      91.347 326.949 202.334  1.00  0.00    -0.000 C 
BRANCH   6   7
ATOM      7  C   UNL     1      90.570 327.553 203.516  1.00  0.00    -0.000 C 
BRANCH   7   8
ATOM      8  C   UNL     1      90.598 326.660 204.766  1.00  0.00    -0.000 C 
BRANCH   8   9
ATOM      9  C   UNL     1      89.829 327.314 205.922  1.00  0.00    -0.000 C 
BRANCH   9  10
ATOM     10  C   UNL     1      88.422 326.723 206.114  1.00  0.00    -0.000 C 
BRANCH  10  11
ATOM     11  C   UNL     1      88.179 325.434 205.303  1.00  0.00    -0.003 C 
ATOM     12  C   UNL     1      86.862 324.754 205.674  1.00  0.00     0.004 C 
ENDBRANCH  10  11
ENDBRANCH   9  10
ENDBRANCH   8   9
ENDBRANCH   7   8
ENDBRANCH   6   7
ENDBRANCH   5   6
ENDBRANCH   4   5
ENDBRANCH   3   4
ENDBRANCH   2   3
ENDBRANCH   1   2
BRANCH   1  13
ATOM     13  C   UNL     1      88.020 326.107 196.626  1.00  0.00     0.000 C 
BRANCH  13  14
ATOM     14  C   UNL     1      88.828 326.622 195.424  1.00  0.00     0.000 C 
BRANCH  14  15
ATOM     15  C   UNL     1      87.945 326.955 194.210  1.00  0.00     0.000 C 
BRANCH  15  16
ATOM     16  C   UNL     1      86.612 326.186 194.214  1.00  0.00     0.000 C 
BRANCH  16  17
ATOM     17  C   UNL     1      86.528 325.016 193.210  1.00  0.00     0.000 C 
BRANCH  17  18
ATOM     18  C   UNL     1      87.496 323.848 193.483  1.00  0.00     0.000 C 
BRANCH  18  19
ATOM     19  C   UNL     1      88.645 323.702 192.467  1.00  0.00     0.000 C 
BRANCH  19  20
ATOM     20  C   UNL     1      88.435 324.444 191.131  1.00  0.00     0.006 C 
BRANCH  20  21
ATOM     21  C   UNL     1      88.214 323.524 189.923  1.00  0.00     0.053 C 
BRANCH  21  22
ATOM     22  C   UNL     1      89.504 323.002 189.372  1.00  0.00     0.041 C 
ATOM     23  O   UNL     1      89.872 321.825 189.630  1.00  0.00    -0.550 OA
ATOM     24  O   UNL     1      90.313 323.822 188.594  1.00  0.00    -0.550 OA
ENDBRANCH  21  22
ENDBRANCH  20  21
ENDBRANCH  19  20
ENDBRANCH  18  19
ENDBRANCH  17  18
ENDBRANCH  16  17
ENDBRANCH  15  16
ENDBRANCH  14  15
ENDBRANCH  13  14
ENDBRANCH   1  13
TORSDOF 20
ENDMDL
MODEL 9
REMARK VINA RESULT:    -5.725      3.615      9.826
REMARK INTER + INTRA:         -14.414
REMARK INTER:                 -12.327
REMARK INTRA:                  -2.087
REMARK UNBOUND:                -1.995
REMARK SMILES CCCCCCCCCCCCCCCCCCCCCC(=O)[O-]
REMARK SMILES IDX 12 1 11 2 10 3 9 4 8 5 7 6 6 7 5 8 4 9 3 10 2 11 1 12 13 13
REMARK SMILES IDX 14 14 15 15 16 16 17 17 18 18 19 19 20 20 21 21 22 22 23 23
REMARK SMILES IDX 24 24
REMARK H PARENT
REMARK Flexibility Score: inf
ROOT
ATOM      1  C   UNL     1      90.265 325.416 199.934  1.00  0.00     0.000 C 
ENDROOT
BRANCH   1   2
ATOM      2  C   UNL     1      89.939 326.774 200.582  1.00  0.00     0.000 C 
BRANCH   2   3
ATOM      3  C   UNL     1      88.951 326.677 201.766  1.00  0.00     0.000 C 
BRANCH   3   4
ATOM      4  C   UNL     1      89.676 326.514 203.115  1.00  0.00    -0.000 C 
BRANCH   4   5
ATOM      5  C   UNL     1      89.243 327.579 204.147  1.00  0.00    -0.000 C 
BRANCH   5   6
ATOM      6  C   UNL     1      89.030 327.021 205.566  1.00  0.00    -0.000 C 
BRANCH   6   7
ATOM      7  C   UNL     1      88.591 325.547 205.621  1.00  0.00    -0.000 C 
BRANCH   7   8
ATOM      8  C   UNL     1      87.099 325.382 205.949  1.00  0.00    -0.000 C 
BRANCH   8   9
ATOM      9  C   UNL     1      86.496 324.203 205.171  1.00  0.00    -0.000 C 
BRANCH   9  10
ATOM     10  C   UNL     1      87.340 323.798 203.951  1.00  0.00    -0.000 C 
BRANCH  10  11
ATOM     11  C   UNL     1      86.527 323.705 202.643  1.00  0.00    -0.003 C 
ATOM     12  C   UNL     1      87.410 323.420 201.429  1.00  0.00     0.004 C 
ENDBRANCH  10  11
ENDBRANCH   9  10
ENDBRANCH   8   9
ENDBRANCH   7   8
ENDBRANCH   6   7
ENDBRANCH   5   6
ENDBRANCH   4   5
ENDBRANCH   3   4
ENDBRANCH   2   3
ENDBRANCH   1   2
BRANCH   1  13
ATOM     13  C   UNL     1      89.332 325.081 198.757  1.00  0.00     0.000 C 
BRANCH  13  14
ATOM     14  C   UNL     1      88.787 326.333 198.053  1.00  0.00     0.000 C 
BRANCH  14  15
ATOM     15  C   UNL     1      88.631 326.144 196.534  1.00  0.00     0.000 C 
BRANCH  15  16
ATOM     16  C   UNL     1      87.180 326.337 196.056  1.00  0.00     0.000 C 
BRANCH  16  17
ATOM     17  C   UNL     1      87.029 326.782 194.586  1.00  0.00     0.000 C 
BRANCH  17  18
ATOM     18  C   UNL     1      86.868 325.636 193.568  1.00  0.00     0.000 C 
BRANCH  18  19
ATOM     19  C   UNL     1      88.124 325.323 192.733  1.00  0.00     0.000 C 
BRANCH  19  20
ATOM     20  C   UNL     1      88.586 323.852 192.772  1.00  0.00     0.006 C 
BRANCH  20  21
ATOM     21  C   UNL     1      88.658 323.247 194.180  1.00  0.00     0.053 C 
BRANCH  21  22
ATOM     22  C   UNL     1      87.860 321.985 194.291  1.00  0.00     0.041 C 
ATOM     23  O   UNL     1      88.354 320.971 194.852  1.00  0.00    -0.550 OA
ATOM     24  O   UNL     1      86.580 321.920 193.752  1.00  0.00    -0.550 OA
ENDBRANCH  21  22
ENDBRANCH  20  21
ENDBRANCH  19  20
ENDBRANCH  18  19
ENDBRANCH  17  18
ENDBRANCH  16  17
ENDBRANCH  15  16
ENDBRANCH  14  15
ENDBRANCH  13  14
ENDBRANCH   1  13
TORSDOF 20
ENDMDL
