MODEL 1
REMARK VINA RESULT:    -5.031      0.000      0.000
REMARK INTER + INTRA:         -11.042
REMARK INTER:                  -9.737
REMARK INTRA:                  -1.304
REMARK UNBOUND:                -1.304
REMARK SMILES CCCCCCCCCCCCCCCCCC(=O)[O-]
REMARK SMILES IDX 10 1 11 2 12 3 13 4 14 5 15 6 16 7 17 8 18 9 19 10 20 11
REMARK SMILES IDX 9 12 8 13 7 14 6 15 5 16 4 17 3 18 2 19 1 20
REMARK H PARENT
REMARK Flexibility Score: inf
ROOT
ATOM      1  C   UNL     1      -8.768  -8.503  -4.795  1.00  0.00     0.000 C 
ENDROOT
BRANCH   1   2
ATOM      2  C   UNL     1      -9.334  -9.900  -5.123  1.00  0.00     0.000 C 
BRANCH   2   3
ATOM      3  C   UNL     1      -8.292 -10.952  -5.545  1.00  0.00     0.000 C 
BRANCH   3   4
ATOM      4  C   UNL     1      -6.870 -10.607  -5.071  1.00  0.00     0.000 C 
BRANCH   4   5
ATOM      5  C   UNL     1      -5.911 -10.291  -6.234  1.00  0.00     0.000 C 
BRANCH   5   6
ATOM      6  C   UNL     1      -5.396 -11.514  -7.016  1.00  0.00     0.000 C 
BRANCH   6   7
ATOM      7  C   UNL     1      -4.031 -12.065  -6.561  1.00  0.00     0.006 C 
BRANCH   7   8
ATOM      8  C   UNL     1      -3.224 -11.089  -5.684  1.00  0.00     0.053 C 
BRANCH   8   9
ATOM      9  C   UNL     1      -2.303 -11.794  -4.733  1.00  0.00     0.041 C 
ATOM     10  O   UNL     1      -1.098 -11.986  -5.043  1.00  0.00    -0.550 OA
ATOM     11  O   UNL     1      -2.766 -12.205  -3.490  1.00  0.00    -0.550 OA
ENDBRANCH   8   9
ENDBRANCH   7   8
ENDBRANCH   6   7
ENDBRANCH   5   6
ENDBRANCH   4   5
ENDBRANCH   3   4
ENDBRANCH   2   3
ENDBRANCH   1   2
BRANCH   1  12
ATOM     12  C   UNL     1      -9.452  -7.327  -5.514  1.00  0.00     0.000 C 
BRANCH  12  13
ATOM     13  C   UNL     1     -10.911  -7.628  -5.898  1.00  0.00    -0.000 C 
BRANCH  13  14
ATOM     14  C   UNL     1     -11.880  -6.494  -5.517  1.00  0.00    -0.000 C 
BRANCH  14  15
ATOM     15  C   UNL     1     -11.220  -5.144  -5.179  1.00  0.00    -0.000 C 
BRANCH  15  16
ATOM     16  C   UNL     1     -11.994  -3.941  -5.742  1.00  0.00    -0.000 C 
BRANCH  16  17
ATOM     17  C   UNL     1     -12.142  -3.987  -7.275  1.00  0.00    -0.000 C 
BRANCH  17  18
ATOM     18  C   UNL     1     -10.816  -4.019  -8.064  1.00  0.00    -0.000 C 
BRANCH  18  19
ATOM     19  C   UNL     1     -10.577  -5.299  -8.884  1.00  0.00    -0.003 C 
ATOM     20  C   UNL     1     -11.125  -5.205 -10.307  1.00  0.00     0.004 C 
ENDBRANCH  18  19
ENDBRANCH  17  18
ENDBRANCH  16  17
ENDBRANCH  15  16
ENDBRANCH  14  15
ENDBRANCH  13  14
ENDBRANCH  12  13
ENDBRANCH   1  12
TORSDOF 16
ENDMDL
MODEL 2
REMARK VINA RESULT:    -5.031      4.073      9.766
REMARK INTER + INTRA:         -11.041
REMARK INTER:                 -10.132
REMARK INTRA:                  -0.908
REMARK UNBOUND:                -1.304
REMARK SMILES CCCCCCCCCCCCCCCCCC(=O)[O-]
REMARK SMILES IDX 10 1 11 2 12 3 13 4 14 5 15 6 16 7 17 8 18 9 19 10 20 11
REMARK SMILES IDX 9 12 8 13 7 14 6 15 5 16 4 17 3 18 2 19 1 20
REMARK H PARENT
REMARK Flexibility Score: inf
ROOT
ATOM      1  C   UNL     1      -8.658  -8.272  -4.859  1.00  0.00     0.000 C 
ENDROOT
BRANCH   1   2
ATOM      2  C   UNL     1      -9.802  -7.474  -5.520  1.00  0.00     0.000 C 
BRANCH   2   3
ATOM      3  C   UNL     1      -9.366  -6.226  -6.308  1.00  0.00     0.000 C 
BRANCH   3   4
ATOM      4  C   UNL     1      -9.820  -6.259  -7.777  1.00  0.00     0.000 C 
BRANCH   4   5
ATOM      5  C   UNL     1     -10.896  -5.204  -8.096  1.00  0.00     0.000 C 
BRANCH   5   6
ATOM      6  C   UNL     1     -10.825  -3.914  -7.257  1.00  0.00     0.000 C 
BRANCH   6   7
ATOM      7  C   UNL     1     -11.877  -3.792  -6.138  1.00  0.00     0.006 C 
BRANCH   7   8
ATOM      8  C   UNL     1     -12.923  -4.923  -6.138  1.00  0.00     0.053 C 
BRANCH   8   9
ATOM      9  C   UNL     1     -12.989  -5.649  -4.828  1.00  0.00     0.041 C 
ATOM     10  O   UNL     1     -12.843  -5.020  -3.747  1.00  0.00    -0.550 OA
ATOM     11  O   UNL     1     -13.250  -7.013  -4.798  1.00  0.00    -0.550 OA
ENDBRANCH   8   9
ENDBRANCH   7   8
ENDBRANCH   6   7
ENDBRANCH   5   6
ENDBRANCH   4   5
ENDBRANCH   3   4
ENDBRANCH   2   3
ENDBRANCH   1   2
BRANCH   1  12
ATOM     12  C   UNL     1      -8.518  -9.733  -5.323  1.00  0.00     0.000 C 
BRANCH  12  13
ATOM     13  C   UNL     1      -7.114 -10.308  -5.071  1.00  0.00    -0.000 C 
BRANCH  13  14
ATOM     14  C   UNL     1      -6.127 -10.010  -6.214  1.00  0.00    -0.000 C 
BRANCH  14  15
ATOM     15  C   UNL     1      -5.147 -11.148  -6.558  1.00  0.00    -0.000 C 
BRANCH  15  16
ATOM     16  C   UNL     1      -3.792 -11.007  -5.846  1.00  0.00    -0.000 C 
BRANCH  16  17
ATOM     17  C   UNL     1      -2.978 -12.315  -5.843  1.00  0.00    -0.000 C 
BRANCH  17  18
ATOM     18  C   UNL     1      -1.819 -12.369  -4.825  1.00  0.00    -0.000 C 
BRANCH  18  19
ATOM     19  C   UNL     1      -2.250 -12.525  -3.356  1.00  0.00    -0.003 C 
ATOM     20  C   UNL     1      -1.315 -13.428  -2.555  1.00  0.00     0.004 C 
ENDBRANCH  18  19
ENDBRANCH  17  18
ENDBRANCH  16  17
ENDBRANCH  15  16
ENDBRANCH  14  15
ENDBRANCH  13  14
ENDBRANCH  12  13
ENDBRANCH   1  12
TORSDOF 16
ENDMDL
MODEL 3
REMARK VINA RESULT:    -4.854      4.332      8.548
REMARK INTER + INTRA:         -10.698
REMARK INTER:                  -9.001
REMARK INTRA:                  -1.697
REMARK UNBOUND:                -1.304
REMARK SMILES CCCCCCCCCCCCCCCCCC(=O)[O-]
REMARK SMILES IDX 10 1 11 2 12 3 13 4 14 5 15 6 16 7 17 8 18 9 19 10 20 11
REMARK SMILES IDX 9 12 8 13 7 14 6 15 5 16 4 17 3 18 2 19 1 20
REMARK H PARENT
REMARK Flexibility Score: inf
ROOT
ATOM      1  C   UNL     1      -9.887  -7.343  -5.837  1.00  0.00     0.000 C 
ENDROOT
BRANCH   1   2
ATOM      2  C   UNL     1      -9.452  -6.226  -6.809  1.00  0.00     0.000 C 
BRANCH   2   3
ATOM      3  C   UNL     1     -10.268  -6.130  -8.111  1.00  0.00     0.000 C 
BRANCH   3   4
ATOM      4  C   UNL     1     -10.318  -4.702  -8.679  1.00  0.00     0.000 C 
BRANCH   4   5
ATOM      5  C   UNL     1     -11.626  -3.965  -8.334  1.00  0.00     0.000 C 
BRANCH   5   6
ATOM      6  C   UNL     1     -11.843  -3.673  -6.837  1.00  0.00     0.000 C 
BRANCH   6   7
ATOM      7  C   UNL     1     -12.834  -4.608  -6.117  1.00  0.00     0.006 C 
BRANCH   7   8
ATOM      8  C   UNL     1     -12.421  -4.965  -4.676  1.00  0.00     0.053 C 
BRANCH   8   9
ATOM      9  C   UNL     1     -13.345  -5.959  -4.040  1.00  0.00     0.041 C 
ATOM     10  O   UNL     1     -13.726  -6.972  -4.684  1.00  0.00    -0.550 OA
ATOM     11  O   UNL     1     -13.757  -5.786  -2.725  1.00  0.00    -0.550 OA
ENDBRANCH   8   9
ENDBRANCH   7   8
ENDBRANCH   6   7
ENDBRANCH   5   6
ENDBRANCH   4   5
ENDBRANCH   3   4
ENDBRANCH   2   3
ENDBRANCH   1   2
BRANCH   1  12
ATOM     12  C   UNL     1     -11.153  -8.118  -6.244  1.00  0.00     0.000 C 
BRANCH  12  13
ATOM     13  C   UNL     1     -11.239  -9.507  -5.591  1.00  0.00    -0.000 C 
BRANCH  13  14
ATOM     14  C   UNL     1     -11.770 -10.590  -6.547  1.00  0.00    -0.000 C 
BRANCH  14  15
ATOM     15  C   UNL     1     -10.842 -11.802  -6.759  1.00  0.00    -0.000 C 
BRANCH  15  16
ATOM     16  C   UNL     1      -9.829 -11.988  -5.617  1.00  0.00    -0.000 C 
BRANCH  16  17
ATOM     17  C   UNL     1      -8.369 -11.820  -6.078  1.00  0.00    -0.000 C 
BRANCH  17  18
ATOM     18  C   UNL     1      -7.613 -10.629  -5.453  1.00  0.00    -0.000 C 
BRANCH  18  19
ATOM     19  C   UNL     1      -6.523 -10.009  -6.346  1.00  0.00    -0.003 C 
ATOM     20  C   UNL     1      -5.159 -10.672  -6.167  1.00  0.00     0.004 C 
ENDBRANCH  18  19
ENDBRANCH  17  18
ENDBRANCH  16  17
ENDBRANCH  15  16
ENDBRANCH  14  15
ENDBRANCH  13  14
ENDBRANCH  12  13
ENDBRANCH   1  12
TORSDOF 16
ENDMDL
MODEL 4
REMARK VINA RESULT:    -4.713      4.203      8.256
REMARK INTER + INTRA:         -10.426
REMARK INTER:                  -8.643
REMARK INTRA:                  -1.783
REMARK UNBOUND:                -1.304
REMARK SMILES CCCCCCCCCCCCCCCCCC(=O)[O-]
REMARK SMILES IDX 10 1 11 2 12 3 13 4 14 5 15 6 16 7 17 8 18 9 19 10 20 11
REMARK SMILES IDX 9 12 8 13 7 14 6 15 5 16 4 17 3 18 2 19 1 20
REMARK H PARENT
REMARK Flexibility Score: inf
ROOT
ATOM      1  C   UNL     1     -11.408  -9.391  -6.143  1.00  0.00     0.000 C 
ENDROOT
BRANCH   1   2
ATOM      2  C   UNL     1     -11.253  -7.882  -5.865  1.00  0.00     0.000 C 
BRANCH   2   3
ATOM      3  C   UNL     1      -9.807  -7.390  -5.674  1.00  0.00     0.000 C 
BRANCH   3   4
ATOM      4  C   UNL     1      -9.413  -6.291  -6.674  1.00  0.00     0.000 C 
BRANCH   4   5
ATOM      5  C   UNL     1     -10.450  -6.101  -7.797  1.00  0.00     0.000 C 
BRANCH   5   6
ATOM      6  C   UNL     1     -10.810  -4.639  -8.123  1.00  0.00     0.000 C 
BRANCH   6   7
ATOM      7  C   UNL     1     -11.342  -3.808  -6.940  1.00  0.00     0.006 C 
BRANCH   7   8
ATOM      8  C   UNL     1     -12.572  -4.422  -6.247  1.00  0.00     0.053 C 
BRANCH   8   9
ATOM      9  C   UNL     1     -12.313  -4.773  -4.813  1.00  0.00     0.041 C 
ATOM     10  O   UNL     1     -11.202  -4.502  -4.285  1.00  0.00    -0.550 OA
ATOM     11  O   UNL     1     -13.310  -5.365  -4.048  1.00  0.00    -0.550 OA
ENDBRANCH   8   9
ENDBRANCH   7   8
ENDBRANCH   6   7
ENDBRANCH   5   6
ENDBRANCH   4   5
ENDBRANCH   3   4
ENDBRANCH   2   3
ENDBRANCH   1   2
BRANCH   1  12
ATOM     12  C   UNL     1     -12.622 -10.065  -5.478  1.00  0.00     0.000 C 
BRANCH  12  13
ATOM     13  C   UNL     1     -12.634 -11.591  -5.664  1.00  0.00    -0.000 C 
BRANCH  13  14
ATOM     14  C   UNL     1     -11.932 -12.342  -4.518  1.00  0.00    -0.000 C 
BRANCH  14  15
ATOM     15  C   UNL     1     -10.406 -12.498  -4.664  1.00  0.00    -0.000 C 
BRANCH  15  16
ATOM     16  C   UNL     1      -9.948 -12.569  -6.130  1.00  0.00    -0.000 C 
BRANCH  16  17
ATOM     17  C   UNL     1      -8.541 -11.982  -6.348  1.00  0.00    -0.000 C 
BRANCH  17  18
ATOM     18  C   UNL     1      -8.006 -11.107  -5.195  1.00  0.00    -0.000 C 
BRANCH  18  19
ATOM     19  C   UNL     1      -7.131  -9.919  -5.632  1.00  0.00    -0.003 C 
ATOM     20  C   UNL     1      -5.833 -10.354  -6.309  1.00  0.00     0.004 C 
ENDBRANCH  18  19
ENDBRANCH  17  18
ENDBRANCH  16  17
ENDBRANCH  15  16
ENDBRANCH  14  15
ENDBRANCH  13  14
ENDBRANCH  12  13
ENDBRANCH   1  12
TORSDOF 16
ENDMDL
MODEL 5
REMARK VINA RESULT:    -4.711      4.371     10.149
REMARK INTER + INTRA:         -10.422
REMARK INTER:                  -9.671
REMARK INTRA:                  -0.751
REMARK UNBOUND:                -1.304
REMARK SMILES CCCCCCCCCCCCCCCCCC(=O)[O-]
REMARK SMILES IDX 10 1 11 2 12 3 13 4 14 5 15 6 16 7 17 8 18 9 19 10 20 11
REMARK SMILES IDX 9 12 8 13 7 14 6 15 5 16 4 17 3 18 2 19 1 20
REMARK H PARENT
REMARK Flexibility Score: inf
ROOT
ATOM      1  C   UNL     1      -7.983  -9.536  -5.050  1.00  0.00     0.000 C 
ENDROOT
BRANCH   1   2
ATOM      2  C   UNL     1      -9.522  -9.624  -5.121  1.00  0.00     0.000 C 
BRANCH   2   3
ATOM      3  C   UNL     1     -10.236  -8.341  -5.583  1.00  0.00     0.000 C 
BRANCH   3   4
ATOM      4  C   UNL     1      -9.435  -7.066  -5.271  1.00  0.00     0.000 C 
BRANCH   4   5
ATOM      5  C   UNL     1      -9.198  -6.187  -6.513  1.00  0.00     0.000 C 
BRANCH   5   6
ATOM      6  C   UNL     1     -10.367  -6.134  -7.516  1.00  0.00     0.000 C 
BRANCH   6   7
ATOM      7  C   UNL     1     -10.445  -4.857  -8.375  1.00  0.00     0.006 C 
BRANCH   7   8
ATOM      8  C   UNL     1     -11.714  -4.018  -8.133  1.00  0.00     0.053 C 
BRANCH   8   9
ATOM      9  C   UNL     1     -12.040  -3.871  -6.677  1.00  0.00     0.041 C 
ATOM     10  O   UNL     1     -11.392  -3.063  -5.961  1.00  0.00    -0.550 OA
ATOM     11  O   UNL     1     -13.084  -4.598  -6.119  1.00  0.00    -0.550 OA
ENDBRANCH   8   9
ENDBRANCH   7   8
ENDBRANCH   6   7
ENDBRANCH   5   6
ENDBRANCH   4   5
ENDBRANCH   3   4
ENDBRANCH   2   3
ENDBRANCH   1   2
BRANCH   1  12
ATOM     12  C   UNL     1      -7.224 -10.705  -5.702  1.00  0.00     0.000 C 
BRANCH  12  13
ATOM     13  C   UNL     1      -5.840 -10.296  -6.234  1.00  0.00    -0.000 C 
BRANCH  13  14
ATOM     14  C   UNL     1      -4.767 -11.378  -6.015  1.00  0.00    -0.000 C 
BRANCH  14  15
ATOM     15  C   UNL     1      -3.332 -10.858  -5.812  1.00  0.00    -0.000 C 
BRANCH  15  16
ATOM     16  C   UNL     1      -2.382 -11.924  -5.241  1.00  0.00    -0.000 C 
BRANCH  16  17
ATOM     17  C   UNL     1      -2.524 -12.098  -3.717  1.00  0.00    -0.000 C 
BRANCH  17  18
ATOM     18  C   UNL     1      -2.390 -13.547  -3.203  1.00  0.00    -0.000 C 
BRANCH  18  19
ATOM     19  C   UNL     1      -0.944 -14.043  -3.025  1.00  0.00    -0.003 C 
ATOM     20  C   UNL     1      -0.489 -14.041  -1.567  1.00  0.00     0.004 C 
ENDBRANCH  18  19
ENDBRANCH  17  18
ENDBRANCH  16  17
ENDBRANCH  15  16
ENDBRANCH  14  15
ENDBRANCH  13  14
ENDBRANCH  12  13
ENDBRANCH   1  12
TORSDOF 16
ENDMDL
MODEL 6
REMARK VINA RESULT:    -4.697      3.983      9.627
REMARK INTER + INTRA:         -10.395
REMARK INTER:                  -9.379
REMARK INTRA:                  -1.016
REMARK UNBOUND:                -1.304
REMARK SMILES CCCCCCCCCCCCCCCCCC(=O)[O-]
REMARK SMILES IDX 10 1 11 2 12 3 13 4 14 5 15 6 16 7 17 8 18 9 19 10 20 11
REMARK SMILES IDX 9 12 8 13 7 14 6 15 5 16 4 17 3 18 2 19 1 20
REMARK H PARENT
REMARK Flexibility Score: inf
ROOT
ATOM      1  C   UNL     1      -8.559  -8.250  -4.742  1.00  0.00     0.000 C 
ENDROOT
BRANCH   1   2
ATOM      2  C   UNL     1      -9.463  -7.241  -5.479  1.00  0.00     0.000 C 
BRANCH   2   3
ATOM      3  C   UNL     1     -10.868  -7.755  -5.841  1.00  0.00     0.000 C 
BRANCH   3   4
ATOM      4  C   UNL     1     -11.967  -6.705  -5.606  1.00  0.00     0.000 C 
BRANCH   4   5
ATOM      5  C   UNL     1     -11.438  -5.422  -4.937  1.00  0.00     0.000 C 
BRANCH   5   6
ATOM      6  C   UNL     1     -11.533  -4.144  -5.793  1.00  0.00     0.000 C 
BRANCH   6   7
ATOM      7  C   UNL     1     -12.167  -4.325  -7.186  1.00  0.00     0.006 C 
BRANCH   7   8
ATOM      8  C   UNL     1     -11.317  -3.757  -8.338  1.00  0.00     0.053 C 
BRANCH   8   9
ATOM      9  C   UNL     1     -10.819  -4.822  -9.268  1.00  0.00     0.041 C 
ATOM     10  O   UNL     1     -10.702  -6.010  -8.867  1.00  0.00    -0.550 OA
ATOM     11  O   UNL     1     -10.519  -4.511 -10.588  1.00  0.00    -0.550 OA
ENDBRANCH   8   9
ENDBRANCH   7   8
ENDBRANCH   6   7
ENDBRANCH   5   6
ENDBRANCH   4   5
ENDBRANCH   3   4
ENDBRANCH   2   3
ENDBRANCH   1   2
BRANCH   1  12
ATOM     12  C   UNL     1      -8.705  -9.716  -5.186  1.00  0.00     0.000 C 
BRANCH  12  13
ATOM     13  C   UNL     1      -7.373 -10.484  -5.161  1.00  0.00    -0.000 C 
BRANCH  13  14
ATOM     14  C   UNL     1      -6.458 -10.139  -6.350  1.00  0.00    -0.000 C 
BRANCH  14  15
ATOM     15  C   UNL     1      -5.276 -11.100  -6.578  1.00  0.00    -0.000 C 
BRANCH  15  16
ATOM     16  C   UNL     1      -4.133 -10.896  -5.570  1.00  0.00    -0.000 C 
BRANCH  16  17
ATOM     17  C   UNL     1      -2.991 -11.914  -5.744  1.00  0.00    -0.000 C 
BRANCH  17  18
ATOM     18  C   UNL     1      -2.101 -12.126  -4.501  1.00  0.00    -0.000 C 
BRANCH  18  19
ATOM     19  C   UNL     1      -1.895 -13.595  -4.091  1.00  0.00    -0.003 C 
ATOM     20  C   UNL     1      -2.533 -13.933  -2.746  1.00  0.00     0.004 C 
ENDBRANCH  18  19
ENDBRANCH  17  18
ENDBRANCH  16  17
ENDBRANCH  15  16
ENDBRANCH  14  15
ENDBRANCH  13  14
ENDBRANCH  12  13
ENDBRANCH   1  12
TORSDOF 16
ENDMDL
MODEL 7
REMARK VINA RESULT:    -4.619      2.602      4.600
REMARK INTER + INTRA:         -10.245
REMARK INTER:                  -8.421
REMARK INTRA:                  -1.824
REMARK UNBOUND:                -1.304
REMARK SMILES CCCCCCCCCCCCCCCCCC(=O)[O-]
REMARK SMILES IDX 10 1 11 2 12 3 13 4 14 5 15 6 16 7 17 8 18 9 19 10 20 11
REMARK SMILES IDX 9 12 8 13 7 14 6 15 5 16 4 17 3 18 2 19 1 20
REMARK H PARENT
REMARK Flexibility Score: inf
ROOT
ATOM      1  C   UNL     1     -13.001  -7.039  -5.178  1.00  0.00     0.000 C 
ENDROOT
BRANCH   1   2
ATOM      2  C   UNL     1     -13.952  -8.178  -4.752  1.00  0.00     0.000 C 
BRANCH   2   3
ATOM      3  C   UNL     1     -13.383  -9.601  -4.893  1.00  0.00     0.000 C 
BRANCH   3   4
ATOM      4  C   UNL     1     -12.125  -9.656  -5.776  1.00  0.00     0.000 C 
BRANCH   4   5
ATOM      5  C   UNL     1     -12.010 -10.968  -6.576  1.00  0.00     0.000 C 
BRANCH   5   6
ATOM      6  C   UNL     1     -10.811 -11.862  -6.208  1.00  0.00     0.000 C 
BRANCH   6   7
ATOM      7  C   UNL     1      -9.639 -11.145  -5.511  1.00  0.00     0.006 C 
BRANCH   7   8
ATOM      8  C   UNL     1      -8.250 -11.653  -5.943  1.00  0.00     0.053 C 
BRANCH   8   9
ATOM      9  C   UNL     1      -7.178 -10.620  -5.767  1.00  0.00     0.041 C 
ATOM     10  O   UNL     1      -7.067 -10.000  -4.677  1.00  0.00    -0.550 OA
ATOM     11  O   UNL     1      -6.277 -10.368  -6.795  1.00  0.00    -0.550 OA
ENDBRANCH   8   9
ENDBRANCH   7   8
ENDBRANCH   6   7
ENDBRANCH   5   6
ENDBRANCH   4   5
ENDBRANCH   3   4
ENDBRANCH   2   3
ENDBRANCH   1   2
BRANCH   1  12
ATOM     12  C   UNL     1     -13.069  -5.765  -4.318  1.00  0.00     0.000 C 
BRANCH  12  13
ATOM     13  C   UNL     1     -12.068  -4.687  -4.767  1.00  0.00    -0.000 C 
BRANCH  13  14
ATOM     14  C   UNL     1     -12.462  -4.018  -6.097  1.00  0.00    -0.000 C 
BRANCH  14  15
ATOM     15  C   UNL     1     -11.289  -3.639  -7.021  1.00  0.00    -0.000 C 
BRANCH  15  16
ATOM     16  C   UNL     1     -11.403  -4.262  -8.422  1.00  0.00    -0.000 C 
BRANCH  16  17
ATOM     17  C   UNL     1     -10.340  -5.346  -8.683  1.00  0.00    -0.000 C 
BRANCH  17  18
ATOM     18  C   UNL     1     -10.275  -6.473  -7.632  1.00  0.00    -0.000 C 
BRANCH  18  19
ATOM     19  C   UNL     1      -9.239  -6.261  -6.514  1.00  0.00    -0.003 C 
ATOM     20  C   UNL     1      -9.371  -7.277  -5.381  1.00  0.00     0.004 C 
ENDBRANCH  18  19
ENDBRANCH  17  18
ENDBRANCH  16  17
ENDBRANCH  15  16
ENDBRANCH  14  15
ENDBRANCH  13  14
ENDBRANCH  12  13
ENDBRANCH   1  12
TORSDOF 16
ENDMDL
MODEL 8
REMARK VINA RESULT:    -4.610      4.197     10.114
REMARK INTER + INTRA:         -10.227
REMARK INTER:                  -9.499
REMARK INTRA:                  -0.728
REMARK UNBOUND:                -1.304
REMARK SMILES CCCCCCCCCCCCCCCCCC(=O)[O-]
REMARK SMILES IDX 10 1 11 2 12 3 13 4 14 5 15 6 16 7 17 8 18 9 19 10 20 11
REMARK SMILES IDX 9 12 8 13 7 14 6 15 5 16 4 17 3 18 2 19 1 20
REMARK H PARENT
REMARK Flexibility Score: inf
ROOT
ATOM      1  C   UNL     1      -7.406  -9.507  -5.106  1.00  0.00     0.000 C 
ENDROOT
BRANCH   1   2
ATOM      2  C   UNL     1      -8.886  -9.084  -4.993  1.00  0.00     0.000 C 
BRANCH   2   3
ATOM      3  C   UNL     1      -9.160  -7.582  -5.191  1.00  0.00     0.000 C 
BRANCH   3   4
ATOM      4  C   UNL     1     -10.619  -7.287  -5.576  1.00  0.00     0.000 C 
BRANCH   4   5
ATOM      5  C   UNL     1     -11.068  -5.866  -5.186  1.00  0.00     0.000 C 
BRANCH   5   6
ATOM      6  C   UNL     1     -12.493  -5.480  -5.626  1.00  0.00     0.000 C 
BRANCH   6   7
ATOM      7  C   UNL     1     -12.581  -4.354  -6.674  1.00  0.00     0.006 C 
BRANCH   7   8
ATOM      8  C   UNL     1     -11.213  -3.885  -7.204  1.00  0.00     0.053 C 
BRANCH   8   9
ATOM      9  C   UNL     1     -10.946  -4.348  -8.605  1.00  0.00     0.041 C 
ATOM     10  O   UNL     1     -11.099  -3.558  -9.573  1.00  0.00    -0.550 OA
ATOM     11  O   UNL     1     -10.494  -5.641  -8.838  1.00  0.00    -0.550 OA
ENDBRANCH   8   9
ENDBRANCH   7   8
ENDBRANCH   6   7
ENDBRANCH   5   6
ENDBRANCH   4   5
ENDBRANCH   3   4
ENDBRANCH   2   3
ENDBRANCH   1   2
BRANCH   1  12
ATOM     12  C   UNL     1      -7.156 -10.854  -5.807  1.00  0.00     0.000 C 
BRANCH  12  13
ATOM     13  C   UNL     1      -6.153 -10.746  -6.968  1.00  0.00    -0.000 C 
BRANCH  13  14
ATOM     14  C   UNL     1      -4.932 -11.668  -6.796  1.00  0.00    -0.000 C 
BRANCH  14  15
ATOM     15  C   UNL     1      -3.700 -11.019  -6.137  1.00  0.00    -0.000 C 
BRANCH  15  16
ATOM     16  C   UNL     1      -3.204 -11.791  -4.903  1.00  0.00    -0.000 C 
BRANCH  16  17
ATOM     17  C   UNL     1      -2.058 -12.769  -5.227  1.00  0.00    -0.000 C 
BRANCH  17  18
ATOM     18  C   UNL     1      -0.649 -12.293  -4.817  1.00  0.00    -0.000 C 
BRANCH  18  19
ATOM     19  C   UNL     1       0.483 -13.298  -5.093  1.00  0.00    -0.003 C 
ATOM     20  C   UNL     1       0.831 -13.410  -6.576  1.00  0.00     0.004 C 
ENDBRANCH  18  19
ENDBRANCH  17  18
ENDBRANCH  16  17
ENDBRANCH  15  16
ENDBRANCH  14  15
ENDBRANCH  13  14
ENDBRANCH  12  13
ENDBRANCH   1  12
TORSDOF 16
ENDMDL
MODEL 9
REMARK VINA RESULT:    -4.557      4.550      8.604
REMARK INTER + INTRA:         -10.123
REMARK INTER:                  -8.261
REMARK INTRA:                  -1.862
REMARK UNBOUND:                -1.304
REMARK SMILES CCCCCCCCCCCCCCCCCC(=O)[O-]
REMARK SMILES IDX 10 1 11 2 12 3 13 4 14 5 15 6 16 7 17 8 18 9 19 10 20 11
REMARK SMILES IDX 9 12 8 13 7 14 6 15 5 16 4 17 3 18 2 19 1 20
REMARK H PARENT
REMARK Flexibility Score: inf
ROOT
ATOM      1  C   UNL     1      -8.493  -8.940  -4.660  1.00  0.00     0.000 C 
ENDROOT
BRANCH   1   2
ATOM      2  C   UNL     1      -9.629  -8.252  -5.445  1.00  0.00     0.000 C 
BRANCH   2   3
ATOM      3  C   UNL     1      -9.605  -6.713  -5.428  1.00  0.00     0.000 C 
BRANCH   3   4
ATOM      4  C   UNL     1      -9.319  -6.105  -6.812  1.00  0.00     0.000 C 
BRANCH   4   5
ATOM      5  C   UNL     1     -10.601  -5.811  -7.614  1.00  0.00     0.000 C 
BRANCH   5   6
ATOM      6  C   UNL     1     -11.218  -4.418  -7.384  1.00  0.00     0.000 C 
BRANCH   6   7
ATOM      7  C   UNL     1     -12.546  -4.403  -6.601  1.00  0.00     0.006 C 
BRANCH   7   8
ATOM      8  C   UNL     1     -12.369  -4.440  -5.071  1.00  0.00     0.053 C 
BRANCH   8   9
ATOM      9  C   UNL     1     -13.038  -5.624  -4.441  1.00  0.00     0.041 C 
ATOM     10  O   UNL     1     -13.551  -5.527  -3.295  1.00  0.00    -0.550 OA
ATOM     11  O   UNL     1     -13.126  -6.825  -5.133  1.00  0.00    -0.550 OA
ENDBRANCH   8   9
ENDBRANCH   7   8
ENDBRANCH   6   7
ENDBRANCH   5   6
ENDBRANCH   4   5
ENDBRANCH   3   4
ENDBRANCH   2   3
ENDBRANCH   1   2
BRANCH   1  12
ATOM     12  C   UNL     1      -7.548  -9.818  -5.499  1.00  0.00     0.000 C 
BRANCH  12  13
ATOM     13  C   UNL     1      -7.817 -11.322  -5.325  1.00  0.00    -0.000 C 
BRANCH  13  14
ATOM     14  C   UNL     1      -8.356 -11.989  -6.604  1.00  0.00    -0.000 C 
BRANCH  14  15
ATOM     15  C   UNL     1      -9.759 -12.613  -6.487  1.00  0.00    -0.000 C 
BRANCH  15  16
ATOM     16  C   UNL     1     -10.888 -11.575  -6.592  1.00  0.00    -0.000 C 
BRANCH  16  17
ATOM     17  C   UNL     1     -11.862 -11.626  -5.399  1.00  0.00    -0.000 C 
BRANCH  17  18
ATOM     18  C   UNL     1     -11.201 -11.795  -4.015  1.00  0.00    -0.000 C 
BRANCH  18  19
ATOM     19  C   UNL     1     -11.639 -13.047  -3.234  1.00  0.00    -0.003 C 
ATOM     20  C   UNL     1     -13.156 -13.168  -3.106  1.00  0.00     0.004 C 
ENDBRANCH  18  19
ENDBRANCH  17  18
ENDBRANCH  16  17
ENDBRANCH  15  16
ENDBRANCH  14  15
ENDBRANCH  13  14
ENDBRANCH  12  13
ENDBRANCH   1  12
TORSDOF 16
ENDMDL
