MODEL 1
REMARK VINA RESULT:    -5.635      0.000      0.000
REMARK INTER + INTRA:         -13.600
REMARK INTER:                 -12.224
REMARK INTRA:                  -1.376
REMARK UNBOUND:                -1.376
REMARK SMILES CCCCCCCCCCCCCCCCCCCCCC(=O)[O-]
REMARK SMILES IDX 12 1 11 2 10 3 9 4 8 5 7 6 6 7 5 8 4 9 3 10 2 11 1 12 13 13
REMARK SMILES IDX 14 14 15 15 16 16 17 17 18 18 19 19 20 20 21 21 22 22 23 23
REMARK SMILES IDX 24 24
REMARK H PARENT
REMARK Flexibility Score: inf
ROOT
ATOM      1  C   UNL     1      26.227  -0.666  30.183  1.00  0.00     0.000 C 
ENDROOT
BRANCH   1   2
ATOM      2  C   UNL     1      26.842  -0.007  28.938  1.00  0.00     0.000 C 
BRANCH   2   3
ATOM      3  C   UNL     1      26.931   1.516  29.110  1.00  0.00     0.000 C 
BRANCH   3   4
ATOM      4  C   UNL     1      28.327   1.979  29.557  1.00  0.00    -0.000 C 
BRANCH   4   5
ATOM      5  C   UNL     1      28.485   1.989  31.087  1.00  0.00    -0.000 C 
BRANCH   5   6
ATOM      6  C   UNL     1      28.162   3.370  31.699  1.00  0.00    -0.000 C 
BRANCH   6   7
ATOM      7  C   UNL     1      28.423   4.554  30.745  1.00  0.00    -0.000 C 
BRANCH   7   8
ATOM      8  C   UNL     1      27.164   5.273  30.232  1.00  0.00    -0.000 C 
BRANCH   8   9
ATOM      9  C   UNL     1      27.101   6.748  30.663  1.00  0.00    -0.000 C 
BRANCH   9  10
ATOM     10  C   UNL     1      28.256   7.590  30.087  1.00  0.00    -0.000 C 
BRANCH  10  11
ATOM     11  C   UNL     1      27.993   9.107  30.037  1.00  0.00    -0.003 C 
ATOM     12  C   UNL     1      26.521   9.452  29.809  1.00  0.00     0.004 C 
ENDBRANCH  10  11
ENDBRANCH   9  10
ENDBRANCH   8   9
ENDBRANCH   7   8
ENDBRANCH   6   7
ENDBRANCH   5   6
ENDBRANCH   4   5
ENDBRANCH   3   4
ENDBRANCH   2   3
ENDBRANCH   1   2
BRANCH   1  13
ATOM     13  C   UNL     1      27.141  -1.734  30.806  1.00  0.00     0.000 C 
BRANCH  13  14
ATOM     14  C   UNL     1      28.019  -2.448  29.763  1.00  0.00     0.000 C 
BRANCH  14  15
ATOM     15  C   UNL     1      29.520  -2.325  30.075  1.00  0.00     0.000 C 
BRANCH  15  16
ATOM     16  C   UNL     1      30.228  -3.687  30.135  1.00  0.00     0.000 C 
BRANCH  16  17
ATOM     17  C   UNL     1      29.220  -4.836  29.983  1.00  0.00     0.000 C 
BRANCH  17  18
ATOM     18  C   UNL     1      29.631  -6.097  30.764  1.00  0.00     0.000 C 
BRANCH  18  19
ATOM     19  C   UNL     1      28.486  -7.091  31.048  1.00  0.00     0.000 C 
BRANCH  19  20
ATOM     20  C   UNL     1      28.930  -8.459  31.607  1.00  0.00     0.006 C 
BRANCH  20  21
ATOM     21  C   UNL     1      29.850  -9.260  30.669  1.00  0.00     0.053 C 
BRANCH  21  22
ATOM     22  C   UNL     1      29.142  -9.687  29.421  1.00  0.00     0.041 C 
ATOM     23  O   UNL     1      29.737  -9.653  28.312  1.00  0.00    -0.550 OA
ATOM     24  O   UNL     1      27.817 -10.099  29.479  1.00  0.00    -0.550 OA
ENDBRANCH  21  22
ENDBRANCH  20  21
ENDBRANCH  19  20
ENDBRANCH  18  19
ENDBRANCH  17  18
ENDBRANCH  16  17
ENDBRANCH  15  16
ENDBRANCH  14  15
ENDBRANCH  13  14
ENDBRANCH   1  13
TORSDOF 20
ENDMDL
MODEL 2
REMARK VINA RESULT:    -5.608      3.567      5.876
REMARK INTER + INTRA:         -13.540
REMARK INTER:                 -11.778
REMARK INTRA:                  -1.762
REMARK UNBOUND:                -1.376
REMARK SMILES CCCCCCCCCCCCCCCCCCCCCC(=O)[O-]
REMARK SMILES IDX 12 1 11 2 10 3 9 4 8 5 7 6 6 7 5 8 4 9 3 10 2 11 1 12 13 13
REMARK SMILES IDX 14 14 15 15 16 16 17 17 18 18 19 19 20 20 21 21 22 22 23 23
REMARK SMILES IDX 24 24
REMARK H PARENT
REMARK Flexibility Score: inf
ROOT
ATOM      1  C   UNL     1      29.382   0.721  30.483  1.00  0.00     0.000 C 
ENDROOT
BRANCH   1   2
ATOM      2  C   UNL     1      27.858   0.814  30.663  1.00  0.00     0.000 C 
BRANCH   2   3
ATOM      3  C   UNL     1      27.143   0.821  29.304  1.00  0.00     0.000 C 
BRANCH   3   4
ATOM      4  C   UNL     1      26.094  -0.296  29.184  1.00  0.00    -0.000 C 
BRANCH   4   5
ATOM      5  C   UNL     1      25.393  -0.594  30.521  1.00  0.00    -0.000 C 
BRANCH   5   6
ATOM      6  C   UNL     1      24.429  -1.796  30.421  1.00  0.00    -0.000 C 
BRANCH   6   7
ATOM      7  C   UNL     1      22.937  -1.403  30.415  1.00  0.00    -0.000 C 
BRANCH   7   8
ATOM      8  C   UNL     1      21.978  -2.477  29.871  1.00  0.00    -0.000 C 
BRANCH   8   9
ATOM      9  C   UNL     1      20.737  -1.879  29.187  1.00  0.00    -0.000 C 
BRANCH   9  10
ATOM     10  C   UNL     1      21.086  -0.752  28.195  1.00  0.00    -0.000 C 
BRANCH  10  11
ATOM     11  C   UNL     1      21.340  -1.215  26.748  1.00  0.00    -0.003 C 
ATOM     12  C   UNL     1      22.429  -0.406  26.044  1.00  0.00     0.004 C 
ENDBRANCH  10  11
ENDBRANCH   9  10
ENDBRANCH   8   9
ENDBRANCH   7   8
ENDBRANCH   6   7
ENDBRANCH   5   6
ENDBRANCH   4   5
ENDBRANCH   3   4
ENDBRANCH   2   3
ENDBRANCH   1   2
BRANCH   1  13
ATOM     13  C   UNL     1      29.930  -0.688  30.762  1.00  0.00     0.000 C 
BRANCH  13  14
ATOM     14  C   UNL     1      29.533  -1.707  29.679  1.00  0.00     0.000 C 
BRANCH  14  15
ATOM     15  C   UNL     1      29.272  -3.108  30.258  1.00  0.00     0.000 C 
BRANCH  15  16
ATOM     16  C   UNL     1      27.791  -3.349  30.588  1.00  0.00     0.000 C 
BRANCH  16  17
ATOM     17  C   UNL     1      27.468  -4.851  30.589  1.00  0.00     0.000 C 
BRANCH  17  18
ATOM     18  C   UNL     1      28.720  -5.730  30.421  1.00  0.00     0.000 C 
BRANCH  18  19
ATOM     19  C   UNL     1      28.869  -6.394  29.036  1.00  0.00     0.000 C 
BRANCH  19  20
ATOM     20  C   UNL     1      29.029  -7.929  29.059  1.00  0.00     0.006 C 
BRANCH  20  21
ATOM     21  C   UNL     1      28.290  -8.627  30.214  1.00  0.00     0.053 C 
BRANCH  21  22
ATOM     22  C   UNL     1      29.238  -9.288  31.166  1.00  0.00     0.041 C 
ATOM     23  O   UNL     1      30.329  -9.760  30.749  1.00  0.00    -0.550 OA
ATOM     24  O   UNL     1      28.905  -9.407  32.509  1.00  0.00    -0.550 OA
ENDBRANCH  21  22
ENDBRANCH  20  21
ENDBRANCH  19  20
ENDBRANCH  18  19
ENDBRANCH  17  18
ENDBRANCH  16  17
ENDBRANCH  15  16
ENDBRANCH  14  15
ENDBRANCH  13  14
ENDBRANCH   1  13
TORSDOF 20
ENDMDL
MODEL 3
REMARK VINA RESULT:    -5.600      3.414      6.023
REMARK INTER + INTRA:         -13.523
REMARK INTER:                 -11.721
REMARK INTRA:                  -1.802
REMARK UNBOUND:                -1.376
REMARK SMILES CCCCCCCCCCCCCCCCCCCCCC(=O)[O-]
REMARK SMILES IDX 12 1 11 2 10 3 9 4 8 5 7 6 6 7 5 8 4 9 3 10 2 11 1 12 13 13
REMARK SMILES IDX 14 14 15 15 16 16 17 17 18 18 19 19 20 20 21 21 22 22 23 23
REMARK SMILES IDX 24 24
REMARK H PARENT
REMARK Flexibility Score: inf
ROOT
ATOM      1  C   UNL     1      28.916   0.260  29.361  1.00  0.00     0.000 C 
ENDROOT
BRANCH   1   2
ATOM      2  C   UNL     1      27.620   1.051  29.602  1.00  0.00     0.000 C 
BRANCH   2   3
ATOM      3  C   UNL     1      26.392   0.132  29.521  1.00  0.00     0.000 C 
BRANCH   3   4
ATOM      4  C   UNL     1      26.155  -0.410  28.103  1.00  0.00    -0.000 C 
BRANCH   4   5
ATOM      5  C   UNL     1      25.554   0.647  27.159  1.00  0.00    -0.000 C 
BRANCH   5   6
ATOM      6  C   UNL     1      24.650   0.018  26.076  1.00  0.00    -0.000 C 
BRANCH   6   7
ATOM      7  C   UNL     1      23.223   0.603  26.034  1.00  0.00    -0.000 C 
BRANCH   7   8
ATOM      8  C   UNL     1      22.098  -0.427  25.838  1.00  0.00    -0.000 C 
BRANCH   8   9
ATOM      9  C   UNL     1      21.236  -0.618  27.098  1.00  0.00    -0.000 C 
BRANCH   9  10
ATOM     10  C   UNL     1      21.191  -2.082  27.575  1.00  0.00    -0.000 C 
BRANCH  10  11
ATOM     11  C   UNL     1      20.951  -2.266  29.086  1.00  0.00    -0.003 C 
ATOM     12  C   UNL     1      21.971  -1.523  29.949  1.00  0.00     0.004 C 
ENDBRANCH  10  11
ENDBRANCH   9  10
ENDBRANCH   8   9
ENDBRANCH   7   8
ENDBRANCH   6   7
ENDBRANCH   5   6
ENDBRANCH   4   5
ENDBRANCH   3   4
ENDBRANCH   2   3
ENDBRANCH   1   2
BRANCH   1  13
ATOM     13  C   UNL     1      29.450  -0.411  30.637  1.00  0.00     0.000 C 
BRANCH  13  14
ATOM     14  C   UNL     1      29.835  -1.885  30.419  1.00  0.00     0.000 C 
BRANCH  14  15
ATOM     15  C   UNL     1      28.660  -2.728  29.894  1.00  0.00     0.000 C 
BRANCH  15  16
ATOM     16  C   UNL     1      27.652  -3.092  30.994  1.00  0.00     0.000 C 
BRANCH  16  17
ATOM     17  C   UNL     1      26.762  -4.265  30.554  1.00  0.00     0.000 C 
BRANCH  17  18
ATOM     18  C   UNL     1      27.573  -5.477  30.064  1.00  0.00     0.000 C 
BRANCH  18  19
ATOM     19  C   UNL     1      28.389  -6.201  31.154  1.00  0.00     0.000 C 
BRANCH  19  20
ATOM     20  C   UNL     1      29.670  -6.904  30.655  1.00  0.00     0.006 C 
BRANCH  20  21
ATOM     21  C   UNL     1      29.591  -8.440  30.650  1.00  0.00     0.053 C 
BRANCH  21  22
ATOM     22  C   UNL     1      28.809  -8.956  29.482  1.00  0.00     0.041 C 
ATOM     23  O   UNL     1      27.626  -9.357  29.639  1.00  0.00    -0.550 OA
ATOM     24  O   UNL     1      29.398  -9.020  28.225  1.00  0.00    -0.550 OA
ENDBRANCH  21  22
ENDBRANCH  20  21
ENDBRANCH  19  20
ENDBRANCH  18  19
ENDBRANCH  17  18
ENDBRANCH  16  17
ENDBRANCH  15  16
ENDBRANCH  14  15
ENDBRANCH  13  14
ENDBRANCH   1  13
TORSDOF 20
ENDMDL
MODEL 4
REMARK VINA RESULT:    -5.584      5.576     12.728
REMARK INTER + INTRA:         -13.490
REMARK INTER:                 -12.106
REMARK INTRA:                  -1.384
REMARK UNBOUND:                -1.376
REMARK SMILES CCCCCCCCCCCCCCCCCCCCCC(=O)[O-]
REMARK SMILES IDX 12 1 11 2 10 3 9 4 8 5 7 6 6 7 5 8 4 9 3 10 2 11 1 12 13 13
REMARK SMILES IDX 14 14 15 15 16 16 17 17 18 18 19 19 20 20 21 21 22 22 23 23
REMARK SMILES IDX 24 24
REMARK H PARENT
REMARK Flexibility Score: inf
ROOT
ATOM      1  C   UNL     1      29.139  -0.411  29.222  1.00  0.00     0.000 C 
ENDROOT
BRANCH   1   2
ATOM      2  C   UNL     1      29.449  -1.510  30.252  1.00  0.00     0.000 C 
BRANCH   2   3
ATOM      3  C   UNL     1      28.155  -2.121  30.810  1.00  0.00     0.000 C 
BRANCH   3   4
ATOM      4  C   UNL     1      28.106  -3.648  30.643  1.00  0.00    -0.000 C 
BRANCH   4   5
ATOM      5  C   UNL     1      29.210  -4.177  29.712  1.00  0.00    -0.000 C 
BRANCH   5   6
ATOM      6  C   UNL     1      29.146  -5.710  29.541  1.00  0.00    -0.000 C 
BRANCH   6   7
ATOM      7  C   UNL     1      29.667  -6.498  30.761  1.00  0.00    -0.000 C 
BRANCH   7   8
ATOM      8  C   UNL     1      28.586  -7.219  31.586  1.00  0.00    -0.000 C 
BRANCH   8   9
ATOM      9  C   UNL     1      28.803  -8.740  31.654  1.00  0.00    -0.000 C 
BRANCH   9  10
ATOM     10  C   UNL     1      29.982  -9.216  30.784  1.00  0.00    -0.000 C 
BRANCH  10  11
ATOM     11  C   UNL     1      29.594 -10.122  29.600  1.00  0.00    -0.003 C 
ATOM     12  C   UNL     1      28.782  -9.392  28.530  1.00  0.00     0.004 C 
ENDBRANCH  10  11
ENDBRANCH   9  10
ENDBRANCH   8   9
ENDBRANCH   7   8
ENDBRANCH   6   7
ENDBRANCH   5   6
ENDBRANCH   4   5
ENDBRANCH   3   4
ENDBRANCH   2   3
ENDBRANCH   1   2
BRANCH   1  13
ATOM     13  C   UNL     1      27.648  -0.343  28.856  1.00  0.00     0.000 C 
BRANCH  13  14
ATOM     14  C   UNL     1      26.963   0.934  29.377  1.00  0.00     0.000 C 
BRANCH  14  15
ATOM     15  C   UNL     1      27.963   2.076  29.627  1.00  0.00     0.000 C 
BRANCH  15  16
ATOM     16  C   UNL     1      28.125   2.409  31.118  1.00  0.00     0.000 C 
BRANCH  16  17
ATOM     17  C   UNL     1      28.406   3.906  31.317  1.00  0.00     0.000 C 
BRANCH  17  18
ATOM     18  C   UNL     1      27.646   4.793  30.315  1.00  0.00     0.000 C 
BRANCH  18  19
ATOM     19  C   UNL     1      27.996   6.295  30.376  1.00  0.00     0.000 C 
BRANCH  19  20
ATOM     20  C   UNL     1      26.831   7.223  30.780  1.00  0.00     0.006 C 
BRANCH  20  21
ATOM     21  C   UNL     1      26.884   8.623  30.144  1.00  0.00     0.053 C 
BRANCH  21  22
ATOM     22  C   UNL     1      28.291   9.104  29.966  1.00  0.00     0.041 C 
ATOM     23  O   UNL     1      28.841   9.050  28.834  1.00  0.00    -0.550 OA
ATOM     24  O   UNL     1      29.004   9.587  31.056  1.00  0.00    -0.550 OA
ENDBRANCH  21  22
ENDBRANCH  20  21
ENDBRANCH  19  20
ENDBRANCH  18  19
ENDBRANCH  17  18
ENDBRANCH  16  17
ENDBRANCH  15  16
ENDBRANCH  14  15
ENDBRANCH  13  14
ENDBRANCH   1  13
TORSDOF 20
ENDMDL
MODEL 5
REMARK VINA RESULT:    -5.542      4.336      6.818
REMARK INTER + INTRA:         -13.398
REMARK INTER:                 -11.600
REMARK INTRA:                  -1.798
REMARK UNBOUND:                -1.376
REMARK SMILES CCCCCCCCCCCCCCCCCCCCCC(=O)[O-]
REMARK SMILES IDX 12 1 11 2 10 3 9 4 8 5 7 6 6 7 5 8 4 9 3 10 2 11 1 12 13 13
REMARK SMILES IDX 14 14 15 15 16 16 17 17 18 18 19 19 20 20 21 21 22 22 23 23
REMARK SMILES IDX 24 24
REMARK H PARENT
REMARK Flexibility Score: inf
ROOT
ATOM      1  C   UNL     1      26.759  -1.482  30.712  1.00  0.00     0.000 C 
ENDROOT
BRANCH   1   2
ATOM      2  C   UNL     1      28.020  -2.113  30.100  1.00  0.00     0.000 C 
BRANCH   2   3
ATOM      3  C   UNL     1      29.290  -1.446  30.649  1.00  0.00     0.000 C 
BRANCH   3   4
ATOM      4  C   UNL     1      28.986  -0.416  31.749  1.00  0.00    -0.000 C 
BRANCH   4   5
ATOM      5  C   UNL     1      29.568   0.973  31.435  1.00  0.00    -0.000 C 
BRANCH   5   6
ATOM      6  C   UNL     1      28.468   2.042  31.260  1.00  0.00    -0.000 C 
BRANCH   6   7
ATOM      7  C   UNL     1      27.987   2.213  29.803  1.00  0.00    -0.000 C 
BRANCH   7   8
ATOM      8  C   UNL     1      27.677   3.659  29.380  1.00  0.00    -0.000 C 
BRANCH   8   9
ATOM      9  C   UNL     1      27.750   4.652  30.553  1.00  0.00    -0.000 C 
BRANCH   9  10
ATOM     10  C   UNL     1      28.489   5.954  30.189  1.00  0.00    -0.000 C 
BRANCH  10  11
ATOM     11  C   UNL     1      27.643   7.237  30.305  1.00  0.00    -0.003 C 
ATOM     12  C   UNL     1      28.482   8.514  30.243  1.00  0.00     0.004 C 
ENDBRANCH  10  11
ENDBRANCH   9  10
ENDBRANCH   8   9
ENDBRANCH   7   8
ENDBRANCH   6   7
ENDBRANCH   5   6
ENDBRANCH   4   5
ENDBRANCH   3   4
ENDBRANCH   2   3
ENDBRANCH   1   2
BRANCH   1  13
ATOM     13  C   UNL     1      25.808  -0.905  29.652  1.00  0.00     0.000 C 
BRANCH  13  14
ATOM     14  C   UNL     1      26.544  -0.432  28.385  1.00  0.00     0.000 C 
BRANCH  14  15
ATOM     15  C   UNL     1      25.745   0.624  27.602  1.00  0.00     0.000 C 
BRANCH  15  16
ATOM     16  C   UNL     1      24.986   0.028  26.406  1.00  0.00     0.000 C 
BRANCH  16  17
ATOM     17  C   UNL     1      24.049   1.071  25.778  1.00  0.00     0.000 C 
BRANCH  17  18
ATOM     18  C   UNL     1      22.562   0.706  25.932  1.00  0.00     0.000 C 
BRANCH  18  19
ATOM     19  C   UNL     1      22.280  -0.789  26.187  1.00  0.00     0.000 C 
BRANCH  19  20
ATOM     20  C   UNL     1      20.918  -1.095  26.847  1.00  0.00     0.006 C 
BRANCH  20  21
ATOM     21  C   UNL     1      20.832  -0.711  28.333  1.00  0.00     0.053 C 
BRANCH  21  22
ATOM     22  C   UNL     1      21.335  -1.803  29.225  1.00  0.00     0.041 C 
ATOM     23  O   UNL     1      20.977  -2.995  29.031  1.00  0.00    -0.550 OA
ATOM     24  O   UNL     1      22.178  -1.501  30.287  1.00  0.00    -0.550 OA
ENDBRANCH  21  22
ENDBRANCH  20  21
ENDBRANCH  19  20
ENDBRANCH  18  19
ENDBRANCH  17  18
ENDBRANCH  16  17
ENDBRANCH  15  16
ENDBRANCH  14  15
ENDBRANCH  13  14
ENDBRANCH   1  13
TORSDOF 20
ENDMDL
MODEL 6
REMARK VINA RESULT:    -5.525      5.739     12.480
REMARK INTER + INTRA:         -13.361
REMARK INTER:                 -11.831
REMARK INTRA:                  -1.531
REMARK UNBOUND:                -1.376
REMARK SMILES CCCCCCCCCCCCCCCCCCCCCC(=O)[O-]
REMARK SMILES IDX 12 1 11 2 10 3 9 4 8 5 7 6 6 7 5 8 4 9 3 10 2 11 1 12 13 13
REMARK SMILES IDX 14 14 15 15 16 16 17 17 18 18 19 19 20 20 21 21 22 22 23 23
REMARK SMILES IDX 24 24
REMARK H PARENT
REMARK Flexibility Score: inf
ROOT
ATOM      1  C   UNL     1      30.201  -0.573  29.997  1.00  0.00     0.000 C 
ENDROOT
BRANCH   1   2
ATOM      2  C   UNL     1      29.151  -1.417  29.257  1.00  0.00     0.000 C 
BRANCH   2   3
ATOM      3  C   UNL     1      28.846  -2.712  30.024  1.00  0.00     0.000 C 
BRANCH   3   4
ATOM      4  C   UNL     1      27.426  -2.727  30.613  1.00  0.00    -0.000 C 
BRANCH   4   5
ATOM      5  C   UNL     1      26.862  -4.151  30.759  1.00  0.00    -0.000 C 
BRANCH   5   6
ATOM      6  C   UNL     1      27.789  -5.215  30.132  1.00  0.00    -0.000 C 
BRANCH   6   7
ATOM      7  C   UNL     1      28.496  -6.117  31.165  1.00  0.00    -0.000 C 
BRANCH   7   8
ATOM      8  C   UNL     1      29.547  -7.079  30.585  1.00  0.00    -0.000 C 
BRANCH   8   9
ATOM      9  C   UNL     1      29.004  -7.926  29.423  1.00  0.00    -0.000 C 
BRANCH   9  10
ATOM     10  C   UNL     1      28.654  -9.366  29.845  1.00  0.00    -0.000 C 
BRANCH  10  11
ATOM     11  C   UNL     1      29.343  -9.852  31.134  1.00  0.00    -0.003 C 
ATOM     12  C   UNL     1      28.402  -9.892  32.337  1.00  0.00     0.004 C 
ENDBRANCH  10  11
ENDBRANCH   9  10
ENDBRANCH   8   9
ENDBRANCH   7   8
ENDBRANCH   6   7
ENDBRANCH   5   6
ENDBRANCH   4   5
ENDBRANCH   3   4
ENDBRANCH   2   3
ENDBRANCH   1   2
BRANCH   1  13
ATOM     13  C   UNL     1      29.711  -0.084  31.370  1.00  0.00     0.000 C 
BRANCH  13  14
ATOM     14  C   UNL     1      29.127   1.339  31.323  1.00  0.00     0.000 C 
BRANCH  14  15
ATOM     15  C   UNL     1      27.607   1.342  31.089  1.00  0.00     0.000 C 
BRANCH  15  16
ATOM     16  C   UNL     1      27.228   1.708  29.646  1.00  0.00     0.000 C 
BRANCH  16  17
ATOM     17  C   UNL     1      27.974   2.970  29.187  1.00  0.00     0.000 C 
BRANCH  17  18
ATOM     18  C   UNL     1      27.402   4.258  29.803  1.00  0.00     0.000 C 
BRANCH  18  19
ATOM     19  C   UNL     1      28.406   5.091  30.627  1.00  0.00     0.000 C 
BRANCH  19  20
ATOM     20  C   UNL     1      28.381   6.609  30.351  1.00  0.00     0.006 C 
BRANCH  20  21
ATOM     21  C   UNL     1      26.985   7.249  30.447  1.00  0.00     0.053 C 
BRANCH  21  22
ATOM     22  C   UNL     1      27.047   8.743  30.367  1.00  0.00     0.041 C 
ATOM     23  O   UNL     1      26.134   9.384  29.783  1.00  0.00    -0.550 OA
ATOM     24  O   UNL     1      28.127   9.424  30.914  1.00  0.00    -0.550 OA
ENDBRANCH  21  22
ENDBRANCH  20  21
ENDBRANCH  19  20
ENDBRANCH  18  19
ENDBRANCH  17  18
ENDBRANCH  16  17
ENDBRANCH  15  16
ENDBRANCH  14  15
ENDBRANCH  13  14
ENDBRANCH   1  13
TORSDOF 20
ENDMDL
MODEL 7
REMARK VINA RESULT:    -5.516      1.458      2.040
REMARK INTER + INTRA:         -13.341
REMARK INTER:                 -12.275
REMARK INTRA:                  -1.066
REMARK UNBOUND:                -1.376
REMARK SMILES CCCCCCCCCCCCCCCCCCCCCC(=O)[O-]
REMARK SMILES IDX 12 1 11 2 10 3 9 4 8 5 7 6 6 7 5 8 4 9 3 10 2 11 1 12 13 13
REMARK SMILES IDX 14 14 15 15 16 16 17 17 18 18 19 19 20 20 21 21 22 22 23 23
REMARK SMILES IDX 24 24
REMARK H PARENT
REMARK Flexibility Score: inf
ROOT
ATOM      1  C   UNL     1      26.918  -0.387  28.661  1.00  0.00     0.000 C 
ENDROOT
BRANCH   1   2
ATOM      2  C   UNL     1      26.750   0.845  29.565  1.00  0.00     0.000 C 
BRANCH   2   3
ATOM      3  C   UNL     1      28.046   1.667  29.622  1.00  0.00     0.000 C 
BRANCH   3   4
ATOM      4  C   UNL     1      28.513   1.931  31.062  1.00  0.00    -0.000 C 
BRANCH   4   5
ATOM      5  C   UNL     1      28.362   3.407  31.471  1.00  0.00    -0.000 C 
BRANCH   5   6
ATOM      6  C   UNL     1      27.970   4.307  30.280  1.00  0.00    -0.000 C 
BRANCH   6   7
ATOM      7  C   UNL     1      27.141   5.547  30.678  1.00  0.00    -0.000 C 
BRANCH   7   8
ATOM      8  C   UNL     1      27.762   6.901  30.296  1.00  0.00    -0.000 C 
BRANCH   8   9
ATOM      9  C   UNL     1      26.812   8.085  30.543  1.00  0.00    -0.000 C 
BRANCH   9  10
ATOM     10  C   UNL     1      27.549   9.435  30.637  1.00  0.00    -0.000 C 
BRANCH  10  11
ATOM     11  C   UNL     1      28.693   9.623  29.623  1.00  0.00    -0.003 C 
ATOM     12  C   UNL     1      28.208  10.109  28.257  1.00  0.00     0.004 C 
ENDBRANCH  10  11
ENDBRANCH   9  10
ENDBRANCH   8   9
ENDBRANCH   7   8
ENDBRANCH   6   7
ENDBRANCH   5   6
ENDBRANCH   4   5
ENDBRANCH   3   4
ENDBRANCH   2   3
ENDBRANCH   1   2
BRANCH   1  13
ATOM     13  C   UNL     1      28.180  -1.199  28.992  1.00  0.00     0.000 C 
BRANCH  13  14
ATOM     14  C   UNL     1      28.237  -1.639  30.466  1.00  0.00     0.000 C 
BRANCH  14  15
ATOM     15  C   UNL     1      28.449  -3.155  30.618  1.00  0.00     0.000 C 
BRANCH  15  16
ATOM     16  C   UNL     1      27.131  -3.944  30.610  1.00  0.00     0.000 C 
BRANCH  16  17
ATOM     17  C   UNL     1      27.346  -5.364  30.064  1.00  0.00     0.000 C 
BRANCH  17  18
ATOM     18  C   UNL     1      28.827  -5.679  29.790  1.00  0.00     0.000 C 
BRANCH  18  19
ATOM     19  C   UNL     1      29.319  -7.033  30.343  1.00  0.00     0.000 C 
BRANCH  19  20
ATOM     20  C   UNL     1      28.936  -8.265  29.495  1.00  0.00     0.006 C 
BRANCH  20  21
ATOM     21  C   UNL     1      28.223  -9.380  30.281  1.00  0.00     0.053 C 
BRANCH  21  22
ATOM     22  C   UNL     1      28.852  -9.611  31.620  1.00  0.00     0.041 C 
ATOM     23  O   UNL     1      28.225  -9.319  32.673  1.00  0.00    -0.550 OA
ATOM     24  O   UNL     1      30.140 -10.123  31.705  1.00  0.00    -0.550 OA
ENDBRANCH  21  22
ENDBRANCH  20  21
ENDBRANCH  19  20
ENDBRANCH  18  19
ENDBRANCH  17  18
ENDBRANCH  16  17
ENDBRANCH  15  16
ENDBRANCH  14  15
ENDBRANCH  13  14
ENDBRANCH   1  13
TORSDOF 20
ENDMDL
MODEL 8
REMARK VINA RESULT:    -5.504      5.807     12.963
REMARK INTER + INTRA:         -13.315
REMARK INTER:                 -12.208
REMARK INTRA:                  -1.106
REMARK UNBOUND:                -1.376
REMARK SMILES CCCCCCCCCCCCCCCCCCCCCC(=O)[O-]
REMARK SMILES IDX 12 1 11 2 10 3 9 4 8 5 7 6 6 7 5 8 4 9 3 10 2 11 1 12 13 13
REMARK SMILES IDX 14 14 15 15 16 16 17 17 18 18 19 19 20 20 21 21 22 22 23 23
REMARK SMILES IDX 24 24
REMARK H PARENT
REMARK Flexibility Score: inf
ROOT
ATOM      1  C   UNL     1      27.254  -1.081  29.538  1.00  0.00     0.000 C 
ENDROOT
BRANCH   1   2
ATOM      2  C   UNL     1      26.729  -2.269  30.361  1.00  0.00     0.000 C 
BRANCH   2   3
ATOM      3  C   UNL     1      27.857  -3.264  30.671  1.00  0.00     0.000 C 
BRANCH   3   4
ATOM      4  C   UNL     1      29.231  -2.763  30.198  1.00  0.00    -0.000 C 
BRANCH   4   5
ATOM      5  C   UNL     1      30.121  -3.896  29.659  1.00  0.00    -0.000 C 
BRANCH   5   6
ATOM      6  C   UNL     1      29.402  -5.263  29.676  1.00  0.00    -0.000 C 
BRANCH   6   7
ATOM      7  C   UNL     1      29.715  -6.120  30.921  1.00  0.00    -0.000 C 
BRANCH   7   8
ATOM      8  C   UNL     1      28.715  -7.254  31.204  1.00  0.00    -0.000 C 
BRANCH   8   9
ATOM      9  C   UNL     1      29.357  -8.649  31.129  1.00  0.00    -0.000 C 
BRANCH   9  10
ATOM     10  C   UNL     1      28.396  -9.721  30.580  1.00  0.00    -0.000 C 
BRANCH  10  11
ATOM     11  C   UNL     1      28.210  -9.706  29.050  1.00  0.00    -0.003 C 
ATOM     12  C   UNL     1      29.531  -9.611  28.288  1.00  0.00     0.004 C 
ENDBRANCH  10  11
ENDBRANCH   9  10
ENDBRANCH   8   9
ENDBRANCH   7   8
ENDBRANCH   6   7
ENDBRANCH   5   6
ENDBRANCH   4   5
ENDBRANCH   3   4
ENDBRANCH   2   3
ENDBRANCH   1   2
BRANCH   1  13
ATOM     13  C   UNL     1      26.756   0.274  30.065  1.00  0.00     0.000 C 
BRANCH  13  14
ATOM     14  C   UNL     1      27.573   0.783  31.266  1.00  0.00     0.000 C 
BRANCH  14  15
ATOM     15  C   UNL     1      28.554   1.901  30.878  1.00  0.00     0.000 C 
BRANCH  15  16
ATOM     16  C   UNL     1      28.162   3.266  31.462  1.00  0.00     0.000 C 
BRANCH  16  17
ATOM     17  C   UNL     1      27.803   4.258  30.345  1.00  0.00     0.000 C 
BRANCH  17  18
ATOM     18  C   UNL     1      28.601   5.570  30.432  1.00  0.00     0.000 C 
BRANCH  18  19
ATOM     19  C   UNL     1      27.748   6.855  30.432  1.00  0.00     0.000 C 
BRANCH  19  20
ATOM     20  C   UNL     1      28.449   8.108  29.866  1.00  0.00     0.006 C 
BRANCH  20  21
ATOM     21  C   UNL     1      28.241   9.384  30.699  1.00  0.00     0.053 C 
BRANCH  21  22
ATOM     22  C   UNL     1      26.809   9.565  31.097  1.00  0.00     0.041 C 
ATOM     23  O   UNL     1      25.939   9.836  30.228  1.00  0.00    -0.550 OA
ATOM     24  O   UNL     1      26.440   9.460  32.432  1.00  0.00    -0.550 OA
ENDBRANCH  21  22
ENDBRANCH  20  21
ENDBRANCH  19  20
ENDBRANCH  18  19
ENDBRANCH  17  18
ENDBRANCH  16  17
ENDBRANCH  15  16
ENDBRANCH  14  15
ENDBRANCH  13  14
ENDBRANCH   1  13
TORSDOF 20
ENDMDL
MODEL 9
REMARK VINA RESULT:    -5.385      1.372      2.219
REMARK INTER + INTRA:         -13.058
REMARK INTER:                 -11.974
REMARK INTRA:                  -1.084
REMARK UNBOUND:                -1.376
REMARK SMILES CCCCCCCCCCCCCCCCCCCCCC(=O)[O-]
REMARK SMILES IDX 12 1 11 2 10 3 9 4 8 5 7 6 6 7 5 8 4 9 3 10 2 11 1 12 13 13
REMARK SMILES IDX 14 14 15 15 16 16 17 17 18 18 19 19 20 20 21 21 22 22 23 23
REMARK SMILES IDX 24 24
REMARK H PARENT
REMARK Flexibility Score: inf
ROOT
ATOM      1  C   UNL     1      29.208   0.683  31.438  1.00  0.00     0.000 C 
ENDROOT
BRANCH   1   2
ATOM      2  C   UNL     1      28.053   1.630  31.074  1.00  0.00     0.000 C 
BRANCH   2   3
ATOM      3  C   UNL     1      27.994   1.868  29.558  1.00  0.00     0.000 C 
BRANCH   3   4
ATOM      4  C   UNL     1      27.166   3.109  29.188  1.00  0.00    -0.000 C 
BRANCH   4   5
ATOM      5  C   UNL     1      27.969   4.415  29.314  1.00  0.00    -0.000 C 
BRANCH   5   6
ATOM      6  C   UNL     1      27.639   5.182  30.613  1.00  0.00    -0.000 C 
BRANCH   6   7
ATOM      7  C   UNL     1      27.305   6.672  30.392  1.00  0.00    -0.000 C 
BRANCH   7   8
ATOM      8  C   UNL     1      28.506   7.570  30.051  1.00  0.00    -0.000 C 
BRANCH   8   9
ATOM      9  C   UNL     1      28.098   9.020  29.738  1.00  0.00    -0.000 C 
BRANCH   9  10
ATOM     10  C   UNL     1      28.589  10.022  30.801  1.00  0.00    -0.000 C 
BRANCH  10  11
ATOM     11  C   UNL     1      27.703  10.125  32.057  1.00  0.00    -0.003 C 
ATOM     12  C   UNL     1      26.225   9.859  31.769  1.00  0.00     0.004 C 
ENDBRANCH  10  11
ENDBRANCH   9  10
ENDBRANCH   8   9
ENDBRANCH   7   8
ENDBRANCH   6   7
ENDBRANCH   5   6
ENDBRANCH   4   5
ENDBRANCH   3   4
ENDBRANCH   2   3
ENDBRANCH   1   2
BRANCH   1  13
ATOM     13  C   UNL     1      29.887   0.070  30.203  1.00  0.00     0.000 C 
BRANCH  13  14
ATOM     14  C   UNL     1      29.913  -1.468  30.238  1.00  0.00     0.000 C 
BRANCH  14  15
ATOM     15  C   UNL     1      28.531  -2.086  29.967  1.00  0.00     0.000 C 
BRANCH  15  16
ATOM     16  C   UNL     1      28.457  -3.571  30.354  1.00  0.00     0.000 C 
BRANCH  16  17
ATOM     17  C   UNL     1      29.700  -4.327  29.861  1.00  0.00     0.000 C 
BRANCH  17  18
ATOM     18  C   UNL     1      29.972  -5.612  30.663  1.00  0.00     0.000 C 
BRANCH  18  19
ATOM     19  C   UNL     1      28.714  -6.413  31.060  1.00  0.00     0.000 C 
BRANCH  19  20
ATOM     20  C   UNL     1      28.099  -7.269  29.932  1.00  0.00     0.006 C 
BRANCH  20  21
ATOM     21  C   UNL     1      28.955  -8.475  29.512  1.00  0.00     0.053 C 
BRANCH  21  22
ATOM     22  C   UNL     1      29.327  -9.333  30.681  1.00  0.00     0.041 C 
ATOM     23  O   UNL     1      30.422  -9.955  30.688  1.00  0.00    -0.550 OA
ATOM     24  O   UNL     1      28.453  -9.466  31.752  1.00  0.00    -0.550 OA
ENDBRANCH  21  22
ENDBRANCH  20  21
ENDBRANCH  19  20
ENDBRANCH  18  19
ENDBRANCH  17  18
ENDBRANCH  16  17
ENDBRANCH  15  16
ENDBRANCH  14  15
ENDBRANCH  13  14
ENDBRANCH   1  13
TORSDOF 20
ENDMDL
