MODEL 1
REMARK VINA RESULT:    -6.649      0.000      0.000
REMARK INTER + INTRA:          -7.585
REMARK INTER:                  -7.232
REMARK INTRA:                  -0.353
REMARK UNBOUND:                -0.353
REMARK SMILES C=C1C[C@@]2(O)O[C@@]3(C[C@H]2C(C)C)[C@@H](C)CC[C@@H]13
REMARK SMILES IDX 14 1 13 2 15 3 16 4 17 5 7 6 8 7 9 8 4 9 6 10 3 11 2 12 1 13
REMARK SMILES IDX 10 14 11 15 12 16 5 17
REMARK H PARENT 5 18
REMARK Flexibility Score: inf
ROOT
ATOM      1  C   UNL     1      41.243   5.562   1.145  1.00  0.00     0.011 C 
ATOM      2  C   UNL     1      39.815   5.015   1.006  1.00  0.00     0.019 C 
ATOM      3  C   UNL     1      38.754   6.125   1.042  1.00  0.00     0.007 C 
ATOM      4  C   UNL     1      37.693   5.765  -0.004  1.00  0.00     0.011 C 
ATOM      5  C   UNL     1      38.047   4.367  -0.510  1.00  0.00     0.047 C 
ATOM      6  C   UNL     1      39.566   4.258  -0.308  1.00  0.00     0.081 C 
ATOM      7  C   UNL     1      40.041   2.802  -0.301  1.00  0.00     0.046 C 
ATOM      8  C   UNL     1      40.531   2.585  -1.732  1.00  0.00     0.054 C 
ATOM      9  C   UNL     1      40.159   3.930  -2.422  1.00  0.00     0.173 C 
ATOM     10  O   UNL     1      40.210   4.888  -1.393  1.00  0.00    -0.342 OA
ATOM     11  C   UNL     1      38.724   4.001  -3.031  1.00  0.00     0.096 C 
ATOM     12  C   UNL     1      37.657   4.144  -1.963  1.00  0.00    -0.066 C 
ATOM     13  C   UNL     1      36.363   4.086  -2.306  1.00  0.00     0.008 C 
ENDROOT
BRANCH   8  14
ATOM     14  C   UNL     1      40.021   1.250  -2.367  1.00  0.00    -0.009 C 
ATOM     15  C   UNL     1      39.345   0.363  -1.303  1.00  0.00     0.008 C 
ATOM     16  C   UNL     1      41.162   0.440  -3.008  1.00  0.00     0.008 C 
ENDBRANCH   8  14
BRANCH   9  17
ATOM     17  O   UNL     1      41.130   4.277  -3.378  1.00  0.00    -0.365 OA
ATOM     18  H   UNL     1      41.922   4.637  -2.904  1.00  0.00     0.214 HD
ENDBRANCH   9  17
TORSDOF 2
ENDMDL
MODEL 2
REMARK VINA RESULT:    -5.847      6.858      9.173
REMARK INTER + INTRA:          -6.713
REMARK INTER:                  -6.545
REMARK INTRA:                  -0.168
REMARK UNBOUND:                -0.353
REMARK SMILES C=C1C[C@@]2(O)O[C@@]3(C[C@H]2C(C)C)[C@@H](C)CC[C@@H]13
REMARK SMILES IDX 14 1 13 2 15 3 16 4 17 5 7 6 8 7 9 8 4 9 6 10 3 11 2 12 1 13
REMARK SMILES IDX 10 14 11 15 12 16 5 17
REMARK H PARENT 5 18
REMARK Flexibility Score: inf
ROOT
ATOM      1  C   UNL     1      34.815  -5.874  -4.493  1.00  0.00     0.011 C 
ATOM      2  C   UNL     1      35.622  -4.931  -3.590  1.00  0.00     0.019 C 
ATOM      3  C   UNL     1      36.946  -5.556  -3.122  1.00  0.00     0.007 C 
ATOM      4  C   UNL     1      38.004  -4.449  -3.167  1.00  0.00     0.011 C 
ATOM      5  C   UNL     1      37.258  -3.154  -3.486  1.00  0.00     0.047 C 
ATOM      6  C   UNL     1      36.015  -3.609  -4.266  1.00  0.00     0.081 C 
ATOM      7  C   UNL     1      34.914  -2.544  -4.263  1.00  0.00     0.046 C 
ATOM      8  C   UNL     1      35.109  -1.833  -5.602  1.00  0.00     0.054 C 
ATOM      9  C   UNL     1      36.393  -2.513  -6.159  1.00  0.00     0.173 C 
ATOM     10  O   UNL     1      36.379  -3.809  -5.613  1.00  0.00    -0.342 OA
ATOM     11  C   UNL     1      37.744  -1.859  -5.730  1.00  0.00     0.096 C 
ATOM     12  C   UNL     1      38.092  -2.167  -4.286  1.00  0.00    -0.066 C 
ATOM     13  C   UNL     1      39.152  -1.573  -3.719  1.00  0.00     0.008 C 
ENDROOT
BRANCH   8  14
ATOM     14  C   UNL     1      35.076  -0.273  -5.487  1.00  0.00    -0.009 C 
ATOM     15  C   UNL     1      33.790   0.194  -4.776  1.00  0.00     0.008 C 
ATOM     16  C   UNL     1      35.134   0.411  -6.865  1.00  0.00     0.008 C 
ENDBRANCH   8  14
BRANCH   9  17
ATOM     17  O   UNL     1      36.316  -2.637  -7.559  1.00  0.00    -0.365 OA
ATOM     18  H   UNL     1      36.532  -3.573  -7.802  1.00  0.00     0.214 HD
ENDBRANCH   9  17
TORSDOF 2
ENDMDL
MODEL 3
REMARK VINA RESULT:    -5.469     15.290     17.183
REMARK INTER + INTRA:          -6.302
REMARK INTER:                  -5.917
REMARK INTRA:                  -0.385
REMARK UNBOUND:                -0.353
REMARK SMILES C=C1C[C@@]2(O)O[C@@]3(C[C@H]2C(C)C)[C@@H](C)CC[C@@H]13
REMARK SMILES IDX 14 1 13 2 15 3 16 4 17 5 7 6 8 7 9 8 4 9 6 10 3 11 2 12 1 13
REMARK SMILES IDX 10 14 11 15 12 16 5 17
REMARK H PARENT 5 18
REMARK Flexibility Score: inf
ROOT
ATOM      1  C   UNL     1      32.401  -7.690   5.225  1.00  0.00     0.011 C 
ATOM      2  C   UNL     1      31.445  -8.511   4.347  1.00  0.00     0.019 C 
ATOM      3  C   UNL     1      31.488 -10.011   4.675  1.00  0.00     0.007 C 
ATOM      4  C   UNL     1      30.046 -10.526   4.610  1.00  0.00     0.011 C 
ATOM      5  C   UNL     1      29.202  -9.370   4.071  1.00  0.00     0.047 C 
ATOM      6  C   UNL     1      29.970  -8.107   4.490  1.00  0.00     0.081 C 
ATOM      7  C   UNL     1      29.563  -6.887   3.658  1.00  0.00     0.046 C 
ATOM      8  C   UNL     1      28.540  -6.181   4.546  1.00  0.00     0.054 C 
ATOM      9  C   UNL     1      28.398  -7.165   5.743  1.00  0.00     0.173 C 
ATOM     10  O   UNL     1      29.646  -7.808   5.829  1.00  0.00    -0.342 OA
ATOM     11  C   UNL     1      27.326  -8.286   5.572  1.00  0.00     0.096 C 
ATOM     12  C   UNL     1      27.782  -9.369   4.613  1.00  0.00    -0.066 C 
ATOM     13  C   UNL     1      26.927 -10.336   4.251  1.00  0.00     0.008 C 
ENDROOT
BRANCH   8  14
ATOM     14  C   UNL     1      27.249  -5.743   3.779  1.00  0.00    -0.009 C 
ATOM     15  C   UNL     1      27.192  -6.403   2.386  1.00  0.00     0.008 C 
ATOM     16  C   UNL     1      27.177  -4.217   3.587  1.00  0.00     0.008 C 
ENDBRANCH   8  14
BRANCH   9  17
ATOM     17  O   UNL     1      28.198  -6.456   6.942  1.00  0.00    -0.365 OA
ATOM     18  H   UNL     1      28.200  -7.103   7.692  1.00  0.00     0.214 HD
ENDBRANCH   9  17
TORSDOF 2
ENDMDL
MODEL 4
REMARK VINA RESULT:    -5.456      6.728      9.215
REMARK INTER + INTRA:          -6.287
REMARK INTER:                  -5.927
REMARK INTRA:                  -0.360
REMARK UNBOUND:                -0.353
REMARK SMILES C=C1C[C@@]2(O)O[C@@]3(C[C@H]2C(C)C)[C@@H](C)CC[C@@H]13
REMARK SMILES IDX 14 1 13 2 15 3 16 4 17 5 7 6 8 7 9 8 4 9 6 10 3 11 2 12 1 13
REMARK SMILES IDX 10 14 11 15 12 16 5 17
REMARK H PARENT 5 18
REMARK Flexibility Score: inf
ROOT
ATOM      1  C   UNL     1      36.166  -1.815  -5.954  1.00  0.00     0.011 C 
ATOM      2  C   UNL     1      37.369  -2.360  -5.170  1.00  0.00     0.019 C 
ATOM      3  C   UNL     1      38.174  -1.248  -4.480  1.00  0.00     0.007 C 
ATOM      4  C   UNL     1      38.580  -1.779  -3.101  1.00  0.00     0.011 C 
ATOM      5  C   UNL     1      38.167  -3.250  -3.069  1.00  0.00     0.047 C 
ATOM      6  C   UNL     1      36.988  -3.340  -4.050  1.00  0.00     0.081 C 
ATOM      7  C   UNL     1      36.741  -4.777  -4.521  1.00  0.00     0.046 C 
ATOM      8  C   UNL     1      35.613  -5.256  -3.609  1.00  0.00     0.054 C 
ATOM      9  C   UNL     1      35.434  -4.055  -2.636  1.00  0.00     0.173 C 
ATOM     10  O   UNL     1      35.816  -2.927  -3.384  1.00  0.00    -0.342 OA
ATOM     11  C   UNL     1      36.336  -4.078  -1.363  1.00  0.00     0.096 C 
ATOM     12  C   UNL     1      37.778  -3.729  -1.680  1.00  0.00    -0.066 C 
ATOM     13  C   UNL     1      38.710  -3.833  -0.723  1.00  0.00     0.008 C 
ENDROOT
BRANCH   8  14
ATOM     14  C   UNL     1      35.863  -6.678  -3.008  1.00  0.00    -0.009 C 
ATOM     15  C   UNL     1      37.346  -7.076  -3.148  1.00  0.00     0.008 C 
ATOM     16  C   UNL     1      35.012  -7.759  -3.699  1.00  0.00     0.008 C 
ENDBRANCH   8  14
BRANCH   9  17
ATOM     17  O   UNL     1      34.078  -3.900  -2.290  1.00  0.00    -0.365 OA
ATOM     18  H   UNL     1      33.816  -2.962  -2.469  1.00  0.00     0.214 HD
ENDBRANCH   9  17
TORSDOF 2
ENDMDL
MODEL 5
REMARK VINA RESULT:    -5.186      2.348      3.645
REMARK INTER + INTRA:          -5.994
REMARK INTER:                  -5.700
REMARK INTRA:                  -0.294
REMARK UNBOUND:                -0.353
REMARK SMILES C=C1C[C@@]2(O)O[C@@]3(C[C@H]2C(C)C)[C@@H](C)CC[C@@H]13
REMARK SMILES IDX 14 1 13 2 15 3 16 4 17 5 7 6 8 7 9 8 4 9 6 10 3 11 2 12 1 13
REMARK SMILES IDX 10 14 11 15 12 16 5 17
REMARK H PARENT 5 18
REMARK Flexibility Score: inf
ROOT
ATOM      1  C   UNL     1      40.662   5.198  -2.443  1.00  0.00     0.011 C 
ATOM      2  C   UNL     1      39.685   4.325  -1.643  1.00  0.00     0.019 C 
ATOM      3  C   UNL     1      39.434   4.870  -0.228  1.00  0.00     0.007 C 
ATOM      4  C   UNL     1      37.942   4.682   0.067  1.00  0.00     0.011 C 
ATOM      5  C   UNL     1      37.373   3.871  -1.097  1.00  0.00     0.047 C 
ATOM      6  C   UNL     1      38.293   4.204  -2.282  1.00  0.00     0.081 C 
ATOM      7  C   UNL     1      38.196   3.156  -3.395  1.00  0.00     0.046 C 
ATOM      8  C   UNL     1      37.215   3.784  -4.384  1.00  0.00     0.054 C 
ATOM      9  C   UNL     1      36.775   5.080  -3.644  1.00  0.00     0.173 C 
ATOM     10  O   UNL     1      37.878   5.429  -2.843  1.00  0.00    -0.342 OA
ATOM     11  C   UNL     1      35.553   4.928  -2.685  1.00  0.00     0.096 C 
ATOM     12  C   UNL     1      35.922   4.206  -1.402  1.00  0.00    -0.066 C 
ATOM     13  C   UNL     1      34.961   3.875  -0.528  1.00  0.00     0.008 C 
ENDROOT
BRANCH   8  14
ATOM     14  C   UNL     1      36.112   2.792  -4.879  1.00  0.00    -0.009 C 
ATOM     15  C   UNL     1      36.640   1.343  -4.877  1.00  0.00     0.008 C 
ATOM     16  C   UNL     1      35.631   3.122  -6.304  1.00  0.00     0.008 C 
ENDBRANCH   8  14
BRANCH   9  17
ATOM     17  O   UNL     1      36.566   6.125  -4.563  1.00  0.00    -0.365 OA
ATOM     18  H   UNL     1      36.442   5.729  -5.463  1.00  0.00     0.214 HD
ENDBRANCH   9  17
TORSDOF 2
ENDMDL
MODEL 6
REMARK VINA RESULT:    -5.159      6.860      9.436
REMARK INTER + INTRA:          -5.964
REMARK INTER:                  -5.683
REMARK INTRA:                  -0.281
REMARK UNBOUND:                -0.353
REMARK SMILES C=C1C[C@@]2(O)O[C@@]3(C[C@H]2C(C)C)[C@@H](C)CC[C@@H]13
REMARK SMILES IDX 14 1 13 2 15 3 16 4 17 5 7 6 8 7 9 8 4 9 6 10 3 11 2 12 1 13
REMARK SMILES IDX 10 14 11 15 12 16 5 17
REMARK H PARENT 5 18
REMARK Flexibility Score: inf
ROOT
ATOM      1  C   UNL     1      34.358  -4.931  -4.505  1.00  0.00     0.011 C 
ATOM      2  C   UNL     1      35.777  -4.394  -4.736  1.00  0.00     0.019 C 
ATOM      3  C   UNL     1      35.781  -2.937  -5.223  1.00  0.00     0.007 C 
ATOM      4  C   UNL     1      36.938  -2.229  -4.510  1.00  0.00     0.011 C 
ATOM      5  C   UNL     1      37.706  -3.315  -3.756  1.00  0.00     0.047 C 
ATOM      6  C   UNL     1      36.657  -4.403  -3.477  1.00  0.00     0.081 C 
ATOM      7  C   UNL     1      37.304  -5.756  -3.165  1.00  0.00     0.046 C 
ATOM      8  C   UNL     1      37.302  -5.803  -1.638  1.00  0.00     0.054 C 
ATOM      9  C   UNL     1      36.754  -4.396  -1.260  1.00  0.00     0.173 C 
ATOM     10  O   UNL     1      35.920  -4.034  -2.333  1.00  0.00    -0.342 OA
ATOM     11  C   UNL     1      37.826  -3.269  -1.123  1.00  0.00     0.096 C 
ATOM     12  C   UNL     1      38.345  -2.810  -2.472  1.00  0.00    -0.066 C 
ATOM     13  C   UNL     1      39.365  -1.942  -2.529  1.00  0.00     0.008 C 
ENDROOT
BRANCH   8  14
ATOM     14  C   UNL     1      38.667  -6.265  -1.029  1.00  0.00    -0.009 C 
ATOM     15  C   UNL     1      39.343  -7.310  -1.939  1.00  0.00     0.008 C 
ATOM     16  C   UNL     1      38.497  -6.887   0.368  1.00  0.00     0.008 C 
ENDBRANCH   8  14
BRANCH   9  17
ATOM     17  O   UNL     1      35.955  -4.474  -0.104  1.00  0.00    -0.365 OA
ATOM     18  H   UNL     1      35.261  -5.165  -0.250  1.00  0.00     0.214 HD
ENDBRANCH   9  17
TORSDOF 2
ENDMDL
MODEL 7
REMARK VINA RESULT:    -5.134      6.640      8.642
REMARK INTER + INTRA:          -5.937
REMARK INTER:                  -5.560
REMARK INTRA:                  -0.377
REMARK UNBOUND:                -0.353
REMARK SMILES C=C1C[C@@]2(O)O[C@@]3(C[C@H]2C(C)C)[C@@H](C)CC[C@@H]13
REMARK SMILES IDX 14 1 13 2 15 3 16 4 17 5 7 6 8 7 9 8 4 9 6 10 3 11 2 12 1 13
REMARK SMILES IDX 10 14 11 15 12 16 5 17
REMARK H PARENT 5 18
REMARK Flexibility Score: inf
ROOT
ATOM      1  C   UNL     1      40.146  -1.683  -3.370  1.00  0.00     0.011 C 
ATOM      2  C   UNL     1      38.611  -1.684  -3.347  1.00  0.00     0.019 C 
ATOM      3  C   UNL     1      38.003  -1.197  -4.671  1.00  0.00     0.007 C 
ATOM      4  C   UNL     1      36.789  -2.086  -4.961  1.00  0.00     0.011 C 
ATOM      5  C   UNL     1      36.593  -2.961  -3.723  1.00  0.00     0.047 C 
ATOM      6  C   UNL     1      37.995  -3.070  -3.104  1.00  0.00     0.081 C 
ATOM      7  C   UNL     1      37.941  -3.492  -1.632  1.00  0.00     0.046 C 
ATOM      8  C   UNL     1      38.190  -4.998  -1.688  1.00  0.00     0.054 C 
ATOM      9  C   UNL     1      38.238  -5.274  -3.219  1.00  0.00     0.173 C 
ATOM     10  O   UNL     1      38.710  -4.076  -3.785  1.00  0.00    -0.342 OA
ATOM     11  C   UNL     1      36.863  -5.578  -3.893  1.00  0.00     0.096 C 
ATOM     12  C   UNL     1      36.016  -4.330  -4.048  1.00  0.00    -0.066 C 
ATOM     13  C   UNL     1      34.753  -4.436  -4.486  1.00  0.00     0.008 C 
ENDROOT
BRANCH   8  14
ATOM     14  C   UNL     1      37.196  -5.825  -0.808  1.00  0.00    -0.009 C 
ATOM     15  C   UNL     1      35.997  -4.956  -0.378  1.00  0.00     0.008 C 
ATOM     16  C   UNL     1      37.867  -6.374   0.464  1.00  0.00     0.008 C 
ENDBRANCH   8  14
BRANCH   9  17
ATOM     17  O   UNL     1      39.175  -6.283  -3.508  1.00  0.00    -0.365 OA
ATOM     18  H   UNL     1      38.702  -7.154  -3.523  1.00  0.00     0.214 HD
ENDBRANCH   9  17
TORSDOF 2
ENDMDL
MODEL 8
REMARK VINA RESULT:    -4.865      8.332     10.295
REMARK INTER + INTRA:          -5.645
REMARK INTER:                  -5.298
REMARK INTRA:                  -0.347
REMARK UNBOUND:                -0.353
REMARK SMILES C=C1C[C@@]2(O)O[C@@]3(C[C@H]2C(C)C)[C@@H](C)CC[C@@H]13
REMARK SMILES IDX 14 1 13 2 15 3 16 4 17 5 7 6 8 7 9 8 4 9 6 10 3 11 2 12 1 13
REMARK SMILES IDX 10 14 11 15 12 16 5 17
REMARK H PARENT 5 18
REMARK Flexibility Score: inf
ROOT
ATOM      1  C   UNL     1      40.459  -1.010   5.177  1.00  0.00     0.011 C 
ATOM      2  C   UNL     1      39.790  -2.162   4.413  1.00  0.00     0.019 C 
ATOM      3  C   UNL     1      39.473  -1.795   2.955  1.00  0.00     0.007 C 
ATOM      4  C   UNL     1      39.792  -3.027   2.103  1.00  0.00     0.011 C 
ATOM      5  C   UNL     1      40.118  -4.154   3.083  1.00  0.00     0.047 C 
ATOM      6  C   UNL     1      40.647  -3.434   4.333  1.00  0.00     0.081 C 
ATOM      7  C   UNL     1      40.580  -4.324   5.578  1.00  0.00     0.046 C 
ATOM      8  C   UNL     1      41.996  -4.886   5.686  1.00  0.00     0.054 C 
ATOM      9  C   UNL     1      42.675  -4.333   4.399  1.00  0.00     0.173 C 
ATOM     10  O   UNL     1      42.007  -3.125   4.131  1.00  0.00    -0.342 OA
ATOM     11  C   UNL     1      42.528  -5.221   3.124  1.00  0.00     0.096 C 
ATOM     12  C   UNL     1      41.132  -5.145   2.535  1.00  0.00    -0.066 C 
ATOM     13  C   UNL     1      40.798  -5.949   1.516  1.00  0.00     0.008 C 
ENDROOT
BRANCH   8  14
ATOM     14  C   UNL     1      42.034  -6.427   5.950  1.00  0.00    -0.009 C 
ATOM     15  C   UNL     1      40.636  -6.948   6.340  1.00  0.00     0.008 C 
ATOM     16  C   UNL     1      43.012  -6.798   7.080  1.00  0.00     0.008 C 
ENDBRANCH   8  14
BRANCH   9  17
ATOM     17  O   UNL     1      44.027  -4.030   4.648  1.00  0.00    -0.365 OA
ATOM     18  H   UNL     1      44.149  -3.927   5.625  1.00  0.00     0.214 HD
ENDBRANCH   9  17
TORSDOF 2
ENDMDL
MODEL 9
REMARK VINA RESULT:    -4.851      7.628      9.914
REMARK INTER + INTRA:          -5.630
REMARK INTER:                  -5.264
REMARK INTRA:                  -0.365
REMARK UNBOUND:                -0.353
REMARK SMILES C=C1C[C@@]2(O)O[C@@]3(C[C@H]2C(C)C)[C@@H](C)CC[C@@H]13
REMARK SMILES IDX 14 1 13 2 15 3 16 4 17 5 7 6 8 7 9 8 4 9 6 10 3 11 2 12 1 13
REMARK SMILES IDX 10 14 11 15 12 16 5 17
REMARK H PARENT 5 18
REMARK Flexibility Score: inf
ROOT
ATOM      1  C   UNL     1      34.985  -2.747  -4.266  1.00  0.00     0.011 C 
ATOM      2  C   UNL     1      34.872  -4.106  -3.561  1.00  0.00     0.019 C 
ATOM      3  C   UNL     1      34.384  -5.218  -4.503  1.00  0.00     0.007 C 
ATOM      4  C   UNL     1      35.190  -6.477  -4.166  1.00  0.00     0.011 C 
ATOM      5  C   UNL     1      36.007  -6.142  -2.919  1.00  0.00     0.047 C 
ATOM      6  C   UNL     1      36.199  -4.619  -2.983  1.00  0.00     0.081 C 
ATOM      7  C   UNL     1      36.567  -4.029  -1.618  1.00  0.00     0.046 C 
ATOM      8  C   UNL     1      38.089  -3.909  -1.685  1.00  0.00     0.054 C 
ATOM      9  C   UNL     1      38.418  -4.568  -3.056  1.00  0.00     0.173 C 
ATOM     10  O   UNL     1      37.278  -4.338  -3.847  1.00  0.00    -0.342 OA
ATOM     11  C   UNL     1      38.641  -6.112  -3.026  1.00  0.00     0.096 C 
ATOM     12  C   UNL     1      37.339  -6.873  -2.865  1.00  0.00    -0.066 C 
ATOM     13  C   UNL     1      37.365  -8.202  -2.688  1.00  0.00     0.008 C 
ENDROOT
BRANCH   8  14
ATOM     14  C   UNL     1      38.810  -4.444  -0.404  1.00  0.00    -0.009 C 
ATOM     15  C   UNL     1      37.852  -5.310   0.439  1.00  0.00     0.008 C 
ATOM     16  C   UNL     1      39.330  -3.303   0.488  1.00  0.00     0.008 C 
ENDBRANCH   8  14
BRANCH   9  17
ATOM     17  O   UNL     1      39.503  -3.914  -3.668  1.00  0.00    -0.365 OA
ATOM     18  H   UNL     1      40.233  -4.571  -3.795  1.00  0.00     0.214 HD
ENDBRANCH   9  17
TORSDOF 2
ENDMDL
