MODEL 1
REMARK VINA RESULT:    -2.633      0.000      0.000
REMARK INTER + INTRA:          -2.633
REMARK INTER:                  -2.633
REMARK INTRA:                   0.000
REMARK UNBOUND:                 0.000
REMARK SMILES CC(=O)[O-]
REMARK SMILES IDX 1 1 2 2 3 3 4 4
REMARK H PARENT
REMARK Flexibility Score: inf
ROOT
ATOM      1  C   UNL     1     128.658 140.701 141.650  1.00  0.00     0.063 C 
ATOM      2  C   UNL     1     128.768 141.492 142.910  1.00  0.00     0.038 C 
ATOM      3  O   UNL     1     129.538 141.111 143.829  1.00  0.00    -0.550 OA
ATOM      4  O   UNL     1     127.979 142.620 143.093  1.00  0.00    -0.550 OA
ENDROOT
TORSDOF 0
ENDMDL
MODEL 2
REMARK VINA RESULT:    -2.631      0.091      1.619
REMARK INTER + INTRA:          -2.631
REMARK INTER:                  -2.631
REMARK INTRA:                   0.000
REMARK UNBOUND:                 0.000
REMARK SMILES CC(=O)[O-]
REMARK SMILES IDX 1 1 2 2 3 3 4 4
REMARK H PARENT
REMARK Flexibility Score: inf
ROOT
ATOM      1  C   UNL     1     128.676 140.702 141.662  1.00  0.00     0.063 C 
ATOM      2  C   UNL     1     128.731 141.511 142.914  1.00  0.00     0.038 C 
ATOM      3  O   UNL     1     128.007 142.533 143.038  1.00  0.00    -0.550 OA
ATOM      4  O   UNL     1     129.621 141.169 143.923  1.00  0.00    -0.550 OA
ENDROOT
TORSDOF 0
ENDMDL
MODEL 3
REMARK VINA RESULT:    -2.569      1.605      1.746
REMARK INTER + INTRA:          -2.569
REMARK INTER:                  -2.569
REMARK INTRA:                   0.000
REMARK UNBOUND:                 0.000
REMARK SMILES CC(=O)[O-]
REMARK SMILES IDX 1 1 2 2 3 3 4 4
REMARK H PARENT
REMARK Flexibility Score: inf
ROOT
ATOM      1  C   UNL     1     129.858 140.369 143.331  1.00  0.00     0.063 C 
ATOM      2  C   UNL     1     128.835 141.082 142.514  1.00  0.00     0.038 C 
ATOM      3  O   UNL     1     128.581 140.696 141.343  1.00  0.00    -0.550 OA
ATOM      4  O   UNL     1     128.199 142.206 143.023  1.00  0.00    -0.550 OA
ENDROOT
TORSDOF 0
ENDMDL
MODEL 4
REMARK VINA RESULT:    -2.564      1.562      1.979
REMARK INTER + INTRA:          -2.564
REMARK INTER:                  -2.564
REMARK INTRA:                   0.000
REMARK UNBOUND:                 0.000
REMARK SMILES CC(=O)[O-]
REMARK SMILES IDX 1 1 2 2 3 3 4 4
REMARK H PARENT
REMARK Flexibility Score: inf
ROOT
ATOM      1  C   UNL     1     129.834 140.541 143.535  1.00  0.00     0.063 C 
ATOM      2  C   UNL     1     128.835 141.208 142.652  1.00  0.00     0.038 C 
ATOM      3  O   UNL     1     128.209 142.221 143.059  1.00  0.00    -0.550 OA
ATOM      4  O   UNL     1     128.555 140.682 141.398  1.00  0.00    -0.550 OA
ENDROOT
TORSDOF 0
ENDMDL
MODEL 5
REMARK VINA RESULT:    -2.391      1.429      1.835
REMARK INTER + INTRA:          -2.391
REMARK INTER:                  -2.391
REMARK INTRA:                   0.000
REMARK UNBOUND:                 0.000
REMARK SMILES CC(=O)[O-]
REMARK SMILES IDX 1 1 2 2 3 3 4 4
REMARK H PARENT
REMARK Flexibility Score: inf
ROOT
ATOM      1  C   UNL     1     128.605 140.766 141.814  1.00  0.00     0.063 C 
ATOM      2  C   UNL     1     129.667 140.416 142.801  1.00  0.00     0.038 C 
ATOM      3  O   UNL     1     130.486 139.496 142.546  1.00  0.00    -0.550 OA
ATOM      4  O   UNL     1     129.720 141.068 144.025  1.00  0.00    -0.550 OA
ENDROOT
TORSDOF 0
ENDMDL
MODEL 6
REMARK VINA RESULT:    -2.345      1.909      2.180
REMARK INTER + INTRA:          -2.345
REMARK INTER:                  -2.345
REMARK INTRA:                   0.000
REMARK UNBOUND:                 0.000
REMARK SMILES CC(=O)[O-]
REMARK SMILES IDX 1 1 2 2 3 3 4 4
REMARK H PARENT
REMARK Flexibility Score: inf
ROOT
ATOM      1  C   UNL     1     129.753 141.155 143.863  1.00  0.00     0.063 C 
ATOM      2  C   UNL     1     129.491 140.442 142.580  1.00  0.00     0.038 C 
ATOM      3  O   UNL     1     130.318 139.598 142.147  1.00  0.00    -0.550 OA
ATOM      4  O   UNL     1     128.361 140.747 141.834  1.00  0.00    -0.550 OA
ENDROOT
TORSDOF 0
ENDMDL
MODEL 7
REMARK VINA RESULT:    -2.320      2.110      2.720
REMARK INTER + INTRA:          -2.320
REMARK INTER:                  -2.320
REMARK INTRA:                   0.000
REMARK UNBOUND:                 0.000
REMARK SMILES CC(=O)[O-]
REMARK SMILES IDX 1 1 2 2 3 3 4 4
REMARK H PARENT
REMARK Flexibility Score: inf
ROOT
ATOM      1  C   UNL     1     129.852 140.756 143.530  1.00  0.00     0.063 C 
ATOM      2  C   UNL     1     129.506 140.509 142.101  1.00  0.00     0.038 C 
ATOM      3  O   UNL     1     128.319 140.643 141.706  1.00  0.00    -0.550 OA
ATOM      4  O   UNL     1     130.484 140.079 141.214  1.00  0.00    -0.550 OA
ENDROOT
TORSDOF 0
ENDMDL
MODEL 8
REMARK VINA RESULT:    -2.109      2.013      2.328
REMARK INTER + INTRA:          -2.109
REMARK INTER:                  -2.109
REMARK INTRA:                   0.000
REMARK UNBOUND:                 0.000
REMARK SMILES CC(=O)[O-]
REMARK SMILES IDX 1 1 2 2 3 3 4 4
REMARK H PARENT
REMARK Flexibility Score: inf
ROOT
ATOM      1  C   UNL     1     130.438 139.757 144.264  1.00  0.00     0.063 C 
ATOM      2  C   UNL     1     130.135 140.642 143.103  1.00  0.00     0.038 C 
ATOM      3  O   UNL     1     131.063 141.266 142.526  1.00  0.00    -0.550 OA
ATOM      4  O   UNL     1     128.822 140.820 142.689  1.00  0.00    -0.550 OA
ENDROOT
TORSDOF 0
ENDMDL
MODEL 9
REMARK VINA RESULT:    -1.952      3.105      3.769
REMARK INTER + INTRA:          -1.952
REMARK INTER:                  -1.952
REMARK INTRA:                   0.000
REMARK UNBOUND:                 0.000
REMARK SMILES CC(=O)[O-]
REMARK SMILES IDX 1 1 2 2 3 3 4 4
REMARK H PARENT
REMARK Flexibility Score: inf
ROOT
ATOM      1  C   UNL     1     131.496 141.082 142.432  1.00  0.00     0.063 C 
ATOM      2  C   UNL     1     130.919 140.121 141.448  1.00  0.00     0.038 C 
ATOM      3  O   UNL     1     129.765 140.308 140.984  1.00  0.00    -0.550 OA
ATOM      4  O   UNL     1     131.634 138.987 141.083  1.00  0.00    -0.550 OA
ENDROOT
TORSDOF 0
ENDMDL
