MODEL 1
REMARK VINA RESULT:    -3.418      0.000      0.000
REMARK INTER + INTRA:          -9.047
REMARK INTER:                  -6.615
REMARK INTRA:                  -2.432
REMARK UNBOUND:                -2.432
REMARK SMILES CCCCCCCCCCCCCCCCCC(=O)[O-]
REMARK SMILES IDX 10 1 11 2 12 3 13 4 14 5 15 6 16 7 17 8 18 9 19 10 20 11
REMARK SMILES IDX 9 12 8 13 7 14 6 15 5 16 4 17 3 18 2 19 1 20
REMARK H PARENT
REMARK Flexibility Score: inf
ROOT
ATOM      1  C   UNL     1      61.926  22.760  20.349  1.00  0.00     0.000 C 
ENDROOT
BRANCH   1   2
ATOM      2  C   UNL     1      60.844  21.752  19.916  1.00  0.00     0.000 C 
BRANCH   2   3
ATOM      3  C   UNL     1      59.951  21.294  21.082  1.00  0.00     0.000 C 
BRANCH   3   4
ATOM      4  C   UNL     1      59.963  22.278  22.266  1.00  0.00     0.000 C 
BRANCH   4   5
ATOM      5  C   UNL     1      59.575  21.673  23.631  1.00  0.00     0.000 C 
BRANCH   5   6
ATOM      6  C   UNL     1      58.076  21.378  23.814  1.00  0.00     0.000 C 
BRANCH   6   7
ATOM      7  C   UNL     1      57.201  22.634  23.692  1.00  0.00     0.006 C 
BRANCH   7   8
ATOM      8  C   UNL     1      56.071  22.418  22.680  1.00  0.00     0.053 C 
BRANCH   8   9
ATOM      9  C   UNL     1      54.801  22.060  23.383  1.00  0.00     0.041 C 
ATOM     10  O   UNL     1      54.596  20.875  23.757  1.00  0.00    -0.550 OA
ATOM     11  O   UNL     1      53.864  23.044  23.670  1.00  0.00    -0.550 OA
ENDBRANCH   8   9
ENDBRANCH   7   8
ENDBRANCH   6   7
ENDBRANCH   5   6
ENDBRANCH   4   5
ENDBRANCH   3   4
ENDBRANCH   2   3
ENDBRANCH   1   2
BRANCH   1  12
ATOM     12  C   UNL     1      63.372  22.239  20.285  1.00  0.00     0.000 C 
BRANCH  12  13
ATOM     13  C   UNL     1      64.026  22.110  21.669  1.00  0.00    -0.000 C 
BRANCH  13  14
ATOM     14  C   UNL     1      63.378  20.981  22.481  1.00  0.00    -0.000 C 
BRANCH  14  15
ATOM     15  C   UNL     1      63.390  21.308  23.982  1.00  0.00    -0.000 C 
BRANCH  15  16
ATOM     16  C   UNL     1      63.563  22.809  24.261  1.00  0.00    -0.000 C 
BRANCH  16  17
ATOM     17  C   UNL     1      62.331  23.432  24.941  1.00  0.00    -0.000 C 
BRANCH  17  18
ATOM     18  C   UNL     1      62.208  24.944  24.649  1.00  0.00    -0.000 C 
BRANCH  18  19
ATOM     19  C   UNL     1      62.051  25.271  23.155  1.00  0.00    -0.003 C 
ATOM     20  C   UNL     1      63.350  25.746  22.507  1.00  0.00     0.004 C 
ENDBRANCH  18  19
ENDBRANCH  17  18
ENDBRANCH  16  17
ENDBRANCH  15  16
ENDBRANCH  14  15
ENDBRANCH  13  14
ENDBRANCH  12  13
ENDBRANCH   1  12
TORSDOF 16
ENDMDL
MODEL 2
REMARK VINA RESULT:    -3.404      1.378      3.291
REMARK INTER + INTRA:          -9.020
REMARK INTER:                  -6.976
REMARK INTRA:                  -2.044
REMARK UNBOUND:                -2.432
REMARK SMILES CCCCCCCCCCCCCCCCCC(=O)[O-]
REMARK SMILES IDX 10 1 11 2 12 3 13 4 14 5 15 6 16 7 17 8 18 9 19 10 20 11
REMARK SMILES IDX 9 12 8 13 7 14 6 15 5 16 4 17 3 18 2 19 1 20
REMARK H PARENT
REMARK Flexibility Score: inf
ROOT
ATOM      1  C   UNL     1      61.496  25.527  22.713  1.00  0.00     0.000 C 
ENDROOT
BRANCH   1   2
ATOM      2  C   UNL     1      60.659  25.073  23.925  1.00  0.00     0.000 C 
BRANCH   2   3
ATOM      3  C   UNL     1      60.524  23.544  24.021  1.00  0.00     0.000 C 
BRANCH   3   4
ATOM      4  C   UNL     1      59.370  23.103  24.939  1.00  0.00     0.000 C 
BRANCH   4   5
ATOM      5  C   UNL     1      58.992  21.609  24.854  1.00  0.00     0.000 C 
BRANCH   5   6
ATOM      6  C   UNL     1      59.181  20.964  23.470  1.00  0.00     0.000 C 
BRANCH   6   7
ATOM      7  C   UNL     1      57.974  21.175  22.545  1.00  0.00     0.006 C 
BRANCH   7   8
ATOM      8  C   UNL     1      56.660  21.042  23.320  1.00  0.00     0.053 C 
BRANCH   8   9
ATOM      9  C   UNL     1      55.759  22.199  23.027  1.00  0.00     0.041 C 
ATOM     10  O   UNL     1      56.037  22.997  22.093  1.00  0.00    -0.550 OA
ATOM     11  O   UNL     1      54.586  22.368  23.751  1.00  0.00    -0.550 OA
ENDBRANCH   8   9
ENDBRANCH   7   8
ENDBRANCH   6   7
ENDBRANCH   5   6
ENDBRANCH   4   5
ENDBRANCH   3   4
ENDBRANCH   2   3
ENDBRANCH   1   2
BRANCH   1  12
ATOM     12  C   UNL     1      63.012  25.622  22.961  1.00  0.00     0.000 C 
BRANCH  12  13
ATOM     13  C   UNL     1      63.780  24.387  22.470  1.00  0.00    -0.000 C 
BRANCH  13  14
ATOM     14  C   UNL     1      64.101  23.438  23.632  1.00  0.00    -0.000 C 
BRANCH  14  15
ATOM     15  C   UNL     1      64.125  21.978  23.158  1.00  0.00    -0.000 C 
BRANCH  15  16
ATOM     16  C   UNL     1      63.477  21.791  21.777  1.00  0.00    -0.000 C 
BRANCH  16  17
ATOM     17  C   UNL     1      62.185  20.958  21.835  1.00  0.00    -0.000 C 
BRANCH  17  18
ATOM     18  C   UNL     1      61.207  21.321  20.696  1.00  0.00    -0.000 C 
BRANCH  18  19
ATOM     19  C   UNL     1      61.574  22.621  19.961  1.00  0.00    -0.003 C 
ATOM     20  C   UNL     1      62.209  22.376  18.594  1.00  0.00     0.004 C 
ENDBRANCH  18  19
ENDBRANCH  17  18
ENDBRANCH  16  17
ENDBRANCH  15  16
ENDBRANCH  14  15
ENDBRANCH  13  14
ENDBRANCH  12  13
ENDBRANCH   1  12
TORSDOF 16
ENDMDL
MODEL 3
REMARK VINA RESULT:    -3.301      1.496      3.165
REMARK INTER + INTRA:          -8.821
REMARK INTER:                  -6.098
REMARK INTRA:                  -2.723
REMARK UNBOUND:                -2.432
REMARK SMILES CCCCCCCCCCCCCCCCCC(=O)[O-]
REMARK SMILES IDX 10 1 11 2 12 3 13 4 14 5 15 6 16 7 17 8 18 9 19 10 20 11
REMARK SMILES IDX 9 12 8 13 7 14 6 15 5 16 4 17 3 18 2 19 1 20
REMARK H PARENT
REMARK Flexibility Score: inf
ROOT
ATOM      1  C   UNL     1      60.841  22.325  26.115  1.00  0.00     0.000 C 
ENDROOT
BRANCH   1   2
ATOM      2  C   UNL     1      60.151  23.694  25.956  1.00  0.00     0.000 C 
BRANCH   2   3
ATOM      3  C   UNL     1      59.217  23.757  24.735  1.00  0.00     0.000 C 
BRANCH   3   4
ATOM      4  C   UNL     1      59.978  23.707  23.398  1.00  0.00     0.000 C 
BRANCH   4   5
ATOM      5  C   UNL     1      59.440  22.689  22.370  1.00  0.00     0.000 C 
BRANCH   5   6
ATOM      6  C   UNL     1      59.103  21.300  22.939  1.00  0.00     0.000 C 
BRANCH   6   7
ATOM      7  C   UNL     1      57.653  20.877  22.659  1.00  0.00     0.006 C 
BRANCH   7   8
ATOM      8  C   UNL     1      56.701  21.457  23.710  1.00  0.00     0.053 C 
BRANCH   8   9
ATOM      9  C   UNL     1      55.609  22.238  23.052  1.00  0.00     0.041 C 
ATOM     10  O   UNL     1      54.451  22.250  23.548  1.00  0.00    -0.550 OA
ATOM     11  O   UNL     1      55.880  22.994  21.919  1.00  0.00    -0.550 OA
ENDBRANCH   8   9
ENDBRANCH   7   8
ENDBRANCH   6   7
ENDBRANCH   5   6
ENDBRANCH   4   5
ENDBRANCH   3   4
ENDBRANCH   2   3
ENDBRANCH   1   2
BRANCH   1  12
ATOM     12  C   UNL     1      62.294  22.260  25.614  1.00  0.00     0.000 C 
BRANCH  12  13
ATOM     13  C   UNL     1      62.515  21.178  24.547  1.00  0.00    -0.000 C 
BRANCH  13  14
ATOM     14  C   UNL     1      63.546  21.632  23.506  1.00  0.00    -0.000 C 
BRANCH  14  15
ATOM     15  C   UNL     1      62.951  21.598  22.091  1.00  0.00    -0.000 C 
BRANCH  15  16
ATOM     16  C   UNL     1      63.268  22.867  21.284  1.00  0.00    -0.000 C 
BRANCH  16  17
ATOM     17  C   UNL     1      63.950  23.955  22.132  1.00  0.00    -0.000 C 
BRANCH  17  18
ATOM     18  C   UNL     1      63.021  25.163  22.385  1.00  0.00    -0.000 C 
BRANCH  18  19
ATOM     19  C   UNL     1      63.537  26.117  23.474  1.00  0.00    -0.003 C 
ATOM     20  C   UNL     1      63.041  25.753  24.872  1.00  0.00     0.004 C 
ENDBRANCH  18  19
ENDBRANCH  17  18
ENDBRANCH  16  17
ENDBRANCH  15  16
ENDBRANCH  14  15
ENDBRANCH  13  14
ENDBRANCH  12  13
ENDBRANCH   1  12
TORSDOF 16
ENDMDL
MODEL 4
REMARK VINA RESULT:    -3.174      2.603      6.285
REMARK INTER + INTRA:          -8.575
REMARK INTER:                  -6.911
REMARK INTRA:                  -1.665
REMARK UNBOUND:                -2.432
REMARK SMILES CCCCCCCCCCCCCCCCCC(=O)[O-]
REMARK SMILES IDX 10 1 11 2 12 3 13 4 14 5 15 6 16 7 17 8 18 9 19 10 20 11
REMARK SMILES IDX 9 12 8 13 7 14 6 15 5 16 4 17 3 18 2 19 1 20
REMARK H PARENT
REMARK Flexibility Score: inf
ROOT
ATOM      1  C   UNL     1      60.996  22.186  20.971  1.00  0.00     0.000 C 
ENDROOT
BRANCH   1   2
ATOM      2  C   UNL     1      62.133  21.558  20.142  1.00  0.00     0.000 C 
BRANCH   2   3
ATOM      3  C   UNL     1      63.471  22.300  20.303  1.00  0.00     0.000 C 
BRANCH   3   4
ATOM      4  C   UNL     1      64.121  22.068  21.678  1.00  0.00     0.000 C 
BRANCH   4   5
ATOM      5  C   UNL     1      64.069  23.269  22.645  1.00  0.00     0.000 C 
BRANCH   5   6
ATOM      6  C   UNL     1      64.053  24.652  21.970  1.00  0.00     0.000 C 
BRANCH   6   7
ATOM      7  C   UNL     1      63.393  25.732  22.839  1.00  0.00     0.006 C 
BRANCH   7   8
ATOM      8  C   UNL     1      63.168  25.224  24.267  1.00  0.00     0.053 C 
BRANCH   8   9
ATOM      9  C   UNL     1      61.714  24.979  24.513  1.00  0.00     0.041 C 
ATOM     10  O   UNL     1      60.887  25.068  23.567  1.00  0.00    -0.550 OA
ATOM     11  O   UNL     1      61.276  24.603  25.776  1.00  0.00    -0.550 OA
ENDBRANCH   8   9
ENDBRANCH   7   8
ENDBRANCH   6   7
ENDBRANCH   5   6
ENDBRANCH   4   5
ENDBRANCH   3   4
ENDBRANCH   2   3
ENDBRANCH   1   2
BRANCH   1  12
ATOM     12  C   UNL     1      60.359  21.256  22.020  1.00  0.00     0.000 C 
BRANCH  12  13
ATOM     13  C   UNL     1      60.967  21.424  23.420  1.00  0.00    -0.000 C 
BRANCH  13  14
ATOM     14  C   UNL     1      59.878  21.688  24.467  1.00  0.00    -0.000 C 
BRANCH  14  15
ATOM     15  C   UNL     1      58.501  21.243  23.952  1.00  0.00    -0.000 C 
BRANCH  15  16
ATOM     16  C   UNL     1      57.496  22.403  23.873  1.00  0.00    -0.000 C 
BRANCH  16  17
ATOM     17  C   UNL     1      56.357  22.134  22.873  1.00  0.00    -0.000 C 
BRANCH  17  18
ATOM     18  C   UNL     1      55.534  20.884  23.251  1.00  0.00    -0.000 C 
BRANCH  18  19
ATOM     19  C   UNL     1      54.023  21.150  23.355  1.00  0.00    -0.003 C 
ATOM     20  C   UNL     1      53.695  22.515  23.956  1.00  0.00     0.004 C 
ENDBRANCH  18  19
ENDBRANCH  17  18
ENDBRANCH  16  17
ENDBRANCH  15  16
ENDBRANCH  14  15
ENDBRANCH  13  14
ENDBRANCH  12  13
ENDBRANCH   1  12
TORSDOF 16
ENDMDL
MODEL 5
REMARK VINA RESULT:    -2.919      1.296      2.110
REMARK INTER + INTRA:          -8.081
REMARK INTER:                  -6.487
REMARK INTRA:                  -1.594
REMARK UNBOUND:                -2.432
REMARK SMILES CCCCCCCCCCCCCCCCCC(=O)[O-]
REMARK SMILES IDX 10 1 11 2 12 3 13 4 14 5 15 6 16 7 17 8 18 9 19 10 20 11
REMARK SMILES IDX 9 12 8 13 7 14 6 15 5 16 4 17 3 18 2 19 1 20
REMARK H PARENT
REMARK Flexibility Score: inf
ROOT
ATOM      1  C   UNL     1      60.890  21.474  20.128  1.00  0.00     0.000 C 
ENDROOT
BRANCH   1   2
ATOM      2  C   UNL     1      60.016  21.108  21.343  1.00  0.00     0.000 C 
BRANCH   2   3
ATOM      3  C   UNL     1      59.589  22.336  22.165  1.00  0.00     0.000 C 
BRANCH   3   4
ATOM      4  C   UNL     1      60.281  22.404  23.539  1.00  0.00     0.000 C 
BRANCH   4   5
ATOM      5  C   UNL     1      59.452  23.058  24.664  1.00  0.00     0.000 C 
BRANCH   5   6
ATOM      6  C   UNL     1      58.079  22.415  24.923  1.00  0.00     0.000 C 
BRANCH   6   7
ATOM      7  C   UNL     1      57.011  22.863  23.916  1.00  0.00     0.006 C 
BRANCH   7   8
ATOM      8  C   UNL     1      56.240  21.660  23.364  1.00  0.00     0.053 C 
BRANCH   8   9
ATOM      9  C   UNL     1      54.766  21.899  23.449  1.00  0.00     0.041 C 
ATOM     10  O   UNL     1      54.325  23.039  23.752  1.00  0.00    -0.550 OA
ATOM     11  O   UNL     1      53.877  20.875  23.145  1.00  0.00    -0.550 OA
ENDBRANCH   8   9
ENDBRANCH   7   8
ENDBRANCH   6   7
ENDBRANCH   5   6
ENDBRANCH   4   5
ENDBRANCH   3   4
ENDBRANCH   2   3
ENDBRANCH   1   2
BRANCH   1  12
ATOM     12  C   UNL     1      62.409  21.391  20.363  1.00  0.00     0.000 C 
BRANCH  12  13
ATOM     13  C   UNL     1      63.141  22.700  20.035  1.00  0.00    -0.000 C 
BRANCH  13  14
ATOM     14  C   UNL     1      64.112  23.085  21.158  1.00  0.00    -0.000 C 
BRANCH  14  15
ATOM     15  C   UNL     1      63.353  23.602  22.389  1.00  0.00    -0.000 C 
BRANCH  15  16
ATOM     16  C   UNL     1      62.360  24.723  22.045  1.00  0.00    -0.000 C 
BRANCH  16  17
ATOM     17  C   UNL     1      62.260  25.788  23.151  1.00  0.00    -0.000 C 
BRANCH  17  18
ATOM     18  C   UNL     1      63.606  25.999  23.879  1.00  0.00    -0.000 C 
BRANCH  18  19
ATOM     19  C   UNL     1      63.512  25.841  25.405  1.00  0.00    -0.003 C 
ATOM     20  C   UNL     1      62.285  25.047  25.849  1.00  0.00     0.004 C 
ENDBRANCH  18  19
ENDBRANCH  17  18
ENDBRANCH  16  17
ENDBRANCH  15  16
ENDBRANCH  14  15
ENDBRANCH  13  14
ENDBRANCH  12  13
ENDBRANCH   1  12
TORSDOF 16
ENDMDL
MODEL 6
REMARK VINA RESULT:    -2.883      3.139      5.623
REMARK INTER + INTRA:          -8.011
REMARK INTER:                  -5.782
REMARK INTRA:                  -2.229
REMARK UNBOUND:                -2.432
REMARK SMILES CCCCCCCCCCCCCCCCCC(=O)[O-]
REMARK SMILES IDX 10 1 11 2 12 3 13 4 14 5 15 6 16 7 17 8 18 9 19 10 20 11
REMARK SMILES IDX 9 12 8 13 7 14 6 15 5 16 4 17 3 18 2 19 1 20
REMARK H PARENT
REMARK Flexibility Score: inf
ROOT
ATOM      1  C   UNL     1      58.368  21.484  23.026  1.00  0.00     0.000 C 
ENDROOT
BRANCH   1   2
ATOM      2  C   UNL     1      59.527  21.049  23.943  1.00  0.00     0.000 C 
BRANCH   2   3
ATOM      3  C   UNL     1      60.856  20.875  23.188  1.00  0.00     0.000 C 
BRANCH   3   4
ATOM      4  C   UNL     1      62.086  21.043  24.098  1.00  0.00     0.000 C 
BRANCH   4   5
ATOM      5  C   UNL     1      63.413  21.336  23.367  1.00  0.00     0.000 C 
BRANCH   5   6
ATOM      6  C   UNL     1      63.401  21.063  21.853  1.00  0.00     0.000 C 
BRANCH   6   7
ATOM      7  C   UNL     1      63.980  22.225  21.033  1.00  0.00     0.006 C 
BRANCH   7   8
ATOM      8  C   UNL     1      62.861  23.065  20.409  1.00  0.00     0.053 C 
BRANCH   8   9
ATOM      9  C   UNL     1      62.288  22.371  19.215  1.00  0.00     0.041 C 
ATOM     10  O   UNL     1      62.914  22.366  18.123  1.00  0.00    -0.550 OA
ATOM     11  O   UNL     1      61.084  21.685  19.321  1.00  0.00    -0.550 OA
ENDBRANCH   8   9
ENDBRANCH   7   8
ENDBRANCH   6   7
ENDBRANCH   5   6
ENDBRANCH   4   5
ENDBRANCH   3   4
ENDBRANCH   2   3
ENDBRANCH   1   2
BRANCH   1  12
ATOM     12  C   UNL     1      57.680  22.803  23.419  1.00  0.00     0.000 C 
BRANCH  12  13
ATOM     13  C   UNL     1      57.790  23.115  24.918  1.00  0.00    -0.000 C 
BRANCH  13  14
ATOM     14  C   UNL     1      58.712  24.316  25.165  1.00  0.00    -0.000 C 
BRANCH  14  15
ATOM     15  C   UNL     1      60.019  23.876  25.841  1.00  0.00    -0.000 C 
BRANCH  15  16
ATOM     16  C   UNL     1      61.267  24.440  25.142  1.00  0.00    -0.000 C 
BRANCH  16  17
ATOM     17  C   UNL     1      61.064  24.632  23.629  1.00  0.00    -0.000 C 
BRANCH  17  18
ATOM     18  C   UNL     1      61.767  25.903  23.104  1.00  0.00    -0.000 C 
BRANCH  18  19
ATOM     19  C   UNL     1      63.230  25.670  22.692  1.00  0.00    -0.003 C 
ATOM     20  C   UNL     1      64.106  25.182  23.844  1.00  0.00     0.004 C 
ENDBRANCH  18  19
ENDBRANCH  17  18
ENDBRANCH  16  17
ENDBRANCH  15  16
ENDBRANCH  14  15
ENDBRANCH  13  14
ENDBRANCH  12  13
ENDBRANCH   1  12
TORSDOF 16
ENDMDL
MODEL 7
REMARK VINA RESULT:    -2.842      3.276      5.024
REMARK INTER + INTRA:          -7.932
REMARK INTER:                  -5.524
REMARK INTRA:                  -2.408
REMARK UNBOUND:                -2.432
REMARK SMILES CCCCCCCCCCCCCCCCCC(=O)[O-]
REMARK SMILES IDX 10 1 11 2 12 3 13 4 14 5 15 6 16 7 17 8 18 9 19 10 20 11
REMARK SMILES IDX 9 12 8 13 7 14 6 15 5 16 4 17 3 18 2 19 1 20
REMARK H PARENT
REMARK Flexibility Score: inf
ROOT
ATOM      1  C   UNL     1      58.786  24.049  24.970  1.00  0.00     0.000 C 
ENDROOT
BRANCH   1   2
ATOM      2  C   UNL     1      57.663  23.044  24.646  1.00  0.00     0.000 C 
BRANCH   2   3
ATOM      3  C   UNL     1      57.228  23.087  23.171  1.00  0.00     0.000 C 
BRANCH   3   4
ATOM      4  C   UNL     1      57.371  21.725  22.466  1.00  0.00     0.000 C 
BRANCH   4   5
ATOM      5  C   UNL     1      58.601  20.892  22.883  1.00  0.00     0.000 C 
BRANCH   5   6
ATOM      6  C   UNL     1      59.769  20.903  21.882  1.00  0.00     0.000 C 
BRANCH   6   7
ATOM      7  C   UNL     1      60.362  22.304  21.674  1.00  0.00     0.006 C 
BRANCH   7   8
ATOM      8  C   UNL     1      60.971  22.438  20.275  1.00  0.00     0.053 C 
BRANCH   8   9
ATOM      9  C   UNL     1      62.459  22.296  20.336  1.00  0.00     0.041 C 
ATOM     10  O   UNL     1      63.115  22.878  21.240  1.00  0.00    -0.550 OA
ATOM     11  O   UNL     1      63.117  21.481  19.424  1.00  0.00    -0.550 OA
ENDBRANCH   8   9
ENDBRANCH   7   8
ENDBRANCH   6   7
ENDBRANCH   5   6
ENDBRANCH   4   5
ENDBRANCH   3   4
ENDBRANCH   2   3
ENDBRANCH   1   2
BRANCH   1  12
ATOM     12  C   UNL     1      59.896  23.518  25.893  1.00  0.00     0.000 C 
BRANCH  12  13
ATOM     13  C   UNL     1      60.073  21.995  25.806  1.00  0.00    -0.000 C 
BRANCH  13  14
ATOM     14  C   UNL     1      61.450  21.633  25.234  1.00  0.00    -0.000 C 
BRANCH  14  15
ATOM     15  C   UNL     1      62.571  22.347  26.003  1.00  0.00    -0.000 C 
BRANCH  15  16
ATOM     16  C   UNL     1      63.610  22.992  25.072  1.00  0.00    -0.000 C 
BRANCH  16  17
ATOM     17  C   UNL     1      63.986  24.421  25.501  1.00  0.00    -0.000 C 
BRANCH  17  18
ATOM     18  C   UNL     1      63.329  25.490  24.601  1.00  0.00    -0.000 C 
BRANCH  18  19
ATOM     19  C   UNL     1      62.195  24.941  23.720  1.00  0.00    -0.003 C 
ATOM     20  C   UNL     1      61.491  26.024  22.906  1.00  0.00     0.004 C 
ENDBRANCH  18  19
ENDBRANCH  17  18
ENDBRANCH  16  17
ENDBRANCH  15  16
ENDBRANCH  14  15
ENDBRANCH  13  14
ENDBRANCH  12  13
ENDBRANCH   1  12
TORSDOF 16
ENDMDL
MODEL 8
REMARK VINA RESULT:    -2.702      3.555      6.529
REMARK INTER + INTRA:          -7.662
REMARK INTER:                  -5.488
REMARK INTRA:                  -2.175
REMARK UNBOUND:                -2.432
REMARK SMILES CCCCCCCCCCCCCCCCCC(=O)[O-]
REMARK SMILES IDX 10 1 11 2 12 3 13 4 14 5 15 6 16 7 17 8 18 9 19 10 20 11
REMARK SMILES IDX 9 12 8 13 7 14 6 15 5 16 4 17 3 18 2 19 1 20
REMARK H PARENT
REMARK Flexibility Score: inf
ROOT
ATOM      1  C   UNL     1      58.011  23.851  24.944  1.00  0.00     0.000 C 
ENDROOT
BRANCH   1   2
ATOM      2  C   UNL     1      59.000  24.244  26.059  1.00  0.00     0.000 C 
BRANCH   2   3
ATOM      3  C   UNL     1      60.452  24.349  25.561  1.00  0.00     0.000 C 
BRANCH   3   4
ATOM      4  C   UNL     1      61.327  23.167  26.016  1.00  0.00     0.000 C 
BRANCH   4   5
ATOM      5  C   UNL     1      61.648  22.125  24.924  1.00  0.00     0.000 C 
BRANCH   5   6
ATOM      6  C   UNL     1      63.145  21.919  24.635  1.00  0.00     0.000 C 
BRANCH   6   7
ATOM      7  C   UNL     1      63.751  23.053  23.796  1.00  0.00     0.006 C 
BRANCH   7   8
ATOM      8  C   UNL     1      64.125  24.248  24.679  1.00  0.00     0.053 C 
BRANCH   8   9
ATOM      9  C   UNL     1      63.761  25.532  24.005  1.00  0.00     0.041 C 
ATOM     10  O   UNL     1      63.253  25.521  22.852  1.00  0.00    -0.550 OA
ATOM     11  O   UNL     1      63.935  26.740  24.668  1.00  0.00    -0.550 OA
ENDBRANCH   8   9
ENDBRANCH   7   8
ENDBRANCH   6   7
ENDBRANCH   5   6
ENDBRANCH   4   5
ENDBRANCH   3   4
ENDBRANCH   2   3
ENDBRANCH   1   2
BRANCH   1  12
ATOM     12  C   UNL     1      57.867  22.339  24.697  1.00  0.00     0.000 C 
BRANCH  12  13
ATOM     13  C   UNL     1      56.798  22.001  23.648  1.00  0.00    -0.000 C 
BRANCH  13  14
ATOM     14  C   UNL     1      57.439  21.476  22.357  1.00  0.00    -0.000 C 
BRANCH  14  15
ATOM     15  C   UNL     1      58.824  20.875  22.635  1.00  0.00    -0.000 C 
BRANCH  15  16
ATOM     16  C   UNL     1      59.875  21.302  21.598  1.00  0.00    -0.000 C 
BRANCH  16  17
ATOM     17  C   UNL     1      60.327  22.762  21.777  1.00  0.00    -0.000 C 
BRANCH  17  18
ATOM     18  C   UNL     1      61.559  23.101  20.911  1.00  0.00    -0.000 C 
BRANCH  18  19
ATOM     19  C   UNL     1      62.382  21.867  20.503  1.00  0.00    -0.003 C 
ATOM     20  C   UNL     1      62.626  21.782  18.998  1.00  0.00     0.004 C 
ENDBRANCH  18  19
ENDBRANCH  17  18
ENDBRANCH  16  17
ENDBRANCH  15  16
ENDBRANCH  14  15
ENDBRANCH  13  14
ENDBRANCH  12  13
ENDBRANCH   1  12
TORSDOF 16
ENDMDL
