MODEL 1
REMARK VINA RESULT:    -4.442      0.000      0.000
REMARK INTER + INTRA:          -8.491
REMARK INTER:                  -7.039
REMARK INTRA:                  -1.453
REMARK UNBOUND:                -1.453
REMARK SMILES CCCCCCCCCCCC(=O)[O-]
REMARK SMILES IDX 7 1 8 2 9 3 10 4 11 5 12 6 13 7 14 8 6 9 5 10 4 11 3 12 2 13
REMARK SMILES IDX 1 14
REMARK H PARENT
REMARK Flexibility Score: inf
ROOT
ATOM      1  C   UNL     1       3.253  48.120   7.464  1.00  0.00     0.000 C 
ENDROOT
BRANCH   1   2
ATOM      2  C   UNL     1       1.986  47.422   7.984  1.00  0.00     0.000 C 
BRANCH   2   3
ATOM      3  C   UNL     1       2.225  46.673   9.306  1.00  0.00     0.000 C 
BRANCH   3   4
ATOM      4  C   UNL     1       3.644  46.083   9.407  1.00  0.00     0.006 C 
BRANCH   4   5
ATOM      5  C   UNL     1       4.168  45.934  10.844  1.00  0.00     0.053 C 
BRANCH   5   6
ATOM      6  C   UNL     1       4.050  44.527  11.341  1.00  0.00     0.041 C 
ATOM      7  O   UNL     1       3.758  43.595  10.546  1.00  0.00    -0.550 OA
ATOM      8  O   UNL     1       4.232  44.247  12.691  1.00  0.00    -0.550 OA
ENDBRANCH   5   6
ENDBRANCH   4   5
ENDBRANCH   3   4
ENDBRANCH   2   3
ENDBRANCH   1   2
BRANCH   1   9
ATOM      9  C   UNL     1       3.092  49.644   7.361  1.00  0.00     0.000 C 
BRANCH   9  10
ATOM     10  C   UNL     1       4.193  50.365   8.148  1.00  0.00    -0.000 C 
BRANCH  10  11
ATOM     11  C   UNL     1       4.071  50.080   9.652  1.00  0.00    -0.000 C 
BRANCH  11  12
ATOM     12  C   UNL     1       5.348  49.462  10.251  1.00  0.00    -0.000 C 
BRANCH  12  13
ATOM     13  C   UNL     1       6.469  49.180   9.234  1.00  0.00    -0.003 C 
ATOM     14  C   UNL     1       6.909  47.716   9.220  1.00  0.00     0.004 C 
ENDBRANCH  12  13
ENDBRANCH  11  12
ENDBRANCH  10  11
ENDBRANCH   9  10
ENDBRANCH   1   9
TORSDOF 10
ENDMDL
MODEL 2
REMARK VINA RESULT:    -4.425      1.690      2.499
REMARK INTER + INTRA:          -8.464
REMARK INTER:                  -7.296
REMARK INTRA:                  -1.168
REMARK UNBOUND:                -1.453
REMARK SMILES CCCCCCCCCCCC(=O)[O-]
REMARK SMILES IDX 7 1 8 2 9 3 10 4 11 5 12 6 13 7 14 8 6 9 5 10 4 11 3 12 2 13
REMARK SMILES IDX 1 14
REMARK H PARENT
REMARK Flexibility Score: inf
ROOT
ATOM      1  C   UNL     1       3.310  46.666   8.942  1.00  0.00     0.000 C 
ENDROOT
BRANCH   1   2
ATOM      2  C   UNL     1       4.062  45.419   9.435  1.00  0.00     0.000 C 
BRANCH   2   3
ATOM      3  C   UNL     1       4.412  45.493  10.930  1.00  0.00     0.000 C 
BRANCH   3   4
ATOM      4  C   UNL     1       3.853  44.303  11.732  1.00  0.00     0.006 C 
BRANCH   4   5
ATOM      5  C   UNL     1       2.509  43.764  11.215  1.00  0.00     0.053 C 
BRANCH   5   6
ATOM      6  C   UNL     1       2.141  42.463  11.860  1.00  0.00     0.041 C 
ATOM      7  O   UNL     1       2.889  41.458  11.731  1.00  0.00    -0.550 OA
ATOM      8  O   UNL     1       0.956  42.353  12.577  1.00  0.00    -0.550 OA
ENDBRANCH   5   6
ENDBRANCH   4   5
ENDBRANCH   3   4
ENDBRANCH   2   3
ENDBRANCH   1   2
BRANCH   1   9
ATOM      9  C   UNL     1       3.031  47.675  10.066  1.00  0.00     0.000 C 
BRANCH   9  10
ATOM     10  C   UNL     1       3.582  49.060   9.708  1.00  0.00    -0.000 C 
BRANCH  10  11
ATOM     11  C   UNL     1       4.681  49.486  10.692  1.00  0.00    -0.000 C 
BRANCH  11  12
ATOM     12  C   UNL     1       5.998  49.868   9.992  1.00  0.00    -0.000 C 
BRANCH  12  13
ATOM     13  C   UNL     1       6.437  48.908   8.870  1.00  0.00    -0.003 C 
ATOM     14  C   UNL     1       7.081  47.626   9.399  1.00  0.00     0.004 C 
ENDBRANCH  12  13
ENDBRANCH  11  12
ENDBRANCH  10  11
ENDBRANCH   9  10
ENDBRANCH   1   9
TORSDOF 10
ENDMDL
MODEL 3
REMARK VINA RESULT:    -4.390      2.757      4.218
REMARK INTER + INTRA:          -8.409
REMARK INTER:                  -7.693
REMARK INTRA:                  -0.716
REMARK UNBOUND:                -1.453
REMARK SMILES CCCCCCCCCCCC(=O)[O-]
REMARK SMILES IDX 7 1 8 2 9 3 10 4 11 5 12 6 13 7 14 8 6 9 5 10 4 11 3 12 2 13
REMARK SMILES IDX 1 14
REMARK H PARENT
REMARK Flexibility Score: inf
ROOT
ATOM      1  C   UNL     1       4.211  44.863  11.116  1.00  0.00     0.000 C 
ENDROOT
BRANCH   1   2
ATOM      2  C   UNL     1       3.684  44.063  12.320  1.00  0.00     0.000 C 
BRANCH   2   3
ATOM      3  C   UNL     1       2.407  43.273  11.990  1.00  0.00     0.000 C 
BRANCH   3   4
ATOM      4  C   UNL     1       2.697  41.818  11.576  1.00  0.00     0.006 C 
BRANCH   4   5
ATOM      5  C   UNL     1       4.000  41.242  12.153  1.00  0.00     0.053 C 
BRANCH   5   6
ATOM      6  C   UNL     1       3.796  39.885  12.752  1.00  0.00     0.041 C 
ATOM      7  O   UNL     1       2.680  39.309  12.654  1.00  0.00    -0.550 OA
ATOM      8  O   UNL     1       4.829  39.268  13.447  1.00  0.00    -0.550 OA
ENDBRANCH   5   6
ENDBRANCH   4   5
ENDBRANCH   3   4
ENDBRANCH   2   3
ENDBRANCH   1   2
BRANCH   1   9
ATOM      9  C   UNL     1       3.089  45.335  10.180  1.00  0.00     0.000 C 
BRANCH   9  10
ATOM     10  C   UNL     1       3.394  46.728   9.617  1.00  0.00    -0.000 C 
BRANCH  10  11
ATOM     11  C   UNL     1       4.302  47.519  10.571  1.00  0.00    -0.000 C 
BRANCH  11  12
ATOM     12  C   UNL     1       4.913  48.771   9.916  1.00  0.00    -0.000 C 
BRANCH  12  13
ATOM     13  C   UNL     1       6.025  48.487   8.889  1.00  0.00    -0.003 C 
ATOM     14  C   UNL     1       7.108  47.550   9.425  1.00  0.00     0.004 C 
ENDBRANCH  12  13
ENDBRANCH  11  12
ENDBRANCH  10  11
ENDBRANCH   9  10
ENDBRANCH   1   9
TORSDOF 10
ENDMDL
MODEL 4
REMARK VINA RESULT:    -4.387      1.807      3.106
REMARK INTER + INTRA:          -8.404
REMARK INTER:                  -7.412
REMARK INTRA:                  -0.992
REMARK UNBOUND:                -1.453
REMARK SMILES CCCCCCCCCCCC(=O)[O-]
REMARK SMILES IDX 7 1 8 2 9 3 10 4 11 5 12 6 13 7 14 8 6 9 5 10 4 11 3 12 2 13
REMARK SMILES IDX 1 14
REMARK H PARENT
REMARK Flexibility Score: inf
ROOT
ATOM      1  C   UNL     1       5.380  46.932   8.996  1.00  0.00     0.000 C 
ENDROOT
BRANCH   1   2
ATOM      2  C   UNL     1       4.822  46.154  10.199  1.00  0.00     0.000 C 
BRANCH   2   3
ATOM      3  C   UNL     1       3.562  45.346   9.847  1.00  0.00     0.000 C 
BRANCH   3   4
ATOM      4  C   UNL     1       3.885  43.915   9.378  1.00  0.00     0.006 C 
BRANCH   4   5
ATOM      5  C   UNL     1       2.700  42.938   9.457  1.00  0.00     0.053 C 
BRANCH   5   6
ATOM      6  C   UNL     1       2.325  42.624  10.872  1.00  0.00     0.041 C 
ATOM      7  O   UNL     1       2.985  41.777  11.529  1.00  0.00    -0.550 OA
ATOM      8  O   UNL     1       1.227  43.245  11.455  1.00  0.00    -0.550 OA
ENDBRANCH   5   6
ENDBRANCH   4   5
ENDBRANCH   3   4
ENDBRANCH   2   3
ENDBRANCH   1   2
BRANCH   1   9
ATOM      9  C   UNL     1       6.633  47.749   9.345  1.00  0.00     0.000 C 
BRANCH   9  10
ATOM     10  C   UNL     1       6.409  49.241   9.073  1.00  0.00    -0.000 C 
BRANCH  10  11
ATOM     11  C   UNL     1       5.853  49.949  10.318  1.00  0.00    -0.000 C 
BRANCH  11  12
ATOM     12  C   UNL     1       4.408  50.445  10.131  1.00  0.00    -0.000 C 
BRANCH  12  13
ATOM     13  C   UNL     1       3.326  49.523  10.723  1.00  0.00    -0.003 C 
ATOM     14  C   UNL     1       2.357  48.986   9.669  1.00  0.00     0.004 C 
ENDBRANCH  12  13
ENDBRANCH  11  12
ENDBRANCH  10  11
ENDBRANCH   9  10
ENDBRANCH   1   9
TORSDOF 10
ENDMDL
MODEL 5
REMARK VINA RESULT:    -4.377      3.650      6.784
REMARK INTER + INTRA:          -8.388
REMARK INTER:                  -7.813
REMARK INTRA:                  -0.575
REMARK UNBOUND:                -1.453
REMARK SMILES CCCCCCCCCCCC(=O)[O-]
REMARK SMILES IDX 7 1 8 2 9 3 10 4 11 5 12 6 13 7 14 8 6 9 5 10 4 11 3 12 2 13
REMARK SMILES IDX 1 14
REMARK H PARENT
REMARK Flexibility Score: inf
ROOT
ATOM      1  C   UNL     1       3.662  44.100   9.407  1.00  0.00     0.000 C 
ENDROOT
BRANCH   1   2
ATOM      2  C   UNL     1       4.298  44.764  10.640  1.00  0.00     0.000 C 
BRANCH   2   3
ATOM      3  C   UNL     1       4.452  46.285  10.477  1.00  0.00     0.000 C 
BRANCH   3   4
ATOM      4  C   UNL     1       5.257  46.671   9.221  1.00  0.00     0.006 C 
BRANCH   4   5
ATOM      5  C   UNL     1       6.204  47.865   9.416  1.00  0.00     0.053 C 
BRANCH   5   6
ATOM      6  C   UNL     1       5.764  49.064   8.634  1.00  0.00     0.041 C 
ATOM      7  O   UNL     1       6.472  50.105   8.617  1.00  0.00    -0.550 OA
ATOM      8  O   UNL     1       4.556  49.042   7.947  1.00  0.00    -0.550 OA
ENDBRANCH   5   6
ENDBRANCH   4   5
ENDBRANCH   3   4
ENDBRANCH   2   3
ENDBRANCH   1   2
BRANCH   1   9
ATOM      9  C   UNL     1       2.627  43.027   9.777  1.00  0.00     0.000 C 
BRANCH   9  10
ATOM     10  C   UNL     1       1.876  43.409  11.058  1.00  0.00    -0.000 C 
BRANCH  10  11
ATOM     11  C   UNL     1       1.912  42.262  12.079  1.00  0.00    -0.000 C 
BRANCH  11  12
ATOM     12  C   UNL     1       3.078  41.285  11.843  1.00  0.00    -0.000 C 
BRANCH  12  13
ATOM     13  C   UNL     1       3.023  39.996  12.682  1.00  0.00    -0.003 C 
ATOM     14  C   UNL     1       4.407  39.479  13.076  1.00  0.00     0.004 C 
ENDBRANCH  12  13
ENDBRANCH  11  12
ENDBRANCH  10  11
ENDBRANCH   9  10
ENDBRANCH   1   9
TORSDOF 10
ENDMDL
MODEL 6
REMARK VINA RESULT:    -4.294      2.010      3.035
REMARK INTER + INTRA:          -8.256
REMARK INTER:                  -7.235
REMARK INTRA:                  -1.021
REMARK UNBOUND:                -1.453
REMARK SMILES CCCCCCCCCCCC(=O)[O-]
REMARK SMILES IDX 7 1 8 2 9 3 10 4 11 5 12 6 13 7 14 8 6 9 5 10 4 11 3 12 2 13
REMARK SMILES IDX 1 14
REMARK H PARENT
REMARK Flexibility Score: inf
ROOT
ATOM      1  C   UNL     1       3.533  46.609   9.454  1.00  0.00     0.000 C 
ENDROOT
BRANCH   1   2
ATOM      2  C   UNL     1       4.429  45.982  10.535  1.00  0.00     0.000 C 
BRANCH   2   3
ATOM      3  C   UNL     1       4.183  44.473  10.704  1.00  0.00     0.000 C 
BRANCH   3   4
ATOM      4  C   UNL     1       3.829  43.776   9.377  1.00  0.00     0.006 C 
BRANCH   4   5
ATOM      5  C   UNL     1       2.545  42.932   9.426  1.00  0.00     0.053 C 
BRANCH   5   6
ATOM      6  C   UNL     1       1.320  43.762   9.199  1.00  0.00     0.041 C 
ATOM      7  O   UNL     1       0.805  44.407  10.150  1.00  0.00    -0.550 OA
ATOM      8  O   UNL     1       0.726  43.799   7.942  1.00  0.00    -0.550 OA
ENDBRANCH   5   6
ENDBRANCH   4   5
ENDBRANCH   3   4
ENDBRANCH   2   3
ENDBRANCH   1   2
BRANCH   1   9
ATOM      9  C   UNL     1       2.867  47.913   9.917  1.00  0.00     0.000 C 
BRANCH   9  10
ATOM     10  C   UNL     1       3.774  48.677  10.889  1.00  0.00    -0.000 C 
BRANCH  10  11
ATOM     11  C   UNL     1       4.358  49.932  10.224  1.00  0.00    -0.000 C 
BRANCH  11  12
ATOM     12  C   UNL     1       5.895  49.907  10.141  1.00  0.00    -0.000 C 
BRANCH  12  13
ATOM     13  C   UNL     1       6.466  49.154   8.926  1.00  0.00    -0.003 C 
ATOM     14  C   UNL     1       7.121  47.824   9.301  1.00  0.00     0.004 C 
ENDBRANCH  12  13
ENDBRANCH  11  12
ENDBRANCH  10  11
ENDBRANCH   9  10
ENDBRANCH   1   9
TORSDOF 10
ENDMDL
MODEL 7
REMARK VINA RESULT:    -4.272      1.377      3.217
REMARK INTER + INTRA:          -8.221
REMARK INTER:                  -6.917
REMARK INTRA:                  -1.304
REMARK UNBOUND:                -1.453
REMARK SMILES CCCCCCCCCCCC(=O)[O-]
REMARK SMILES IDX 7 1 8 2 9 3 10 4 11 5 12 6 13 7 14 8 6 9 5 10 4 11 3 12 2 13
REMARK SMILES IDX 1 14
REMARK H PARENT
REMARK Flexibility Score: inf
ROOT
ATOM      1  C   UNL     1       6.408  49.242   9.044  1.00  0.00     0.000 C 
ENDROOT
BRANCH   1   2
ATOM      2  C   UNL     1       6.575  47.749   9.375  1.00  0.00     0.000 C 
BRANCH   2   3
ATOM      3  C   UNL     1       5.288  46.943   9.132  1.00  0.00     0.000 C 
BRANCH   3   4
ATOM      4  C   UNL     1       4.524  46.636  10.433  1.00  0.00     0.006 C 
BRANCH   4   5
ATOM      5  C   UNL     1       4.445  45.141  10.785  1.00  0.00     0.053 C 
BRANCH   5   6
ATOM      6  C   UNL     1       3.671  44.365   9.764  1.00  0.00     0.041 C 
ATOM      7  O   UNL     1       4.256  43.527   9.028  1.00  0.00    -0.550 OA
ATOM      8  O   UNL     1       2.309  44.589   9.604  1.00  0.00    -0.550 OA
ENDBRANCH   5   6
ENDBRANCH   4   5
ENDBRANCH   3   4
ENDBRANCH   2   3
ENDBRANCH   1   2
BRANCH   1   9
ATOM      9  C   UNL     1       5.643  50.010  10.133  1.00  0.00     0.000 C 
BRANCH   9  10
ATOM     10  C   UNL     1       4.443  50.756   9.537  1.00  0.00    -0.000 C 
BRANCH  10  11
ATOM     11  C   UNL     1       4.343  50.516   8.023  1.00  0.00    -0.000 C 
BRANCH  11  12
ATOM     12  C   UNL     1       2.950  50.028   7.584  1.00  0.00    -0.000 C 
BRANCH  12  13
ATOM     13  C   UNL     1       2.296  49.002   8.529  1.00  0.00    -0.003 C 
ATOM     14  C   UNL     1       1.930  47.694   7.829  1.00  0.00     0.004 C 
ENDBRANCH  12  13
ENDBRANCH  11  12
ENDBRANCH  10  11
ENDBRANCH   9  10
ENDBRANCH   1   9
TORSDOF 10
ENDMDL
MODEL 8
REMARK VINA RESULT:    -4.259      1.750      3.523
REMARK INTER + INTRA:          -8.202
REMARK INTER:                  -6.909
REMARK INTRA:                  -1.293
REMARK UNBOUND:                -1.453
REMARK SMILES CCCCCCCCCCCC(=O)[O-]
REMARK SMILES IDX 7 1 8 2 9 3 10 4 11 5 12 6 13 7 14 8 6 9 5 10 4 11 3 12 2 13
REMARK SMILES IDX 1 14
REMARK H PARENT
REMARK Flexibility Score: inf
ROOT
ATOM      1  C   UNL     1       4.445  47.392  10.484  1.00  0.00     0.000 C 
ENDROOT
BRANCH   1   2
ATOM      2  C   UNL     1       4.015  45.922  10.629  1.00  0.00     0.000 C 
BRANCH   2   3
ATOM      3  C   UNL     1       4.225  45.116   9.336  1.00  0.00     0.000 C 
BRANCH   3   4
ATOM      4  C   UNL     1       3.968  43.609   9.527  1.00  0.00     0.006 C 
BRANCH   4   5
ATOM      5  C   UNL     1       2.505  43.248   9.828  1.00  0.00     0.053 C 
BRANCH   5   6
ATOM      6  C   UNL     1       2.336  42.696  11.210  1.00  0.00     0.041 C 
ATOM      7  O   UNL     1       2.647  41.501  11.458  1.00  0.00    -0.550 OA
ATOM      8  O   UNL     1       1.806  43.493  12.218  1.00  0.00    -0.550 OA
ENDBRANCH   5   6
ENDBRANCH   4   5
ENDBRANCH   3   4
ENDBRANCH   2   3
ENDBRANCH   1   2
BRANCH   1   9
ATOM      9  C   UNL     1       5.277  47.645   9.218  1.00  0.00     0.000 C 
BRANCH   9  10
ATOM     10  C   UNL     1       4.747  48.861   8.448  1.00  0.00    -0.000 C 
BRANCH  10  11
ATOM     11  C   UNL     1       3.793  48.429   7.325  1.00  0.00    -0.000 C 
BRANCH  11  12
ATOM     12  C   UNL     1       2.310  48.627   7.689  1.00  0.00    -0.000 C 
BRANCH  12  13
ATOM     13  C   UNL     1       1.514  47.325   7.895  1.00  0.00    -0.003 C 
ATOM     14  C   UNL     1       0.859  47.237   9.274  1.00  0.00     0.004 C 
ENDBRANCH  12  13
ENDBRANCH  11  12
ENDBRANCH  10  11
ENDBRANCH   9  10
ENDBRANCH   1   9
TORSDOF 10
ENDMDL
MODEL 9
REMARK VINA RESULT:    -4.250      2.774      4.998
REMARK INTER + INTRA:          -8.187
REMARK INTER:                  -6.851
REMARK INTRA:                  -1.337
REMARK UNBOUND:                -1.453
REMARK SMILES CCCCCCCCCCCC(=O)[O-]
REMARK SMILES IDX 7 1 8 2 9 3 10 4 11 5 12 6 13 7 14 8 6 9 5 10 4 11 3 12 2 13
REMARK SMILES IDX 1 14
REMARK H PARENT
REMARK Flexibility Score: inf
ROOT
ATOM      1  C   UNL     1       1.265  46.726   8.163  1.00  0.00     0.000 C 
ENDROOT
BRANCH   1   2
ATOM      2  C   UNL     1       2.503  47.518   8.612  1.00  0.00     0.000 C 
BRANCH   2   3
ATOM      3  C   UNL     1       2.769  47.392  10.122  1.00  0.00     0.000 C 
BRANCH   3   4
ATOM      4  C   UNL     1       4.264  47.504  10.475  1.00  0.00     0.006 C 
BRANCH   4   5
ATOM      5  C   UNL     1       5.210  46.882   9.435  1.00  0.00     0.053 C 
BRANCH   5   6
ATOM      6  C   UNL     1       6.376  47.771   9.134  1.00  0.00     0.041 C 
ATOM      7  O   UNL     1       7.549  47.383   9.377  1.00  0.00    -0.550 OA
ATOM      8  O   UNL     1       6.166  49.044   8.615  1.00  0.00    -0.550 OA
ENDBRANCH   5   6
ENDBRANCH   4   5
ENDBRANCH   3   4
ENDBRANCH   2   3
ENDBRANCH   1   2
BRANCH   1   9
ATOM      9  C   UNL     1       0.827  45.674   9.192  1.00  0.00     0.000 C 
BRANCH   9  10
ATOM     10  C   UNL     1       0.721  44.286   8.548  1.00  0.00    -0.000 C 
BRANCH  10  11
ATOM     11  C   UNL     1       1.889  43.388   8.980  1.00  0.00    -0.000 C 
BRANCH  11  12
ATOM     12  C   UNL     1       2.208  43.500  10.482  1.00  0.00    -0.000 C 
BRANCH  12  13
ATOM     13  C   UNL     1       3.707  43.588  10.821  1.00  0.00    -0.003 C 
ATOM     14  C   UNL     1       3.978  44.273  12.161  1.00  0.00     0.004 C 
ENDBRANCH  12  13
ENDBRANCH  11  12
ENDBRANCH  10  11
ENDBRANCH   9  10
ENDBRANCH   1   9
TORSDOF 10
ENDMDL
