MODEL 1
REMARK VINA RESULT:    -3.047      0.000      0.000
REMARK INTER + INTRA:          -4.642
REMARK INTER:                  -4.649
REMARK INTRA:                   0.008
REMARK UNBOUND:                 0.008
REMARK SMILES CC1=CCC[C@@H](C)C(=O)C[C@@H](C(C)C)C(=O)C1
REMARK SMILES IDX 8 1 9 2 6 3 7 4 5 5 4 6 3 7 2 8 1 9 10 11 11 12 15 13 16 14
REMARK SMILES IDX 17 15 12 17 13 18 14 19
REMARK H PARENT
REMARK Flexibility Score: 70.00
ROOT
ATOM      1  C   UNL     1      83.431  -5.294  28.977  1.00  0.00     0.136 C 
ATOM      2  O   UNL     1      83.832  -4.288  29.546  1.00  0.00    -0.299 OA
ENDROOT
BRANCH   1   3
ATOM      3  C   UNL     1      82.689  -5.136  27.664  1.00  0.00     0.053 C 
ATOM      4  C   UNL     1      83.155  -3.881  26.912  1.00  0.00     0.016 C 
BRANCH   3   5
ATOM      5  C   UNL     1      81.164  -5.101  27.921  1.00  0.00     0.015 C 
BRANCH   5   6
ATOM      6  C   UNL     1      80.565  -6.505  28.158  1.00  0.00     0.028 C 
BRANCH   6   7
ATOM      7  C   UNL     1      80.910  -7.462  27.042  1.00  0.00    -0.028 C 
ATOM      8  C   UNL     1      81.709  -8.548  27.166  1.00  0.00    -0.070 CG0
ATOM      9  C   UNL     1      81.923  -9.414  25.951  1.00  0.00     0.039 C 
ATOM     10  G   UNL     1      82.391  -8.939  28.467  1.00  0.00     0.000 G0
ENDBRANCH   6   7
ENDBRANCH   5   6
ENDBRANCH   3   5
ENDBRANCH   1   3
BRANCH   1  11
ATOM     11  C   UNL     1      83.676  -6.628  29.666  1.00  0.00     0.087 C 
BRANCH  11  12
ATOM     12  C   UNL     1      84.640  -7.628  28.967  1.00  0.00     0.066 C 
BRANCH  12  13
ATOM     13  C   UNL     1      83.905  -8.856  28.446  1.00  0.00     0.140 C 
ATOM     14  O   UNL     1      84.538  -9.766  27.927  1.00  0.00    -0.299 OA
BRANCH  13  15
ATOM     15  C   UNL     1      82.395  -8.933  28.504  1.00  0.00     0.106 CG0
ATOM     16  G   UNL     1      81.738  -8.541  27.191  1.00  0.00     0.000 G0
ENDBRANCH  13  15
ENDBRANCH  12  13
BRANCH  12  17
ATOM     17  C   UNL     1      85.843  -8.004  29.891  1.00  0.00    -0.006 C 
ATOM     18  C   UNL     1      86.576  -6.799  30.507  1.00  0.00     0.008 C 
ATOM     19  C   UNL     1      85.417  -8.977  31.002  1.00  0.00     0.008 C 
ENDBRANCH  12  17
ENDBRANCH  11  12
ENDBRANCH   1  11
TORSDOF 1
ENDMDL
MODEL 2
REMARK VINA RESULT:    -3.039      1.743      3.950
REMARK INTER + INTRA:          -4.631
REMARK INTER:                  -4.217
REMARK INTRA:                  -0.414
REMARK UNBOUND:                 0.008
REMARK SMILES CC1=CCC[C@@H](C)C(=O)C[C@@H](C(C)C)C(=O)C1
REMARK SMILES IDX 8 1 9 2 6 3 7 4 5 5 4 6 3 7 2 8 1 9 10 11 11 12 15 13 16 14
REMARK SMILES IDX 17 15 12 17 13 18 14 19
REMARK H PARENT
REMARK Flexibility Score: 70.00
ROOT
ATOM      1  C   UNL     1      83.015  -4.941  27.894  1.00  0.00     0.136 C 
ATOM      2  O   UNL     1      83.539  -4.090  27.188  1.00  0.00    -0.299 OA
ENDROOT
BRANCH   1   3
ATOM      3  C   UNL     1      83.745  -5.394  29.144  1.00  0.00     0.053 C 
ATOM      4  C   UNL     1      84.290  -4.194  29.932  1.00  0.00     0.016 C 
BRANCH   3   5
ATOM      5  C   UNL     1      84.877  -6.378  28.766  1.00  0.00     0.015 C 
BRANCH   5   6
ATOM      6  C   UNL     1      84.467  -7.858  28.938  1.00  0.00     0.028 C 
BRANCH   6   7
ATOM      7  C   UNL     1      84.201  -8.527  27.610  1.00  0.00    -0.028 C 
ATOM      8  C   UNL     1      83.007  -9.028  27.216  1.00  0.00    -0.070 CG0
ATOM      9  C   UNL     1      82.912  -9.638  25.841  1.00  0.00     0.039 C 
ATOM     10  G   UNL     1      81.760  -8.998  28.085  1.00  0.00     0.000 G0
ENDBRANCH   6   7
ENDBRANCH   5   6
ENDBRANCH   3   5
ENDBRANCH   1   3
BRANCH   1  11
ATOM     11  C   UNL     1      81.683  -5.509  27.428  1.00  0.00     0.087 C 
BRANCH  11  12
ATOM     12  C   UNL     1      80.961  -6.508  28.375  1.00  0.00     0.066 C 
BRANCH  12  13
ATOM     13  C   UNL     1      80.800  -7.881  27.736  1.00  0.00     0.140 C 
ATOM     14  O   UNL     1      79.862  -8.090  26.978  1.00  0.00    -0.299 OA
BRANCH  13  15
ATOM     15  C   UNL     1      81.748  -9.008  28.081  1.00  0.00     0.106 CG0
ATOM     16  G   UNL     1      82.985  -9.024  27.197  1.00  0.00     0.000 G0
ENDBRANCH  13  15
ENDBRANCH  12  13
BRANCH  12  17
ATOM     17  C   UNL     1      79.603  -5.930  28.889  1.00  0.00    -0.006 C 
ATOM     18  C   UNL     1      79.656  -5.342  30.310  1.00  0.00     0.008 C 
ATOM     19  C   UNL     1      79.031  -4.886  27.916  1.00  0.00     0.008 C 
ENDBRANCH  12  17
ENDBRANCH  11  12
ENDBRANCH   1  11
TORSDOF 1
ENDMDL
MODEL 3
REMARK VINA RESULT:    -3.013      2.590      4.811
REMARK INTER + INTRA:          -4.590
REMARK INTER:                  -4.291
REMARK INTRA:                  -0.300
REMARK UNBOUND:                 0.008
REMARK SMILES CC1=CCC[C@@H](C)C(=O)C[C@@H](C(C)C)C(=O)C1
REMARK SMILES IDX 8 1 9 2 6 3 7 4 5 5 4 6 3 7 2 8 1 9 10 11 11 12 15 13 16 14
REMARK SMILES IDX 17 15 12 17 13 18 14 19
REMARK H PARENT
REMARK Flexibility Score: 70.00
ROOT
ATOM      1  C   UNL     1      82.354  -5.911  27.314  1.00  0.00     0.136 C 
ATOM      2  O   UNL     1      83.253  -6.639  26.916  1.00  0.00    -0.299 OA
ENDROOT
BRANCH   1   3
ATOM      3  C   UNL     1      82.709  -4.510  27.775  1.00  0.00     0.053 C 
ATOM      4  C   UNL     1      83.236  -3.661  26.609  1.00  0.00     0.016 C 
BRANCH   3   5
ATOM      5  C   UNL     1      83.738  -4.579  28.928  1.00  0.00     0.015 C 
BRANCH   5   6
ATOM      6  C   UNL     1      83.082  -4.857  30.299  1.00  0.00     0.028 C 
BRANCH   6   7
ATOM      7  C   UNL     1      83.430  -6.231  30.823  1.00  0.00    -0.028 C 
ATOM      8  C   UNL     1      82.533  -7.193  31.142  1.00  0.00    -0.070 CG0
ATOM      9  C   UNL     1      83.058  -8.522  31.623  1.00  0.00     0.039 C 
ATOM     10  G   UNL     1      81.029  -7.003  31.031  1.00  0.00     0.000 G0
ENDBRANCH   6   7
ENDBRANCH   5   6
ENDBRANCH   3   5
ENDBRANCH   1   3
BRANCH   1  11
ATOM     11  C   UNL     1      80.950  -6.495  27.354  1.00  0.00     0.087 C 
BRANCH  11  12
ATOM     12  C   UNL     1      80.137  -6.313  28.667  1.00  0.00     0.066 C 
BRANCH  12  13
ATOM     13  C   UNL     1      80.467  -7.390  29.692  1.00  0.00     0.140 C 
ATOM     14  O   UNL     1      80.231  -8.563  29.436  1.00  0.00    -0.299 OA
BRANCH  13  15
ATOM     15  C   UNL     1      81.022  -7.018  31.050  1.00  0.00     0.106 CG0
ATOM     16  G   UNL     1      82.531  -7.184  31.131  1.00  0.00     0.000 G0
ENDBRANCH  13  15
ENDBRANCH  12  13
BRANCH  12  17
ATOM     17  C   UNL     1      78.605  -6.215  28.381  1.00  0.00    -0.006 C 
ATOM     18  C   UNL     1      78.031  -4.788  28.455  1.00  0.00     0.008 C 
ATOM     19  C   UNL     1      78.241  -6.852  27.031  1.00  0.00     0.008 C 
ENDBRANCH  12  17
ENDBRANCH  11  12
ENDBRANCH   1  11
TORSDOF 1
ENDMDL
MODEL 4
REMARK VINA RESULT:    -2.821      1.900      2.952
REMARK INTER + INTRA:          -4.297
REMARK INTER:                  -4.021
REMARK INTRA:                  -0.275
REMARK UNBOUND:                 0.008
REMARK SMILES CC1=CCC[C@@H](C)C(=O)C[C@@H](C(C)C)C(=O)C1
REMARK SMILES IDX 8 1 9 2 6 3 7 4 5 5 4 6 3 7 2 8 1 9 10 11 11 12 15 13 16 14
REMARK SMILES IDX 17 15 12 17 13 18 14 19
REMARK H PARENT
REMARK Flexibility Score: 70.00
ROOT
ATOM      1  C   UNL     1      83.000  -5.431  28.673  1.00  0.00     0.136 C 
ATOM      2  O   UNL     1      83.154  -4.610  29.567  1.00  0.00    -0.299 OA
ENDROOT
BRANCH   1   3
ATOM      3  C   UNL     1      82.310  -4.990  27.396  1.00  0.00     0.053 C 
ATOM      4  C   UNL     1      83.120  -3.900  26.678  1.00  0.00     0.016 C 
BRANCH   3   5
ATOM      5  C   UNL     1      80.876  -4.505  27.711  1.00  0.00     0.015 C 
BRANCH   5   6
ATOM      6  C   UNL     1      79.843  -5.654  27.713  1.00  0.00     0.028 C 
BRANCH   6   7
ATOM      7  C   UNL     1      79.325  -5.945  29.102  1.00  0.00    -0.028 C 
ATOM      8  C   UNL     1      79.441  -7.131  29.744  1.00  0.00    -0.070 CG0
ATOM      9  C   UNL     1      78.892  -7.237  31.143  1.00  0.00     0.039 C 
ATOM     10  G   UNL     1      80.104  -8.353  29.128  1.00  0.00     0.000 G0
ENDBRANCH   6   7
ENDBRANCH   5   6
ENDBRANCH   3   5
ENDBRANCH   1   3
BRANCH   1  11
ATOM     11  C   UNL     1      83.477  -6.850  28.940  1.00  0.00     0.087 C 
BRANCH  11  12
ATOM     12  C   UNL     1      82.604  -8.014  28.391  1.00  0.00     0.066 C 
BRANCH  12  13
ATOM     13  C   UNL     1      81.574  -8.479  29.411  1.00  0.00     0.140 C 
ATOM     14  O   UNL     1      81.946  -8.998  30.456  1.00  0.00    -0.299 OA
BRANCH  13  15
ATOM     15  C   UNL     1      80.093  -8.368  29.118  1.00  0.00     0.106 CG0
ATOM     16  G   UNL     1      79.466  -7.127  29.732  1.00  0.00     0.000 G0
ENDBRANCH  13  15
ENDBRANCH  12  13
BRANCH  12  17
ATOM     17  C   UNL     1      83.486  -9.190  27.861  1.00  0.00    -0.006 C 
ATOM     18  C   UNL     1      83.778  -9.137  26.350  1.00  0.00     0.008 C 
ATOM     19  C   UNL     1      84.805  -9.302  28.642  1.00  0.00     0.008 C 
ENDBRANCH  12  17
ENDBRANCH  11  12
ENDBRANCH   1  11
TORSDOF 1
ENDMDL
MODEL 5
REMARK VINA RESULT:    -2.755      2.417      3.618
REMARK INTER + INTRA:          -4.197
REMARK INTER:                  -4.033
REMARK INTRA:                  -0.163
REMARK UNBOUND:                 0.008
REMARK SMILES CC1=CCC[C@@H](C)C(=O)C[C@@H](C(C)C)C(=O)C1
REMARK SMILES IDX 8 1 9 2 6 3 7 4 5 5 4 6 3 7 2 8 1 9 10 11 11 12 15 13 16 14
REMARK SMILES IDX 17 15 12 17 13 18 14 19
REMARK H PARENT
REMARK Flexibility Score: 70.00
ROOT
ATOM      1  C   UNL     1      82.776  -5.399  27.595  1.00  0.00     0.136 C 
ATOM      2  O   UNL     1      82.983  -4.557  26.732  1.00  0.00    -0.299 OA
ENDROOT
BRANCH   1   3
ATOM      3  C   UNL     1      82.391  -6.800  27.161  1.00  0.00     0.053 C 
ATOM      4  C   UNL     1      82.881  -7.092  25.735  1.00  0.00     0.016 C 
BRANCH   3   5
ATOM      5  C   UNL     1      80.859  -6.986  27.275  1.00  0.00     0.015 C 
BRANCH   5   6
ATOM      6  C   UNL     1      80.466  -8.157  28.203  1.00  0.00     0.028 C 
BRANCH   6   7
ATOM      7  C   UNL     1      79.359  -7.775  29.157  1.00  0.00    -0.028 C 
ATOM      8  C   UNL     1      79.533  -7.430  30.454  1.00  0.00    -0.070 CG0
ATOM      9  C   UNL     1      78.315  -7.045  31.256  1.00  0.00     0.039 C 
ATOM     10  G   UNL     1      80.891  -7.402  31.136  1.00  0.00     0.000 G0
ENDBRANCH   6   7
ENDBRANCH   5   6
ENDBRANCH   3   5
ENDBRANCH   1   3
BRANCH   1  11
ATOM     11  C   UNL     1      82.879  -4.951  29.045  1.00  0.00     0.087 C 
BRANCH  11  12
ATOM     12  C   UNL     1      82.916  -6.059  30.135  1.00  0.00     0.066 C 
BRANCH  12  13
ATOM     13  C   UNL     1      81.629  -6.099  30.948  1.00  0.00     0.140 C 
ATOM     14  O   UNL     1      81.217  -5.076  31.479  1.00  0.00    -0.299 OA
BRANCH  13  15
ATOM     15  C   UNL     1      80.891  -7.402  31.161  1.00  0.00     0.106 CG0
ATOM     16  G   UNL     1      79.551  -7.441  30.444  1.00  0.00     0.000 G0
ENDBRANCH  13  15
ENDBRANCH  12  13
BRANCH  12  17
ATOM     17  C   UNL     1      84.185  -5.931  31.038  1.00  0.00    -0.006 C 
ATOM     18  C   UNL     1      85.206  -7.071  30.871  1.00  0.00     0.008 C 
ATOM     19  C   UNL     1      84.882  -4.575  30.840  1.00  0.00     0.008 C 
ENDBRANCH  12  17
ENDBRANCH  11  12
ENDBRANCH   1  11
TORSDOF 1
ENDMDL
MODEL 6
REMARK VINA RESULT:    -2.722      3.014      5.788
REMARK INTER + INTRA:          -4.146
REMARK INTER:                  -3.896
REMARK INTRA:                  -0.249
REMARK UNBOUND:                 0.008
REMARK SMILES CC1=CCC[C@@H](C)C(=O)C[C@@H](C(C)C)C(=O)C1
REMARK SMILES IDX 8 1 9 2 6 3 7 4 5 5 4 6 3 7 2 8 1 9 10 11 11 12 15 13 16 14
REMARK SMILES IDX 17 15 12 17 13 18 14 19
REMARK H PARENT
REMARK Flexibility Score: 70.00
ROOT
ATOM      1  C   UNL     1      81.149  -8.799  26.330  1.00  0.00     0.136 C 
ATOM      2  O   UNL     1      81.743  -9.569  27.072  1.00  0.00    -0.299 OA
ENDROOT
BRANCH   1   3
ATOM      3  C   UNL     1      81.959  -7.960  25.360  1.00  0.00     0.053 C 
ATOM      4  C   UNL     1      82.666  -8.843  24.322  1.00  0.00     0.016 C 
BRANCH   3   5
ATOM      5  C   UNL     1      82.973  -7.087  26.136  1.00  0.00     0.015 C 
BRANCH   5   6
ATOM      6  C   UNL     1      82.303  -5.910  26.880  1.00  0.00     0.028 C 
BRANCH   6   7
ATOM      7  C   UNL     1      82.432  -6.044  28.380  1.00  0.00    -0.028 C 
ATOM      8  C   UNL     1      81.401  -6.008  29.256  1.00  0.00    -0.070 CG0
ATOM      9  C   UNL     1      81.708  -6.189  30.721  1.00  0.00     0.039 C 
ATOM     10  G   UNL     1      79.954  -5.804  28.836  1.00  0.00     0.000 G0
ENDBRANCH   6   7
ENDBRANCH   5   6
ENDBRANCH   3   5
ENDBRANCH   1   3
BRANCH   1  11
ATOM     11  C   UNL     1      79.637  -8.716  26.477  1.00  0.00     0.087 C 
BRANCH  11  12
ATOM     12  C   UNL     1      79.035  -7.352  26.919  1.00  0.00     0.066 C 
BRANCH  12  13
ATOM     13  C   UNL     1      79.275  -7.079  28.398  1.00  0.00     0.140 C 
ATOM     14  O   UNL     1      78.883  -7.883  29.233  1.00  0.00    -0.299 OA
BRANCH  13  15
ATOM     15  C   UNL     1      79.934  -5.794  28.848  1.00  0.00     0.106 CG0
ATOM     16  G   UNL     1      81.386  -5.990  29.252  1.00  0.00     0.000 G0
ENDBRANCH  13  15
ENDBRANCH  12  13
BRANCH  12  17
ATOM     17  C   UNL     1      77.526  -7.241  26.532  1.00  0.00    -0.006 C 
ATOM     18  C   UNL     1      77.080  -5.834  26.094  1.00  0.00     0.008 C 
ATOM     19  C   UNL     1      77.143  -8.267  25.453  1.00  0.00     0.008 C 
ENDBRANCH  12  17
ENDBRANCH  11  12
ENDBRANCH   1  11
TORSDOF 1
ENDMDL
MODEL 7
REMARK VINA RESULT:    -2.710      2.253      4.119
REMARK INTER + INTRA:          -4.128
REMARK INTER:                  -4.327
REMARK INTRA:                   0.199
REMARK UNBOUND:                 0.008
REMARK SMILES CC1=CCC[C@@H](C)C(=O)C[C@@H](C(C)C)C(=O)C1
REMARK SMILES IDX 8 1 9 2 6 3 7 4 5 5 4 6 3 7 2 8 1 9 10 11 11 12 15 13 16 14
REMARK SMILES IDX 17 15 12 17 13 18 14 19
REMARK H PARENT
REMARK Flexibility Score: 70.00
ROOT
ATOM      1  C   UNL     1      83.830  -4.969  28.766  1.00  0.00     0.136 C 
ATOM      2  O   UNL     1      83.425  -4.080  28.030  1.00  0.00    -0.299 OA
ENDROOT
BRANCH   1   3
ATOM      3  C   UNL     1      84.388  -4.586  30.124  1.00  0.00     0.053 C 
ATOM      4  C   UNL     1      85.387  -5.637  30.628  1.00  0.00     0.016 C 
BRANCH   3   5
ATOM      5  C   UNL     1      83.232  -4.384  31.131  1.00  0.00     0.015 C 
BRANCH   5   6
ATOM      6  C   UNL     1      82.562  -5.713  31.547  1.00  0.00     0.028 C 
BRANCH   6   7
ATOM      7  C   UNL     1      81.060  -5.662  31.389  1.00  0.00    -0.028 C 
ATOM      8  C   UNL     1      80.351  -6.342  30.458  1.00  0.00    -0.070 CG0
ATOM      9  C   UNL     1      78.851  -6.198  30.463  1.00  0.00     0.039 C 
ATOM     10  G   UNL     1      80.991  -7.249  29.419  1.00  0.00     0.000 G0
ENDBRANCH   6   7
ENDBRANCH   5   6
ENDBRANCH   3   5
ENDBRANCH   1   3
BRANCH   1  11
ATOM     11  C   UNL     1      83.782  -6.393  28.232  1.00  0.00     0.087 C 
BRANCH  11  12
ATOM     12  C   UNL     1      82.558  -6.787  27.358  1.00  0.00     0.066 C 
BRANCH  12  13
ATOM     13  C   UNL     1      81.243  -6.579  28.096  1.00  0.00     0.140 C 
ATOM     14  O   UNL     1      80.406  -5.812  27.638  1.00  0.00    -0.299 OA
BRANCH  13  15
ATOM     15  C   UNL     1      80.987  -7.258  29.423  1.00  0.00     0.106 CG0
ATOM     16  G   UNL     1      80.365  -6.324  30.449  1.00  0.00     0.000 G0
ENDBRANCH  13  15
ENDBRANCH  12  13
BRANCH  12  17
ATOM     17  C   UNL     1      82.700  -8.239  26.797  1.00  0.00    -0.006 C 
ATOM     18  C   UNL     1      81.696  -8.596  25.686  1.00  0.00     0.008 C 
ATOM     19  C   UNL     1      84.132  -8.518  26.312  1.00  0.00     0.008 C 
ENDBRANCH  12  17
ENDBRANCH  11  12
ENDBRANCH   1  11
TORSDOF 1
ENDMDL
MODEL 8
REMARK VINA RESULT:    -2.640      1.603      2.414
REMARK INTER + INTRA:          -4.021
REMARK INTER:                  -3.884
REMARK INTRA:                  -0.138
REMARK UNBOUND:                 0.008
REMARK SMILES CC1=CCC[C@@H](C)C(=O)C[C@@H](C(C)C)C(=O)C1
REMARK SMILES IDX 8 1 9 2 6 3 7 4 5 5 4 6 3 7 2 8 1 9 10 11 11 12 15 13 16 14
REMARK SMILES IDX 17 15 12 17 13 18 14 19
REMARK H PARENT
REMARK Flexibility Score: 70.00
ROOT
ATOM      1  C   UNL     1      83.035  -4.744  28.014  1.00  0.00     0.136 C 
ATOM      2  O   UNL     1      83.699  -3.745  27.776  1.00  0.00    -0.299 OA
ENDROOT
BRANCH   1   3
ATOM      3  C   UNL     1      82.179  -5.325  26.905  1.00  0.00     0.053 C 
ATOM      4  C   UNL     1      80.924  -6.004  27.473  1.00  0.00     0.016 C 
BRANCH   3   5
ATOM      5  C   UNL     1      83.014  -6.311  26.055  1.00  0.00     0.015 C 
BRANCH   5   6
ATOM      6  C   UNL     1      82.464  -7.754  26.100  1.00  0.00     0.028 C 
BRANCH   6   7
ATOM      7  C   UNL     1      83.461  -8.720  26.695  1.00  0.00    -0.028 C 
ATOM      8  C   UNL     1      83.474  -9.130  27.985  1.00  0.00    -0.070 CG0
ATOM      9  C   UNL     1      84.526 -10.125  28.403  1.00  0.00     0.039 C 
ATOM     10  G   UNL     1      82.478  -8.644  29.026  1.00  0.00     0.000 G0
ENDBRANCH   6   7
ENDBRANCH   5   6
ENDBRANCH   3   5
ENDBRANCH   1   3
BRANCH   1  11
ATOM     11  C   UNL     1      83.091  -5.298  29.430  1.00  0.00     0.087 C 
BRANCH  11  12
ATOM     12  C   UNL     1      83.954  -6.570  29.667  1.00  0.00     0.066 C 
BRANCH  12  13
ATOM     13  C   UNL     1      83.103  -7.763  30.080  1.00  0.00     0.140 C 
ATOM     14  O   UNL     1      82.964  -8.026  31.267  1.00  0.00    -0.299 OA
BRANCH  13  15
ATOM     15  C   UNL     1      82.482  -8.666  29.037  1.00  0.00     0.106 CG0
ATOM     16  G   UNL     1      83.486  -9.135  27.996  1.00  0.00     0.000 G0
ENDBRANCH  13  15
ENDBRANCH  12  13
BRANCH  12  17
ATOM     17  C   UNL     1      85.116  -6.293  30.673  1.00  0.00    -0.006 C 
ATOM     18  C   UNL     1      86.504  -6.748  30.187  1.00  0.00     0.008 C 
ATOM     19  C   UNL     1      85.168  -4.812  31.081  1.00  0.00     0.008 C 
ENDBRANCH  12  17
ENDBRANCH  11  12
ENDBRANCH   1  11
TORSDOF 1
ENDMDL
MODEL 9
REMARK VINA RESULT:    -2.569      2.370      5.354
REMARK INTER + INTRA:          -3.913
REMARK INTER:                  -4.223
REMARK INTRA:                   0.310
REMARK UNBOUND:                 0.008
REMARK SMILES CC1=CCC[C@@H](C)C(=O)C[C@@H](C(C)C)C(=O)C1
REMARK SMILES IDX 8 1 9 2 6 3 7 4 5 5 4 6 3 7 2 8 1 9 10 11 11 12 15 13 16 14
REMARK SMILES IDX 17 15 12 17 13 18 14 19
REMARK H PARENT
REMARK Flexibility Score: 70.00
ROOT
ATOM      1  C   UNL     1      82.513  -7.782  26.799  1.00  0.00     0.136 C 
ATOM      2  O   UNL     1      82.214  -7.442  25.663  1.00  0.00    -0.299 OA
ENDROOT
BRANCH   1   3
ATOM      3  C   UNL     1      83.923  -8.282  27.058  1.00  0.00     0.053 C 
ATOM      4  C   UNL     1      84.044  -9.781  26.748  1.00  0.00     0.016 C 
BRANCH   3   5
ATOM      5  C   UNL     1      84.331  -7.977  28.518  1.00  0.00     0.015 C 
BRANCH   5   6
ATOM      6  C   UNL     1      85.258  -6.747  28.636  1.00  0.00     0.028 C 
BRANCH   6   7
ATOM      7  C   UNL     1      85.170  -6.103  30.000  1.00  0.00    -0.028 C 
ATOM      8  C   UNL     1      84.159  -5.308  30.422  1.00  0.00    -0.070 CG0
ATOM      9  C   UNL     1      84.218  -4.772  31.829  1.00  0.00     0.039 C 
ATOM     10  G   UNL     1      82.968  -4.939  29.552  1.00  0.00     0.000 G0
ENDBRANCH   6   7
ENDBRANCH   5   6
ENDBRANCH   3   5
ENDBRANCH   1   3
BRANCH   1  11
ATOM     11  C   UNL     1      81.422  -7.717  27.857  1.00  0.00     0.087 C 
BRANCH  11  12
ATOM     12  C   UNL     1      81.034  -6.312  28.398  1.00  0.00     0.066 C 
BRANCH  12  13
ATOM     13  C   UNL     1      81.832  -5.943  29.642  1.00  0.00     0.140 C 
ATOM     14  O   UNL     1      81.527  -6.428  30.723  1.00  0.00    -0.299 OA
BRANCH  13  15
ATOM     15  C   UNL     1      82.955  -4.932  29.566  1.00  0.00     0.106 CG0
ATOM     16  G   UNL     1      84.150  -5.318  30.422  1.00  0.00     0.000 G0
ENDBRANCH  13  15
ENDBRANCH  12  13
BRANCH  12  17
ATOM     17  C   UNL     1      79.493  -6.192  28.624  1.00  0.00    -0.006 C 
ATOM     18  C   UNL     1      78.955  -4.749  28.603  1.00  0.00     0.008 C 
ATOM     19  C   UNL     1      78.707  -7.054  27.624  1.00  0.00     0.008 C 
ENDBRANCH  12  17
ENDBRANCH  11  12
ENDBRANCH   1  11
TORSDOF 1
ENDMDL
