MODEL 1
REMARK VINA RESULT:    -2.440      0.000      0.000
REMARK INTER + INTRA:          -2.979
REMARK INTER:                  -2.868
REMARK INTRA:                  -0.111
REMARK UNBOUND:                -0.111
REMARK SMILES O=C([O-])CCC(=O)[O-]
REMARK SMILES IDX 4 1 2 2 1 3 3 4 5 5 6 6 7 7 8 8
REMARK H PARENT
REMARK Flexibility Score: inf
ROOT
ATOM      1  C   UNL     1       4.438  24.993   6.539  1.00  0.00     0.059 C 
ENDROOT
BRANCH   1   2
ATOM      2  C   UNL     1       4.919  25.015   7.957  1.00  0.00     0.042 C 
ATOM      3  O   UNL     1       4.304  24.365   8.845  1.00  0.00    -0.550 OA
ATOM      4  O   UNL     1       6.020  25.785   8.308  1.00  0.00    -0.550 OA
ENDBRANCH   1   2
BRANCH   1   5
ATOM      5  C   UNL     1       3.078  24.298   6.413  1.00  0.00     0.059 C 
BRANCH   5   6
ATOM      6  C   UNL     1       1.983  25.277   6.120  1.00  0.00     0.042 C 
ATOM      7  O   UNL     1       1.518  26.001   7.039  1.00  0.00    -0.550 OA
ATOM      8  O   UNL     1       1.448  25.361   4.840  1.00  0.00    -0.550 OA
ENDBRANCH   5   6
ENDBRANCH   1   5
TORSDOF 3
ENDMDL
MODEL 2
REMARK VINA RESULT:    -2.430      0.765      3.952
REMARK INTER + INTRA:          -2.968
REMARK INTER:                  -2.886
REMARK INTRA:                  -0.082
REMARK UNBOUND:                -0.111
REMARK SMILES O=C([O-])CCC(=O)[O-]
REMARK SMILES IDX 4 1 2 2 1 3 3 4 5 5 6 6 7 7 8 8
REMARK H PARENT
REMARK Flexibility Score: inf
ROOT
ATOM      1  C   UNL     1       3.698  25.043   6.310  1.00  0.00     0.059 C 
ENDROOT
BRANCH   1   2
ATOM      2  C   UNL     1       2.258  25.452   6.240  1.00  0.00     0.042 C 
ATOM      3  O   UNL     1       1.646  25.426   5.139  1.00  0.00    -0.550 OA
ATOM      4  O   UNL     1       1.606  25.901   7.381  1.00  0.00    -0.550 OA
ENDBRANCH   1   2
BRANCH   1   5
ATOM      5  C   UNL     1       3.966  24.120   7.504  1.00  0.00     0.059 C 
BRANCH   5   6
ATOM      6  C   UNL     1       4.829  24.783   8.532  1.00  0.00     0.042 C 
ATOM      7  O   UNL     1       5.670  25.654   8.186  1.00  0.00    -0.550 OA
ATOM      8  O   UNL     1       4.734  24.411   9.867  1.00  0.00    -0.550 OA
ENDBRANCH   5   6
ENDBRANCH   1   5
TORSDOF 3
ENDMDL
MODEL 3
REMARK VINA RESULT:    -2.396      5.607      7.205
REMARK INTER + INTRA:          -2.927
REMARK INTER:                  -2.849
REMARK INTRA:                  -0.078
REMARK UNBOUND:                -0.111
REMARK SMILES O=C([O-])CCC(=O)[O-]
REMARK SMILES IDX 4 1 2 2 1 3 3 4 5 5 6 6 7 7 8 8
REMARK H PARENT
REMARK Flexibility Score: inf
ROOT
ATOM      1  C   UNL     1       2.979  26.053  13.687  1.00  0.00     0.059 C 
ENDROOT
BRANCH   1   2
ATOM      2  C   UNL     1       1.668  25.550  14.208  1.00  0.00     0.042 C 
ATOM      3  O   UNL     1       0.693  25.393  13.425  1.00  0.00    -0.550 OA
ATOM      4  O   UNL     1       1.509  25.295  15.564  1.00  0.00    -0.550 OA
ENDBRANCH   1   2
BRANCH   1   5
ATOM      5  C   UNL     1       3.353  25.387  12.359  1.00  0.00     0.059 C 
BRANCH   5   6
ATOM      6  C   UNL     1       4.477  24.412  12.527  1.00  0.00     0.042 C 
ATOM      7  O   UNL     1       4.783  23.991  13.674  1.00  0.00    -0.550 OA
ATOM      8  O   UNL     1       5.214  24.000  11.424  1.00  0.00    -0.550 OA
ENDBRANCH   5   6
ENDBRANCH   1   5
TORSDOF 3
ENDMDL
MODEL 4
REMARK VINA RESULT:    -2.352      5.943      7.151
REMARK INTER + INTRA:          -2.876
REMARK INTER:                  -2.786
REMARK INTRA:                  -0.090
REMARK UNBOUND:                -0.111
REMARK SMILES O=C([O-])CCC(=O)[O-]
REMARK SMILES IDX 4 1 2 2 1 3 3 4 5 5 6 6 7 7 8 8
REMARK H PARENT
REMARK Flexibility Score: inf
ROOT
ATOM      1  C   UNL     1       3.073  26.189  13.112  1.00  0.00     0.059 C 
ENDROOT
BRANCH   1   2
ATOM      2  C   UNL     1       3.735  25.079  12.355  1.00  0.00     0.042 C 
ATOM      3  O   UNL     1       4.743  24.497  12.838  1.00  0.00    -0.550 OA
ATOM      4  O   UNL     1       3.267  24.715  11.099  1.00  0.00    -0.550 OA
ENDBRANCH   1   2
BRANCH   1   5
ATOM      5  C   UNL     1       2.715  25.765  14.541  1.00  0.00     0.059 C 
BRANCH   5   6
ATOM      6  C   UNL     1       1.276  25.370  14.656  1.00  0.00     0.042 C 
ATOM      7  O   UNL     1       0.499  25.515  13.676  1.00  0.00    -0.550 OA
ATOM      8  O   UNL     1       0.782  24.882  15.860  1.00  0.00    -0.550 OA
ENDBRANCH   5   6
ENDBRANCH   1   5
TORSDOF 3
ENDMDL
MODEL 5
REMARK VINA RESULT:    -2.333      6.868      7.876
REMARK INTER + INTRA:          -2.854
REMARK INTER:                  -2.795
REMARK INTRA:                  -0.059
REMARK UNBOUND:                -0.111
REMARK SMILES O=C([O-])CCC(=O)[O-]
REMARK SMILES IDX 4 1 2 2 1 3 3 4 5 5 6 6 7 7 8 8
REMARK H PARENT
REMARK Flexibility Score: inf
ROOT
ATOM      1  C   UNL     1       2.600  25.777  14.690  1.00  0.00     0.059 C 
ENDROOT
BRANCH   1   2
ATOM      2  C   UNL     1       3.512  25.765  13.502  1.00  0.00     0.042 C 
ATOM      3  O   UNL     1       4.720  25.431  13.634  1.00  0.00    -0.550 OA
ATOM      4  O   UNL     1       3.040  26.162  12.257  1.00  0.00    -0.550 OA
ENDBRANCH   1   2
BRANCH   1   5
ATOM      5  C   UNL     1       1.883  24.433  14.866  1.00  0.00     0.059 C 
BRANCH   5   6
ATOM      6  C   UNL     1       0.406  24.613  15.036  1.00  0.00     0.042 C 
ATOM      7  O   UNL     1      -0.322  24.843  14.035  1.00  0.00    -0.550 OA
ATOM      8  O   UNL     1      -0.160  24.567  16.304  1.00  0.00    -0.550 OA
ENDBRANCH   5   6
ENDBRANCH   1   5
TORSDOF 3
ENDMDL
MODEL 6
REMARK VINA RESULT:    -2.303      5.979      7.360
REMARK INTER + INTRA:          -2.819
REMARK INTER:                  -2.698
REMARK INTRA:                  -0.121
REMARK UNBOUND:                -0.111
REMARK SMILES O=C([O-])CCC(=O)[O-]
REMARK SMILES IDX 4 1 2 2 1 3 3 4 5 5 6 6 7 7 8 8
REMARK H PARENT
REMARK Flexibility Score: inf
ROOT
ATOM      1  C   UNL     1       2.651  25.681  14.424  1.00  0.00     0.059 C 
ENDROOT
BRANCH   1   2
ATOM      2  C   UNL     1       1.204  25.353  14.628  1.00  0.00     0.042 C 
ATOM      3  O   UNL     1       0.382  25.498  13.685  1.00  0.00    -0.550 OA
ATOM      4  O   UNL     1       0.756  24.927  15.872  1.00  0.00    -0.550 OA
ENDBRANCH   1   2
BRANCH   1   5
ATOM      5  C   UNL     1       3.411  24.514  13.783  1.00  0.00     0.059 C 
BRANCH   5   6
ATOM      6  C   UNL     1       3.808  24.822  12.372  1.00  0.00     0.042 C 
ATOM      7  O   UNL     1       4.794  24.239  11.851  1.00  0.00    -0.550 OA
ATOM      8  O   UNL     1       3.115  25.784  11.647  1.00  0.00    -0.550 OA
ENDBRANCH   5   6
ENDBRANCH   1   5
TORSDOF 3
ENDMDL
MODEL 7
REMARK VINA RESULT:    -2.228      4.817      6.154
REMARK INTER + INTRA:          -2.730
REMARK INTER:                  -2.611
REMARK INTRA:                  -0.119
REMARK UNBOUND:                -0.111
REMARK SMILES O=C([O-])CCC(=O)[O-]
REMARK SMILES IDX 4 1 2 2 1 3 3 4 5 5 6 6 7 7 8 8
REMARK H PARENT
REMARK Flexibility Score: inf
ROOT
ATOM      1  C   UNL     1       3.437  24.936  11.863  1.00  0.00     0.059 C 
ENDROOT
BRANCH   1   2
ATOM      2  C   UNL     1       3.147  25.238  10.425  1.00  0.00     0.042 C 
ATOM      3  O   UNL     1       2.016  25.675  10.085  1.00  0.00    -0.550 OA
ATOM      4  O   UNL     1       4.111  24.995   9.454  1.00  0.00    -0.550 OA
ENDBRANCH   1   2
BRANCH   1   5
ATOM      5  C   UNL     1       3.053  26.107  12.775  1.00  0.00     0.059 C 
BRANCH   5   6
ATOM      6  C   UNL     1       2.008  25.711  13.772  1.00  0.00     0.042 C 
ATOM      7  O   UNL     1       0.846  25.415  13.388  1.00  0.00    -0.550 OA
ATOM      8  O   UNL     1       2.306  25.708  15.129  1.00  0.00    -0.550 OA
ENDBRANCH   5   6
ENDBRANCH   1   5
TORSDOF 3
ENDMDL
MODEL 8
REMARK VINA RESULT:    -0.944      5.495      6.989
REMARK INTER + INTRA:          -1.221
REMARK INTER:                  -1.107
REMARK INTRA:                  -0.114
REMARK UNBOUND:                -0.111
REMARK SMILES O=C([O-])CCC(=O)[O-]
REMARK SMILES IDX 4 1 2 2 1 3 3 4 5 5 6 6 7 7 8 8
REMARK H PARENT
REMARK Flexibility Score: inf
ROOT
ATOM      1  C   UNL     1       3.004  26.124  13.675  1.00  0.00     0.059 C 
ENDROOT
BRANCH   1   2
ATOM      2  C   UNL     1       1.763  25.545  14.281  1.00  0.00     0.042 C 
ATOM      3  O   UNL     1       1.686  25.374  15.527  1.00  0.00    -0.550 OA
ATOM      4  O   UNL     1       0.707  25.155  13.467  1.00  0.00    -0.550 OA
ENDBRANCH   1   2
BRANCH   1   5
ATOM      5  C   UNL     1       4.110  25.071  13.537  1.00  0.00     0.059 C 
BRANCH   5   6
ATOM      6  C   UNL     1       4.248  24.596  12.124  1.00  0.00     0.042 C 
ATOM      7  O   UNL     1       5.225  23.875  11.791  1.00  0.00    -0.550 OA
ATOM      8  O   UNL     1       3.320  24.982  11.166  1.00  0.00    -0.550 OA
ENDBRANCH   5   6
ENDBRANCH   1   5
TORSDOF 3
ENDMDL
MODEL 9
REMARK VINA RESULT:     0.263      2.043      3.858
REMARK INTER + INTRA:           0.197
REMARK INTER:                   0.306
REMARK INTRA:                  -0.109
REMARK UNBOUND:                -0.111
REMARK SMILES O=C([O-])CCC(=O)[O-]
REMARK SMILES IDX 4 1 2 2 1 3 3 4 5 5 6 6 7 7 8 8
REMARK H PARENT
REMARK Flexibility Score: inf
ROOT
ATOM      1  C   UNL     1       4.875  25.002   8.020  1.00  0.00     0.059 C 
ENDROOT
BRANCH   1   2
ATOM      2  C   UNL     1       4.174  24.706   6.730  1.00  0.00     0.042 C 
ATOM      3  O   UNL     1       4.664  23.875   5.919  1.00  0.00    -0.550 OA
ATOM      4  O   UNL     1       3.003  25.378   6.404  1.00  0.00    -0.550 OA
ENDBRANCH   1   2
BRANCH   1   5
ATOM      5  C   UNL     1       4.493  24.001   9.115  1.00  0.00     0.059 C 
BRANCH   5   6
ATOM      6  C   UNL     1       3.721  24.657  10.218  1.00  0.00     0.042 C 
ATOM      7  O   UNL     1       2.727  25.382   9.951  1.00  0.00    -0.550 OA
ATOM      8  O   UNL     1       4.124  24.501  11.539  1.00  0.00    -0.550 OA
ENDBRANCH   5   6
ENDBRANCH   1   5
TORSDOF 3
ENDMDL
