MODEL 1
REMARK VINA RESULT:    -5.864      0.000      0.000
REMARK INTER + INTRA:          -9.692
REMARK INTER:                  -7.921
REMARK INTRA:                  -1.771
REMARK UNBOUND:                -1.771
REMARK SMILES CC[C@@H](CC[C@H](C)[C@@H]1CC[C@@H]2[C@H]3CC(=O)C4=CC(=O)CC[C@@]4(C)[C@@H]3CC[C@]21C)C(C)C
REMARK SMILES IDX 4 1 3 2 2 3 1 4 29 5 30 6 31 7 5 8 6 9 7 10 8 11 9 12 27 13
REMARK SMILES IDX 10 14 11 15 26 16 28 17 12 18 25 19 24 20 13 21 22 22 14 23
REMARK SMILES IDX 16 24 21 25 23 26 15 27 17 28 20 29 18 30 19 31
REMARK H PARENT
REMARK Flexibility Score: inf
ROOT
ATOM      1  C   UNL     1      28.969 -36.311 -15.863  1.00  0.00     0.004 C 
ENDROOT
BRANCH   1   2
ATOM      2  C   UNL     1      27.514 -36.463 -15.336  1.00  0.00    -0.009 C 
BRANCH   2   3
ATOM      3  C   UNL     1      27.323 -37.609 -14.304  1.00  0.00     0.000 C 
ATOM      4  C   UNL     1      28.603 -38.402 -14.034  1.00  0.00     0.004 C 
ENDBRANCH   2   3
BRANCH   2   5
ATOM      5  C   UNL     1      26.454 -36.483 -16.493  1.00  0.00    -0.014 C 
ATOM      6  C   UNL     1      26.334 -35.157 -17.269  1.00  0.00     0.007 C 
ATOM      7  C   UNL     1      26.733 -37.627 -17.481  1.00  0.00     0.007 C 
ENDBRANCH   2   5
ENDBRANCH   1   2
BRANCH   1   8
ATOM      8  C   UNL     1      29.748 -35.096 -15.316  1.00  0.00     0.004 C 
BRANCH   8   9
ATOM      9  C   UNL     1      28.828 -33.991 -14.719  1.00  0.00    -0.011 C 
ATOM     10  C   UNL     1      28.961 -32.700 -15.552  1.00  0.00     0.008 C 
BRANCH   9  11
ATOM     11  C   UNL     1      29.177 -33.741 -13.207  1.00  0.00    -0.002 C 
ATOM     12  C   UNL     1      29.367 -35.068 -12.419  1.00  0.00     0.005 C 
ATOM     13  C   UNL     1      28.166 -32.943 -12.324  1.00  0.00    -0.026 C 
ATOM     14  C   UNL     1      28.901 -34.823 -10.979  1.00  0.00     0.005 C 
ATOM     15  C   UNL     1      28.668 -33.323 -10.919  1.00  0.00    -0.001 C 
ATOM     16  C   UNL     1      28.269 -31.399 -12.417  1.00  0.00     0.007 C 
ATOM     17  C   UNL     1      26.703 -33.417 -12.600  1.00  0.00     0.012 C 
ATOM     18  C   UNL     1      27.795 -32.767  -9.773  1.00  0.00     0.004 C 
ATOM     19  C   UNL     1      27.442 -30.704 -11.312  1.00  0.00     0.005 C 
ATOM     20  C   UNL     1      27.770 -31.204  -9.868  1.00  0.00     0.003 C 
ATOM     21  C   UNL     1      28.363 -33.206  -8.413  1.00  0.00     0.085 C 
ATOM     22  C   UNL     1      26.866 -30.546  -8.751  1.00  0.00    -0.000 C 
ATOM     23  C   UNL     1      27.659 -32.538  -7.274  1.00  0.00     0.159 C 
ATOM     24  C   UNL     1      27.244 -31.120  -7.380  1.00  0.00     0.005 C 
ATOM     25  C   UNL     1      27.097 -29.000  -8.747  1.00  0.00     0.020 C 
ATOM     26  C   UNL     1      25.358 -30.835  -8.984  1.00  0.00     0.017 C 
ATOM     27  O   UNL     1      27.505 -33.173  -6.195  1.00  0.00    -0.295 OA
ATOM     28  C   UNL     1      27.113 -30.392  -6.254  1.00  0.00     0.055 C 
ATOM     29  C   UNL     1      26.413 -28.289  -7.573  1.00  0.00     0.081 C 
ATOM     30  C   UNL     1      26.712 -28.978  -6.280  1.00  0.00     0.156 C 
ATOM     31  O   UNL     1      26.583 -28.350  -5.196  1.00  0.00    -0.295 OA
ENDBRANCH   9  11
ENDBRANCH   8   9
ENDBRANCH   1   8
TORSDOF 6
ENDMDL
MODEL 2
REMARK VINA RESULT:    -5.852     14.236     17.185
REMARK INTER + INTRA:          -9.676
REMARK INTER:                  -7.945
REMARK INTRA:                  -1.731
REMARK UNBOUND:                -1.771
REMARK SMILES CC[C@@H](CC[C@H](C)[C@@H]1CC[C@@H]2[C@H]3CC(=O)C4=CC(=O)CC[C@@]4(C)[C@@H]3CC[C@]21C)C(C)C
REMARK SMILES IDX 4 1 3 2 2 3 1 4 29 5 30 6 31 7 5 8 6 9 7 10 8 11 9 12 27 13
REMARK SMILES IDX 10 14 11 15 26 16 28 17 12 18 25 19 24 20 13 21 22 22 14 23
REMARK SMILES IDX 16 24 21 25 23 26 15 27 17 28 20 29 18 30 19 31
REMARK H PARENT
REMARK Flexibility Score: inf
ROOT
ATOM      1  C   UNL     1      12.423 -41.006  -6.587  1.00  0.00     0.004 C 
ENDROOT
BRANCH   1   2
ATOM      2  C   UNL     1      12.827 -40.438  -7.978  1.00  0.00    -0.009 C 
BRANCH   2   3
ATOM      3  C   UNL     1      13.856 -39.275  -7.919  1.00  0.00     0.000 C 
ATOM      4  C   UNL     1      14.121 -38.770  -6.500  1.00  0.00     0.004 C 
ENDBRANCH   2   3
BRANCH   2   5
ATOM      5  C   UNL     1      11.585 -40.127  -8.885  1.00  0.00    -0.014 C 
ATOM      6  C   UNL     1      11.729 -40.598 -10.345  1.00  0.00     0.007 C 
ATOM      7  C   UNL     1      10.299 -40.719  -8.286  1.00  0.00     0.007 C 
ENDBRANCH   2   5
ENDBRANCH   1   2
BRANCH   1   8
ATOM      8  C   UNL     1      12.920 -42.436  -6.287  1.00  0.00     0.004 C 
BRANCH   8   9
ATOM      9  C   UNL     1      13.163 -43.288  -7.567  1.00  0.00    -0.011 C 
ATOM     10  C   UNL     1      11.897 -44.107  -7.894  1.00  0.00     0.008 C 
BRANCH   9  11
ATOM     11  C   UNL     1      14.419 -44.214  -7.382  1.00  0.00    -0.002 C 
ATOM     12  C   UNL     1      14.837 -44.350  -5.891  1.00  0.00     0.005 C 
ATOM     13  C   UNL     1      15.753 -43.823  -8.094  1.00  0.00    -0.026 C 
ATOM     14  C   UNL     1      16.360 -44.516  -5.850  1.00  0.00     0.005 C 
ATOM     15  C   UNL     1      16.749 -44.694  -7.307  1.00  0.00    -0.001 C 
ATOM     16  C   UNL     1      15.874 -44.258  -9.576  1.00  0.00     0.007 C 
ATOM     17  C   UNL     1      16.027 -42.292  -7.942  1.00  0.00     0.012 C 
ATOM     18  C   UNL     1      18.225 -44.464  -7.700  1.00  0.00     0.004 C 
ATOM     19  C   UNL     1      17.316 -44.088 -10.105  1.00  0.00     0.005 C 
ATOM     20  C   UNL     1      18.400 -44.788  -9.223  1.00  0.00     0.003 C 
ATOM     21  C   UNL     1      19.145 -45.365  -6.858  1.00  0.00     0.085 C 
ATOM     22  C   UNL     1      19.878 -44.544  -9.726  1.00  0.00    -0.000 C 
ATOM     23  C   UNL     1      20.562 -45.311  -7.333  1.00  0.00     0.159 C 
ATOM     24  C   UNL     1      20.864 -45.245  -8.782  1.00  0.00     0.005 C 
ATOM     25  C   UNL     1      20.034 -45.130 -11.166  1.00  0.00     0.020 C 
ATOM     26  C   UNL     1      20.238 -43.034  -9.748  1.00  0.00     0.017 C 
ATOM     27  O   UNL     1      21.494 -45.412  -6.488  1.00  0.00    -0.295 OA
ATOM     28  C   UNL     1      22.046 -45.716  -9.226  1.00  0.00     0.055 C 
ATOM     29  C   UNL     1      21.482 -45.118 -11.671  1.00  0.00     0.081 C 
ATOM     30  C   UNL     1      22.412 -45.691 -10.649  1.00  0.00     0.156 C 
ATOM     31  O   UNL     1      23.539 -46.125 -11.007  1.00  0.00    -0.295 OA
ENDBRANCH   9  11
ENDBRANCH   8   9
ENDBRANCH   1   8
TORSDOF 6
ENDMDL
MODEL 3
REMARK VINA RESULT:    -5.709      5.380      9.071
REMARK INTER + INTRA:          -9.483
REMARK INTER:                  -7.941
REMARK INTRA:                  -1.541
REMARK UNBOUND:                -1.771
REMARK SMILES CC[C@@H](CC[C@H](C)[C@@H]1CC[C@@H]2[C@H]3CC(=O)C4=CC(=O)CC[C@@]4(C)[C@@H]3CC[C@]21C)C(C)C
REMARK SMILES IDX 4 1 3 2 2 3 1 4 29 5 30 6 31 7 5 8 6 9 7 10 8 11 9 12 27 13
REMARK SMILES IDX 10 14 11 15 26 16 28 17 12 18 25 19 24 20 13 21 22 22 14 23
REMARK SMILES IDX 16 24 21 25 23 26 15 27 17 28 20 29 18 30 19 31
REMARK H PARENT
REMARK Flexibility Score: inf
ROOT
ATOM      1  C   UNL     1      26.639 -44.321 -20.205  1.00  0.00     0.004 C 
ENDROOT
BRANCH   1   2
ATOM      2  C   UNL     1      28.184 -44.389 -20.367  1.00  0.00    -0.009 C 
BRANCH   2   3
ATOM      3  C   UNL     1      28.971 -44.337 -19.028  1.00  0.00     0.000 C 
ATOM      4  C   UNL     1      29.390 -45.716 -18.517  1.00  0.00     0.004 C 
ENDBRANCH   2   3
BRANCH   2   5
ATOM      5  C   UNL     1      28.721 -43.384 -21.446  1.00  0.00    -0.014 C 
ATOM      6  C   UNL     1      27.792 -43.198 -22.661  1.00  0.00     0.007 C 
ATOM      7  C   UNL     1      29.024 -42.011 -20.823  1.00  0.00     0.007 C 
ENDBRANCH   2   5
ENDBRANCH   1   2
BRANCH   1   8
ATOM      8  C   UNL     1      26.133 -44.121 -18.761  1.00  0.00     0.004 C 
BRANCH   8   9
ATOM      9  C   UNL     1      25.779 -42.640 -18.430  1.00  0.00    -0.011 C 
ATOM     10  C   UNL     1      25.608 -41.843 -19.739  1.00  0.00     0.008 C 
BRANCH   9  11
ATOM     11  C   UNL     1      26.879 -42.005 -17.505  1.00  0.00    -0.002 C 
ATOM     12  C   UNL     1      27.100 -42.824 -16.202  1.00  0.00     0.005 C 
ATOM     13  C   UNL     1      26.671 -40.548 -16.982  1.00  0.00    -0.026 C 
ATOM     14  C   UNL     1      27.484 -41.837 -15.094  1.00  0.00     0.005 C 
ATOM     15  C   UNL     1      27.690 -40.524 -15.828  1.00  0.00    -0.001 C 
ATOM     16  C   UNL     1      27.092 -39.419 -17.956  1.00  0.00     0.007 C 
ATOM     17  C   UNL     1      25.198 -40.344 -16.501  1.00  0.00     0.012 C 
ATOM     18  C   UNL     1      27.668 -39.217 -15.003  1.00  0.00     0.004 C 
ATOM     19  C   UNL     1      27.122 -38.043 -17.255  1.00  0.00     0.005 C 
ATOM     20  C   UNL     1      27.986 -38.014 -15.953  1.00  0.00     0.003 C 
ATOM     21  C   UNL     1      28.706 -39.288 -13.870  1.00  0.00     0.085 C 
ATOM     22  C   UNL     1      27.949 -36.624 -15.200  1.00  0.00    -0.000 C 
ATOM     23  C   UNL     1      28.848 -37.976 -13.164  1.00  0.00     0.159 C 
ATOM     24  C   UNL     1      28.800 -36.707 -13.927  1.00  0.00     0.005 C 
ATOM     25  C   UNL     1      28.525 -35.515 -16.138  1.00  0.00     0.020 C 
ATOM     26  C   UNL     1      26.505 -36.236 -14.778  1.00  0.00     0.017 C 
ATOM     27  O   UNL     1      29.096 -37.973 -11.927  1.00  0.00    -0.295 OA
ATOM     28  C   UNL     1      29.428 -35.623 -13.431  1.00  0.00     0.055 C 
ATOM     29  C   UNL     1      28.712 -34.165 -15.435  1.00  0.00     0.081 C 
ATOM     30  C   UNL     1      29.430 -34.332 -14.134  1.00  0.00     0.156 C 
ATOM     31  O   UNL     1      30.015 -33.344 -13.615  1.00  0.00    -0.295 OA
ENDBRANCH   9  11
ENDBRANCH   8   9
ENDBRANCH   1   8
TORSDOF 6
ENDMDL
MODEL 4
REMARK VINA RESULT:    -5.611     11.337     14.788
REMARK INTER + INTRA:          -9.351
REMARK INTER:                  -7.604
REMARK INTRA:                  -1.747
REMARK UNBOUND:                -1.771
REMARK SMILES CC[C@@H](CC[C@H](C)[C@@H]1CC[C@@H]2[C@H]3CC(=O)C4=CC(=O)CC[C@@]4(C)[C@@H]3CC[C@]21C)C(C)C
REMARK SMILES IDX 4 1 3 2 2 3 1 4 29 5 30 6 31 7 5 8 6 9 7 10 8 11 9 12 27 13
REMARK SMILES IDX 10 14 11 15 26 16 28 17 12 18 25 19 24 20 13 21 22 22 14 23
REMARK SMILES IDX 16 24 21 25 23 26 15 27 17 28 20 29 18 30 19 31
REMARK H PARENT
REMARK Flexibility Score: inf
ROOT
ATOM      1  C   UNL     1      18.988 -30.494 -10.111  1.00  0.00     0.004 C 
ENDROOT
BRANCH   1   2
ATOM      2  C   UNL     1      17.845 -29.867  -9.262  1.00  0.00    -0.009 C 
BRANCH   2   3
ATOM      3  C   UNL     1      16.468 -30.567  -9.426  1.00  0.00     0.000 C 
ATOM      4  C   UNL     1      16.024 -31.330  -8.178  1.00  0.00     0.004 C 
ENDBRANCH   2   3
BRANCH   2   5
ATOM      5  C   UNL     1      17.774 -28.306  -9.410  1.00  0.00    -0.014 C 
ATOM      6  C   UNL     1      16.819 -27.813 -10.514  1.00  0.00     0.007 C 
ATOM      7  C   UNL     1      17.395 -27.640  -8.077  1.00  0.00     0.007 C 
ENDBRANCH   2   5
ENDBRANCH   1   2
BRANCH   1   8
ATOM      8  C   UNL     1      18.538 -31.208 -11.403  1.00  0.00     0.004 C 
BRANCH   8   9
ATOM      9  C   UNL     1      18.968 -30.465 -12.702  1.00  0.00    -0.011 C 
ATOM     10  C   UNL     1      19.839 -29.245 -12.338  1.00  0.00     0.008 C 
BRANCH   9  11
ATOM     11  C   UNL     1      17.706 -30.044 -13.539  1.00  0.00    -0.002 C 
ATOM     12  C   UNL     1      16.433 -30.836 -13.125  1.00  0.00     0.005 C 
ATOM     13  C   UNL     1      17.743 -30.212 -15.091  1.00  0.00    -0.026 C 
ATOM     14  C   UNL     1      15.564 -31.002 -14.377  1.00  0.00     0.005 C 
ATOM     15  C   UNL     1      16.240 -30.122 -15.413  1.00  0.00    -0.001 C 
ATOM     16  C   UNL     1      18.424 -29.060 -15.873  1.00  0.00     0.007 C 
ATOM     17  C   UNL     1      18.370 -31.590 -15.479  1.00  0.00     0.012 C 
ATOM     18  C   UNL     1      15.906 -30.361 -16.902  1.00  0.00     0.004 C 
ATOM     19  C   UNL     1      18.162 -29.169 -17.392  1.00  0.00     0.005 C 
ATOM     20  C   UNL     1      16.649 -29.287 -17.767  1.00  0.00     0.003 C 
ATOM     21  C   UNL     1      14.387 -30.264 -17.127  1.00  0.00     0.085 C 
ATOM     22  C   UNL     1      16.394 -29.476 -19.315  1.00  0.00    -0.000 C 
ATOM     23  C   UNL     1      14.036 -30.303 -18.580  1.00  0.00     0.159 C 
ATOM     24  C   UNL     1      14.888 -29.610 -19.575  1.00  0.00     0.005 C 
ATOM     25  C   UNL     1      16.944 -28.232 -20.083  1.00  0.00     0.020 C 
ATOM     26  C   UNL     1      17.082 -30.757 -19.860  1.00  0.00     0.017 C 
ATOM     27  O   UNL     1      12.961 -30.860 -18.934  1.00  0.00    -0.295 OA
ATOM     28  C   UNL     1      14.336 -29.198 -20.733  1.00  0.00     0.055 C 
ATOM     29  C   UNL     1      16.575 -28.227 -21.572  1.00  0.00     0.081 C 
ATOM     30  C   UNL     1      15.116 -28.497 -21.763  1.00  0.00     0.156 C 
ATOM     31  O   UNL     1      14.556 -28.153 -22.838  1.00  0.00    -0.295 OA
ENDBRANCH   9  11
ENDBRANCH   8   9
ENDBRANCH   1   8
TORSDOF 6
ENDMDL
MODEL 5
REMARK VINA RESULT:    -5.496      3.547      7.332
REMARK INTER + INTRA:          -9.194
REMARK INTER:                  -8.262
REMARK INTRA:                  -0.932
REMARK UNBOUND:                -1.771
REMARK SMILES CC[C@@H](CC[C@H](C)[C@@H]1CC[C@@H]2[C@H]3CC(=O)C4=CC(=O)CC[C@@]4(C)[C@@H]3CC[C@]21C)C(C)C
REMARK SMILES IDX 4 1 3 2 2 3 1 4 29 5 30 6 31 7 5 8 6 9 7 10 8 11 9 12 27 13
REMARK SMILES IDX 10 14 11 15 26 16 28 17 12 18 25 19 24 20 13 21 22 22 14 23
REMARK SMILES IDX 16 24 21 25 23 26 15 27 17 28 20 29 18 30 19 31
REMARK H PARENT
REMARK Flexibility Score: inf
ROOT
ATOM      1  C   UNL     1      27.094 -31.036 -12.158  1.00  0.00     0.004 C 
ENDROOT
BRANCH   1   2
ATOM      2  C   UNL     1      26.971 -30.756 -10.632  1.00  0.00    -0.009 C 
BRANCH   2   3
ATOM      3  C   UNL     1      28.257 -31.070  -9.819  1.00  0.00     0.000 C 
ATOM      4  C   UNL     1      27.971 -31.569  -8.402  1.00  0.00     0.004 C 
ENDBRANCH   2   3
BRANCH   2   5
ATOM      5  C   UNL     1      25.672 -31.377 -10.010  1.00  0.00    -0.014 C 
ATOM      6  C   UNL     1      24.478 -30.407  -9.928  1.00  0.00     0.007 C 
ATOM      7  C   UNL     1      25.245 -32.645 -10.768  1.00  0.00     0.007 C 
ENDBRANCH   2   5
ENDBRANCH   1   2
BRANCH   1   8
ATOM      8  C   UNL     1      28.533 -31.230 -12.681  1.00  0.00     0.004 C 
BRANCH   8   9
ATOM      9  C   UNL     1      28.613 -32.142 -13.941  1.00  0.00    -0.011 C 
ATOM     10  C   UNL     1      27.191 -32.454 -14.448  1.00  0.00     0.008 C 
BRANCH   9  11
ATOM     11  C   UNL     1      29.414 -33.456 -13.620  1.00  0.00    -0.002 C 
ATOM     12  C   UNL     1      29.667 -34.317 -14.889  1.00  0.00     0.005 C 
ATOM     13  C   UNL     1      28.805 -34.478 -12.609  1.00  0.00    -0.026 C 
ATOM     14  C   UNL     1      29.672 -35.788 -14.457  1.00  0.00     0.005 C 
ATOM     15  C   UNL     1      29.645 -35.725 -12.940  1.00  0.00    -0.001 C 
ATOM     16  C   UNL     1      29.057 -34.171 -11.111  1.00  0.00     0.007 C 
ATOM     17  C   UNL     1      27.279 -34.679 -12.883  1.00  0.00     0.012 C 
ATOM     18  C   UNL     1      29.215 -36.992 -12.166  1.00  0.00     0.004 C 
ATOM     19  C   UNL     1      28.676 -35.368 -10.211  1.00  0.00     0.005 C 
ATOM     20  C   UNL     1      29.348 -36.715 -10.630  1.00  0.00     0.003 C 
ATOM     21  C   UNL     1      30.099 -38.184 -12.568  1.00  0.00     0.085 C 
ATOM     22  C   UNL     1      28.892 -37.949  -9.753  1.00  0.00    -0.000 C 
ATOM     23  C   UNL     1      29.841 -39.382 -11.710  1.00  0.00     0.159 C 
ATOM     24  C   UNL     1      29.582 -39.222 -10.260  1.00  0.00     0.005 C 
ATOM     25  C   UNL     1      29.295 -37.698  -8.264  1.00  0.00     0.020 C 
ATOM     26  C   UNL     1      27.359 -38.179  -9.835  1.00  0.00     0.017 C 
ATOM     27  O   UNL     1      29.933 -40.531 -12.222  1.00  0.00    -0.295 OA
ATOM     28  C   UNL     1      29.872 -40.241  -9.428  1.00  0.00     0.055 C 
ATOM     29  C   UNL     1      29.071 -38.919  -7.363  1.00  0.00     0.081 C 
ATOM     30  C   UNL     1      29.650 -40.153  -7.978  1.00  0.00     0.156 C 
ATOM     31  O   UNL     1      29.917 -41.145  -7.248  1.00  0.00    -0.295 OA
ENDBRANCH   9  11
ENDBRANCH   8   9
ENDBRANCH   1   8
TORSDOF 6
ENDMDL
MODEL 6
REMARK VINA RESULT:    -5.478      4.646      8.807
REMARK INTER + INTRA:          -9.171
REMARK INTER:                  -7.798
REMARK INTRA:                  -1.373
REMARK UNBOUND:                -1.771
REMARK SMILES CC[C@@H](CC[C@H](C)[C@@H]1CC[C@@H]2[C@H]3CC(=O)C4=CC(=O)CC[C@@]4(C)[C@@H]3CC[C@]21C)C(C)C
REMARK SMILES IDX 4 1 3 2 2 3 1 4 29 5 30 6 31 7 5 8 6 9 7 10 8 11 9 12 27 13
REMARK SMILES IDX 10 14 11 15 26 16 28 17 12 18 25 19 24 20 13 21 22 22 14 23
REMARK SMILES IDX 16 24 21 25 23 26 15 27 17 28 20 29 18 30 19 31
REMARK H PARENT
REMARK Flexibility Score: inf
ROOT
ATOM      1  C   UNL     1      27.598 -28.838 -14.371  1.00  0.00     0.004 C 
ENDROOT
BRANCH   1   2
ATOM      2  C   UNL     1      27.055 -28.785 -15.828  1.00  0.00    -0.009 C 
BRANCH   2   3
ATOM      3  C   UNL     1      27.071 -27.368 -16.466  1.00  0.00     0.000 C 
ATOM      4  C   UNL     1      27.067 -26.239 -15.435  1.00  0.00     0.004 C 
ENDBRANCH   2   3
BRANCH   2   5
ATOM      5  C   UNL     1      25.681 -29.525 -15.985  1.00  0.00    -0.014 C 
ATOM      6  C   UNL     1      24.872 -29.651 -14.680  1.00  0.00     0.007 C 
ATOM      7  C   UNL     1      24.809 -28.854 -17.060  1.00  0.00     0.007 C 
ENDBRANCH   2   5
ENDBRANCH   1   2
BRANCH   1   8
ATOM      8  C   UNL     1      28.611 -29.965 -14.082  1.00  0.00     0.004 C 
BRANCH   8   9
ATOM      9  C   UNL     1      27.969 -31.215 -13.411  1.00  0.00    -0.011 C 
ATOM     10  C   UNL     1      28.178 -31.149 -11.884  1.00  0.00     0.008 C 
BRANCH   9  11
ATOM     11  C   UNL     1      28.568 -32.535 -14.019  1.00  0.00    -0.002 C 
ATOM     12  C   UNL     1      28.787 -32.430 -15.555  1.00  0.00     0.005 C 
ATOM     13  C   UNL     1      27.767 -33.866 -13.861  1.00  0.00    -0.026 C 
ATOM     14  C   UNL     1      28.572 -33.826 -16.150  1.00  0.00     0.005 C 
ATOM     15  C   UNL     1      28.456 -34.730 -14.934  1.00  0.00    -0.001 C 
ATOM     16  C   UNL     1      27.962 -34.610 -12.516  1.00  0.00     0.007 C 
ATOM     17  C   UNL     1      26.250 -33.630 -14.149  1.00  0.00     0.012 C 
ATOM     18  C   UNL     1      27.815 -36.123 -15.120  1.00  0.00     0.004 C 
ATOM     19  C   UNL     1      27.370 -36.037 -12.562  1.00  0.00     0.005 C 
ATOM     20  C   UNL     1      27.885 -36.898 -13.761  1.00  0.00     0.003 C 
ATOM     21  C   UNL     1      28.559 -36.906 -16.215  1.00  0.00     0.085 C 
ATOM     22  C   UNL     1      27.216 -38.327 -13.846  1.00  0.00    -0.000 C 
ATOM     23  C   UNL     1      28.091 -38.325 -16.299  1.00  0.00     0.159 C 
ATOM     24  C   UNL     1      27.764 -39.079 -15.066  1.00  0.00     0.005 C 
ATOM     25  C   UNL     1      27.553 -39.130 -12.548  1.00  0.00     0.020 C 
ATOM     26  C   UNL     1      25.674 -38.234 -14.003  1.00  0.00     0.017 C 
ATOM     27  O   UNL     1      28.064 -38.894 -17.424  1.00  0.00    -0.295 OA
ATOM     28  C   UNL     1      27.864 -40.422 -15.076  1.00  0.00     0.055 C 
ATOM     29  C   UNL     1      27.113 -40.598 -12.614  1.00  0.00     0.081 C 
ATOM     30  C   UNL     1      27.563 -41.236 -13.889  1.00  0.00     0.156 C 
ATOM     31  O   UNL     1      27.651 -42.491 -13.960  1.00  0.00    -0.295 OA
ENDBRANCH   9  11
ENDBRANCH   8   9
ENDBRANCH   1   8
TORSDOF 6
ENDMDL
MODEL 7
REMARK VINA RESULT:    -5.461      4.681      8.755
REMARK INTER + INTRA:          -9.148
REMARK INTER:                  -7.478
REMARK INTRA:                  -1.670
REMARK UNBOUND:                -1.771
REMARK SMILES CC[C@@H](CC[C@H](C)[C@@H]1CC[C@@H]2[C@H]3CC(=O)C4=CC(=O)CC[C@@]4(C)[C@@H]3CC[C@]21C)C(C)C
REMARK SMILES IDX 4 1 3 2 2 3 1 4 29 5 30 6 31 7 5 8 6 9 7 10 8 11 9 12 27 13
REMARK SMILES IDX 10 14 11 15 26 16 28 17 12 18 25 19 24 20 13 21 22 22 14 23
REMARK SMILES IDX 16 24 21 25 23 26 15 27 17 28 20 29 18 30 19 31
REMARK H PARENT
REMARK Flexibility Score: inf
ROOT
ATOM      1  C   UNL     1      26.966 -43.312 -19.259  1.00  0.00     0.004 C 
ENDROOT
BRANCH   1   2
ATOM      2  C   UNL     1      28.381 -42.669 -19.197  1.00  0.00    -0.009 C 
BRANCH   2   3
ATOM      3  C   UNL     1      28.964 -42.270 -20.581  1.00  0.00     0.000 C 
ATOM      4  C   UNL     1      28.629 -43.268 -21.691  1.00  0.00     0.004 C 
ENDBRANCH   2   3
BRANCH   2   5
ATOM      5  C   UNL     1      29.380 -43.497 -18.315  1.00  0.00    -0.014 C 
ATOM      6  C   UNL     1      29.377 -43.118 -16.821  1.00  0.00     0.007 C 
ATOM      7  C   UNL     1      29.125 -45.007 -18.456  1.00  0.00     0.007 C 
ENDBRANCH   2   5
ENDBRANCH   1   2
BRANCH   1   8
ATOM      8  C   UNL     1      25.827 -42.464 -18.656  1.00  0.00     0.004 C 
BRANCH   8   9
ATOM      9  C   UNL     1      26.109 -41.998 -17.197  1.00  0.00    -0.011 C 
ATOM     10  C   UNL     1      25.349 -42.903 -16.207  1.00  0.00     0.008 C 
BRANCH   9  11
ATOM     11  C   UNL     1      25.716 -40.487 -17.017  1.00  0.00    -0.002 C 
ATOM     12  C   UNL     1      25.090 -39.882 -18.306  1.00  0.00     0.005 C 
ATOM     13  C   UNL     1      26.831 -39.459 -16.644  1.00  0.00    -0.026 C 
ATOM     14  C   UNL     1      25.481 -38.401 -18.359  1.00  0.00     0.005 C 
ATOM     15  C   UNL     1      26.122 -38.141 -17.007  1.00  0.00    -0.001 C 
ATOM     16  C   UNL     1      27.177 -39.364 -15.136  1.00  0.00     0.007 C 
ATOM     17  C   UNL     1      28.118 -39.715 -17.492  1.00  0.00     0.012 C 
ATOM     18  C   UNL     1      27.015 -36.890 -16.852  1.00  0.00     0.004 C 
ATOM     19  C   UNL     1      28.068 -38.139 -14.832  1.00  0.00     0.005 C 
ATOM     20  C   UNL     1      27.489 -36.787 -15.363  1.00  0.00     0.003 C 
ATOM     21  C   UNL     1      26.230 -35.627 -17.246  1.00  0.00     0.085 C 
ATOM     22  C   UNL     1      28.442 -35.551 -15.116  1.00  0.00    -0.000 C 
ATOM     23  C   UNL     1      26.993 -34.378 -16.935  1.00  0.00     0.159 C 
ATOM     24  C   UNL     1      27.800 -34.284 -15.696  1.00  0.00     0.005 C 
ATOM     25  C   UNL     1      28.658 -35.366 -13.580  1.00  0.00     0.020 C 
ATOM     26  C   UNL     1      29.821 -35.739 -15.806  1.00  0.00     0.017 C 
ATOM     27  O   UNL     1      26.868 -33.381 -17.697  1.00  0.00    -0.295 OA
ATOM     28  C   UNL     1      28.033 -33.070 -15.160  1.00  0.00     0.055 C 
ATOM     29  C   UNL     1      29.411 -34.078 -13.225  1.00  0.00     0.081 C 
ATOM     30  C   UNL     1      28.819 -32.899 -13.929  1.00  0.00     0.156 C 
ATOM     31  O   UNL     1      29.026 -31.739 -13.482  1.00  0.00    -0.295 OA
ENDBRANCH   9  11
ENDBRANCH   8   9
ENDBRANCH   1   8
TORSDOF 6
ENDMDL
MODEL 8
REMARK VINA RESULT:    -5.441      4.044      7.190
REMARK INTER + INTRA:          -9.120
REMARK INTER:                  -8.089
REMARK INTRA:                  -1.031
REMARK UNBOUND:                -1.771
REMARK SMILES CC[C@@H](CC[C@H](C)[C@@H]1CC[C@@H]2[C@H]3CC(=O)C4=CC(=O)CC[C@@]4(C)[C@@H]3CC[C@]21C)C(C)C
REMARK SMILES IDX 4 1 3 2 2 3 1 4 29 5 30 6 31 7 5 8 6 9 7 10 8 11 9 12 27 13
REMARK SMILES IDX 10 14 11 15 26 16 28 17 12 18 25 19 24 20 13 21 22 22 14 23
REMARK SMILES IDX 16 24 21 25 23 26 15 27 17 28 20 29 18 30 19 31
REMARK H PARENT
REMARK Flexibility Score: inf
ROOT
ATOM      1  C   UNL     1      27.706 -29.493 -15.376  1.00  0.00     0.004 C 
ENDROOT
BRANCH   1   2
ATOM      2  C   UNL     1      26.479 -28.637 -14.949  1.00  0.00    -0.009 C 
BRANCH   2   3
ATOM      3  C   UNL     1      25.113 -29.365 -15.084  1.00  0.00     0.000 C 
ATOM      4  C   UNL     1      25.162 -30.579 -16.013  1.00  0.00     0.004 C 
ENDBRANCH   2   3
BRANCH   2   5
ATOM      5  C   UNL     1      26.490 -27.207 -15.593  1.00  0.00    -0.014 C 
ATOM      6  C   UNL     1      27.501 -26.230 -14.961  1.00  0.00     0.007 C 
ATOM      7  C   UNL     1      26.737 -27.283 -17.109  1.00  0.00     0.007 C 
ENDBRANCH   2   5
ENDBRANCH   1   2
BRANCH   1   8
ATOM      8  C   UNL     1      28.590 -30.006 -14.220  1.00  0.00     0.004 C 
BRANCH   8   9
ATOM      9  C   UNL     1      27.871 -31.041 -13.305  1.00  0.00    -0.011 C 
ATOM     10  C   UNL     1      27.440 -30.360 -11.991  1.00  0.00     0.008 C 
BRANCH   9  11
ATOM     11  C   UNL     1      28.802 -32.279 -13.036  1.00  0.00    -0.002 C 
ATOM     12  C   UNL     1      29.317 -32.926 -14.353  1.00  0.00     0.005 C 
ATOM     13  C   UNL     1      28.227 -33.493 -12.241  1.00  0.00    -0.026 C 
ATOM     14  C   UNL     1      29.474 -34.429 -14.099  1.00  0.00     0.005 C 
ATOM     15  C   UNL     1      29.264 -34.573 -12.602  1.00  0.00    -0.001 C 
ATOM     16  C   UNL     1      28.260 -33.360 -10.698  1.00  0.00     0.007 C 
ATOM     17  C   UNL     1      26.786 -33.839 -12.736  1.00  0.00     0.012 C 
ATOM     18  C   UNL     1      28.925 -35.974 -12.045  1.00  0.00     0.004 C 
ATOM     19  C   UNL     1      27.945 -34.703 -10.002  1.00  0.00     0.005 C 
ATOM     20  C   UNL     1      28.841 -35.890 -10.484  1.00  0.00     0.003 C 
ATOM     21  C   UNL     1      30.005 -36.986 -12.464  1.00  0.00     0.085 C 
ATOM     22  C   UNL     1      28.460 -37.276  -9.825  1.00  0.00    -0.000 C 
ATOM     23  C   UNL     1      29.817 -38.310 -11.793  1.00  0.00     0.159 C 
ATOM     24  C   UNL     1      29.373 -38.377 -10.381  1.00  0.00     0.005 C 
ATOM     25  C   UNL     1      28.650 -37.179  -8.277  1.00  0.00     0.020 C 
ATOM     26  C   UNL     1      26.993 -37.679 -10.135  1.00  0.00     0.017 C 
ATOM     27  O   UNL     1      30.125 -39.361 -12.419  1.00  0.00    -0.295 OA
ATOM     28  C   UNL     1      29.702 -39.455  -9.644  1.00  0.00     0.055 C 
ATOM     29  C   UNL     1      28.493 -38.527  -7.562  1.00  0.00     0.081 C 
ATOM     30  C   UNL     1      29.304 -39.588  -8.235  1.00  0.00     0.156 C 
ATOM     31  O   UNL     1      29.619 -40.628  -7.597  1.00  0.00    -0.295 OA
ENDBRANCH   9  11
ENDBRANCH   8   9
ENDBRANCH   1   8
TORSDOF 6
ENDMDL
MODEL 9
REMARK VINA RESULT:    -5.404      4.714      8.872
REMARK INTER + INTRA:          -9.071
REMARK INTER:                  -7.209
REMARK INTRA:                  -1.861
REMARK UNBOUND:                -1.771
REMARK SMILES CC[C@@H](CC[C@H](C)[C@@H]1CC[C@@H]2[C@H]3CC(=O)C4=CC(=O)CC[C@@]4(C)[C@@H]3CC[C@]21C)C(C)C
REMARK SMILES IDX 4 1 3 2 2 3 1 4 29 5 30 6 31 7 5 8 6 9 7 10 8 11 9 12 27 13
REMARK SMILES IDX 10 14 11 15 26 16 28 17 12 18 25 19 24 20 13 21 22 22 14 23
REMARK SMILES IDX 16 24 21 25 23 26 15 27 17 28 20 29 18 30 19 31
REMARK H PARENT
REMARK Flexibility Score: inf
ROOT
ATOM      1  C   UNL     1      26.620 -44.142 -18.615  1.00  0.00     0.004 C 
ENDROOT
BRANCH   1   2
ATOM      2  C   UNL     1      27.971 -43.986 -19.371  1.00  0.00    -0.009 C 
BRANCH   2   3
ATOM      3  C   UNL     1      29.228 -44.090 -18.465  1.00  0.00     0.000 C 
ATOM      4  C   UNL     1      29.786 -45.510 -18.363  1.00  0.00     0.004 C 
ENDBRANCH   2   3
BRANCH   2   5
ATOM      5  C   UNL     1      27.987 -42.736 -20.320  1.00  0.00    -0.014 C 
ATOM      6  C   UNL     1      28.967 -41.625 -19.894  1.00  0.00     0.007 C 
ATOM      7  C   UNL     1      28.285 -43.146 -21.772  1.00  0.00     0.007 C 
ENDBRANCH   2   5
ENDBRANCH   1   2
BRANCH   1   8
ATOM      8  C   UNL     1      25.641 -42.958 -18.757  1.00  0.00     0.004 C 
BRANCH   8   9
ATOM      9  C   UNL     1      25.075 -42.458 -17.395  1.00  0.00    -0.011 C 
ATOM     10  C   UNL     1      23.561 -42.742 -17.327  1.00  0.00     0.008 C 
BRANCH   9  11
ATOM     11  C   UNL     1      25.385 -40.930 -17.198  1.00  0.00    -0.002 C 
ATOM     12  C   UNL     1      25.920 -40.265 -18.498  1.00  0.00     0.005 C 
ATOM     13  C   UNL     1      26.436 -40.510 -16.122  1.00  0.00    -0.026 C 
ATOM     14  C   UNL     1      26.897 -39.159 -18.084  1.00  0.00     0.005 C 
ATOM     15  C   UNL     1      26.732 -39.068 -16.576  1.00  0.00    -0.001 C 
ATOM     16  C   UNL     1      25.903 -40.405 -14.670  1.00  0.00     0.007 C 
ATOM     17  C   UNL     1      27.689 -41.441 -16.186  1.00  0.00     0.012 C 
ATOM     18  C   UNL     1      27.846 -38.374 -15.762  1.00  0.00     0.004 C 
ATOM     19  C   UNL     1      26.922 -39.714 -13.737  1.00  0.00     0.005 C 
ATOM     20  C   UNL     1      27.417 -38.325 -14.256  1.00  0.00     0.003 C 
ATOM     21  C   UNL     1      28.080 -36.949 -16.292  1.00  0.00     0.085 C 
ATOM     22  C   UNL     1      28.517 -37.661 -13.336  1.00  0.00    -0.000 C 
ATOM     23  C   UNL     1      29.016 -36.177 -15.417  1.00  0.00     0.159 C 
ATOM     24  C   UNL     1      28.955 -36.323 -13.944  1.00  0.00     0.005 C 
ATOM     25  C   UNL     1      27.917 -37.414 -11.914  1.00  0.00     0.020 C 
ATOM     26  C   UNL     1      29.779 -38.557 -13.208  1.00  0.00     0.017 C 
ATOM     27  O   UNL     1      29.796 -35.338 -15.946  1.00  0.00    -0.295 OA
ATOM     28  C   UNL     1      29.379 -35.305 -13.169  1.00  0.00     0.055 C 
ATOM     29  C   UNL     1      28.840 -36.598 -11.001  1.00  0.00     0.081 C 
ATOM     30  C   UNL     1      29.341 -35.374 -11.701  1.00  0.00     0.156 C 
ATOM     31  O   UNL     1      29.771 -34.403 -11.023  1.00  0.00    -0.295 OA
ENDBRANCH   9  11
ENDBRANCH   8   9
ENDBRANCH   1   8
TORSDOF 6
ENDMDL
