MODEL 1
REMARK VINA RESULT:    -3.584      0.000      0.000
REMARK INTER + INTRA:          -4.041
REMARK INTER:                  -4.318
REMARK INTRA:                   0.277
REMARK UNBOUND:                 0.277
REMARK SMILES O=c1c(O)c(-c2ccc(O)c(O)c2)oc2cc(O)cc(O)c12
REMARK SMILES IDX 5 1 3 2 2 3 1 4 22 5 20 6 19 7 17 8 16 9 15 10 14 11 6 12
REMARK SMILES IDX 7 13 8 14 9 15 13 16 11 17 10 18 12 20 4 22 21 24 18 26
REMARK H PARENT 10 19 12 21 4 23 21 25 18 27
REMARK Flexibility Score: inf
ROOT
ATOM      1  C   UNL     1      25.056  -5.745 -18.845  1.00  0.00     0.180 A 
ATOM      2  C   UNL     1      23.912  -6.197 -19.525  1.00  0.00     0.208 A 
ATOM      3  C   UNL     1      23.639  -7.575 -19.558  1.00  0.00     0.238 A 
ATOM      4  O   UNL     1      22.585  -7.969 -20.121  1.00  0.00    -0.285 OA
ATOM      5  C   UNL     1      24.522  -8.482 -18.925  1.00  0.00     0.111 A 
ATOM      6  C   UNL     1      24.365  -9.902 -18.928  1.00  0.00     0.134 A 
ATOM      7  C   UNL     1      25.227 -10.694 -18.159  1.00  0.00     0.093 A 
ATOM      8  C   UNL     1      26.277 -10.126 -17.439  1.00  0.00     0.123 A 
ATOM      9  C   UNL     1      26.475  -8.745 -17.476  1.00  0.00     0.094 A 
ATOM     10  C   UNL     1      25.612  -7.925 -18.205  1.00  0.00     0.146 A 
ATOM     11  O   UNL     1      25.828  -6.615 -18.206  1.00  0.00    -0.452 OA
ENDROOT
BRANCH   1  12
ATOM     12  C   UNL     1      25.424  -4.312 -18.788  1.00  0.00     0.025 A 
ATOM     13  C   UNL     1      26.768  -3.902 -18.741  1.00  0.00     0.016 A 
ATOM     14  C   UNL     1      27.092  -2.546 -18.663  1.00  0.00     0.051 A 
ATOM     15  C   UNL     1      26.078  -1.579 -18.618  1.00  0.00     0.157 A 
ATOM     16  C   UNL     1      24.412  -3.340 -18.721  1.00  0.00     0.062 A 
ATOM     17  C   UNL     1      24.732  -1.979 -18.645  1.00  0.00     0.158 A 
BRANCH  15  18
ATOM     18  O   UNL     1      26.405  -0.226 -18.543  1.00  0.00    -0.504 OA
ATOM     19  H   UNL     1      25.696   0.485 -18.409  1.00  0.00     0.293 HD
ENDBRANCH  15  18
BRANCH  17  20
ATOM     20  O   UNL     1      23.701  -1.043 -18.594  1.00  0.00    -0.504 OA
ATOM     21  H   UNL     1      23.867  -0.071 -18.363  1.00  0.00     0.293 HD
ENDBRANCH  17  20
ENDBRANCH   1  12
BRANCH   2  22
ATOM     22  O   UNL     1      23.043  -5.283 -20.125  1.00  0.00    -0.502 OA
ATOM     23  H   UNL     1      22.485  -4.630 -19.589  1.00  0.00     0.293 HD
ENDBRANCH   2  22
BRANCH   6  24
ATOM     24  O   UNL     1      23.405 -10.578 -19.686  1.00  0.00    -0.507 OA
ATOM     25  H   UNL     1      23.045 -11.496 -19.473  1.00  0.00     0.293 HD
ENDBRANCH   6  24
BRANCH   8  26
ATOM     26  O   UNL     1      27.124 -10.946 -16.697  1.00  0.00    -0.508 OA
ATOM     27  H   UNL     1      26.899 -11.224 -15.750  1.00  0.00     0.293 HD
ENDBRANCH   8  26
TORSDOF 6
ENDMDL
MODEL 2
REMARK VINA RESULT:    -2.824      1.449      6.759
REMARK INTER + INTRA:          -3.125
REMARK INTER:                  -3.196
REMARK INTRA:                   0.072
REMARK UNBOUND:                 0.277
REMARK SMILES O=c1c(O)c(-c2ccc(O)c(O)c2)oc2cc(O)cc(O)c12
REMARK SMILES IDX 5 1 3 2 2 3 1 4 22 5 20 6 19 7 17 8 16 9 15 10 14 11 6 12
REMARK SMILES IDX 7 13 8 14 9 15 13 16 11 17 10 18 12 20 4 22 21 24 18 26
REMARK H PARENT 10 19 12 21 4 23 21 25 18 27
REMARK Flexibility Score: inf
ROOT
ATOM      1  C   UNL     1      25.193  -5.519 -18.384  1.00  0.00     0.180 A 
ATOM      2  C   UNL     1      24.211  -5.018 -19.254  1.00  0.00     0.208 A 
ATOM      3  C   UNL     1      23.947  -3.638 -19.262  1.00  0.00     0.238 A 
ATOM      4  O   UNL     1      23.105  -3.187 -20.082  1.00  0.00    -0.285 OA
ATOM      5  C   UNL     1      24.657  -2.781 -18.387  1.00  0.00     0.111 A 
ATOM      6  C   UNL     1      24.445  -1.373 -18.281  1.00  0.00     0.134 A 
ATOM      7  C   UNL     1      25.295  -0.605 -17.477  1.00  0.00     0.093 A 
ATOM      8  C   UNL     1      26.308  -1.199 -16.725  1.00  0.00     0.123 A 
ATOM      9  C   UNL     1      26.486  -2.582 -16.775  1.00  0.00     0.094 A 
ATOM     10  C   UNL     1      25.678  -3.371 -17.595  1.00  0.00     0.146 A 
ATOM     11  O   UNL     1      25.887  -4.682 -17.623  1.00  0.00    -0.452 OA
ENDROOT
BRANCH   1  12
ATOM     12  C   UNL     1      25.509  -6.963 -18.301  1.00  0.00     0.025 A 
ATOM     13  C   UNL     1      26.836  -7.426 -18.353  1.00  0.00     0.016 A 
ATOM     14  C   UNL     1      27.110  -8.795 -18.297  1.00  0.00     0.051 A 
ATOM     15  C   UNL     1      26.063  -9.722 -18.201  1.00  0.00     0.157 A 
ATOM     16  C   UNL     1      24.464  -7.897 -18.227  1.00  0.00     0.062 A 
ATOM     17  C   UNL     1      24.734  -9.270 -18.169  1.00  0.00     0.158 A 
BRANCH  15  18
ATOM     18  O   UNL     1      26.340 -11.087 -18.143  1.00  0.00    -0.504 OA
ATOM     19  H   UNL     1      27.001 -11.467 -17.476  1.00  0.00     0.293 HD
ENDBRANCH  15  18
BRANCH  17  20
ATOM     20  O   UNL     1      23.670 -10.167 -18.082  1.00  0.00    -0.504 OA
ATOM     21  H   UNL     1      23.061 -10.359 -18.868  1.00  0.00     0.293 HD
ENDBRANCH  17  20
ENDBRANCH   1  12
BRANCH   2  22
ATOM     22  O   UNL     1      23.536  -5.878 -20.125  1.00  0.00    -0.502 OA
ATOM     23  H   UNL     1      23.811  -5.998 -21.092  1.00  0.00     0.293 HD
ENDBRANCH   2  22
BRANCH   6  24
ATOM     24  O   UNL     1      23.403  -0.692 -18.919  1.00  0.00    -0.507 OA
ATOM     25  H   UNL     1      23.162  -0.794 -19.893  1.00  0.00     0.293 HD
ENDBRANCH   6  24
BRANCH   8  26
ATOM     26  O   UNL     1      27.124  -0.405 -15.923  1.00  0.00    -0.508 OA
ATOM     27  H   UNL     1      28.033  -0.726 -15.609  1.00  0.00     0.293 HD
ENDBRANCH   8  26
TORSDOF 6
ENDMDL
MODEL 3
REMARK VINA RESULT:    -2.498      1.403      2.913
REMARK INTER + INTRA:          -2.732
REMARK INTER:                  -2.438
REMARK INTRA:                  -0.294
REMARK UNBOUND:                 0.277
REMARK SMILES O=c1c(O)c(-c2ccc(O)c(O)c2)oc2cc(O)cc(O)c12
REMARK SMILES IDX 5 1 3 2 2 3 1 4 22 5 20 6 19 7 17 8 16 9 15 10 14 11 6 12
REMARK SMILES IDX 7 13 8 14 9 15 13 16 11 17 10 18 12 20 4 22 21 24 18 26
REMARK H PARENT 10 19 12 21 4 23 21 25 18 27
REMARK Flexibility Score: inf
ROOT
ATOM      1  C   UNL     1      25.017  -6.125 -18.663  1.00  0.00     0.180 A 
ATOM      2  C   UNL     1      25.976  -6.847 -17.934  1.00  0.00     0.208 A 
ATOM      3  C   UNL     1      25.781  -8.223 -17.726  1.00  0.00     0.238 A 
ATOM      4  O   UNL     1      26.671  -8.874 -17.119  1.00  0.00    -0.285 OA
ATOM      5  C   UNL     1      24.621  -8.853 -18.236  1.00  0.00     0.111 A 
ATOM      6  C   UNL     1      24.301 -10.233 -18.051  1.00  0.00     0.134 A 
ATOM      7  C   UNL     1      23.193 -10.779 -18.711  1.00  0.00     0.093 A 
ATOM      8  C   UNL     1      22.358  -9.985 -19.495  1.00  0.00     0.123 A 
ATOM      9  C   UNL     1      22.628  -8.622 -19.634  1.00  0.00     0.094 A 
ATOM     10  C   UNL     1      23.745  -8.056 -19.018  1.00  0.00     0.146 A 
ATOM     11  O   UNL     1      23.973  -6.758 -19.184  1.00  0.00    -0.452 OA
ENDROOT
BRANCH   1  12
ATOM     12  C   UNL     1      25.140  -4.669 -18.902  1.00  0.00     0.025 A 
ATOM     13  C   UNL     1      25.975  -4.161 -19.913  1.00  0.00     0.016 A 
ATOM     14  C   UNL     1      26.094  -2.783 -20.106  1.00  0.00     0.051 A 
ATOM     15  C   UNL     1      25.392  -1.891 -19.283  1.00  0.00     0.157 A 
ATOM     16  C   UNL     1      24.456  -3.771 -18.068  1.00  0.00     0.062 A 
ATOM     17  C   UNL     1      24.572  -2.388 -18.258  1.00  0.00     0.158 A 
BRANCH  15  18
ATOM     18  O   UNL     1      25.512  -0.516 -19.479  1.00  0.00    -0.504 OA
ATOM     19  H   UNL     1      26.390  -0.093 -19.758  1.00  0.00     0.293 HD
ENDBRANCH  15  18
BRANCH  17  20
ATOM     20  O   UNL     1      23.866  -1.528 -17.418  1.00  0.00    -0.504 OA
ATOM     21  H   UNL     1      22.946  -1.757 -17.061  1.00  0.00     0.293 HD
ENDBRANCH  17  20
ENDBRANCH   1  12
BRANCH   2  22
ATOM     22  O   UNL     1      27.125  -6.209 -17.458  1.00  0.00    -0.502 OA
ATOM     23  H   UNL     1      27.197  -5.849 -16.514  1.00  0.00     0.293 HD
ENDBRANCH   2  22
BRANCH   6  24
ATOM     24  O   UNL     1      25.018 -11.094 -17.215  1.00  0.00    -0.507 OA
ATOM     25  H   UNL     1      25.929 -11.473 -17.425  1.00  0.00     0.293 HD
ENDBRANCH   6  24
BRANCH   8  26
ATOM     26  O   UNL     1      21.255 -10.558 -20.123  1.00  0.00    -0.508 OA
ATOM     27  H   UNL     1      21.303 -10.892 -21.079  1.00  0.00     0.293 HD
ENDBRANCH   8  26
TORSDOF 6
ENDMDL
