MODEL 1
REMARK VINA RESULT:     6.467      0.000      0.000
REMARK INTER + INTRA:           8.892
REMARK INTER:                   8.925
REMARK INTRA:                  -0.033
REMARK UNBOUND:                -0.033
REMARK SMILES CC[C@@H](CC[C@@H](C)[C@@H]1CC[C@H]2[C@H]3CC=C4C[C@@H](O)CC[C@]4(C)[C@H]3CC[C@@]21C)C(C)C
REMARK SMILES IDX 5 1 4 2 3 3 2 4 1 5 28 6 29 7 30 8 6 9 7 10 8 11 9 12 26 13
REMARK SMILES IDX 10 14 11 15 25 16 27 17 12 18 24 19 23 20 13 21 21 22 14 23
REMARK SMILES IDX 15 24 20 25 22 26 16 27 19 28 17 29 18 30
REMARK H PARENT 18 31
REMARK Flexibility Score: inf
ROOT
ATOM      1  C   UNL     1     -14.873 -26.966 -11.224  1.00  0.00     0.004 C 
ENDROOT
BRANCH   1   2
ATOM      2  C   UNL     1     -14.177 -26.231 -12.390  1.00  0.00     0.004 C 
BRANCH   2   3
ATOM      3  C   UNL     1     -15.050 -26.021 -13.661  1.00  0.00    -0.009 C 
BRANCH   3   4
ATOM      4  C   UNL     1     -15.655 -27.328 -14.246  1.00  0.00     0.000 C 
ATOM      5  C   UNL     1     -17.088 -27.594 -13.781  1.00  0.00     0.004 C 
ENDBRANCH   3   4
BRANCH   3   6
ATOM      6  C   UNL     1     -14.342 -25.126 -14.738  1.00  0.00    -0.014 C 
ATOM      7  C   UNL     1     -15.355 -24.576 -15.754  1.00  0.00     0.007 C 
ATOM      8  C   UNL     1     -13.194 -25.823 -15.492  1.00  0.00     0.007 C 
ENDBRANCH   3   6
ENDBRANCH   2   3
ENDBRANCH   1   2
BRANCH   1   9
ATOM      9  C   UNL     1     -13.885 -27.686 -10.260  1.00  0.00    -0.011 C 
ATOM     10  C   UNL     1     -13.357 -26.657  -9.233  1.00  0.00     0.008 C 
BRANCH   9  11
ATOM     11  C   UNL     1     -14.515 -28.993  -9.640  1.00  0.00    -0.002 C 
ATOM     12  C   UNL     1     -13.560 -29.785  -8.696  1.00  0.00     0.005 C 
ATOM     13  C   UNL     1     -15.090 -30.083 -10.615  1.00  0.00    -0.026 C 
ATOM     14  C   UNL     1     -13.322 -31.170  -9.325  1.00  0.00     0.005 C 
ATOM     15  C   UNL     1     -13.884 -31.033 -10.729  1.00  0.00    -0.001 C 
ATOM     16  C   UNL     1     -15.510 -29.652 -12.044  1.00  0.00     0.007 C 
ATOM     17  C   UNL     1     -16.340 -30.706  -9.903  1.00  0.00     0.012 C 
ATOM     18  C   UNL     1     -14.043 -32.278 -11.631  1.00  0.00     0.000 C 
ATOM     19  C   UNL     1     -15.726 -30.874 -12.984  1.00  0.00     0.005 C 
ATOM     20  C   UNL     1     -14.486 -31.826 -13.053  1.00  0.00     0.003 C 
ATOM     21  C   UNL     1     -14.959 -33.385 -11.097  1.00  0.00     0.031 C 
ATOM     22  C   UNL     1     -14.584 -33.059 -14.063  1.00  0.00    -0.008 C 
ATOM     23  C   UNL     1     -14.961 -34.548 -12.032  1.00  0.00    -0.027 C 
ATOM     24  C   UNL     1     -14.865 -34.411 -13.371  1.00  0.00    -0.065 C 
ATOM     25  C   UNL     1     -13.199 -33.203 -14.776  1.00  0.00     0.014 C 
ATOM     26  C   UNL     1     -15.673 -32.810 -15.142  1.00  0.00     0.016 C 
ATOM     27  C   UNL     1     -14.774 -35.668 -14.215  1.00  0.00     0.063 C 
ATOM     28  C   UNL     1     -13.060 -34.463 -15.653  1.00  0.00     0.033 C 
ATOM     29  C   UNL     1     -13.383 -35.745 -14.863  1.00  0.00     0.118 C 
BRANCH  29  30
ATOM     30  O   UNL     1     -13.281 -36.877 -15.689  1.00  0.00    -0.393 OA
ATOM     31  H   UNL     1     -12.677 -36.646 -16.443  1.00  0.00     0.210 HD
ENDBRANCH  29  30
ENDBRANCH   9  11
ENDBRANCH   1   9
TORSDOF 7
ENDMDL
MODEL 2
REMARK VINA RESULT:     6.523      1.797      3.733
REMARK INTER + INTRA:           8.969
REMARK INTER:                   9.929
REMARK INTRA:                  -0.960
REMARK UNBOUND:                -0.033
REMARK SMILES CC[C@@H](CC[C@@H](C)[C@@H]1CC[C@H]2[C@H]3CC=C4C[C@@H](O)CC[C@]4(C)[C@H]3CC[C@@]21C)C(C)C
REMARK SMILES IDX 5 1 4 2 3 3 2 4 1 5 28 6 29 7 30 8 6 9 7 10 8 11 9 12 26 13
REMARK SMILES IDX 10 14 11 15 25 16 27 17 12 18 24 19 23 20 13 21 21 22 14 23
REMARK SMILES IDX 15 24 20 25 22 26 16 27 19 28 17 29 18 30
REMARK H PARENT 18 31
REMARK Flexibility Score: inf
ROOT
ATOM      1  C   UNL     1     -14.991 -29.314  -9.073  1.00  0.00     0.004 C 
ENDROOT
BRANCH   1   2
ATOM      2  C   UNL     1     -15.120 -27.898  -9.674  1.00  0.00     0.004 C 
BRANCH   2   3
ATOM      3  C   UNL     1     -13.781 -27.130  -9.866  1.00  0.00    -0.009 C 
BRANCH   3   4
ATOM      4  C   UNL     1     -12.986 -26.891  -8.551  1.00  0.00     0.000 C 
ATOM      5  C   UNL     1     -12.253 -25.549  -8.521  1.00  0.00     0.004 C 
ENDBRANCH   3   4
BRANCH   3   6
ATOM      6  C   UNL     1     -13.947 -25.837 -10.738  1.00  0.00    -0.014 C 
ATOM      7  C   UNL     1     -15.058 -24.933 -10.182  1.00  0.00     0.007 C 
ATOM      8  C   UNL     1     -14.209 -26.104 -12.232  1.00  0.00     0.007 C 
ENDBRANCH   3   6
ENDBRANCH   2   3
ENDBRANCH   1   2
BRANCH   1   9
ATOM      9  C   UNL     1     -15.296 -30.455 -10.087  1.00  0.00    -0.011 C 
ATOM     10  C   UNL     1     -15.884 -29.829 -11.374  1.00  0.00     0.008 C 
BRANCH   9  11
ATOM     11  C   UNL     1     -14.049 -31.395 -10.307  1.00  0.00    -0.002 C 
ATOM     12  C   UNL     1     -12.845 -30.714 -11.027  1.00  0.00     0.005 C 
ATOM     13  C   UNL     1     -14.255 -32.743 -11.088  1.00  0.00    -0.026 C 
ATOM     14  C   UNL     1     -12.618 -31.451 -12.360  1.00  0.00     0.005 C 
ATOM     15  C   UNL     1     -13.855 -32.317 -12.511  1.00  0.00    -0.001 C 
ATOM     16  C   UNL     1     -15.678 -33.358 -11.143  1.00  0.00     0.007 C 
ATOM     17  C   UNL     1     -13.291 -33.792 -10.432  1.00  0.00     0.012 C 
ATOM     18  C   UNL     1     -13.925 -33.391 -13.622  1.00  0.00     0.000 C 
ATOM     19  C   UNL     1     -15.790 -34.479 -12.217  1.00  0.00     0.005 C 
ATOM     20  C   UNL     1     -15.352 -34.010 -13.645  1.00  0.00     0.003 C 
ATOM     21  C   UNL     1     -12.853 -34.485 -13.569  1.00  0.00     0.031 C 
ATOM     22  C   UNL     1     -15.520 -35.068 -14.829  1.00  0.00    -0.008 C 
ATOM     23  C   UNL     1     -12.999 -35.405 -14.734  1.00  0.00    -0.027 C 
ATOM     24  C   UNL     1     -14.195 -35.732 -15.265  1.00  0.00    -0.065 C 
ATOM     25  C   UNL     1     -16.067 -34.303 -16.079  1.00  0.00     0.014 C 
ATOM     26  C   UNL     1     -16.536 -36.179 -14.444  1.00  0.00     0.016 C 
ATOM     27  C   UNL     1     -14.215 -36.594 -16.511  1.00  0.00     0.063 C 
ATOM     28  C   UNL     1     -16.114 -35.141 -17.372  1.00  0.00     0.033 C 
ATOM     29  C   UNL     1     -14.744 -35.767 -17.693  1.00  0.00     0.118 C 
BRANCH  29  30
ATOM     30  O   UNL     1     -14.817 -36.553 -18.857  1.00  0.00    -0.393 OA
ATOM     31  H   UNL     1     -14.199 -36.158 -19.526  1.00  0.00     0.210 HD
ENDBRANCH  29  30
ENDBRANCH   9  11
ENDBRANCH   1   9
TORSDOF 7
ENDMDL
MODEL 3
REMARK VINA RESULT:     7.237      3.460      8.318
REMARK INTER + INTRA:           9.954
REMARK INTER:                   9.307
REMARK INTRA:                   0.647
REMARK UNBOUND:                -0.033
REMARK SMILES CC[C@@H](CC[C@@H](C)[C@@H]1CC[C@H]2[C@H]3CC=C4C[C@@H](O)CC[C@]4(C)[C@H]3CC[C@@]21C)C(C)C
REMARK SMILES IDX 5 1 4 2 3 3 2 4 1 5 28 6 29 7 30 8 6 9 7 10 8 11 9 12 26 13
REMARK SMILES IDX 10 14 11 15 25 16 27 17 12 18 24 19 23 20 13 21 21 22 14 23
REMARK SMILES IDX 15 24 20 25 22 26 16 27 19 28 17 29 18 30
REMARK H PARENT 18 31
REMARK Flexibility Score: inf
ROOT
ATOM      1  C   UNL     1     -17.041 -35.874 -15.293  1.00  0.00     0.004 C 
ENDROOT
BRANCH   1   2
ATOM      2  C   UNL     1     -18.026 -36.899 -14.690  1.00  0.00     0.004 C 
BRANCH   2   3
ATOM      3  C   UNL     1     -19.478 -36.383 -14.476  1.00  0.00    -0.009 C 
BRANCH   3   4
ATOM      4  C   UNL     1     -19.603 -34.835 -14.402  1.00  0.00     0.000 C 
ATOM      5  C   UNL     1     -21.051 -34.343 -14.390  1.00  0.00     0.004 C 
ENDBRANCH   3   4
BRANCH   3   6
ATOM      6  C   UNL     1     -20.216 -37.125 -13.308  1.00  0.00    -0.014 C 
ATOM      7  C   UNL     1     -21.624 -36.550 -13.088  1.00  0.00     0.007 C 
ATOM      8  C   UNL     1     -19.454 -37.125 -11.970  1.00  0.00     0.007 C 
ENDBRANCH   3   6
ENDBRANCH   2   3
ENDBRANCH   1   2
BRANCH   1   9
ATOM      9  C   UNL     1     -15.981 -36.509 -16.240  1.00  0.00    -0.011 C 
ATOM     10  C   UNL     1     -16.416 -36.267 -17.705  1.00  0.00     0.008 C 
BRANCH   9  11
ATOM     11  C   UNL     1     -14.518 -36.036 -15.886  1.00  0.00    -0.002 C 
ATOM     12  C   UNL     1     -13.739 -36.999 -14.940  1.00  0.00     0.005 C 
ATOM     13  C   UNL     1     -14.325 -34.617 -15.240  1.00  0.00    -0.026 C 
ATOM     14  C   UNL     1     -13.433 -36.233 -13.640  1.00  0.00     0.005 C 
ATOM     15  C   UNL     1     -14.288 -34.983 -13.746  1.00  0.00    -0.001 C 
ATOM     16  C   UNL     1     -15.430 -33.549 -15.454  1.00  0.00     0.007 C 
ATOM     17  C   UNL     1     -12.976 -34.048 -15.801  1.00  0.00     0.012 C 
ATOM     18  C   UNL     1     -14.109 -33.827 -12.735  1.00  0.00     0.000 C 
ATOM     19  C   UNL     1     -15.269 -32.339 -14.488  1.00  0.00     0.005 C 
ATOM     20  C   UNL     1     -15.211 -32.757 -12.981  1.00  0.00     0.003 C 
ATOM     21  C   UNL     1     -12.719 -33.182 -12.688  1.00  0.00     0.031 C 
ATOM     22  C   UNL     1     -15.138 -31.573 -11.911  1.00  0.00    -0.008 C 
ATOM     23  C   UNL     1     -12.672 -32.137 -11.624  1.00  0.00    -0.027 C 
ATOM     24  C   UNL     1     -13.730 -31.359 -11.314  1.00  0.00    -0.065 C 
ATOM     25  C   UNL     1     -16.076 -31.950 -10.718  1.00  0.00     0.014 C 
ATOM     26  C   UNL     1     -15.633 -30.235 -12.526  1.00  0.00     0.016 C 
ATOM     27  C   UNL     1     -13.597 -30.400 -10.147  1.00  0.00     0.063 C 
ATOM     28  C   UNL     1     -15.982 -31.000  -9.507  1.00  0.00     0.033 C 
ATOM     29  C   UNL     1     -14.531 -30.849  -9.013  1.00  0.00     0.118 C 
BRANCH  29  30
ATOM     30  O   UNL     1     -14.466 -29.955  -7.931  1.00  0.00    -0.393 OA
ATOM     31  H   UNL     1     -15.304 -30.053  -7.408  1.00  0.00     0.210 HD
ENDBRANCH  29  30
ENDBRANCH   9  11
ENDBRANCH   1   9
TORSDOF 7
ENDMDL
MODEL 4
REMARK VINA RESULT:     8.280      1.868      3.859
REMARK INTER + INTRA:          11.394
REMARK INTER:                  11.287
REMARK INTRA:                   0.107
REMARK UNBOUND:                -0.033
REMARK SMILES CC[C@@H](CC[C@@H](C)[C@@H]1CC[C@H]2[C@H]3CC=C4C[C@@H](O)CC[C@]4(C)[C@H]3CC[C@@]21C)C(C)C
REMARK SMILES IDX 5 1 4 2 3 3 2 4 1 5 28 6 29 7 30 8 6 9 7 10 8 11 9 12 26 13
REMARK SMILES IDX 10 14 11 15 25 16 27 17 12 18 24 19 23 20 13 21 21 22 14 23
REMARK SMILES IDX 15 24 20 25 22 26 16 27 19 28 17 29 18 30
REMARK H PARENT 18 31
REMARK Flexibility Score: inf
ROOT
ATOM      1  C   UNL     1     -13.257 -27.009  -9.188  1.00  0.00     0.004 C 
ENDROOT
BRANCH   1   2
ATOM      2  C   UNL     1     -12.870 -25.626  -9.753  1.00  0.00     0.004 C 
BRANCH   2   3
ATOM      3  C   UNL     1     -12.229 -24.643  -8.732  1.00  0.00    -0.009 C 
BRANCH   3   4
ATOM      4  C   UNL     1     -10.690 -24.478  -8.881  1.00  0.00     0.000 C 
ATOM      5  C   UNL     1     -10.263 -23.047  -9.213  1.00  0.00     0.004 C 
ENDBRANCH   3   4
BRANCH   3   6
ATOM      6  C   UNL     1     -12.685 -24.924  -7.257  1.00  0.00    -0.014 C 
ATOM      7  C   UNL     1     -12.851 -23.614  -6.470  1.00  0.00     0.007 C 
ATOM      8  C   UNL     1     -11.761 -25.873  -6.473  1.00  0.00     0.007 C 
ENDBRANCH   3   6
ENDBRANCH   2   3
ENDBRANCH   1   2
BRANCH   1   9
ATOM      9  C   UNL     1     -14.550 -27.603  -9.820  1.00  0.00    -0.011 C 
ATOM     10  C   UNL     1     -14.429 -27.526 -11.360  1.00  0.00     0.008 C 
BRANCH   9  11
ATOM     11  C   UNL     1     -14.883 -29.034  -9.244  1.00  0.00    -0.002 C 
ATOM     12  C   UNL     1     -13.725 -29.687  -8.430  1.00  0.00     0.005 C 
ATOM     13  C   UNL     1     -15.337 -30.158 -10.243  1.00  0.00    -0.026 C 
ATOM     14  C   UNL     1     -13.300 -30.971  -9.168  1.00  0.00     0.005 C 
ATOM     15  C   UNL     1     -13.997 -30.864 -10.512  1.00  0.00    -0.001 C 
ATOM     16  C   UNL     1     -15.949 -29.735 -11.605  1.00  0.00     0.007 C 
ATOM     17  C   UNL     1     -16.391 -31.035  -9.482  1.00  0.00     0.012 C 
ATOM     18  C   UNL     1     -14.010 -32.069 -11.482  1.00  0.00     0.000 C 
ATOM     19  C   UNL     1     -16.026 -30.925 -12.606  1.00  0.00     0.005 C 
ATOM     20  C   UNL     1     -14.648 -31.631 -12.832  1.00  0.00     0.003 C 
ATOM     21  C   UNL     1     -14.666 -33.351 -10.956  1.00  0.00     0.031 C 
ATOM     22  C   UNL     1     -14.613 -32.806 -13.913  1.00  0.00    -0.008 C 
ATOM     23  C   UNL     1     -14.543 -34.443 -11.965  1.00  0.00    -0.027 C 
ATOM     24  C   UNL     1     -14.589 -34.221 -13.295  1.00  0.00    -0.065 C 
ATOM     25  C   UNL     1     -13.292 -32.657 -14.737  1.00  0.00     0.014 C 
ATOM     26  C   UNL     1     -15.819 -32.703 -14.887  1.00  0.00     0.016 C 
ATOM     27  C   UNL     1     -14.350 -35.393 -14.226  1.00  0.00     0.063 C 
ATOM     28  C   UNL     1     -13.008 -33.823 -15.705  1.00  0.00     0.033 C 
ATOM     29  C   UNL     1     -13.029 -35.182 -14.981  1.00  0.00     0.118 C 
BRANCH  29  30
ATOM     30  O   UNL     1     -12.800 -36.231 -15.887  1.00  0.00    -0.393 OA
ATOM     31  H   UNL     1     -13.685 -36.565 -16.191  1.00  0.00     0.210 HD
ENDBRANCH  29  30
ENDBRANCH   9  11
ENDBRANCH   1   9
TORSDOF 7
ENDMDL
MODEL 5
REMARK VINA RESULT:     8.732      1.951      3.284
REMARK INTER + INTRA:          12.017
REMARK INTER:                  12.215
REMARK INTRA:                  -0.198
REMARK UNBOUND:                -0.033
REMARK SMILES CC[C@@H](CC[C@@H](C)[C@@H]1CC[C@H]2[C@H]3CC=C4C[C@@H](O)CC[C@]4(C)[C@H]3CC[C@@]21C)C(C)C
REMARK SMILES IDX 5 1 4 2 3 3 2 4 1 5 28 6 29 7 30 8 6 9 7 10 8 11 9 12 26 13
REMARK SMILES IDX 10 14 11 15 25 16 27 17 12 18 24 19 23 20 13 21 21 22 14 23
REMARK SMILES IDX 15 24 20 25 22 26 16 27 19 28 17 29 18 30
REMARK H PARENT 18 31
REMARK Flexibility Score: inf
ROOT
ATOM      1  C   UNL     1     -14.035 -28.070  -9.152  1.00  0.00     0.004 C 
ENDROOT
BRANCH   1   2
ATOM      2  C   UNL     1     -13.043 -26.959  -8.746  1.00  0.00     0.004 C 
BRANCH   2   3
ATOM      3  C   UNL     1     -13.550 -25.503  -8.954  1.00  0.00    -0.009 C 
BRANCH   3   4
ATOM      4  C   UNL     1     -13.815 -25.124 -10.439  1.00  0.00     0.000 C 
ATOM      5  C   UNL     1     -14.482 -26.243 -11.240  1.00  0.00     0.004 C 
ENDBRANCH   3   4
BRANCH   3   6
ATOM      6  C   UNL     1     -12.682 -24.446  -8.186  1.00  0.00    -0.014 C 
ATOM      7  C   UNL     1     -11.218 -24.487  -8.653  1.00  0.00     0.007 C 
ATOM      8  C   UNL     1     -12.729 -24.575  -6.652  1.00  0.00     0.007 C 
ENDBRANCH   3   6
ENDBRANCH   2   3
ENDBRANCH   1   2
BRANCH   1   9
ATOM      9  C   UNL     1     -13.349 -29.423  -9.504  1.00  0.00    -0.011 C 
ATOM     10  C   UNL     1     -12.007 -29.510  -8.741  1.00  0.00     0.008 C 
BRANCH   9  11
ATOM     11  C   UNL     1     -14.322 -30.647  -9.294  1.00  0.00    -0.002 C 
ATOM     12  C   UNL     1     -13.692 -31.848  -8.527  1.00  0.00     0.005 C 
ATOM     13  C   UNL     1     -14.987 -31.301 -10.559  1.00  0.00    -0.026 C 
ATOM     14  C   UNL     1     -13.679 -33.059  -9.479  1.00  0.00     0.005 C 
ATOM     15  C   UNL     1     -14.011 -32.458 -10.833  1.00  0.00    -0.001 C 
ATOM     16  C   UNL     1     -15.115 -30.452 -11.851  1.00  0.00     0.007 C 
ATOM     17  C   UNL     1     -16.424 -31.754 -10.125  1.00  0.00     0.012 C 
ATOM     18  C   UNL     1     -14.316 -33.376 -12.039  1.00  0.00     0.000 C 
ATOM     19  C   UNL     1     -15.466 -31.325 -13.091  1.00  0.00     0.005 C 
ATOM     20  C   UNL     1     -14.463 -32.504 -13.320  1.00  0.00     0.003 C 
ATOM     21  C   UNL     1     -15.511 -34.323 -11.881  1.00  0.00     0.031 C 
ATOM     22  C   UNL     1     -14.692 -33.398 -14.623  1.00  0.00    -0.008 C 
ATOM     23  C   UNL     1     -15.642 -35.192 -13.086  1.00  0.00    -0.027 C 
ATOM     24  C   UNL     1     -15.346 -34.767 -14.332  1.00  0.00    -0.065 C 
ATOM     25  C   UNL     1     -13.291 -33.698 -15.250  1.00  0.00     0.014 C 
ATOM     26  C   UNL     1     -15.553 -32.643 -15.673  1.00  0.00     0.016 C 
ATOM     27  C   UNL     1     -15.420 -35.769 -15.467  1.00  0.00     0.063 C 
ATOM     28  C   UNL     1     -13.315 -34.708 -16.415  1.00  0.00     0.033 C 
ATOM     29  C   UNL     1     -14.006 -36.024 -16.013  1.00  0.00     0.118 C 
BRANCH  29  30
ATOM     30  O   UNL     1     -14.045 -36.915 -17.099  1.00  0.00    -0.393 OA
ATOM     31  H   UNL     1     -14.819 -36.663 -17.668  1.00  0.00     0.210 HD
ENDBRANCH  29  30
ENDBRANCH   9  11
ENDBRANCH   1   9
TORSDOF 7
ENDMDL
