MODEL 1
REMARK VINA RESULT:    -3.270      0.000      0.000
REMARK INTER + INTRA:          -4.160
REMARK INTER:                  -3.939
REMARK INTRA:                  -0.222
REMARK UNBOUND:                -0.222
REMARK SMILES OCC(O)CO
REMARK SMILES IDX 3 1 5 2 6 3 2 5 1 6 4 8
REMARK H PARENT 6 4 1 7 4 9
REMARK Flexibility Score: inf
ROOT
ATOM      1  C   UNL     1      97.149 109.932  95.921  1.00  0.00     0.165 C 
ENDROOT
BRANCH   1   2
ATOM      2  C   UNL     1      96.913 111.361  96.437  1.00  0.00     0.190 C 
BRANCH   2   3
ATOM      3  O   UNL     1      97.841 111.694  97.435  1.00  0.00    -0.394 OA
ATOM      4  H   UNL     1      98.012 112.669  97.351  1.00  0.00     0.210 HD
ENDBRANCH   2   3
ENDBRANCH   1   2
BRANCH   1   5
ATOM      5  C   UNL     1      97.806 109.058  96.994  1.00  0.00     0.190 C 
BRANCH   5   6
ATOM      6  O   UNL     1      99.199 109.098  96.848  1.00  0.00    -0.394 OA
ATOM      7  H   UNL     1      99.408 108.553  96.046  1.00  0.00     0.210 HD
ENDBRANCH   5   6
ENDBRANCH   1   5
BRANCH   1   8
ATOM      8  O   UNL     1      95.922 109.358  95.551  1.00  0.00    -0.388 OA
ATOM      9  H   UNL     1      95.832 108.514  96.065  1.00  0.00     0.211 HD
ENDBRANCH   1   8
TORSDOF 5
ENDMDL
MODEL 2
REMARK VINA RESULT:    -3.245     17.718     18.934
REMARK INTER + INTRA:          -4.131
REMARK INTER:                  -3.909
REMARK INTRA:                  -0.222
REMARK UNBOUND:                -0.222
REMARK SMILES OCC(O)CO
REMARK SMILES IDX 3 1 5 2 6 3 2 5 1 6 4 8
REMARK H PARENT 6 4 1 7 4 9
REMARK Flexibility Score: inf
ROOT
ATOM      1  C   UNL     1     115.381 102.479  96.204  1.00  0.00     0.165 C 
ENDROOT
BRANCH   1   2
ATOM      2  C   UNL     1     114.320 103.228  97.028  1.00  0.00     0.190 C 
BRANCH   2   3
ATOM      3  O   UNL     1     113.060 103.151  96.414  1.00  0.00    -0.394 OA
ATOM      4  H   UNL     1     112.863 102.186  96.290  1.00  0.00     0.210 HD
ENDBRANCH   2   3
ENDBRANCH   1   2
BRANCH   1   5
ATOM      5  C   UNL     1     115.240 100.963  96.369  1.00  0.00     0.190 C 
BRANCH   5   6
ATOM      6  O   UNL     1     114.376 100.683  97.435  1.00  0.00    -0.394 OA
ATOM      7  H   UNL     1     113.455 100.762  97.073  1.00  0.00     0.210 HD
ENDBRANCH   5   6
ENDBRANCH   1   5
BRANCH   1   8
ATOM      8  O   UNL     1     115.237 102.807  94.846  1.00  0.00    -0.388 OA
ATOM      9  H   UNL     1     114.392 102.388  94.535  1.00  0.00     0.211 HD
ENDBRANCH   1   8
TORSDOF 5
ENDMDL
MODEL 3
REMARK VINA RESULT:    -3.233      0.703      2.367
REMARK INTER + INTRA:          -4.116
REMARK INTER:                  -3.898
REMARK INTRA:                  -0.218
REMARK UNBOUND:                -0.222
REMARK SMILES OCC(O)CO
REMARK SMILES IDX 3 1 5 2 6 3 2 5 1 6 4 8
REMARK H PARENT 6 4 1 7 4 9
REMARK Flexibility Score: inf
ROOT
ATOM      1  C   UNL     1      97.019 109.665  96.180  1.00  0.00     0.165 C 
ENDROOT
BRANCH   1   2
ATOM      2  C   UNL     1      98.011 109.048  97.181  1.00  0.00     0.190 C 
BRANCH   2   3
ATOM      3  O   UNL     1      99.320 109.087  96.679  1.00  0.00    -0.394 OA
ATOM      4  H   UNL     1      99.263 109.471  95.765  1.00  0.00     0.210 HD
ENDBRANCH   2   3
ENDBRANCH   1   2
BRANCH   1   5
ATOM      5  C   UNL     1      96.995 111.192  96.296  1.00  0.00     0.190 C 
BRANCH   5   6
ATOM      6  O   UNL     1      97.795 111.597  97.372  1.00  0.00    -0.394 OA
ATOM      7  H   UNL     1      98.732 111.567  97.046  1.00  0.00     0.210 HD
ENDBRANCH   5   6
ENDBRANCH   1   5
BRANCH   1   8
ATOM      8  O   UNL     1      97.390 109.310  94.873  1.00  0.00    -0.388 OA
ATOM      9  H   UNL     1      97.040 110.018  94.272  1.00  0.00     0.211 HD
ENDBRANCH   1   8
TORSDOF 5
ENDMDL
MODEL 4
REMARK VINA RESULT:    -3.196      1.411      2.167
REMARK INTER + INTRA:          -4.071
REMARK INTER:                  -3.848
REMARK INTRA:                  -0.224
REMARK UNBOUND:                -0.222
REMARK SMILES OCC(O)CO
REMARK SMILES IDX 3 1 5 2 6 3 2 5 1 6 4 8
REMARK H PARENT 6 4 1 7 4 9
REMARK Flexibility Score: inf
ROOT
ATOM      1  C   UNL     1      96.968 109.162  95.972  1.00  0.00     0.165 C 
ENDROOT
BRANCH   1   2
ATOM      2  C   UNL     1      97.881 108.959  94.752  1.00  0.00     0.190 C 
BRANCH   2   3
ATOM      3  O   UNL     1      99.206 109.312  95.052  1.00  0.00    -0.394 OA
ATOM      4  H   UNL     1      99.166 110.177  95.538  1.00  0.00     0.210 HD
ENDBRANCH   2   3
ENDBRANCH   1   2
BRANCH   1   5
ATOM      5  C   UNL     1      97.776 109.168  97.273  1.00  0.00     0.190 C 
BRANCH   5   6
ATOM      6  O   UNL     1      98.193 110.474  97.564  1.00  0.00    -0.394 OA
ATOM      7  H   UNL     1      98.788 110.746  96.818  1.00  0.00     0.210 HD
ENDBRANCH   5   6
ENDBRANCH   1   5
BRANCH   1   8
ATOM      8  O   UNL     1      96.287 110.384  95.850  1.00  0.00    -0.388 OA
ATOM      9  H   UNL     1      95.579 110.252  95.166  1.00  0.00     0.211 HD
ENDBRANCH   1   8
TORSDOF 5
ENDMDL
MODEL 5
REMARK VINA RESULT:    -3.190     17.802     18.693
REMARK INTER + INTRA:          -4.064
REMARK INTER:                  -3.844
REMARK INTRA:                  -0.220
REMARK UNBOUND:                -0.222
REMARK SMILES OCC(O)CO
REMARK SMILES IDX 3 1 5 2 6 3 2 5 1 6 4 8
REMARK H PARENT 6 4 1 7 4 9
REMARK Flexibility Score: inf
ROOT
ATOM      1  C   UNL     1     115.199 103.082  95.929  1.00  0.00     0.165 C 
ENDROOT
BRANCH   1   2
ATOM      2  C   UNL     1     114.294 103.262  94.698  1.00  0.00     0.190 C 
BRANCH   2   3
ATOM      3  O   UNL     1     112.984 102.840  94.972  1.00  0.00    -0.394 OA
ATOM      4  H   UNL     1     112.846 101.996  94.467  1.00  0.00     0.210 HD
ENDBRANCH   2   3
ENDBRANCH   1   2
BRANCH   1   5
ATOM      5  C   UNL     1     114.381 103.094  97.224  1.00  0.00     0.190 C 
BRANCH   5   6
ATOM      6  O   UNL     1     114.037 101.783  97.578  1.00  0.00    -0.394 OA
ATOM      7  H   UNL     1     114.480 101.193  96.914  1.00  0.00     0.210 HD
ENDBRANCH   5   6
ENDBRANCH   1   5
BRANCH   1   8
ATOM      8  O   UNL     1     115.884 101.860  95.831  1.00  0.00    -0.388 OA
ATOM      9  H   UNL     1     115.207 101.165  95.620  1.00  0.00     0.211 HD
ENDBRANCH   1   8
TORSDOF 5
ENDMDL
MODEL 6
REMARK VINA RESULT:    -3.187     17.049     18.372
REMARK INTER + INTRA:          -4.061
REMARK INTER:                  -3.843
REMARK INTRA:                  -0.218
REMARK UNBOUND:                -0.222
REMARK SMILES OCC(O)CO
REMARK SMILES IDX 3 1 5 2 6 3 2 5 1 6 4 8
REMARK H PARENT 6 4 1 7 4 9
REMARK Flexibility Score: inf
ROOT
ATOM      1  C   UNL     1     114.680 102.688  95.516  1.00  0.00     0.165 C 
ENDROOT
BRANCH   1   2
ATOM      2  C   UNL     1     114.557 103.038  97.008  1.00  0.00     0.190 C 
BRANCH   2   3
ATOM      3  O   UNL     1     113.902 102.016  97.712  1.00  0.00    -0.394 OA
ATOM      4  H   UNL     1     113.448 102.447  98.483  1.00  0.00     0.210 HD
ENDBRANCH   2   3
ENDBRANCH   1   2
BRANCH   1   5
ATOM      5  C   UNL     1     113.543 103.317  94.705  1.00  0.00     0.190 C 
BRANCH   5   6
ATOM      6  O   UNL     1     112.376 103.357  95.480  1.00  0.00    -0.394 OA
ATOM      7  H   UNL     1     112.033 104.286  95.415  1.00  0.00     0.210 HD
ENDBRANCH   5   6
ENDBRANCH   1   5
BRANCH   1   8
ATOM      8  O   UNL     1     115.908 103.157  95.023  1.00  0.00    -0.388 OA
ATOM      9  H   UNL     1     116.559 102.413  95.117  1.00  0.00     0.211 HD
ENDBRANCH   1   8
TORSDOF 5
ENDMDL
MODEL 7
REMARK VINA RESULT:    -3.134     18.687     19.284
REMARK INTER + INTRA:          -3.997
REMARK INTER:                  -3.777
REMARK INTRA:                  -0.220
REMARK UNBOUND:                -0.222
REMARK SMILES OCC(O)CO
REMARK SMILES IDX 3 1 5 2 6 3 2 5 1 6 4 8
REMARK H PARENT 6 4 1 7 4 9
REMARK Flexibility Score: inf
ROOT
ATOM      1  C   UNL     1     114.781 102.439  96.068  1.00  0.00     0.165 C 
ENDROOT
BRANCH   1   2
ATOM      2  C   UNL     1     115.212 101.010  96.440  1.00  0.00     0.190 C 
BRANCH   2   3
ATOM      3  O   UNL     1     114.386 100.480  97.442  1.00  0.00    -0.394 OA
ATOM      4  H   UNL     1     114.683  99.545  97.591  1.00  0.00     0.210 HD
ENDBRANCH   2   3
ENDBRANCH   1   2
BRANCH   1   5
ATOM      5  C   UNL     1     115.163 103.435  97.168  1.00  0.00     0.190 C 
BRANCH   5   6
ATOM      6  O   UNL     1     114.373 103.210  98.303  1.00  0.00    -0.394 OA
ATOM      7  H   UNL     1     115.004 103.025  99.046  1.00  0.00     0.210 HD
ENDBRANCH   5   6
ENDBRANCH   1   5
BRANCH   1   8
ATOM      8  O   UNL     1     115.405 102.819  94.869  1.00  0.00    -0.388 OA
ATOM      9  H   UNL     1     114.904 103.602  94.519  1.00  0.00     0.211 HD
ENDBRANCH   1   8
TORSDOF 5
ENDMDL
MODEL 8
REMARK VINA RESULT:    -3.031     18.275     19.320
REMARK INTER + INTRA:          -3.872
REMARK INTER:                  -3.658
REMARK INTRA:                  -0.215
REMARK UNBOUND:                -0.222
REMARK SMILES OCC(O)CO
REMARK SMILES IDX 3 1 5 2 6 3 2 5 1 6 4 8
REMARK H PARENT 6 4 1 7 4 9
REMARK Flexibility Score: inf
ROOT
ATOM      1  C   UNL     1     114.796 102.862  96.714  1.00  0.00     0.165 C 
ENDROOT
BRANCH   1   2
ATOM      2  C   UNL     1     116.125 102.099  96.584  1.00  0.00     0.190 C 
BRANCH   2   3
ATOM      3  O   UNL     1     115.941 100.877  95.919  1.00  0.00    -0.394 OA
ATOM      4  H   UNL     1     114.960 100.733  95.856  1.00  0.00     0.210 HD
ENDBRANCH   2   3
ENDBRANCH   1   2
BRANCH   1   5
ATOM      5  C   UNL     1     114.096 102.987  95.357  1.00  0.00     0.190 C 
BRANCH   5   6
ATOM      6  O   UNL     1     115.032 103.331  94.373  1.00  0.00    -0.394 OA
ATOM      7  H   UNL     1     115.925 103.237  94.797  1.00  0.00     0.210 HD
ENDBRANCH   5   6
ENDBRANCH   1   5
BRANCH   1   8
ATOM      8  O   UNL     1     113.950 102.182  97.605  1.00  0.00    -0.388 OA
ATOM      9  H   UNL     1     113.678 102.836  98.300  1.00  0.00     0.211 HD
ENDBRANCH   1   8
TORSDOF 5
ENDMDL
MODEL 9
REMARK VINA RESULT:    -3.030      1.269      2.045
REMARK INTER + INTRA:          -3.871
REMARK INTER:                  -3.869
REMARK INTRA:                  -0.002
REMARK UNBOUND:                -0.222
REMARK SMILES OCC(O)CO
REMARK SMILES IDX 3 1 5 2 6 3 2 5 1 6 4 8
REMARK H PARENT 6 4 1 7 4 9
REMARK Flexibility Score: inf
ROOT
ATOM      1  C   UNL     1      97.468 109.410  96.283  1.00  0.00     0.165 C 
ENDROOT
BRANCH   1   2
ATOM      2  C   UNL     1      97.008 110.871  96.420  1.00  0.00     0.190 C 
BRANCH   2   3
ATOM      3  O   UNL     1      97.758 111.545  97.396  1.00  0.00    -0.394 OA
ATOM      4  H   UNL     1      98.676 111.168  97.359  1.00  0.00     0.210 HD
ENDBRANCH   2   3
ENDBRANCH   1   2
BRANCH   1   5
ATOM      5  C   UNL     1      96.771 108.718  95.108  1.00  0.00     0.190 C 
BRANCH   5   6
ATOM      6  O   UNL     1      97.642 108.655  94.013  1.00  0.00    -0.394 OA
ATOM      7  H   UNL     1      98.553 108.542  94.391  1.00  0.00     0.210 HD
ENDBRANCH   5   6
ENDBRANCH   1   5
BRANCH   1   8
ATOM      8  O   UNL     1      98.857 109.373  96.078  1.00  0.00    -0.388 OA
ATOM      9  H   UNL     1      99.203 110.282  96.281  1.00  0.00     0.211 HD
ENDBRANCH   1   8
TORSDOF 5
ENDMDL
