MODEL 1
REMARK VINA RESULT:    -5.912      0.000      0.000
REMARK INTER + INTRA:          -6.659
REMARK INTER:                  -6.430
REMARK INTRA:                  -0.228
REMARK UNBOUND:                -0.228
REMARK SMILES CC(C)c1cc2c(cc1O)[C@@]1(C)CCCC(C)(C)[C@H]1CC2=O
REMARK SMILES IDX 4 1 9 2 8 3 7 4 6 5 5 6 21 7 22 8 20 9 19 10 11 11 13 12
REMARK SMILES IDX 14 13 15 14 16 15 17 16 18 17 12 18 2 19 1 20 3 21 10 22
REMARK H PARENT 10 23
REMARK Flexibility Score: inf
ROOT
ATOM      1  C   UNL     1     -21.160  22.712  38.640  1.00  0.00    -0.003 A 
ATOM      2  C   UNL     1     -21.565  22.034  37.474  1.00  0.00     0.119 A 
ATOM      3  C   UNL     1     -21.157  22.486  36.209  1.00  0.00     0.051 A 
ATOM      4  C   UNL     1     -20.207  23.523  36.075  1.00  0.00    -0.027 A 
ATOM      5  C   UNL     1     -19.956  24.315  37.204  1.00  0.00     0.022 A 
ATOM      6  C   UNL     1     -20.445  23.925  38.466  1.00  0.00     0.020 A 
ATOM      7  C   UNL     1     -19.136  25.532  37.093  1.00  0.00     0.163 C 
ATOM      8  O   UNL     1     -19.004  26.310  38.082  1.00  0.00    -0.294 OA
ATOM      9  C   UNL     1     -18.514  25.914  35.794  1.00  0.00     0.086 C 
ATOM     10  C   UNL     1     -18.183  24.691  34.879  1.00  0.00     0.013 C 
ATOM     11  C   UNL     1     -19.458  23.737  34.734  1.00  0.00    -0.003 C 
ATOM     12  C   UNL     1     -20.454  24.371  33.730  1.00  0.00     0.012 C 
ATOM     13  C   UNL     1     -19.813  24.652  32.372  1.00  0.00     0.001 C 
ATOM     14  C   UNL     1     -18.649  25.638  32.500  1.00  0.00     0.007 C 
ATOM     15  C   UNL     1     -17.544  25.170  33.492  1.00  0.00    -0.031 C 
ATOM     16  C   UNL     1     -16.675  24.057  32.825  1.00  0.00     0.011 C 
ATOM     17  C   UNL     1     -16.572  26.371  33.691  1.00  0.00     0.011 C 
ATOM     18  C   UNL     1     -19.024  22.316  34.252  1.00  0.00     0.017 C 
ENDROOT
BRANCH   1  19
ATOM     19  C   UNL     1     -21.172  21.991  40.009  1.00  0.00     0.017 C 
ATOM     20  C   UNL     1     -22.255  22.488  40.995  1.00  0.00     0.012 C 
ATOM     21  C   UNL     1     -19.819  21.960  40.749  1.00  0.00     0.012 C 
ENDBRANCH   1  19
BRANCH   2  22
ATOM     22  O   UNL     1     -22.319  20.861  37.537  1.00  0.00    -0.508 OA
ATOM     23  H   UNL     1     -23.280  20.847  37.221  1.00  0.00     0.293 HD
ENDBRANCH   2  22
TORSDOF 2
ENDMDL
MODEL 2
REMARK VINA RESULT:    -5.645      1.548      6.623
REMARK INTER + INTRA:          -6.368
REMARK INTER:                  -6.134
REMARK INTRA:                  -0.234
REMARK UNBOUND:                -0.228
REMARK SMILES CC(C)c1cc2c(cc1O)[C@@]1(C)CCCC(C)(C)[C@H]1CC2=O
REMARK SMILES IDX 4 1 9 2 8 3 7 4 6 5 5 6 21 7 22 8 20 9 19 10 11 11 13 12
REMARK SMILES IDX 14 13 15 14 16 15 17 16 18 17 12 18 2 19 1 20 3 21 10 22
REMARK H PARENT 10 23
REMARK Flexibility Score: inf
ROOT
ATOM      1  C   UNL     1     -19.410  23.960  34.598  1.00  0.00    -0.003 A 
ATOM      2  C   UNL     1     -18.969  25.064  35.354  1.00  0.00     0.119 A 
ATOM      3  C   UNL     1     -19.326  25.189  36.706  1.00  0.00     0.051 A 
ATOM      4  C   UNL     1     -19.993  24.146  37.386  1.00  0.00    -0.027 A 
ATOM      5  C   UNL     1     -20.595  23.150  36.604  1.00  0.00     0.022 A 
ATOM      6  C   UNL     1     -20.323  23.073  35.224  1.00  0.00     0.020 A 
ATOM      7  C   UNL     1     -21.473  22.146  37.224  1.00  0.00     0.163 C 
ATOM      8  O   UNL     1     -22.110  21.320  36.508  1.00  0.00    -0.294 OA
ATOM      9  C   UNL     1     -21.695  22.135  38.697  1.00  0.00     0.086 C 
ATOM     10  C   UNL     1     -20.483  22.688  39.513  1.00  0.00     0.013 C 
ATOM     11  C   UNL     1     -20.017  24.105  38.936  1.00  0.00    -0.003 C 
ATOM     12  C   UNL     1     -20.999  25.199  39.425  1.00  0.00     0.012 C 
ATOM     13  C   UNL     1     -21.123  25.233  40.948  1.00  0.00     0.001 C 
ATOM     14  C   UNL     1     -21.656  23.906  41.491  1.00  0.00     0.007 C 
ATOM     15  C   UNL     1     -20.795  22.674  41.083  1.00  0.00    -0.031 C 
ATOM     16  C   UNL     1     -19.493  22.633  41.945  1.00  0.00     0.011 C 
ATOM     17  C   UNL     1     -21.592  21.403  41.500  1.00  0.00     0.011 C 
ATOM     18  C   UNL     1     -18.560  24.429  39.398  1.00  0.00     0.017 C 
ENDROOT
BRANCH   1  19
ATOM     19  C   UNL     1     -18.662  23.545  33.309  1.00  0.00     0.017 C 
ATOM     20  C   UNL     1     -19.576  23.217  32.105  1.00  0.00     0.012 C 
ATOM     21  C   UNL     1     -17.649  22.395  33.477  1.00  0.00     0.012 C 
ENDBRANCH   1  19
BRANCH   2  22
ATOM     22  O   UNL     1     -18.111  26.023  34.813  1.00  0.00    -0.508 OA
ATOM     23  H   UNL     1     -17.989  26.920  35.265  1.00  0.00     0.293 HD
ENDBRANCH   2  22
TORSDOF 2
ENDMDL
MODEL 3
REMARK VINA RESULT:    -5.490     15.754     17.723
REMARK INTER + INTRA:          -6.200
REMARK INTER:                  -5.982
REMARK INTRA:                  -0.217
REMARK UNBOUND:                -0.228
REMARK SMILES CC(C)c1cc2c(cc1O)[C@@]1(C)CCCC(C)(C)[C@H]1CC2=O
REMARK SMILES IDX 4 1 9 2 8 3 7 4 6 5 5 6 21 7 22 8 20 9 19 10 11 11 13 12
REMARK SMILES IDX 14 13 15 14 16 15 17 16 18 17 12 18 2 19 1 20 3 21 10 22
REMARK H PARENT 10 23
REMARK Flexibility Score: inf
ROOT
ATOM      1  C   UNL     1      -7.566  32.559  46.521  1.00  0.00    -0.003 A 
ATOM      2  C   UNL     1      -6.785  31.875  47.472  1.00  0.00     0.119 A 
ATOM      3  C   UNL     1      -6.393  30.545  47.249  1.00  0.00     0.051 A 
ATOM      4  C   UNL     1      -6.629  29.912  46.008  1.00  0.00    -0.027 A 
ATOM      5  C   UNL     1      -7.561  30.510  45.148  1.00  0.00     0.022 A 
ATOM      6  C   UNL     1      -8.039  31.808  45.414  1.00  0.00     0.020 A 
ATOM      7  C   UNL     1      -8.008  29.812  43.933  1.00  0.00     0.163 C 
ATOM      8  O   UNL     1      -8.933  30.295  43.217  1.00  0.00    -0.294 OA
ATOM      9  C   UNL     1      -7.441  28.484  43.566  1.00  0.00     0.086 C 
ATOM     10  C   UNL     1      -5.974  28.275  44.063  1.00  0.00     0.013 C 
ATOM     11  C   UNL     1      -5.853  28.628  45.618  1.00  0.00    -0.003 C 
ATOM     12  C   UNL     1      -6.428  27.454  46.450  1.00  0.00     0.012 C 
ATOM     13  C   UNL     1      -5.751  26.123  46.128  1.00  0.00     0.001 C 
ATOM     14  C   UNL     1      -5.946  25.742  44.658  1.00  0.00     0.007 C 
ATOM     15  C   UNL     1      -5.434  26.823  43.661  1.00  0.00    -0.031 C 
ATOM     16  C   UNL     1      -3.875  26.772  43.584  1.00  0.00     0.011 C 
ATOM     17  C   UNL     1      -5.920  26.401  42.243  1.00  0.00     0.011 C 
ATOM     18  C   UNL     1      -4.362  28.893  46.002  1.00  0.00     0.017 C 
ENDROOT
BRANCH   1  19
ATOM     19  C   UNL     1      -7.594  34.105  46.497  1.00  0.00     0.017 C 
ATOM     20  C   UNL     1      -8.750  34.722  45.674  1.00  0.00     0.012 C 
ATOM     21  C   UNL     1      -6.277  34.781  46.065  1.00  0.00     0.012 C 
ENDBRANCH   1  19
BRANCH   2  22
ATOM     22  O   UNL     1      -6.315  32.509  48.623  1.00  0.00    -0.508 OA
ATOM     23  H   UNL     1      -5.918  33.439  48.575  1.00  0.00     0.293 HD
ENDBRANCH   2  22
TORSDOF 2
ENDMDL
MODEL 4
REMARK VINA RESULT:    -5.356     16.165     18.035
REMARK INTER + INTRA:          -6.054
REMARK INTER:                  -5.819
REMARK INTRA:                  -0.235
REMARK UNBOUND:                -0.228
REMARK SMILES CC(C)c1cc2c(cc1O)[C@@]1(C)CCCC(C)(C)[C@H]1CC2=O
REMARK SMILES IDX 4 1 9 2 8 3 7 4 6 5 5 6 21 7 22 8 20 9 19 10 11 11 13 12
REMARK SMILES IDX 14 13 15 14 16 15 17 16 18 17 12 18 2 19 1 20 3 21 10 22
REMARK H PARENT 10 23
REMARK Flexibility Score: inf
ROOT
ATOM      1  C   UNL     1      -5.395  26.582  44.657  1.00  0.00    -0.003 A 
ATOM      2  C   UNL     1      -6.002  26.717  45.921  1.00  0.00     0.119 A 
ATOM      3  C   UNL     1      -6.189  27.987  46.489  1.00  0.00     0.051 A 
ATOM      4  C   UNL     1      -5.927  29.164  45.753  1.00  0.00    -0.027 A 
ATOM      5  C   UNL     1      -5.153  29.036  44.591  1.00  0.00     0.022 A 
ATOM      6  C   UNL     1      -4.872  27.760  44.063  1.00  0.00     0.020 A 
ATOM      7  C   UNL     1      -4.670  30.231  43.882  1.00  0.00     0.163 C 
ATOM      8  O   UNL     1      -3.876  30.121  42.903  1.00  0.00    -0.294 OA
ATOM      9  C   UNL     1      -5.040  31.596  44.353  1.00  0.00     0.086 C 
ATOM     10  C   UNL     1      -6.424  31.651  45.076  1.00  0.00     0.013 C 
ATOM     11  C   UNL     1      -6.511  30.526  46.209  1.00  0.00    -0.003 C 
ATOM     12  C   UNL     1      -5.709  30.994  47.450  1.00  0.00     0.012 C 
ATOM     13  C   UNL     1      -6.184  32.348  47.975  1.00  0.00     0.001 C 
ATOM     14  C   UNL     1      -6.015  33.443  46.918  1.00  0.00     0.007 C 
ATOM     15  C   UNL     1      -6.748  33.135  45.579  1.00  0.00    -0.031 C 
ATOM     16  C   UNL     1      -8.281  33.380  45.750  1.00  0.00     0.011 C 
ATOM     17  C   UNL     1      -6.283  34.206  44.549  1.00  0.00     0.011 C 
ATOM     18  C   UNL     1      -8.000  30.250  46.590  1.00  0.00     0.017 C 
ENDROOT
BRANCH   1  19
ATOM     19  C   UNL     1      -5.614  25.303  43.816  1.00  0.00     0.017 C 
ATOM     20  C   UNL     1      -4.340  24.741  43.143  1.00  0.00     0.012 C 
ATOM     21  C   UNL     1      -6.724  25.398  42.750  1.00  0.00     0.012 C 
ENDBRANCH   1  19
BRANCH   2  22
ATOM     22  O   UNL     1      -6.500  25.612  46.613  1.00  0.00    -0.508 OA
ATOM     23  H   UNL     1      -7.368  25.174  46.332  1.00  0.00     0.293 HD
ENDBRANCH   2  22
TORSDOF 2
ENDMDL
MODEL 5
REMARK VINA RESULT:    -5.320     16.725     18.623
REMARK INTER + INTRA:          -6.015
REMARK INTER:                  -5.792
REMARK INTRA:                  -0.224
REMARK UNBOUND:                -0.228
REMARK SMILES CC(C)c1cc2c(cc1O)[C@@]1(C)CCCC(C)(C)[C@H]1CC2=O
REMARK SMILES IDX 4 1 9 2 8 3 7 4 6 5 5 6 21 7 22 8 20 9 19 10 11 11 13 12
REMARK SMILES IDX 14 13 15 14 16 15 17 16 18 17 12 18 2 19 1 20 3 21 10 22
REMARK H PARENT 10 23
REMARK Flexibility Score: inf
ROOT
ATOM      1  C   UNL     1      -6.289  32.934  47.783  1.00  0.00    -0.003 A 
ATOM      2  C   UNL     1      -4.940  32.532  47.721  1.00  0.00     0.119 A 
ATOM      3  C   UNL     1      -4.576  31.358  47.044  1.00  0.00     0.051 A 
ATOM      4  C   UNL     1      -5.516  30.637  46.273  1.00  0.00    -0.027 A 
ATOM      5  C   UNL     1      -6.873  30.917  46.488  1.00  0.00     0.022 A 
ATOM      6  C   UNL     1      -7.253  32.038  47.252  1.00  0.00     0.020 A 
ATOM      7  C   UNL     1      -7.913  30.075  45.877  1.00  0.00     0.163 C 
ATOM      8  O   UNL     1      -9.133  30.253  46.162  1.00  0.00    -0.294 OA
ATOM      9  C   UNL     1      -7.546  28.946  44.976  1.00  0.00     0.086 C 
ATOM     10  C   UNL     1      -6.207  29.176  44.205  1.00  0.00     0.013 C 
ATOM     11  C   UNL     1      -5.044  29.607  45.214  1.00  0.00    -0.003 C 
ATOM     12  C   UNL     1      -4.534  28.352  45.967  1.00  0.00     0.012 C 
ATOM     13  C   UNL     1      -4.064  27.253  45.016  1.00  0.00     0.001 C 
ATOM     14  C   UNL     1      -5.203  26.777  44.111  1.00  0.00     0.007 C 
ATOM     15  C   UNL     1      -5.857  27.919  43.278  1.00  0.00    -0.031 C 
ATOM     16  C   UNL     1      -4.922  28.303  42.088  1.00  0.00     0.011 C 
ATOM     17  C   UNL     1      -7.131  27.324  42.611  1.00  0.00     0.011 C 
ATOM     18  C   UNL     1      -3.875  30.294  44.438  1.00  0.00     0.017 C 
ENDROOT
BRANCH   1  19
ATOM     19  C   UNL     1      -6.654  34.408  48.073  1.00  0.00     0.017 C 
ATOM     20  C   UNL     1      -6.914  34.732  49.563  1.00  0.00     0.012 C 
ATOM     21  C   UNL     1      -7.825  34.972  47.244  1.00  0.00     0.012 C 
ENDBRANCH   1  19
BRANCH   2  22
ATOM     22  O   UNL     1      -3.920  33.316  48.263  1.00  0.00    -0.508 OA
ATOM     23  H   UNL     1      -3.947  33.599  49.234  1.00  0.00     0.293 HD
ENDBRANCH   2  22
TORSDOF 2
ENDMDL
MODEL 6
REMARK VINA RESULT:    -5.240     14.056     15.981
REMARK INTER + INTRA:          -5.928
REMARK INTER:                  -5.700
REMARK INTRA:                  -0.228
REMARK UNBOUND:                -0.228
REMARK SMILES CC(C)c1cc2c(cc1O)[C@@]1(C)CCCC(C)(C)[C@H]1CC2=O
REMARK SMILES IDX 4 1 9 2 8 3 7 4 6 5 5 6 21 7 22 8 20 9 19 10 11 11 13 12
REMARK SMILES IDX 14 13 15 14 16 15 17 16 18 17 12 18 2 19 1 20 3 21 10 22
REMARK H PARENT 10 23
REMARK Flexibility Score: inf
ROOT
ATOM      1  C   UNL     1     -10.163  28.230  42.421  1.00  0.00    -0.003 A 
ATOM      2  C   UNL     1     -10.222  27.806  43.763  1.00  0.00     0.119 A 
ATOM      3  C   UNL     1      -9.143  28.039  44.631  1.00  0.00     0.051 A 
ATOM      4  C   UNL     1      -8.047  28.838  44.237  1.00  0.00    -0.027 A 
ATOM      5  C   UNL     1      -7.895  29.091  42.867  1.00  0.00     0.022 A 
ATOM      6  C   UNL     1      -8.932  28.771  41.968  1.00  0.00     0.020 A 
ATOM      7  C   UNL     1      -6.677  29.742  42.360  1.00  0.00     0.163 C 
ATOM      8  O   UNL     1      -6.485  29.866  41.116  1.00  0.00    -0.294 OA
ATOM      9  C   UNL     1      -5.609  30.191  43.297  1.00  0.00     0.086 C 
ATOM     10  C   UNL     1      -6.146  30.585  44.710  1.00  0.00     0.013 C 
ATOM     11  C   UNL     1      -7.082  29.430  45.297  1.00  0.00    -0.003 C 
ATOM     12  C   UNL     1      -6.192  28.276  45.826  1.00  0.00     0.012 C 
ATOM     13  C   UNL     1      -5.178  28.751  46.865  1.00  0.00     0.001 C 
ATOM     14  C   UNL     1      -4.224  29.792  46.274  1.00  0.00     0.007 C 
ATOM     15  C   UNL     1      -4.949  31.032  45.673  1.00  0.00    -0.031 C 
ATOM     16  C   UNL     1      -5.435  31.967  46.827  1.00  0.00     0.011 C 
ATOM     17  C   UNL     1      -3.875  31.862  44.910  1.00  0.00     0.011 C 
ATOM     18  C   UNL     1      -7.988  29.990  46.440  1.00  0.00     0.017 C 
ENDROOT
BRANCH   1  19
ATOM     19  C   UNL     1     -11.462  28.431  41.605  1.00  0.00     0.017 C 
ATOM     20  C   UNL     1     -11.780  27.299  40.600  1.00  0.00     0.012 C 
ATOM     21  C   UNL     1     -11.574  29.780  40.869  1.00  0.00     0.012 C 
ENDBRANCH   1  19
BRANCH   2  22
ATOM     22  O   UNL     1     -11.369  27.211  44.291  1.00  0.00    -0.508 OA
ATOM     23  H   UNL     1     -12.268  27.335  43.842  1.00  0.00     0.293 HD
ENDBRANCH   2  22
TORSDOF 2
ENDMDL
MODEL 7
REMARK VINA RESULT:    -5.206      5.017      7.534
REMARK INTER + INTRA:          -5.891
REMARK INTER:                  -5.687
REMARK INTRA:                  -0.204
REMARK UNBOUND:                -0.228
REMARK SMILES CC(C)c1cc2c(cc1O)[C@@]1(C)CCCC(C)(C)[C@H]1CC2=O
REMARK SMILES IDX 4 1 9 2 8 3 7 4 6 5 5 6 21 7 22 8 20 9 19 10 11 11 13 12
REMARK SMILES IDX 14 13 15 14 16 15 17 16 18 17 12 18 2 19 1 20 3 21 10 22
REMARK H PARENT 10 23
REMARK Flexibility Score: inf
ROOT
ATOM      1  C   UNL     1     -21.172  22.624  40.935  1.00  0.00    -0.003 A 
ATOM      2  C   UNL     1     -20.951  23.440  39.808  1.00  0.00     0.119 A 
ATOM      3  C   UNL     1     -21.464  24.747  39.763  1.00  0.00     0.051 A 
ATOM      4  C   UNL     1     -22.071  25.334  40.897  1.00  0.00    -0.027 A 
ATOM      5  C   UNL     1     -22.460  24.475  41.934  1.00  0.00     0.022 A 
ATOM      6  C   UNL     1     -22.034  23.132  41.941  1.00  0.00     0.020 A 
ATOM      7  C   UNL     1     -23.272  24.979  43.052  1.00  0.00     0.163 C 
ATOM      8  O   UNL     1     -23.724  24.185  43.928  1.00  0.00    -0.294 OA
ATOM      9  C   UNL     1     -23.649  26.419  43.130  1.00  0.00     0.086 C 
ATOM     10  C   UNL     1     -22.607  27.372  42.461  1.00  0.00     0.013 C 
ATOM     11  C   UNL     1     -22.256  26.871  40.984  1.00  0.00    -0.003 C 
ATOM     12  C   UNL     1     -23.410  27.265  40.027  1.00  0.00     0.012 C 
ATOM     13  C   UNL     1     -23.700  28.764  40.050  1.00  0.00     0.001 C 
ATOM     14  C   UNL     1     -24.125  29.226  41.446  1.00  0.00     0.007 C 
ATOM     15  C   UNL     1     -23.083  28.897  42.556  1.00  0.00    -0.031 C 
ATOM     16  C   UNL     1     -21.886  29.896  42.466  1.00  0.00     0.011 C 
ATOM     17  C   UNL     1     -23.761  29.205  43.923  1.00  0.00     0.011 C 
ATOM     18  C   UNL     1     -20.907  27.495  40.503  1.00  0.00     0.017 C 
ENDROOT
BRANCH   1  19
ATOM     19  C   UNL     1     -20.246  21.420  41.222  1.00  0.00     0.017 C 
ATOM     20  C   UNL     1     -20.776  20.432  42.288  1.00  0.00     0.012 C 
ATOM     21  C   UNL     1     -18.789  21.779  41.577  1.00  0.00     0.012 C 
ENDBRANCH   1  19
BRANCH   2  22
ATOM     22  O   UNL     1     -20.162  23.011  38.739  1.00  0.00    -0.508 OA
ATOM     23  H   UNL     1     -20.387  23.283  37.791  1.00  0.00     0.293 HD
ENDBRANCH   2  22
TORSDOF 2
ENDMDL
MODEL 8
REMARK VINA RESULT:    -5.095     12.667     14.395
REMARK INTER + INTRA:          -5.771
REMARK INTER:                  -5.605
REMARK INTRA:                  -0.166
REMARK UNBOUND:                -0.228
REMARK SMILES CC(C)c1cc2c(cc1O)[C@@]1(C)CCCC(C)(C)[C@H]1CC2=O
REMARK SMILES IDX 4 1 9 2 8 3 7 4 6 5 5 6 21 7 22 8 20 9 19 10 11 11 13 12
REMARK SMILES IDX 14 13 15 14 16 15 17 16 18 17 12 18 2 19 1 20 3 21 10 22
REMARK H PARENT 10 23
REMARK Flexibility Score: inf
ROOT
ATOM      1  C   UNL     1      -6.975  29.164  45.436  1.00  0.00    -0.003 A 
ATOM      2  C   UNL     1      -8.291  29.655  45.541  1.00  0.00     0.119 A 
ATOM      3  C   UNL     1      -9.270  29.274  44.610  1.00  0.00     0.051 A 
ATOM      4  C   UNL     1      -9.013  28.272  43.647  1.00  0.00    -0.027 A 
ATOM      5  C   UNL     1      -7.672  27.930  43.417  1.00  0.00     0.022 A 
ATOM      6  C   UNL     1      -6.665  28.389  44.289  1.00  0.00     0.020 A 
ATOM      7  C   UNL     1      -7.311  27.048  42.298  1.00  0.00     0.163 C 
ATOM      8  O   UNL     1      -6.096  26.831  42.017  1.00  0.00    -0.294 OA
ATOM      9  C   UNL     1      -8.363  26.459  41.422  1.00  0.00     0.086 C 
ATOM     10  C   UNL     1      -9.726  26.236  42.152  1.00  0.00     0.013 C 
ATOM     11  C   UNL     1     -10.182  27.568  42.911  1.00  0.00    -0.003 C 
ATOM     12  C   UNL     1     -10.761  28.567  41.877  1.00  0.00     0.012 C 
ATOM     13  C   UNL     1     -11.911  27.968  41.069  1.00  0.00     0.001 C 
ATOM     14  C   UNL     1     -11.451  26.745  40.271  1.00  0.00     0.007 C 
ATOM     15  C   UNL     1     -10.818  25.628  41.152  1.00  0.00    -0.031 C 
ATOM     16  C   UNL     1     -11.945  24.853  41.907  1.00  0.00     0.011 C 
ATOM     17  C   UNL     1     -10.192  24.583  40.183  1.00  0.00     0.011 C 
ATOM     18  C   UNL     1     -11.243  27.236  44.007  1.00  0.00     0.017 C 
ENDROOT
BRANCH   1  19
ATOM     19  C   UNL     1      -6.039  29.161  46.668  1.00  0.00     0.017 C 
ATOM     20  C   UNL     1      -5.338  30.509  46.955  1.00  0.00     0.012 C 
ATOM     21  C   UNL     1      -4.974  28.047  46.683  1.00  0.00     0.012 C 
ENDBRANCH   1  19
BRANCH   2  22
ATOM     22  O   UNL     1      -8.682  30.471  46.604  1.00  0.00    -0.508 OA
ATOM     23  H   UNL     1      -8.244  30.381  47.512  1.00  0.00     0.293 HD
ENDBRANCH   2  22
TORSDOF 2
ENDMDL
MODEL 9
REMARK VINA RESULT:    -5.006     14.065     15.917
REMARK INTER + INTRA:          -5.674
REMARK INTER:                  -5.484
REMARK INTRA:                  -0.189
REMARK UNBOUND:                -0.228
REMARK SMILES CC(C)c1cc2c(cc1O)[C@@]1(C)CCCC(C)(C)[C@H]1CC2=O
REMARK SMILES IDX 4 1 9 2 8 3 7 4 6 5 5 6 21 7 22 8 20 9 19 10 11 11 13 12
REMARK SMILES IDX 14 13 15 14 16 15 17 16 18 17 12 18 2 19 1 20 3 21 10 22
REMARK H PARENT 10 23
REMARK Flexibility Score: inf
ROOT
ATOM      1  C   UNL     1      -7.230  32.077  46.586  1.00  0.00    -0.003 A 
ATOM      2  C   UNL     1      -7.241  30.712  46.937  1.00  0.00     0.119 A 
ATOM      3  C   UNL     1      -7.887  29.772  46.119  1.00  0.00     0.051 A 
ATOM      4  C   UNL     1      -8.400  30.133  44.853  1.00  0.00    -0.027 A 
ATOM      5  C   UNL     1      -8.563  31.501  44.592  1.00  0.00     0.022 A 
ATOM      6  C   UNL     1      -8.004  32.459  45.461  1.00  0.00     0.020 A 
ATOM      7  C   UNL     1      -9.273  31.949  43.384  1.00  0.00     0.163 C 
ATOM      8  O   UNL     1      -9.525  33.176  43.205  1.00  0.00    -0.294 OA
ATOM      9  C   UNL     1      -9.782  30.962  42.391  1.00  0.00     0.086 C 
ATOM     10  C   UNL     1      -8.938  29.649  42.330  1.00  0.00     0.013 C 
ATOM     11  C   UNL     1      -8.729  29.047  43.797  1.00  0.00    -0.003 C 
ATOM     12  C   UNL     1     -10.031  28.332  44.241  1.00  0.00     0.012 C 
ATOM     13  C   UNL     1     -10.468  27.251  43.255  1.00  0.00     0.001 C 
ATOM     14  C   UNL     1     -10.756  27.843  41.873  1.00  0.00     0.007 C 
ATOM     15  C   UNL     1      -9.552  28.623  41.266  1.00  0.00    -0.031 C 
ATOM     16  C   UNL     1      -8.485  27.613  40.735  1.00  0.00     0.011 C 
ATOM     17  C   UNL     1     -10.077  29.356  39.997  1.00  0.00     0.011 C 
ATOM     18  C   UNL     1      -7.525  28.052  43.812  1.00  0.00     0.017 C 
ENDROOT
BRANCH   1  19
ATOM     19  C   UNL     1      -6.156  33.026  47.167  1.00  0.00     0.017 C 
ATOM     20  C   UNL     1      -6.496  33.622  48.553  1.00  0.00     0.012 C 
ATOM     21  C   UNL     1      -5.722  34.177  46.237  1.00  0.00     0.012 C 
ENDBRANCH   1  19
BRANCH   2  22
ATOM     22  O   UNL     1      -6.556  30.242  48.058  1.00  0.00    -0.508 OA
ATOM     23  H   UNL     1      -6.648  29.278  48.353  1.00  0.00     0.293 HD
ENDBRANCH   2  22
TORSDOF 2
ENDMDL
