MODEL 1
REMARK VINA RESULT:    -5.968      0.000      0.000
REMARK INTER + INTRA:          -6.413
REMARK INTER:                  -6.317
REMARK INTRA:                  -0.096
REMARK UNBOUND:                -0.096
REMARK SMILES C=C(C)[C@H]1CC=C(C)C(=O)C1
REMARK SMILES IDX 8 1 7 2 6 3 5 4 4 5 11 6 9 7 10 8 2 9 1 10 3 11
REMARK H PARENT
REMARK Flexibility Score: inf
ROOT
ATOM      1  C   UNL     1      -8.934  35.112  43.010  1.00  0.00     0.048 C 
ATOM      2  C   UNL     1      -8.605  33.650  42.887  1.00  0.00    -0.012 C 
ATOM      3  C   UNL     1      -8.972  32.797  43.859  1.00  0.00    -0.019 C 
ATOM      4  C   UNL     1      -8.652  31.328  43.794  1.00  0.00     0.036 C 
ATOM      5  C   UNL     1      -8.648  30.823  42.339  1.00  0.00     0.025 C 
ATOM      6  C   UNL     1      -7.685  31.669  41.484  1.00  0.00     0.089 C 
ATOM      7  C   UNL     1      -7.986  33.133  41.641  1.00  0.00     0.158 C 
ATOM      8  O   UNL     1      -7.672  33.927  40.712  1.00  0.00    -0.295 OA
ENDROOT
BRANCH   5   9
ATOM      9  C   UNL     1      -8.315  29.339  42.258  1.00  0.00    -0.077 C 
ATOM     10  C   UNL     1      -7.807  28.678  43.311  1.00  0.00     0.008 C 
ATOM     11  C   UNL     1      -8.557  28.580  40.978  1.00  0.00     0.039 C 
ENDBRANCH   5   9
TORSDOF 1
ENDMDL
MODEL 2
REMARK VINA RESULT:    -5.909      1.621      4.231
REMARK INTER + INTRA:          -6.351
REMARK INTER:                  -6.257
REMARK INTRA:                  -0.094
REMARK UNBOUND:                -0.096
REMARK SMILES C=C(C)[C@H]1CC=C(C)C(=O)C1
REMARK SMILES IDX 8 1 7 2 6 3 5 4 4 5 11 6 9 7 10 8 2 9 1 10 3 11
REMARK H PARENT
REMARK Flexibility Score: inf
ROOT
ATOM      1  C   UNL     1      -7.865  28.495  43.369  1.00  0.00     0.048 C 
ATOM      2  C   UNL     1      -8.263  29.901  43.012  1.00  0.00    -0.012 C 
ATOM      3  C   UNL     1      -8.570  30.776  43.984  1.00  0.00    -0.019 C 
ATOM      4  C   UNL     1      -8.991  32.190  43.682  1.00  0.00     0.036 C 
ATOM      5  C   UNL     1      -8.296  32.717  42.412  1.00  0.00     0.025 C 
ATOM      6  C   UNL     1      -8.553  31.765  41.229  1.00  0.00     0.089 C 
ATOM      7  C   UNL     1      -8.197  30.352  41.600  1.00  0.00     0.158 C 
ATOM      8  O   UNL     1      -7.875  29.541  40.689  1.00  0.00    -0.295 OA
ENDROOT
BRANCH   5   9
ATOM      9  C   UNL     1      -8.721  34.143  42.088  1.00  0.00    -0.077 C 
ATOM     10  C   UNL     1      -8.625  35.125  43.000  1.00  0.00     0.008 C 
ATOM     11  C   UNL     1      -9.260  34.479  40.721  1.00  0.00     0.039 C 
ENDBRANCH   5   9
TORSDOF 1
ENDMDL
MODEL 3
REMARK VINA RESULT:    -5.756      1.754      4.440
REMARK INTER + INTRA:          -6.189
REMARK INTER:                  -6.097
REMARK INTRA:                  -0.092
REMARK UNBOUND:                -0.096
REMARK SMILES C=C(C)[C@H]1CC=C(C)C(=O)C1
REMARK SMILES IDX 8 1 7 2 6 3 5 4 4 5 11 6 9 7 10 8 2 9 1 10 3 11
REMARK H PARENT
REMARK Flexibility Score: inf
ROOT
ATOM      1  C   UNL     1      -8.655  27.900  39.619  1.00  0.00     0.048 C 
ATOM      2  C   UNL     1      -8.614  29.212  40.353  1.00  0.00    -0.012 C 
ATOM      3  C   UNL     1      -8.363  29.231  41.674  1.00  0.00    -0.019 C 
ATOM      4  C   UNL     1      -8.329  30.514  42.460  1.00  0.00     0.036 C 
ATOM      5  C   UNL     1      -7.813  31.682  41.598  1.00  0.00     0.025 C 
ATOM      6  C   UNL     1      -8.653  31.807  40.312  1.00  0.00     0.089 C 
ATOM      7  C   UNL     1      -8.730  30.485  39.600  1.00  0.00     0.158 C 
ATOM      8  O   UNL     1      -8.931  30.469  38.355  1.00  0.00    -0.295 OA
ENDROOT
BRANCH   5   9
ATOM      9  C   UNL     1      -7.783  32.989  42.378  1.00  0.00    -0.077 C 
ATOM     10  C   UNL     1      -6.862  33.934  42.124  1.00  0.00     0.008 C 
ATOM     11  C   UNL     1      -8.800  33.247  43.460  1.00  0.00     0.039 C 
ENDBRANCH   5   9
TORSDOF 1
ENDMDL
MODEL 4
REMARK VINA RESULT:    -5.751      1.451      2.082
REMARK INTER + INTRA:          -6.183
REMARK INTER:                  -6.090
REMARK INTRA:                  -0.094
REMARK UNBOUND:                -0.096
REMARK SMILES C=C(C)[C@H]1CC=C(C)C(=O)C1
REMARK SMILES IDX 8 1 7 2 6 3 5 4 4 5 11 6 9 7 10 8 2 9 1 10 3 11
REMARK H PARENT
REMARK Flexibility Score: inf
ROOT
ATOM      1  C   UNL     1      -8.622  35.084  42.990  1.00  0.00     0.048 C 
ATOM      2  C   UNL     1      -8.615  33.599  42.751  1.00  0.00    -0.012 C 
ATOM      3  C   UNL     1      -7.942  33.094  41.703  1.00  0.00    -0.019 C 
ATOM      4  C   UNL     1      -7.915  31.618  41.408  1.00  0.00     0.036 C 
ATOM      5  C   UNL     1      -7.982  30.791  42.706  1.00  0.00     0.025 C 
ATOM      6  C   UNL     1      -9.213  31.199  43.536  1.00  0.00     0.089 C 
ATOM      7  C   UNL     1      -9.245  32.688  43.738  1.00  0.00     0.158 C 
ATOM      8  O   UNL     1      -9.848  33.158  44.741  1.00  0.00    -0.295 OA
ENDROOT
BRANCH   5   9
ATOM      9  C   UNL     1      -7.966  29.294  42.422  1.00  0.00    -0.077 C 
ATOM     10  C   UNL     1      -7.608  28.408  43.365  1.00  0.00     0.008 C 
ATOM     11  C   UNL     1      -8.360  28.779  41.061  1.00  0.00     0.039 C 
ENDBRANCH   5   9
TORSDOF 1
ENDMDL
MODEL 5
REMARK VINA RESULT:    -5.725      1.950      4.514
REMARK INTER + INTRA:          -6.156
REMARK INTER:                  -6.059
REMARK INTRA:                  -0.097
REMARK UNBOUND:                -0.096
REMARK SMILES C=C(C)[C@H]1CC=C(C)C(=O)C1
REMARK SMILES IDX 8 1 7 2 6 3 5 4 4 5 11 6 9 7 10 8 2 9 1 10 3 11
REMARK H PARENT
REMARK Flexibility Score: inf
ROOT
ATOM      1  C   UNL     1      -7.874  28.573  43.255  1.00  0.00     0.048 C 
ATOM      2  C   UNL     1      -7.965  30.006  42.810  1.00  0.00    -0.012 C 
ATOM      3  C   UNL     1      -8.252  30.292  41.528  1.00  0.00    -0.019 C 
ATOM      4  C   UNL     1      -8.338  31.708  41.026  1.00  0.00     0.036 C 
ATOM      5  C   UNL     1      -8.857  32.657  42.123  1.00  0.00     0.025 C 
ATOM      6  C   UNL     1      -7.985  32.537  43.388  1.00  0.00     0.089 C 
ATOM      7  C   UNL     1      -7.858  31.099  43.808  1.00  0.00     0.158 C 
ATOM      8  O   UNL     1      -7.623  30.832  45.018  1.00  0.00    -0.295 OA
ENDROOT
BRANCH   5   9
ATOM      9  C   UNL     1      -8.939  34.096  41.632  1.00  0.00    -0.077 C 
ATOM     10  C   UNL     1      -8.590  35.125  42.422  1.00  0.00     0.008 C 
ATOM     11  C   UNL     1      -9.418  34.391  40.234  1.00  0.00     0.039 C 
ENDBRANCH   5   9
TORSDOF 1
ENDMDL
MODEL 6
REMARK VINA RESULT:    -5.724      2.072      4.747
REMARK INTER + INTRA:          -6.155
REMARK INTER:                  -6.061
REMARK INTRA:                  -0.094
REMARK UNBOUND:                -0.096
REMARK SMILES C=C(C)[C@H]1CC=C(C)C(=O)C1
REMARK SMILES IDX 8 1 7 2 6 3 5 4 4 5 11 6 9 7 10 8 2 9 1 10 3 11
REMARK H PARENT
REMARK Flexibility Score: inf
ROOT
ATOM      1  C   UNL     1      -9.013  27.983  40.352  1.00  0.00     0.048 C 
ATOM      2  C   UNL     1      -8.608  29.336  40.871  1.00  0.00    -0.012 C 
ATOM      3  C   UNL     1      -8.661  30.406  40.059  1.00  0.00    -0.019 C 
ATOM      4  C   UNL     1      -8.251  31.778  40.521  1.00  0.00     0.036 C 
ATOM      5  C   UNL     1      -8.559  31.976  42.017  1.00  0.00     0.025 C 
ATOM      6  C   UNL     1      -7.901  30.859  42.850  1.00  0.00     0.089 C 
ATOM      7  C   UNL     1      -8.270  29.507  42.305  1.00  0.00     0.158 C 
ATOM      8  O   UNL     1      -8.253  28.510  43.077  1.00  0.00    -0.295 OA
ENDROOT
BRANCH   5   9
ATOM      9  C   UNL     1      -8.140  33.358  42.501  1.00  0.00    -0.077 C 
ATOM     10  C   UNL     1      -6.997  33.928  42.084  1.00  0.00     0.008 C 
ATOM     11  C   UNL     1      -9.013  34.118  43.467  1.00  0.00     0.039 C 
ENDBRANCH   5   9
TORSDOF 1
ENDMDL
MODEL 7
REMARK VINA RESULT:    -5.581      1.908      3.939
REMARK INTER + INTRA:          -6.003
REMARK INTER:                  -5.906
REMARK INTRA:                  -0.097
REMARK UNBOUND:                -0.096
REMARK SMILES C=C(C)[C@H]1CC=C(C)C(=O)C1
REMARK SMILES IDX 8 1 7 2 6 3 5 4 4 5 11 6 9 7 10 8 2 9 1 10 3 11
REMARK H PARENT
REMARK Flexibility Score: inf
ROOT
ATOM      1  C   UNL     1      -8.274  29.484  38.431  1.00  0.00     0.048 C 
ATOM      2  C   UNL     1      -8.473  29.807  39.887  1.00  0.00    -0.012 C 
ATOM      3  C   UNL     1      -7.934  29.013  40.827  1.00  0.00    -0.019 C 
ATOM      4  C   UNL     1      -8.116  29.279  42.297  1.00  0.00     0.036 C 
ATOM      5  C   UNL     1      -8.213  30.790  42.580  1.00  0.00     0.025 C 
ATOM      6  C   UNL     1      -9.331  31.422  41.729  1.00  0.00     0.089 C 
ATOM      7  C   UNL     1      -9.157  31.064  40.279  1.00  0.00     0.158 C 
ATOM      8  O   UNL     1      -9.634  31.828  39.397  1.00  0.00    -0.295 OA
ENDROOT
BRANCH   5   9
ATOM      9  C   UNL     1      -8.408  31.075  44.064  1.00  0.00    -0.077 C 
ATOM     10  C   UNL     1      -9.386  31.889  44.496  1.00  0.00     0.008 C 
ATOM     11  C   UNL     1      -7.498  30.437  45.082  1.00  0.00     0.039 C 
ENDBRANCH   5   9
TORSDOF 1
ENDMDL
MODEL 8
REMARK VINA RESULT:    -5.484      2.547      3.759
REMARK INTER + INTRA:          -5.901
REMARK INTER:                  -5.805
REMARK INTRA:                  -0.096
REMARK UNBOUND:                -0.096
REMARK SMILES C=C(C)[C@H]1CC=C(C)C(=O)C1
REMARK SMILES IDX 8 1 7 2 6 3 5 4 4 5 11 6 9 7 10 8 2 9 1 10 3 11
REMARK H PARENT
REMARK Flexibility Score: inf
ROOT
ATOM      1  C   UNL     1      -7.491  30.548  45.241  1.00  0.00     0.048 C 
ATOM      2  C   UNL     1      -8.012  30.602  43.831  1.00  0.00    -0.012 C 
ATOM      3  C   UNL     1      -8.436  31.770  43.319  1.00  0.00    -0.019 C 
ATOM      4  C   UNL     1      -8.982  31.876  41.920  1.00  0.00     0.036 C 
ATOM      5  C   UNL     1      -8.299  30.867  40.978  1.00  0.00     0.025 C 
ATOM      6  C   UNL     1      -8.421  29.440  41.546  1.00  0.00     0.089 C 
ATOM      7  C   UNL     1      -7.941  29.395  42.970  1.00  0.00     0.158 C 
ATOM      8  O   UNL     1      -7.511  28.306  43.439  1.00  0.00    -0.295 OA
ENDROOT
BRANCH   5   9
ATOM      9  C   UNL     1      -8.849  30.956  39.561  1.00  0.00    -0.077 C 
ATOM     10  C   UNL     1      -9.737  31.904  39.214  1.00  0.00     0.008 C 
ATOM     11  C   UNL     1      -8.399  29.972  38.512  1.00  0.00     0.039 C 
ENDBRANCH   5   9
TORSDOF 1
ENDMDL
MODEL 9
REMARK VINA RESULT:    -5.448      1.468      2.455
REMARK INTER + INTRA:          -5.862
REMARK INTER:                  -5.769
REMARK INTRA:                  -0.094
REMARK UNBOUND:                -0.096
REMARK SMILES C=C(C)[C@H]1CC=C(C)C(=O)C1
REMARK SMILES IDX 8 1 7 2 6 3 5 4 4 5 11 6 9 7 10 8 2 9 1 10 3 11
REMARK H PARENT
REMARK Flexibility Score: inf
ROOT
ATOM      1  C   UNL     1      -9.256  34.022  39.474  1.00  0.00     0.048 C 
ATOM      2  C   UNL     1      -9.051  33.066  40.618  1.00  0.00    -0.012 C 
ATOM      3  C   UNL     1      -9.490  31.800  40.518  1.00  0.00    -0.019 C 
ATOM      4  C   UNL     1      -9.328  30.808  41.638  1.00  0.00     0.036 C 
ATOM      5  C   UNL     1      -8.037  31.077  42.435  1.00  0.00     0.025 C 
ATOM      6  C   UNL     1      -8.013  32.533  42.936  1.00  0.00     0.089 C 
ATOM      7  C   UNL     1      -8.260  33.487  41.801  1.00  0.00     0.158 C 
ATOM      8  O   UNL     1      -7.818  34.665  41.881  1.00  0.00    -0.295 OA
ENDROOT
BRANCH   5   9
ATOM      9  C   UNL     1      -7.865  30.086  43.579  1.00  0.00    -0.077 C 
ATOM     10  C   UNL     1      -7.900  28.760  43.367  1.00  0.00     0.008 C 
ATOM     11  C   UNL     1      -7.647  30.586  44.985  1.00  0.00     0.039 C 
ENDBRANCH   5   9
TORSDOF 1
ENDMDL
