MODEL 1
REMARK VINA RESULT:    -3.431      0.000      0.000
REMARK INTER + INTRA:          -3.431
REMARK INTER:                  -3.431
REMARK INTRA:                   0.000
REMARK UNBOUND:                 0.000
REMARK SMILES CC(=O)[O-]
REMARK SMILES IDX 1 1 2 2 3 3 4 4
REMARK H PARENT
REMARK Flexibility Score: inf
ROOT
ATOM      1  C   UNL     1      -8.977  -8.294  -2.216  1.00  0.00     0.063 C 
ATOM      2  C   UNL     1      -7.536  -8.334  -2.599  1.00  0.00     0.038 C 
ATOM      3  O   UNL     1      -6.658  -8.572  -1.729  1.00  0.00    -0.550 OA
ATOM      4  O   UNL     1      -7.164  -8.162  -3.926  1.00  0.00    -0.550 OA
ENDROOT
TORSDOF 0
ENDMDL
MODEL 2
REMARK VINA RESULT:    -3.348      0.299      1.645
REMARK INTER + INTRA:          -3.348
REMARK INTER:                  -3.348
REMARK INTRA:                   0.000
REMARK UNBOUND:                 0.000
REMARK SMILES CC(=O)[O-]
REMARK SMILES IDX 1 1 2 2 3 3 4 4
REMARK H PARENT
REMARK Flexibility Score: inf
ROOT
ATOM      1  C   UNL     1      -9.143  -8.338  -2.109  1.00  0.00     0.063 C 
ATOM      2  C   UNL     1      -7.685  -8.382  -2.419  1.00  0.00     0.038 C 
ATOM      3  O   UNL     1      -7.289  -8.274  -3.609  1.00  0.00    -0.550 OA
ATOM      4  O   UNL     1      -6.758  -8.488  -1.391  1.00  0.00    -0.550 OA
ENDROOT
TORSDOF 0
ENDMDL
MODEL 3
REMARK VINA RESULT:    -3.015      2.285      2.690
REMARK INTER + INTRA:          -3.015
REMARK INTER:                  -3.015
REMARK INTRA:                   0.000
REMARK UNBOUND:                 0.000
REMARK SMILES CC(=O)[O-]
REMARK SMILES IDX 1 1 2 2 3 3 4 4
REMARK H PARENT
REMARK Flexibility Score: inf
ROOT
ATOM      1  C   UNL     1     -10.235  -8.738  -1.058  1.00  0.00     0.063 C 
ATOM      2  C   UNL     1      -9.717  -7.880  -2.162  1.00  0.00     0.038 C 
ATOM      3  O   UNL     1     -10.397  -6.903  -2.574  1.00  0.00    -0.550 OA
ATOM      4  O   UNL     1      -8.461  -8.122  -2.702  1.00  0.00    -0.550 OA
ENDROOT
TORSDOF 0
ENDMDL
MODEL 4
REMARK VINA RESULT:    -2.747      2.633      3.170
REMARK INTER + INTRA:          -2.747
REMARK INTER:                  -2.747
REMARK INTRA:                   0.000
REMARK UNBOUND:                 0.000
REMARK SMILES CC(=O)[O-]
REMARK SMILES IDX 1 1 2 2 3 3 4 4
REMARK H PARENT
REMARK Flexibility Score: inf
ROOT
ATOM      1  C   UNL     1      -8.257  -8.301  -2.410  1.00  0.00     0.063 C 
ATOM      2  C   UNL     1      -9.655  -8.034  -1.966  1.00  0.00     0.038 C 
ATOM      3  O   UNL     1     -10.321  -7.108  -2.500  1.00  0.00    -0.550 OA
ATOM      4  O   UNL     1     -10.245  -8.839  -1.000  1.00  0.00    -0.550 OA
ENDROOT
TORSDOF 0
ENDMDL
MODEL 5
REMARK VINA RESULT:    -2.609     17.064     17.280
REMARK INTER + INTRA:          -2.609
REMARK INTER:                  -2.609
REMARK INTRA:                   0.000
REMARK UNBOUND:                 0.000
REMARK SMILES CC(=O)[O-]
REMARK SMILES IDX 1 1 2 2 3 3 4 4
REMARK H PARENT
REMARK Flexibility Score: inf
ROOT
ATOM      1  C   UNL     1       6.424  -4.276 -13.097  1.00  0.00     0.063 C 
ATOM      2  C   UNL     1       6.097  -3.563 -11.829  1.00  0.00     0.038 C 
ATOM      3  O   UNL     1       6.581  -3.961 -10.737  1.00  0.00    -0.550 OA
ATOM      4  O   UNL     1       5.300  -2.425 -11.856  1.00  0.00    -0.550 OA
ENDROOT
TORSDOF 0
ENDMDL
MODEL 6
REMARK VINA RESULT:    -2.608     17.770     18.187
REMARK INTER + INTRA:          -2.608
REMARK INTER:                  -2.608
REMARK INTRA:                   0.000
REMARK UNBOUND:                 0.000
REMARK SMILES CC(=O)[O-]
REMARK SMILES IDX 1 1 2 2 3 3 4 4
REMARK H PARENT
REMARK Flexibility Score: inf
ROOT
ATOM      1  C   UNL     1       4.031   3.019   5.405  1.00  0.00     0.063 C 
ATOM      2  C   UNL     1       2.981   4.073   5.311  1.00  0.00     0.038 C 
ATOM      3  O   UNL     1       3.169   5.201   5.839  1.00  0.00    -0.550 OA
ATOM      4  O   UNL     1       1.815   3.832   4.597  1.00  0.00    -0.550 OA
ENDROOT
TORSDOF 0
ENDMDL
MODEL 7
REMARK VINA RESULT:    -2.484     19.751     20.099
REMARK INTER + INTRA:          -2.484
REMARK INTER:                  -2.484
REMARK INTRA:                   0.000
REMARK UNBOUND:                 0.000
REMARK SMILES CC(=O)[O-]
REMARK SMILES IDX 1 1 2 2 3 3 4 4
REMARK H PARENT
REMARK Flexibility Score: inf
ROOT
ATOM      1  C   UNL     1       3.220   7.754  -6.266  1.00  0.00     0.063 C 
ATOM      2  C   UNL     1       3.989   7.337  -7.474  1.00  0.00     0.038 C 
ATOM      3  O   UNL     1       4.619   6.247  -7.476  1.00  0.00    -0.550 OA
ATOM      4  O   UNL     1       3.970   8.125  -8.618  1.00  0.00    -0.550 OA
ENDROOT
TORSDOF 0
ENDMDL
MODEL 8
REMARK VINA RESULT:    -2.386     16.912     16.973
REMARK INTER + INTRA:          -2.386
REMARK INTER:                  -2.386
REMARK INTRA:                   0.000
REMARK UNBOUND:                 0.000
REMARK SMILES CC(=O)[O-]
REMARK SMILES IDX 1 1 2 2 3 3 4 4
REMARK H PARENT
REMARK Flexibility Score: inf
ROOT
ATOM      1  C   UNL     1       4.016  -2.127 -13.403  1.00  0.00     0.063 C 
ATOM      2  C   UNL     1       4.921  -3.014 -12.617  1.00  0.00     0.038 C 
ATOM      3  O   UNL     1       5.095  -4.210 -12.968  1.00  0.00    -0.550 OA
ATOM      4  O   UNL     1       5.615  -2.508 -11.525  1.00  0.00    -0.550 OA
ENDROOT
TORSDOF 0
ENDMDL
MODEL 9
REMARK VINA RESULT:    -2.370     20.122     20.511
REMARK INTER + INTRA:          -2.370
REMARK INTER:                  -2.370
REMARK INTRA:                   0.000
REMARK UNBOUND:                 0.000
REMARK SMILES CC(=O)[O-]
REMARK SMILES IDX 1 1 2 2 3 3 4 4
REMARK H PARENT
REMARK Flexibility Score: inf
ROOT
ATOM      1  C   UNL     1       4.619   7.795  -9.505  1.00  0.00     0.063 C 
ATOM      2  C   UNL     1       4.246   7.305  -8.147  1.00  0.00     0.038 C 
ATOM      3  O   UNL     1       4.620   6.166  -7.762  1.00  0.00    -0.550 OA
ATOM      4  O   UNL     1       3.532   8.125  -7.283  1.00  0.00    -0.550 OA
ENDROOT
TORSDOF 0
ENDMDL
