MODEL 1
REMARK VINA RESULT:    -5.482      0.000      0.000
REMARK INTER + INTRA:          -8.362
REMARK INTER:                  -8.367
REMARK INTRA:                   0.005
REMARK UNBOUND:                 0.005
REMARK SMILES CC1=CCC[C@@H](C)C(=O)C[C@@H](C(C)C)C(=O)C1
REMARK SMILES IDX 8 1 9 2 6 3 7 4 5 5 4 6 3 7 2 8 1 9 10 11 11 12 15 13 16 14
REMARK SMILES IDX 17 15 12 17 13 18 14 19
REMARK H PARENT
REMARK Flexibility Score: 70.00
ROOT
ATOM      1  C   UNL     1      -8.493  32.908  22.236  1.00  0.00     0.136 C 
ATOM      2  O   UNL     1      -9.191  32.486  21.323  1.00  0.00    -0.299 OA
ENDROOT
BRANCH   1   3
ATOM      3  C   UNL     1      -8.351  34.403  22.439  1.00  0.00     0.053 C 
ATOM      4  C   UNL     1      -7.545  34.996  21.277  1.00  0.00     0.016 C 
BRANCH   3   5
ATOM      5  C   UNL     1      -7.675  34.752  23.788  1.00  0.00     0.015 C 
BRANCH   5   6
ATOM      6  C   UNL     1      -8.659  34.949  24.953  1.00  0.00     0.028 C 
BRANCH   6   7
ATOM      7  C   UNL     1      -8.215  34.200  26.187  1.00  0.00    -0.028 C 
ATOM      8  C   UNL     1      -8.657  32.975  26.556  1.00  0.00    -0.070 CG0
ATOM      9  C   UNL     1      -8.115  32.380  27.831  1.00  0.00     0.039 C 
ATOM     10  G   UNL     1      -9.677  32.187  25.751  1.00  0.00     0.000 G0
ENDBRANCH   6   7
ENDBRANCH   5   6
ENDBRANCH   3   5
ENDBRANCH   1   3
BRANCH   1  11
ATOM     11  C   UNL     1      -7.830  31.920  23.169  1.00  0.00     0.087 C 
BRANCH  11  12
ATOM     12  C   UNL     1      -8.789  30.800  23.651  1.00  0.00     0.066 C 
BRANCH  12  13
ATOM     13  C   UNL     1      -9.081  30.919  25.141  1.00  0.00     0.140 C 
ATOM     14  O   UNL     1      -8.900  29.952  25.867  1.00  0.00    -0.299 OA
BRANCH  13  15
ATOM     15  C   UNL     1      -9.660  32.174  25.756  1.00  0.00     0.106 CG0
ATOM     16  G   UNL     1      -8.660  32.981  26.566  1.00  0.00     0.000 G0
ENDBRANCH  13  15
ENDBRANCH  12  13
BRANCH  12  17
ATOM     17  C   UNL     1      -8.309  29.359  23.295  1.00  0.00    -0.006 C 
ATOM     18  C   UNL     1      -8.881  28.881  21.952  1.00  0.00     0.008 C 
ATOM     19  C   UNL     1      -6.780  29.185  23.306  1.00  0.00     0.008 C 
ENDBRANCH  12  17
ENDBRANCH  11  12
ENDBRANCH   1  11
TORSDOF 1
ENDMDL
MODEL 2
REMARK VINA RESULT:    -5.282      1.776      3.850
REMARK INTER + INTRA:          -8.056
REMARK INTER:                  -8.093
REMARK INTRA:                   0.037
REMARK UNBOUND:                 0.005
REMARK SMILES CC1=CCC[C@@H](C)C(=O)C[C@@H](C(C)C)C(=O)C1
REMARK SMILES IDX 8 1 9 2 6 3 7 4 5 5 4 6 3 7 2 8 1 9 10 11 11 12 15 13 16 14
REMARK SMILES IDX 17 15 12 17 13 18 14 19
REMARK H PARENT
REMARK Flexibility Score: 70.00
ROOT
ATOM      1  C   UNL     1      -7.758  30.197  23.745  1.00  0.00     0.136 C 
ATOM      2  O   UNL     1      -6.633  30.080  23.279  1.00  0.00    -0.299 OA
ENDROOT
BRANCH   1   3
ATOM      3  C   UNL     1      -8.113  29.481  25.033  1.00  0.00     0.053 C 
ATOM      4  C   UNL     1      -9.574  29.023  24.970  1.00  0.00     0.016 C 
BRANCH   3   5
ATOM      5  C   UNL     1      -7.886  30.368  26.282  1.00  0.00     0.015 C 
BRANCH   5   6
ATOM      6  C   UNL     1      -9.034  31.348  26.575  1.00  0.00     0.028 C 
BRANCH   6   7
ATOM      7  C   UNL     1      -8.524  32.758  26.764  1.00  0.00    -0.028 C 
ATOM      8  C   UNL     1      -8.619  33.750  25.848  1.00  0.00    -0.070 CG0
ATOM      9  C   UNL     1      -8.042  35.097  26.201  1.00  0.00     0.039 C 
ATOM     10  G   UNL     1      -9.269  33.560  24.488  1.00  0.00     0.000 G0
ENDBRANCH   6   7
ENDBRANCH   5   6
ENDBRANCH   3   5
ENDBRANCH   1   3
BRANCH   1  11
ATOM     11  C   UNL     1      -8.753  31.097  23.045  1.00  0.00     0.087 C 
BRANCH  11  12
ATOM     12  C   UNL     1      -8.099  32.358  22.423  1.00  0.00     0.066 C 
BRANCH  12  13
ATOM     13  C   UNL     1      -8.321  33.588  23.294  1.00  0.00     0.140 C 
ATOM     14  O   UNL     1      -7.660  34.596  23.087  1.00  0.00    -0.299 OA
BRANCH  13  15
ATOM     15  C   UNL     1      -9.282  33.592  24.462  1.00  0.00     0.106 CG0
ATOM     16  G   UNL     1      -8.607  33.753  25.814  1.00  0.00     0.000 G0
ENDBRANCH  13  15
ENDBRANCH  12  13
BRANCH  12  17
ATOM     17  C   UNL     1      -8.534  32.637  20.952  1.00  0.00    -0.006 C 
ATOM     18  C   UNL     1      -7.327  32.740  20.008  1.00  0.00     0.008 C 
ATOM     19  C   UNL     1      -9.551  31.625  20.394  1.00  0.00     0.008 C 
ENDBRANCH  12  17
ENDBRANCH  11  12
ENDBRANCH   1  11
TORSDOF 1
ENDMDL
MODEL 3
REMARK VINA RESULT:    -5.210      2.120      4.681
REMARK INTER + INTRA:          -7.946
REMARK INTER:                  -8.433
REMARK INTRA:                   0.487
REMARK UNBOUND:                 0.005
REMARK SMILES CC1=CCC[C@@H](C)C(=O)C[C@@H](C(C)C)C(=O)C1
REMARK SMILES IDX 8 1 9 2 6 3 7 4 5 5 4 6 3 7 2 8 1 9 10 11 11 12 15 13 16 14
REMARK SMILES IDX 17 15 12 17 13 18 14 19
REMARK H PARENT
REMARK Flexibility Score: 70.00
ROOT
ATOM      1  C   UNL     1      -8.739  33.612  24.872  1.00  0.00     0.136 C 
ATOM      2  O   UNL     1      -9.097  34.782  24.868  1.00  0.00    -0.299 OA
ENDROOT
BRANCH   1   3
ATOM      3  C   UNL     1      -9.206  32.691  25.982  1.00  0.00     0.053 C 
ATOM      4  C   UNL     1      -8.149  32.661  27.092  1.00  0.00     0.016 C 
BRANCH   3   5
ATOM      5  C   UNL     1      -9.487  31.255  25.476  1.00  0.00     0.015 C 
BRANCH   5   6
ATOM      6  C   UNL     1      -8.263  30.325  25.507  1.00  0.00     0.028 C 
BRANCH   6   7
ATOM      7  C   UNL     1      -8.415  29.175  24.539  1.00  0.00    -0.028 C 
ATOM      8  C   UNL     1      -8.119  29.223  23.220  1.00  0.00    -0.070 CG0
ATOM      9  C   UNL     1      -8.347  27.981  22.397  1.00  0.00     0.039 C 
ATOM     10  G   UNL     1      -7.581  30.469  22.538  1.00  0.00     0.000 G0
ENDBRANCH   6   7
ENDBRANCH   5   6
ENDBRANCH   3   5
ENDBRANCH   1   3
BRANCH   1  11
ATOM     11  C   UNL     1      -7.877  33.103  23.738  1.00  0.00     0.087 C 
BRANCH  11  12
ATOM     12  C   UNL     1      -8.674  32.869  22.427  1.00  0.00     0.066 C 
BRANCH  12  13
ATOM     13  C   UNL     1      -8.598  31.414  21.982  1.00  0.00     0.140 C 
ATOM     14  O   UNL     1      -9.442  30.978  21.212  1.00  0.00    -0.299 OA
BRANCH  13  15
ATOM     15  C   UNL     1      -7.553  30.457  22.512  1.00  0.00     0.106 CG0
ATOM     16  G   UNL     1      -8.133  29.241  23.215  1.00  0.00     0.000 G0
ENDBRANCH  13  15
ENDBRANCH  12  13
BRANCH  12  17
ATOM     17  C   UNL     1      -8.272  33.826  21.263  1.00  0.00    -0.006 C 
ATOM     18  C   UNL     1      -7.491  35.048  21.771  1.00  0.00     0.008 C 
ATOM     19  C   UNL     1      -7.493  33.141  20.127  1.00  0.00     0.008 C 
ENDBRANCH  12  17
ENDBRANCH  11  12
ENDBRANCH   1  11
TORSDOF 1
ENDMDL
MODEL 4
REMARK VINA RESULT:    -5.076      1.614      3.999
REMARK INTER + INTRA:          -7.742
REMARK INTER:                  -7.426
REMARK INTRA:                  -0.316
REMARK UNBOUND:                 0.005
REMARK SMILES CC1=CCC[C@@H](C)C(=O)C[C@@H](C(C)C)C(=O)C1
REMARK SMILES IDX 8 1 9 2 6 3 7 4 5 5 4 6 3 7 2 8 1 9 10 11 11 12 15 13 16 14
REMARK SMILES IDX 17 15 12 17 13 18 14 19
REMARK H PARENT
REMARK Flexibility Score: 70.00
ROOT
ATOM      1  C   UNL     1      -8.346  33.355  22.046  1.00  0.00     0.136 C 
ATOM      2  O   UNL     1      -7.654  34.315  21.737  1.00  0.00    -0.299 OA
ENDROOT
BRANCH   1   3
ATOM      3  C   UNL     1      -8.249  32.073  21.243  1.00  0.00     0.053 C 
ATOM      4  C   UNL     1      -9.660  31.571  20.919  1.00  0.00     0.016 C 
BRANCH   3   5
ATOM      5  C   UNL     1      -7.450  30.973  21.984  1.00  0.00     0.015 C 
BRANCH   5   6
ATOM      6  C   UNL     1      -8.323  29.876  22.613  1.00  0.00     0.028 C 
BRANCH   6   7
ATOM      7  C   UNL     1      -7.852  29.521  24.004  1.00  0.00    -0.028 C 
ATOM      8  C   UNL     1      -8.373  30.013  25.152  1.00  0.00    -0.070 CG0
ATOM      9  C   UNL     1      -7.769  29.560  26.457  1.00  0.00     0.039 C 
ATOM     10  G   UNL     1      -9.526  31.002  25.179  1.00  0.00     0.000 G0
ENDBRANCH   6   7
ENDBRANCH   5   6
ENDBRANCH   3   5
ENDBRANCH   1   3
BRANCH   1  11
ATOM     11  C   UNL     1      -9.248  33.459  23.256  1.00  0.00     0.087 C 
BRANCH  11  12
ATOM     12  C   UNL     1      -8.476  33.372  24.599  1.00  0.00     0.066 C 
BRANCH  12  13
ATOM     13  C   UNL     1      -9.149  32.407  25.567  1.00  0.00     0.140 C 
ATOM     14  O   UNL     1      -9.341  32.755  26.723  1.00  0.00    -0.299 OA
BRANCH  13  15
ATOM     15  C   UNL     1      -9.529  30.996  25.173  1.00  0.00     0.106 CG0
ATOM     16  G   UNL     1      -8.363  30.023  25.170  1.00  0.00     0.000 G0
ENDBRANCH  13  15
ENDBRANCH  12  13
BRANCH  12  17
ATOM     17  C   UNL     1      -8.229  34.754  25.278  1.00  0.00    -0.006 C 
ATOM     18  C   UNL     1      -6.847  35.325  24.924  1.00  0.00     0.008 C 
ATOM     19  C   UNL     1      -9.319  35.800  24.989  1.00  0.00     0.008 C 
ENDBRANCH  12  17
ENDBRANCH  11  12
ENDBRANCH   1  11
TORSDOF 1
ENDMDL
MODEL 5
REMARK VINA RESULT:    -4.947      1.896      4.154
REMARK INTER + INTRA:          -7.545
REMARK INTER:                  -7.547
REMARK INTRA:                   0.002
REMARK UNBOUND:                 0.005
REMARK SMILES CC1=CCC[C@@H](C)C(=O)C[C@@H](C(C)C)C(=O)C1
REMARK SMILES IDX 8 1 9 2 6 3 7 4 5 5 4 6 3 7 2 8 1 9 10 11 11 12 15 13 16 14
REMARK SMILES IDX 17 15 12 17 13 18 14 19
REMARK H PARENT
REMARK Flexibility Score: 70.00
ROOT
ATOM      1  C   UNL     1      -7.489  29.695  23.753  1.00  0.00     0.136 C 
ATOM      2  O   UNL     1      -6.364  29.466  23.333  1.00  0.00    -0.299 OA
ENDROOT
BRANCH   1   3
ATOM      3  C   UNL     1      -8.688  29.424  22.866  1.00  0.00     0.053 C 
ATOM      4  C   UNL     1      -8.746  27.928  22.538  1.00  0.00     0.016 C 
BRANCH   3   5
ATOM      5  C   UNL     1      -8.653  30.255  21.560  1.00  0.00     0.015 C 
BRANCH   5   6
ATOM      6  C   UNL     1      -9.379  31.607  21.652  1.00  0.00     0.028 C 
BRANCH   6   7
ATOM      7  C   UNL     1      -8.424  32.728  21.988  1.00  0.00    -0.028 C 
ATOM      8  C   UNL     1      -8.446  33.453  23.130  1.00  0.00    -0.070 CG0
ATOM      9  C   UNL     1      -7.423  34.549  23.293  1.00  0.00     0.039 C 
ATOM     10  G   UNL     1      -9.455  33.218  24.240  1.00  0.00     0.000 G0
ENDBRANCH   6   7
ENDBRANCH   5   6
ENDBRANCH   3   5
ENDBRANCH   1   3
BRANCH   1  11
ATOM     11  C   UNL     1      -7.656  30.200  25.169  1.00  0.00     0.087 C 
BRANCH  11  12
ATOM     12  C   UNL     1      -9.031  30.873  25.417  1.00  0.00     0.066 C 
BRANCH  12  13
ATOM     13  C   UNL     1      -8.919  32.392  25.399  1.00  0.00     0.140 C 
ATOM     14  O   UNL     1      -8.434  32.969  26.362  1.00  0.00    -0.299 OA
BRANCH  13  15
ATOM     15  C   UNL     1      -9.454  33.231  24.259  1.00  0.00     0.106 CG0
ATOM     16  G   UNL     1      -8.460  33.440  23.129  1.00  0.00     0.000 G0
ENDBRANCH  13  15
ENDBRANCH  12  13
BRANCH  12  17
ATOM     17  C   UNL     1      -9.749  30.388  26.714  1.00  0.00    -0.006 C 
ATOM     18  C   UNL     1     -10.077  28.888  26.658  1.00  0.00     0.008 C 
ATOM     19  C   UNL     1      -8.989  30.710  28.012  1.00  0.00     0.008 C 
ENDBRANCH  12  17
ENDBRANCH  11  12
ENDBRANCH   1  11
TORSDOF 1
ENDMDL
MODEL 6
REMARK VINA RESULT:    -4.795      1.577      4.033
REMARK INTER + INTRA:          -7.312
REMARK INTER:                  -8.214
REMARK INTRA:                   0.902
REMARK UNBOUND:                 0.005
REMARK SMILES CC1=CCC[C@@H](C)C(=O)C[C@@H](C(C)C)C(=O)C1
REMARK SMILES IDX 8 1 9 2 6 3 7 4 5 5 4 6 3 7 2 8 1 9 10 11 11 12 15 13 16 14
REMARK SMILES IDX 17 15 12 17 13 18 14 19
REMARK H PARENT
REMARK Flexibility Score: 70.00
ROOT
ATOM      1  C   UNL     1      -8.276  29.870  22.076  1.00  0.00     0.136 C 
ATOM      2  O   UNL     1      -9.290  29.610  21.442  1.00  0.00    -0.299 OA
ENDROOT
BRANCH   1   3
ATOM      3  C   UNL     1      -7.850  28.959  23.210  1.00  0.00     0.053 C 
ATOM      4  C   UNL     1      -8.999  28.004  23.550  1.00  0.00     0.016 C 
BRANCH   3   5
ATOM      5  C   UNL     1      -7.424  29.750  24.472  1.00  0.00     0.015 C 
BRANCH   5   6
ATOM      6  C   UNL     1      -8.595  30.185  25.367  1.00  0.00     0.028 C 
BRANCH   6   7
ATOM      7  C   UNL     1      -8.491  31.643  25.747  1.00  0.00    -0.028 C 
ATOM      8  C   UNL     1      -9.124  32.660  25.115  1.00  0.00    -0.070 CG0
ATOM      9  C   UNL     1      -8.893  34.061  25.622  1.00  0.00     0.039 C 
ATOM     10  G   UNL     1     -10.039  32.449  23.921  1.00  0.00     0.000 G0
ENDBRANCH   6   7
ENDBRANCH   5   6
ENDBRANCH   3   5
ENDBRANCH   1   3
BRANCH   1  11
ATOM     11  C   UNL     1      -7.448  31.071  21.677  1.00  0.00     0.087 C 
BRANCH  11  12
ATOM     12  C   UNL     1      -7.887  32.376  22.392  1.00  0.00     0.066 C 
BRANCH  12  13
ATOM     13  C   UNL     1      -9.399  32.435  22.566  1.00  0.00     0.140 C 
ATOM     14  O   UNL     1     -10.113  32.542  21.578  1.00  0.00    -0.299 OA
BRANCH  13  15
ATOM     15  C   UNL     1     -10.060  32.438  23.927  1.00  0.00     0.106 CG0
ATOM     16  G   UNL     1      -9.098  32.689  25.077  1.00  0.00     0.000 G0
ENDBRANCH  13  15
ENDBRANCH  12  13
BRANCH  12  17
ATOM     17  C   UNL     1      -7.358  33.678  21.714  1.00  0.00    -0.006 C 
ATOM     18  C   UNL     1      -7.499  33.624  20.185  1.00  0.00     0.008 C 
ATOM     19  C   UNL     1      -7.993  34.971  22.254  1.00  0.00     0.008 C 
ENDBRANCH  12  17
ENDBRANCH  11  12
ENDBRANCH   1  11
TORSDOF 1
ENDMDL
MODEL 7
REMARK VINA RESULT:    -4.676      2.217      5.342
REMARK INTER + INTRA:          -7.131
REMARK INTER:                  -7.266
REMARK INTRA:                   0.135
REMARK UNBOUND:                 0.005
REMARK SMILES CC1=CCC[C@@H](C)C(=O)C[C@@H](C(C)C)C(=O)C1
REMARK SMILES IDX 8 1 9 2 6 3 7 4 5 5 4 6 3 7 2 8 1 9 10 11 11 12 15 13 16 14
REMARK SMILES IDX 17 15 12 17 13 18 14 19
REMARK H PARENT
REMARK Flexibility Score: 70.00
ROOT
ATOM      1  C   UNL     1      -8.849  31.041  24.114  1.00  0.00     0.136 C 
ATOM      2  O   UNL     1     -10.038  31.200  24.358  1.00  0.00    -0.299 OA
ENDROOT
BRANCH   1   3
ATOM      3  C   UNL     1      -8.392  29.780  23.409  1.00  0.00     0.053 C 
ATOM      4  C   UNL     1      -6.869  29.656  23.532  1.00  0.00     0.016 C 
BRANCH   3   5
ATOM      5  C   UNL     1      -8.809  29.754  21.918  1.00  0.00     0.015 C 
BRANCH   5   6
ATOM      6  C   UNL     1      -9.390  31.081  21.403  1.00  0.00     0.028 C 
BRANCH   6   7
ATOM      7  C   UNL     1      -8.394  31.830  20.550  1.00  0.00    -0.028 C 
ATOM      8  C   UNL     1      -8.099  33.145  20.670  1.00  0.00    -0.070 CG0
ATOM      9  C   UNL     1      -7.086  33.733  19.721  1.00  0.00     0.039 C 
ATOM     10  G   UNL     1      -8.749  34.047  21.704  1.00  0.00     0.000 G0
ENDBRANCH   6   7
ENDBRANCH   5   6
ENDBRANCH   3   5
ENDBRANCH   1   3
BRANCH   1  11
ATOM     11  C   UNL     1      -7.873  32.137  24.480  1.00  0.00     0.087 C 
BRANCH  11  12
ATOM     12  C   UNL     1      -8.461  33.561  24.300  1.00  0.00     0.066 C 
BRANCH  12  13
ATOM     13  C   UNL     1      -7.982  34.201  23.003  1.00  0.00     0.140 C 
ATOM     14  O   UNL     1      -6.979  34.902  23.015  1.00  0.00    -0.299 OA
BRANCH  13  15
ATOM     15  C   UNL     1      -8.742  34.065  21.702  1.00  0.00     0.106 CG0
ATOM     16  G   UNL     1      -8.074  33.148  20.692  1.00  0.00     0.000 G0
ENDBRANCH  13  15
ENDBRANCH  12  13
BRANCH  12  17
ATOM     17  C   UNL     1      -8.206  34.509  25.511  1.00  0.00    -0.006 C 
ATOM     18  C   UNL     1      -8.985  35.826  25.380  1.00  0.00     0.008 C 
ATOM     19  C   UNL     1      -8.485  33.868  26.882  1.00  0.00     0.008 C 
ENDBRANCH  12  17
ENDBRANCH  11  12
ENDBRANCH   1  11
TORSDOF 1
ENDMDL
MODEL 8
REMARK VINA RESULT:    -4.598      2.028      4.027
REMARK INTER + INTRA:          -7.012
REMARK INTER:                  -6.970
REMARK INTRA:                  -0.043
REMARK UNBOUND:                 0.005
REMARK SMILES CC1=CCC[C@@H](C)C(=O)C[C@@H](C(C)C)C(=O)C1
REMARK SMILES IDX 8 1 9 2 6 3 7 4 5 5 4 6 3 7 2 8 1 9 10 11 11 12 15 13 16 14
REMARK SMILES IDX 17 15 12 17 13 18 14 19
REMARK H PARENT
REMARK Flexibility Score: 70.00
ROOT
ATOM      1  C   UNL     1      -8.859  33.437  24.322  1.00  0.00     0.136 C 
ATOM      2  O   UNL     1      -8.665  34.439  24.996  1.00  0.00    -0.299 OA
ENDROOT
BRANCH   1   3
ATOM      3  C   UNL     1      -8.281  33.353  22.924  1.00  0.00     0.053 C 
ATOM      4  C   UNL     1      -7.688  34.712  22.540  1.00  0.00     0.016 C 
BRANCH   3   5
ATOM      5  C   UNL     1      -9.337  32.918  21.877  1.00  0.00     0.015 C 
BRANCH   5   6
ATOM      6  C   UNL     1      -8.983  31.625  21.124  1.00  0.00     0.028 C 
BRANCH   6   7
ATOM      7  C   UNL     1      -7.750  30.969  21.699  1.00  0.00    -0.028 C 
ATOM      8  C   UNL     1      -7.747  30.058  22.700  1.00  0.00    -0.070 CG0
ATOM      9  C   UNL     1      -6.418  29.515  23.161  1.00  0.00     0.039 C 
ATOM     10  G   UNL     1      -9.016  29.573  23.380  1.00  0.00     0.000 G0
ENDBRANCH   6   7
ENDBRANCH   5   6
ENDBRANCH   3   5
ENDBRANCH   1   3
BRANCH   1  11
ATOM     11  C   UNL     1      -9.631  32.285  24.926  1.00  0.00     0.087 C 
BRANCH  11  12
ATOM     12  C   UNL     1      -8.715  31.177  25.508  1.00  0.00     0.066 C 
BRANCH  12  13
ATOM     13  C   UNL     1      -9.023  29.818  24.893  1.00  0.00     0.140 C 
ATOM     14  O   UNL     1      -9.233  28.862  25.626  1.00  0.00    -0.299 OA
BRANCH  13  15
ATOM     15  C   UNL     1      -9.011  29.582  23.398  1.00  0.00     0.106 CG0
ATOM     16  G   UNL     1      -7.740  30.054  22.712  1.00  0.00     0.000 G0
ENDBRANCH  13  15
ENDBRANCH  12  13
BRANCH  12  17
ATOM     17  C   UNL     1      -8.731  31.095  27.065  1.00  0.00    -0.006 C 
ATOM     18  C   UNL     1      -7.553  31.858  27.690  1.00  0.00     0.008 C 
ATOM     19  C   UNL     1     -10.052  31.555  27.705  1.00  0.00     0.008 C 
ENDBRANCH  12  17
ENDBRANCH  11  12
ENDBRANCH   1  11
TORSDOF 1
ENDMDL
MODEL 9
REMARK VINA RESULT:    -4.578      1.812      3.208
REMARK INTER + INTRA:          -6.982
REMARK INTER:                  -7.454
REMARK INTRA:                   0.472
REMARK UNBOUND:                 0.005
REMARK SMILES CC1=CCC[C@@H](C)C(=O)C[C@@H](C(C)C)C(=O)C1
REMARK SMILES IDX 8 1 9 2 6 3 7 4 5 5 4 6 3 7 2 8 1 9 10 11 11 12 15 13 16 14
REMARK SMILES IDX 17 15 12 17 13 18 14 19
REMARK H PARENT
REMARK Flexibility Score: 70.00
ROOT
ATOM      1  C   UNL     1      -7.674  34.674  23.760  1.00  0.00     0.136 C 
ATOM      2  O   UNL     1      -6.563  35.064  24.092  1.00  0.00    -0.299 OA
ENDROOT
BRANCH   1   3
ATOM      3  C   UNL     1      -8.807  34.700  24.766  1.00  0.00     0.053 C 
ATOM      4  C   UNL     1      -9.212  36.153  25.034  1.00  0.00     0.016 C 
BRANCH   3   5
ATOM      5  C   UNL     1      -8.430  33.999  26.095  1.00  0.00     0.015 C 
BRANCH   5   6
ATOM      6  C   UNL     1      -9.373  32.851  26.491  1.00  0.00     0.028 C 
BRANCH   6   7
ATOM      7  C   UNL     1      -8.667  31.516  26.457  1.00  0.00    -0.028 C 
ATOM      8  C   UNL     1      -8.590  30.703  25.377  1.00  0.00    -0.070 CG0
ATOM      9  C   UNL     1      -7.855  29.396  25.526  1.00  0.00     0.039 C 
ATOM     10  G   UNL     1      -9.216  31.048  24.037  1.00  0.00     0.000 G0
ENDBRANCH   6   7
ENDBRANCH   5   6
ENDBRANCH   3   5
ENDBRANCH   1   3
BRANCH   1  11
ATOM     11  C   UNL     1      -7.897  34.222  22.334  1.00  0.00     0.087 C 
BRANCH  11  12
ATOM     12  C   UNL     1      -8.809  32.972  22.229  1.00  0.00     0.066 C 
BRANCH  12  13
ATOM     13  C   UNL     1      -8.296  31.832  23.100  1.00  0.00     0.140 C 
ATOM     14  O   UNL     1      -7.125  31.490  23.010  1.00  0.00    -0.299 OA
BRANCH  13  15
ATOM     15  C   UNL     1      -9.199  31.051  24.029  1.00  0.00     0.106 CG0
ATOM     16  G   UNL     1      -8.564  30.719  25.369  1.00  0.00     0.000 G0
ENDBRANCH  13  15
ENDBRANCH  12  13
BRANCH  12  17
ATOM     17  C   UNL     1      -9.049  32.484  20.767  1.00  0.00    -0.006 C 
ATOM     18  C   UNL     1      -7.816  32.711  19.879  1.00  0.00     0.008 C 
ATOM     19  C   UNL     1      -9.511  31.021  20.659  1.00  0.00     0.008 C 
ENDBRANCH  12  17
ENDBRANCH  11  12
ENDBRANCH   1  11
TORSDOF 1
ENDMDL
