MODEL 1
REMARK VINA RESULT:    -0.980      0.000      0.000
REMARK INTER + INTRA:          -2.001
REMARK INTER:                  -1.496
REMARK INTRA:                  -0.505
REMARK UNBOUND:                -0.505
REMARK SMILES CC1=CCC[C@@H](C)C(=O)C[C@H](C(C)C)C(=O)C1
REMARK SMILES IDX 8 1 9 2 6 3 7 4 5 5 4 6 3 7 2 8 1 9 10 11 11 12 15 13 16 14
REMARK SMILES IDX 17 15 12 17 13 18 14 19
REMARK H PARENT
REMARK Flexibility Score: 70.00
ROOT
ATOM      1  C   UNL     1      30.738  58.598  11.924  1.00  0.00     0.136 C 
ATOM      2  O   UNL     1      31.497  57.674  12.183  1.00  0.00    -0.299 OA
ENDROOT
BRANCH   1   3
ATOM      3  C   UNL     1      30.866  59.331  10.602  1.00  0.00     0.053 C 
ATOM      4  C   UNL     1      31.492  58.397   9.561  1.00  0.00     0.016 C 
BRANCH   3   5
ATOM      5  C   UNL     1      31.697  60.626  10.727  1.00  0.00     0.015 C 
BRANCH   5   6
ATOM      6  C   UNL     1      30.873  61.898  10.985  1.00  0.00     0.028 C 
BRANCH   6   7
ATOM      7  C   UNL     1      31.283  62.660  12.227  1.00  0.00    -0.028 C 
ATOM      8  C   UNL     1      30.757  62.574  13.477  1.00  0.00    -0.070 CG0
ATOM      9  C   UNL     1      31.448  63.372  14.558  1.00  0.00     0.039 C 
ATOM     10  G   UNL     1      29.481  61.830  13.862  1.00  0.00     0.000 G0
ENDBRANCH   6   7
ENDBRANCH   5   6
ENDBRANCH   3   5
ENDBRANCH   1   3
BRANCH   1  11
ATOM     11  C   UNL     1      29.651  58.953  12.907  1.00  0.00     0.087 C 
BRANCH  11  12
ATOM     12  C   UNL     1      30.194  59.330  14.313  1.00  0.00     0.066 C 
BRANCH  12  13
ATOM     13  C   UNL     1      29.643  60.665  14.805  1.00  0.00     0.140 C 
ATOM     14  O   UNL     1      29.182  60.732  15.935  1.00  0.00    -0.299 OA
BRANCH  13  15
ATOM     15  C   UNL     1      29.478  61.842  13.876  1.00  0.00     0.106 CG0
ATOM     16  G   UNL     1      30.766  62.561  13.486  1.00  0.00     0.000 G0
ENDBRANCH  13  15
ENDBRANCH  12  13
BRANCH  12  17
ATOM     17  C   UNL     1      29.911  58.209  15.364  1.00  0.00    -0.006 C 
ATOM     18  C   UNL     1      28.799  57.246  14.905  1.00  0.00     0.008 C 
ATOM     19  C   UNL     1      31.178  57.390  15.673  1.00  0.00     0.008 C 
ENDBRANCH  12  17
ENDBRANCH  11  12
ENDBRANCH   1  11
TORSDOF 1
ENDMDL
MODEL 2
REMARK VINA RESULT:    -0.957      2.945      5.240
REMARK INTER + INTRA:          -1.966
REMARK INTER:                  -1.587
REMARK INTRA:                  -0.379
REMARK UNBOUND:                -0.505
REMARK SMILES CC1=CCC[C@@H](C)C(=O)C[C@H](C(C)C)C(=O)C1
REMARK SMILES IDX 8 1 9 2 6 3 7 4 5 5 4 6 3 7 2 8 1 9 10 11 11 12 15 13 16 14
REMARK SMILES IDX 17 15 12 17 13 18 14 19
REMARK H PARENT
REMARK Flexibility Score: 70.00
ROOT
ATOM      1  C   UNL     1      27.458  58.112  10.973  1.00  0.00     0.136 C 
ATOM      2  O   UNL     1      26.613  58.448  10.155  1.00  0.00    -0.299 OA
ENDROOT
BRANCH   1   3
ATOM      3  C   UNL     1      27.266  58.451  12.439  1.00  0.00     0.053 C 
ATOM      4  C   UNL     1      25.774  58.389  12.784  1.00  0.00     0.016 C 
BRANCH   3   5
ATOM      5  C   UNL     1      27.842  59.836  12.803  1.00  0.00     0.015 C 
BRANCH   5   6
ATOM      6  C   UNL     1      29.020  59.806  13.791  1.00  0.00     0.028 C 
BRANCH   6   7
ATOM      7  C   UNL     1      29.233  58.465  14.458  1.00  0.00    -0.028 C 
ATOM      8  C   UNL     1      30.248  57.581  14.264  1.00  0.00    -0.070 CG0
ATOM      9  C   UNL     1      30.268  56.367  15.162  1.00  0.00     0.039 C 
ATOM     10  G   UNL     1      31.298  57.656  13.160  1.00  0.00     0.000 G0
ENDBRANCH   6   7
ENDBRANCH   5   6
ENDBRANCH   3   5
ENDBRANCH   1   3
BRANCH   1  11
ATOM     11  C   UNL     1      28.652  57.315  10.511  1.00  0.00     0.087 C 
BRANCH  11  12
ATOM     12  C   UNL     1      30.010  57.987  10.858  1.00  0.00     0.066 C 
BRANCH  12  13
ATOM     13  C   UNL     1      30.853  57.131  11.797  1.00  0.00     0.140 C 
ATOM     14  O   UNL     1      31.040  55.956  11.517  1.00  0.00    -0.299 OA
BRANCH  13  15
ATOM     15  C   UNL     1      31.298  57.641  13.145  1.00  0.00     0.106 CG0
ATOM     16  G   UNL     1      30.241  57.610  14.245  1.00  0.00     0.000 G0
ENDBRANCH  13  15
ENDBRANCH  12  13
BRANCH  12  17
ATOM     17  C   UNL     1      30.826  58.342   9.573  1.00  0.00    -0.006 C 
ATOM     18  C   UNL     1      29.968  58.265   8.296  1.00  0.00     0.008 C 
ATOM     19  C   UNL     1      31.447  59.748   9.668  1.00  0.00     0.008 C 
ENDBRANCH  12  17
ENDBRANCH  11  12
ENDBRANCH   1  11
TORSDOF 1
ENDMDL
MODEL 3
REMARK VINA RESULT:    -0.903      2.088      3.062
REMARK INTER + INTRA:          -1.883
REMARK INTER:                  -1.383
REMARK INTRA:                  -0.500
REMARK UNBOUND:                -0.505
REMARK SMILES CC1=CCC[C@@H](C)C(=O)C[C@H](C(C)C)C(=O)C1
REMARK SMILES IDX 8 1 9 2 6 3 7 4 5 5 4 6 3 7 2 8 1 9 10 11 11 12 15 13 16 14
REMARK SMILES IDX 17 15 12 17 13 18 14 19
REMARK H PARENT
REMARK Flexibility Score: 70.00
ROOT
ATOM      1  C   UNL     1      30.682  58.653  14.098  1.00  0.00     0.136 C 
ATOM      2  O   UNL     1      31.750  59.112  14.480  1.00  0.00    -0.299 OA
ENDROOT
BRANCH   1   3
ATOM      3  C   UNL     1      30.661  57.605  13.002  1.00  0.00     0.053 C 
ATOM      4  C   UNL     1      31.737  56.552  13.283  1.00  0.00     0.016 C 
BRANCH   3   5
ATOM      5  C   UNL     1      30.866  58.217  11.599  1.00  0.00     0.015 C 
BRANCH   5   6
ATOM      6  C   UNL     1      29.578  58.700  10.912  1.00  0.00     0.028 C 
BRANCH   6   7
ATOM      7  C   UNL     1      29.469  60.204  10.786  1.00  0.00    -0.028 C 
ATOM      8  C   UNL     1      28.819  61.070  11.607  1.00  0.00    -0.070 CG0
ATOM      9  C   UNL     1      28.980  62.541  11.300  1.00  0.00     0.039 C 
ATOM     10  G   UNL     1      27.866  60.689  12.736  1.00  0.00     0.000 G0
ENDBRANCH   6   7
ENDBRANCH   5   6
ENDBRANCH   3   5
ENDBRANCH   1   3
BRANCH   1  11
ATOM     11  C   UNL     1      29.408  59.101  14.769  1.00  0.00     0.087 C 
BRANCH  11  12
ATOM     12  C   UNL     1      29.320  60.641  14.955  1.00  0.00     0.066 C 
BRANCH  12  13
ATOM     13  C   UNL     1      28.209  61.261  14.114  1.00  0.00     0.140 C 
ATOM     14  O   UNL     1      27.499  62.120  14.617  1.00  0.00    -0.299 OA
BRANCH  13  15
ATOM     15  C   UNL     1      27.844  60.711  12.758  1.00  0.00     0.106 CG0
ATOM     16  G   UNL     1      28.806  61.055  11.625  1.00  0.00     0.000 G0
ENDBRANCH  13  15
ENDBRANCH  12  13
BRANCH  12  17
ATOM     17  C   UNL     1      29.145  61.035  16.457  1.00  0.00    -0.006 C 
ATOM     18  C   UNL     1      29.179  59.809  17.390  1.00  0.00     0.008 C 
ATOM     19  C   UNL     1      30.227  62.033  16.910  1.00  0.00     0.008 C 
ENDBRANCH  12  17
ENDBRANCH  11  12
ENDBRANCH   1  11
TORSDOF 1
ENDMDL
MODEL 4
REMARK VINA RESULT:    -0.878      3.076      5.233
REMARK INTER + INTRA:          -1.846
REMARK INTER:                  -1.602
REMARK INTRA:                  -0.244
REMARK UNBOUND:                -0.505
REMARK SMILES CC1=CCC[C@@H](C)C(=O)C[C@H](C(C)C)C(=O)C1
REMARK SMILES IDX 8 1 9 2 6 3 7 4 5 5 4 6 3 7 2 8 1 9 10 11 11 12 15 13 16 14
REMARK SMILES IDX 17 15 12 17 13 18 14 19
REMARK H PARENT
REMARK Flexibility Score: 70.00
ROOT
ATOM      1  C   UNL     1      31.012  59.406  10.844  1.00  0.00     0.136 C 
ATOM      2  O   UNL     1      31.451  60.220  10.042  1.00  0.00    -0.299 OA
ENDROOT
BRANCH   1   3
ATOM      3  C   UNL     1      31.407  57.946  10.729  1.00  0.00     0.053 C 
ATOM      4  C   UNL     1      31.472  57.551   9.250  1.00  0.00     0.016 C 
BRANCH   3   5
ATOM      5  C   UNL     1      30.439  57.014  11.489  1.00  0.00     0.015 C 
BRANCH   5   6
ATOM      6  C   UNL     1      29.266  56.480  10.649  1.00  0.00     0.028 C 
BRANCH   6   7
ATOM      7  C   UNL     1      28.051  56.090  11.462  1.00  0.00    -0.028 C 
ATOM      8  C   UNL     1      26.946  56.834  11.732  1.00  0.00    -0.070 CG0
ATOM      9  C   UNL     1      25.828  56.140  12.475  1.00  0.00     0.039 C 
ATOM     10  G   UNL     1      26.780  58.323  11.445  1.00  0.00     0.000 G0
ENDBRANCH   6   7
ENDBRANCH   5   6
ENDBRANCH   3   5
ENDBRANCH   1   3
BRANCH   1  11
ATOM     11  C   UNL     1      30.129  59.886  11.967  1.00  0.00     0.087 C 
BRANCH  11  12
ATOM     12  C   UNL     1      28.666  60.162  11.523  1.00  0.00     0.066 C 
BRANCH  12  13
ATOM     13  C   UNL     1      27.666  59.254  12.233  1.00  0.00     0.140 C 
ATOM     14  O   UNL     1      27.705  59.173  13.452  1.00  0.00    -0.299 OA
BRANCH  13  15
ATOM     15  C   UNL     1      26.766  58.318  11.465  1.00  0.00     0.106 CG0
ATOM     16  G   UNL     1      26.945  56.834  11.767  1.00  0.00     0.000 G0
ENDBRANCH  13  15
ENDBRANCH  12  13
BRANCH  12  17
ATOM     17  C   UNL     1      28.272  61.661  11.726  1.00  0.00    -0.006 C 
ATOM     18  C   UNL     1      29.452  62.512  12.230  1.00  0.00     0.008 C 
ATOM     19  C   UNL     1      27.733  62.285  10.424  1.00  0.00     0.008 C 
ENDBRANCH  12  17
ENDBRANCH  11  12
ENDBRANCH   1  11
TORSDOF 1
ENDMDL
MODEL 5
REMARK VINA RESULT:    -0.796      2.796      4.774
REMARK INTER + INTRA:          -1.720
REMARK INTER:                  -1.397
REMARK INTRA:                  -0.323
REMARK UNBOUND:                -0.505
REMARK SMILES CC1=CCC[C@@H](C)C(=O)C[C@H](C(C)C)C(=O)C1
REMARK SMILES IDX 8 1 9 2 6 3 7 4 5 5 4 6 3 7 2 8 1 9 10 11 11 12 15 13 16 14
REMARK SMILES IDX 17 15 12 17 13 18 14 19
REMARK H PARENT
REMARK Flexibility Score: 70.00
ROOT
ATOM      1  C   UNL     1      30.057  58.828  12.603  1.00  0.00     0.136 C 
ATOM      2  O   UNL     1      29.379  59.078  11.616  1.00  0.00    -0.299 OA
ENDROOT
BRANCH   1   3
ATOM      3  C   UNL     1      31.022  57.658  12.579  1.00  0.00     0.053 C 
ATOM      4  C   UNL     1      30.328  56.439  11.964  1.00  0.00     0.016 C 
BRANCH   3   5
ATOM      5  C   UNL     1      31.564  57.314  13.983  1.00  0.00     0.015 C 
BRANCH   5   6
ATOM      6  C   UNL     1      30.786  56.212  14.722  1.00  0.00     0.028 C 
BRANCH   6   7
ATOM      7  C   UNL     1      30.815  56.339  16.229  1.00  0.00    -0.028 C 
ATOM      8  C   UNL     1      29.880  56.897  17.043  1.00  0.00    -0.070 CG0
ATOM      9  C   UNL     1      30.121  56.776  18.530  1.00  0.00     0.039 C 
ATOM     10  G   UNL     1      28.675  57.716  16.592  1.00  0.00     0.000 G0
ENDBRANCH   6   7
ENDBRANCH   5   6
ENDBRANCH   3   5
ENDBRANCH   1   3
BRANCH   1  11
ATOM     11  C   UNL     1      29.959  59.728  13.809  1.00  0.00     0.087 C 
BRANCH  11  12
ATOM     12  C   UNL     1      28.668  59.499  14.643  1.00  0.00     0.066 C 
BRANCH  12  13
ATOM     13  C   UNL     1      28.974  59.103  16.083  1.00  0.00     0.140 C 
ATOM     14  O   UNL     1      29.624  59.869  16.780  1.00  0.00    -0.299 OA
BRANCH  13  15
ATOM     15  C   UNL     1      28.665  57.721  16.605  1.00  0.00     0.106 CG0
ATOM     16  G   UNL     1      29.870  56.900  17.054  1.00  0.00     0.000 G0
ENDBRANCH  13  15
ENDBRANCH  12  13
BRANCH  12  17
ATOM     17  C   UNL     1      27.730  60.749  14.615  1.00  0.00    -0.006 C 
ATOM     18  C   UNL     1      28.487  62.038  14.241  1.00  0.00     0.008 C 
ATOM     19  C   UNL     1      26.561  60.558  13.630  1.00  0.00     0.008 C 
ENDBRANCH  12  17
ENDBRANCH  11  12
ENDBRANCH   1  11
TORSDOF 1
ENDMDL
MODEL 6
REMARK VINA RESULT:    -0.785      1.823      4.007
REMARK INTER + INTRA:          -1.703
REMARK INTER:                  -1.311
REMARK INTRA:                  -0.392
REMARK UNBOUND:                -0.505
REMARK SMILES CC1=CCC[C@@H](C)C(=O)C[C@H](C(C)C)C(=O)C1
REMARK SMILES IDX 8 1 9 2 6 3 7 4 5 5 4 6 3 7 2 8 1 9 10 11 11 12 15 13 16 14
REMARK SMILES IDX 17 15 12 17 13 18 14 19
REMARK H PARENT
REMARK Flexibility Score: 70.00
ROOT
ATOM      1  C   UNL     1      30.057  60.389  14.700  1.00  0.00     0.136 C 
ATOM      2  O   UNL     1      29.337  59.861  15.537  1.00  0.00    -0.299 OA
ENDROOT
BRANCH   1   3
ATOM      3  C   UNL     1      30.135  61.902  14.619  1.00  0.00     0.053 C 
ATOM      4  C   UNL     1      30.736  62.451  15.916  1.00  0.00     0.016 C 
BRANCH   3   5
ATOM      5  C   UNL     1      28.758  62.548  14.352  1.00  0.00     0.015 C 
BRANCH   5   6
ATOM      6  C   UNL     1      28.183  62.284  12.950  1.00  0.00     0.028 C 
BRANCH   6   7
ATOM      7  C   UNL     1      29.171  62.502  11.825  1.00  0.00    -0.028 C 
ATOM      8  C   UNL     1      29.520  61.639  10.835  1.00  0.00    -0.070 CG0
ATOM      9  C   UNL     1      30.450  62.172   9.770  1.00  0.00     0.039 C 
ATOM     10  G   UNL     1      29.143  60.162  10.762  1.00  0.00     0.000 G0
ENDBRANCH   6   7
ENDBRANCH   5   6
ENDBRANCH   3   5
ENDBRANCH   1   3
BRANCH   1  11
ATOM     11  C   UNL     1      30.898  59.519  13.801  1.00  0.00     0.087 C 
BRANCH  11  12
ATOM     12  C   UNL     1      30.059  58.685  12.793  1.00  0.00     0.066 C 
BRANCH  12  13
ATOM     13  C   UNL     1      30.184  59.209  11.367  1.00  0.00     0.140 C 
ATOM     14  O   UNL     1      31.209  58.979  10.741  1.00  0.00    -0.299 OA
BRANCH  13  15
ATOM     15  C   UNL     1      29.165  60.156  10.782  1.00  0.00     0.106 CG0
ATOM     16  G   UNL     1      29.526  61.636  10.846  1.00  0.00     0.000 G0
ENDBRANCH  13  15
ENDBRANCH  12  13
BRANCH  12  17
ATOM     17  C   UNL     1      30.431  57.168  12.846  1.00  0.00    -0.006 C 
ATOM     18  C   UNL     1      31.247  56.809  14.102  1.00  0.00     0.008 C 
ATOM     19  C   UNL     1      29.176  56.276  12.800  1.00  0.00     0.008 C 
ENDBRANCH  12  17
ENDBRANCH  11  12
ENDBRANCH   1  11
TORSDOF 1
ENDMDL
MODEL 7
REMARK VINA RESULT:    -0.681      2.945      5.500
REMARK INTER + INTRA:          -1.545
REMARK INTER:                  -1.087
REMARK INTRA:                  -0.459
REMARK UNBOUND:                -0.505
REMARK SMILES CC1=CCC[C@@H](C)C(=O)C[C@H](C(C)C)C(=O)C1
REMARK SMILES IDX 8 1 9 2 6 3 7 4 5 5 4 6 3 7 2 8 1 9 10 11 11 12 15 13 16 14
REMARK SMILES IDX 17 15 12 17 13 18 14 19
REMARK H PARENT
REMARK Flexibility Score: 70.00
ROOT
ATOM      1  C   UNL     1      28.976  62.613  11.626  1.00  0.00     0.136 C 
ATOM      2  O   UNL     1      28.515  63.707  11.331  1.00  0.00    -0.299 OA
ENDROOT
BRANCH   1   3
ATOM      3  C   UNL     1      30.192  62.526  12.528  1.00  0.00     0.053 C 
ATOM      4  C   UNL     1      31.461  62.500  11.671  1.00  0.00     0.016 C 
BRANCH   3   5
ATOM      5  C   UNL     1      30.148  61.292  13.456  1.00  0.00     0.015 C 
BRANCH   5   6
ATOM      6  C   UNL     1      31.160  60.188  13.109  1.00  0.00     0.028 C 
BRANCH   6   7
ATOM      7  C   UNL     1      30.605  58.784  13.212  1.00  0.00    -0.028 C 
ATOM      8  C   UNL     1      30.287  57.930  12.203  1.00  0.00    -0.070 CG0
ATOM      9  C   UNL     1      29.861  56.538  12.606  1.00  0.00     0.039 C 
ATOM     10  G   UNL     1      30.223  58.283  10.720  1.00  0.00     0.000 G0
ENDBRANCH   6   7
ENDBRANCH   5   6
ENDBRANCH   3   5
ENDBRANCH   1   3
BRANCH   1  11
ATOM     11  C   UNL     1      28.287  61.368  11.129  1.00  0.00     0.087 C 
BRANCH  11  12
ATOM     12  C   UNL     1      29.110  60.595  10.061  1.00  0.00     0.066 C 
BRANCH  12  13
ATOM     13  C   UNL     1      29.029  59.084  10.253  1.00  0.00     0.140 C 
ATOM     14  O   UNL     1      27.937  58.539  10.187  1.00  0.00    -0.299 OA
BRANCH  13  15
ATOM     15  C   UNL     1      30.223  58.281  10.707  1.00  0.00     0.106 CG0
ATOM     16  G   UNL     1      30.263  57.940  12.193  1.00  0.00     0.000 G0
ENDBRANCH  13  15
ENDBRANCH  12  13
BRANCH  12  17
ATOM     17  C   UNL     1      28.680  60.978   8.608  1.00  0.00    -0.006 C 
ATOM     18  C   UNL     1      27.252  61.554   8.554  1.00  0.00     0.008 C 
ATOM     19  C   UNL     1      29.649  62.000   7.982  1.00  0.00     0.008 C 
ENDBRANCH  12  17
ENDBRANCH  11  12
ENDBRANCH   1  11
TORSDOF 1
ENDMDL
MODEL 8
REMARK VINA RESULT:    -0.670      2.843      4.749
REMARK INTER + INTRA:          -1.528
REMARK INTER:                  -1.316
REMARK INTRA:                  -0.211
REMARK UNBOUND:                -0.505
REMARK SMILES CC1=CCC[C@@H](C)C(=O)C[C@H](C(C)C)C(=O)C1
REMARK SMILES IDX 8 1 9 2 6 3 7 4 5 5 4 6 3 7 2 8 1 9 10 11 11 12 15 13 16 14
REMARK SMILES IDX 17 15 12 17 13 18 14 19
REMARK H PARENT
REMARK Flexibility Score: 70.00
ROOT
ATOM      1  C   UNL     1      27.740  60.232  12.479  1.00  0.00     0.136 C 
ATOM      2  O   UNL     1      26.948  60.032  13.389  1.00  0.00    -0.299 OA
ENDROOT
BRANCH   1   3
ATOM      3  C   UNL     1      27.226  60.489  11.075  1.00  0.00     0.053 C 
ATOM      4  C   UNL     1      25.730  60.812  11.132  1.00  0.00     0.016 C 
BRANCH   3   5
ATOM      5  C   UNL     1      27.480  59.296  10.128  1.00  0.00     0.015 C 
BRANCH   5   6
ATOM      6  C   UNL     1      28.825  59.337   9.385  1.00  0.00     0.028 C 
BRANCH   6   7
ATOM      7  C   UNL     1      29.510  57.993   9.270  1.00  0.00    -0.028 C 
ATOM      8  C   UNL     1      30.309  57.376  10.180  1.00  0.00    -0.070 CG0
ATOM      9  C   UNL     1      30.762  55.975   9.842  1.00  0.00     0.039 C 
ATOM     10  G   UNL     1      30.867  58.007  11.452  1.00  0.00     0.000 G0
ENDBRANCH   6   7
ENDBRANCH   5   6
ENDBRANCH   3   5
ENDBRANCH   1   3
BRANCH   1  11
ATOM     11  C   UNL     1      29.215  60.273  12.785  1.00  0.00     0.087 C 
BRANCH  11  12
ATOM     12  C   UNL     1      29.708  59.045  13.601  1.00  0.00     0.066 C 
BRANCH  12  13
ATOM     13  C   UNL     1      30.039  57.854  12.708  1.00  0.00     0.140 C 
ATOM     14  O   UNL     1      29.762  56.729  13.097  1.00  0.00    -0.299 OA
BRANCH  13  15
ATOM     15  C   UNL     1      30.865  58.013  11.455  1.00  0.00     0.106 CG0
ATOM     16  G   UNL     1      30.292  57.363  10.199  1.00  0.00     0.000 G0
ENDBRANCH  13  15
ENDBRANCH  12  13
BRANCH  12  17
ATOM     17  C   UNL     1      30.934  59.402  14.502  1.00  0.00    -0.006 C 
ATOM     18  C   UNL     1      31.461  60.825  14.234  1.00  0.00     0.008 C 
ATOM     19  C   UNL     1      30.593  59.274  15.999  1.00  0.00     0.008 C 
ENDBRANCH  12  17
ENDBRANCH  11  12
ENDBRANCH   1  11
TORSDOF 1
ENDMDL
MODEL 9
REMARK VINA RESULT:    -0.610      2.654      4.523
REMARK INTER + INTRA:          -1.437
REMARK INTER:                  -0.979
REMARK INTRA:                  -0.458
REMARK UNBOUND:                -0.505
REMARK SMILES CC1=CCC[C@@H](C)C(=O)C[C@H](C(C)C)C(=O)C1
REMARK SMILES IDX 8 1 9 2 6 3 7 4 5 5 4 6 3 7 2 8 1 9 10 11 11 12 15 13 16 14
REMARK SMILES IDX 17 15 12 17 13 18 14 19
REMARK H PARENT
REMARK Flexibility Score: 70.00
ROOT
ATOM      1  C   UNL     1      27.206  59.843  14.045  1.00  0.00     0.136 C 
ATOM      2  O   UNL     1      26.146  59.526  13.523  1.00  0.00    -0.299 OA
ENDROOT
BRANCH   1   3
ATOM      3  C   UNL     1      27.871  61.152  13.665  1.00  0.00     0.053 C 
ATOM      4  C   UNL     1      26.801  62.231  13.474  1.00  0.00     0.016 C 
BRANCH   3   5
ATOM      5  C   UNL     1      28.735  61.025  12.391  1.00  0.00     0.015 C 
BRANCH   5   6
ATOM      6  C   UNL     1      30.181  60.562  12.636  1.00  0.00     0.028 C 
BRANCH   6   7
ATOM      7  C   UNL     1      30.501  59.200  12.058  1.00  0.00    -0.028 C 
ATOM      8  C   UNL     1      30.585  58.010  12.709  1.00  0.00    -0.070 CG0
ATOM      9  C   UNL     1      30.806  56.786  11.852  1.00  0.00     0.039 C 
ATOM     10  G   UNL     1      30.579  57.816  14.222  1.00  0.00     0.000 G0
ENDBRANCH   6   7
ENDBRANCH   5   6
ENDBRANCH   3   5
ENDBRANCH   1   3
BRANCH   1  11
ATOM     11  C   UNL     1      27.802  58.947  15.100  1.00  0.00     0.087 C 
BRANCH  11  12
ATOM     12  C   UNL     1      27.980  57.477  14.629  1.00  0.00     0.066 C 
BRANCH  12  13
ATOM     13  C   UNL     1      29.420  56.995  14.773  1.00  0.00     0.140 C 
ATOM     14  O   UNL     1      29.649  56.022  15.477  1.00  0.00    -0.299 OA
BRANCH  13  15
ATOM     15  C   UNL     1      30.578  57.794  14.230  1.00  0.00     0.106 CG0
ATOM     16  G   UNL     1      30.589  57.997  12.718  1.00  0.00     0.000 G0
ENDBRANCH  13  15
ENDBRANCH  12  13
BRANCH  12  17
ATOM     17  C   UNL     1      27.009  56.507  15.376  1.00  0.00    -0.006 C 
ATOM     18  C   UNL     1      26.304  57.187  16.565  1.00  0.00     0.008 C 
ATOM     19  C   UNL     1      25.939  55.935  14.427  1.00  0.00     0.008 C 
ENDBRANCH  12  17
ENDBRANCH  11  12
ENDBRANCH   1  11
TORSDOF 1
ENDMDL
