MODEL 1
REMARK VINA RESULT:    -3.666      0.000      0.000
REMARK INTER + INTRA:          -4.337
REMARK INTER:                  -4.309
REMARK INTRA:                  -0.029
REMARK UNBOUND:                -0.029
REMARK SMILES CCCCC(=O)[O-]
REMARK SMILES IDX 4 1 5 2 6 3 7 4 3 5 2 6 1 7
REMARK H PARENT
REMARK Flexibility Score: inf
ROOT
ATOM      1  C   UNL     1     -10.800 -13.399  10.011  1.00  0.00     0.053 C 
ENDROOT
BRANCH   1   2
ATOM      2  C   UNL     1     -12.013 -12.547  10.218  1.00  0.00     0.041 C 
ATOM      3  O   UNL     1     -13.144 -12.953   9.842  1.00  0.00    -0.550 OA
ATOM      4  O   UNL     1     -11.887 -11.285  10.783  1.00  0.00    -0.550 OA
ENDBRANCH   1   2
BRANCH   1   5
ATOM      5  C   UNL     1     -11.034 -14.398   8.874  1.00  0.00     0.006 C 
BRANCH   5   6
ATOM      6  C   UNL     1     -10.147 -15.637   9.040  1.00  0.00    -0.003 C 
ATOM      7  C   UNL     1     -10.987 -16.899   9.207  1.00  0.00     0.004 C 
ENDBRANCH   5   6
ENDBRANCH   1   5
TORSDOF 3
ENDMDL
MODEL 2
REMARK VINA RESULT:    -3.655      1.172      1.358
REMARK INTER + INTRA:          -4.325
REMARK INTER:                  -4.222
REMARK INTRA:                  -0.103
REMARK UNBOUND:                -0.029
REMARK SMILES CCCCC(=O)[O-]
REMARK SMILES IDX 4 1 5 2 6 3 7 4 3 5 2 6 1 7
REMARK H PARENT
REMARK Flexibility Score: inf
ROOT
ATOM      1  C   UNL     1     -10.957 -13.830   8.637  1.00  0.00     0.053 C 
ENDROOT
BRANCH   1   2
ATOM      2  C   UNL     1     -12.380 -13.461   8.913  1.00  0.00     0.041 C 
ATOM      3  O   UNL     1     -13.316 -14.209   8.525  1.00  0.00    -0.550 OA
ATOM      4  O   UNL     1     -12.676 -12.266   9.556  1.00  0.00    -0.550 OA
ENDBRANCH   1   2
BRANCH   1   5
ATOM      5  C   UNL     1     -10.482 -14.906   9.617  1.00  0.00     0.006 C 
BRANCH   5   6
ATOM      6  C   UNL     1     -10.215 -16.230   8.892  1.00  0.00    -0.003 C 
ATOM      7  C   UNL     1     -11.253 -17.282   9.266  1.00  0.00     0.004 C 
ENDBRANCH   5   6
ENDBRANCH   1   5
TORSDOF 3
ENDMDL
MODEL 3
REMARK VINA RESULT:    -3.586      2.397      3.940
REMARK INTER + INTRA:          -4.244
REMARK INTER:                  -4.208
REMARK INTRA:                  -0.035
REMARK UNBOUND:                -0.029
REMARK SMILES CCCCC(=O)[O-]
REMARK SMILES IDX 4 1 5 2 6 3 7 4 3 5 2 6 1 7
REMARK H PARENT
REMARK Flexibility Score: inf
ROOT
ATOM      1  C   UNL     1     -10.144 -15.511   9.090  1.00  0.00     0.053 C 
ENDROOT
BRANCH   1   2
ATOM      2  C   UNL     1     -11.359 -16.365   8.904  1.00  0.00     0.041 C 
ATOM      3  O   UNL     1     -11.315 -17.595   9.168  1.00  0.00    -0.550 OA
ATOM      4  O   UNL     1     -12.526 -15.811   8.395  1.00  0.00    -0.550 OA
ENDBRANCH   1   2
BRANCH   1   5
ATOM      5  C   UNL     1     -10.466 -14.046   8.784  1.00  0.00     0.006 C 
BRANCH   5   6
ATOM      6  C   UNL     1     -10.816 -13.280  10.065  1.00  0.00    -0.003 C 
ATOM      7  C   UNL     1     -10.389 -11.819   9.968  1.00  0.00     0.004 C 
ENDBRANCH   5   6
ENDBRANCH   1   5
TORSDOF 3
ENDMDL
MODEL 4
REMARK VINA RESULT:    -3.571      1.634      1.917
REMARK INTER + INTRA:          -4.226
REMARK INTER:                  -4.176
REMARK INTRA:                  -0.051
REMARK UNBOUND:                -0.029
REMARK SMILES CCCCC(=O)[O-]
REMARK SMILES IDX 4 1 5 2 6 3 7 4 3 5 2 6 1 7
REMARK H PARENT
REMARK Flexibility Score: inf
ROOT
ATOM      1  C   UNL     1     -10.341 -12.136   9.485  1.00  0.00     0.053 C 
ENDROOT
BRANCH   1   2
ATOM      2  C   UNL     1     -11.401 -11.304   8.835  1.00  0.00     0.041 C 
ATOM      3  O   UNL     1     -11.260 -10.914   7.646  1.00  0.00    -0.550 OA
ATOM      4  O   UNL     1     -12.522 -10.918   9.558  1.00  0.00    -0.550 OA
ENDBRANCH   1   2
BRANCH   1   5
ATOM      5  C   UNL     1     -10.917 -13.481   9.937  1.00  0.00     0.006 C 
BRANCH   5   6
ATOM      6  C   UNL     1     -10.727 -14.552   8.856  1.00  0.00    -0.003 C 
ATOM      7  C   UNL     1     -10.230 -15.862   9.460  1.00  0.00     0.004 C 
ENDBRANCH   5   6
ENDBRANCH   1   5
TORSDOF 3
ENDMDL
MODEL 5
REMARK VINA RESULT:    -3.533      2.870      3.826
REMARK INTER + INTRA:          -4.181
REMARK INTER:                  -4.138
REMARK INTRA:                  -0.043
REMARK UNBOUND:                -0.029
REMARK SMILES CCCCC(=O)[O-]
REMARK SMILES IDX 4 1 5 2 6 3 7 4 3 5 2 6 1 7
REMARK H PARENT
REMARK Flexibility Score: inf
ROOT
ATOM      1  C   UNL     1     -10.164 -11.392   9.641  1.00  0.00     0.053 C 
ENDROOT
BRANCH   1   2
ATOM      2  C   UNL     1     -11.040 -12.457  10.222  1.00  0.00     0.041 C 
ATOM      3  O   UNL     1     -12.024 -12.145  10.944  1.00  0.00    -0.550 OA
ATOM      4  O   UNL     1     -10.743 -13.796  10.004  1.00  0.00    -0.550 OA
ENDBRANCH   1   2
BRANCH   1   5
ATOM      5  C   UNL     1     -10.336 -11.325   8.121  1.00  0.00     0.006 C 
BRANCH   5   6
ATOM      6  C   UNL     1      -9.005 -11.580   7.406  1.00  0.00    -0.003 C 
ATOM      7  C   UNL     1      -8.140 -10.324   7.386  1.00  0.00     0.004 C 
ENDBRANCH   5   6
ENDBRANCH   1   5
TORSDOF 3
ENDMDL
MODEL 6
REMARK VINA RESULT:    -3.528      3.102      5.085
REMARK INTER + INTRA:          -4.176
REMARK INTER:                  -4.088
REMARK INTRA:                  -0.087
REMARK UNBOUND:                -0.029
REMARK SMILES CCCCC(=O)[O-]
REMARK SMILES IDX 4 1 5 2 6 3 7 4 3 5 2 6 1 7
REMARK H PARENT
REMARK Flexibility Score: inf
ROOT
ATOM      1  C   UNL     1     -12.428 -10.988  11.884  1.00  0.00     0.053 C 
ENDROOT
BRANCH   1   2
ATOM      2  C   UNL     1     -12.192 -11.974  10.784  1.00  0.00     0.041 C 
ATOM      3  O   UNL     1     -13.162 -12.580  10.258  1.00  0.00    -0.550 OA
ATOM      4  O   UNL     1     -10.897 -12.259  10.372  1.00  0.00    -0.550 OA
ENDBRANCH   1   2
BRANCH   1   5
ATOM      5  C   UNL     1     -11.699  -9.673  11.592  1.00  0.00     0.006 C 
BRANCH   5   6
ATOM      6  C   UNL     1     -12.376  -8.911  10.447  1.00  0.00    -0.003 C 
ATOM      7  C   UNL     1     -11.479  -7.797   9.920  1.00  0.00     0.004 C 
ENDBRANCH   5   6
ENDBRANCH   1   5
TORSDOF 3
ENDMDL
MODEL 7
REMARK VINA RESULT:    -3.498      2.424      4.044
REMARK INTER + INTRA:          -4.140
REMARK INTER:                  -4.067
REMARK INTRA:                  -0.074
REMARK UNBOUND:                -0.029
REMARK SMILES CCCCC(=O)[O-]
REMARK SMILES IDX 4 1 5 2 6 3 7 4 3 5 2 6 1 7
REMARK H PARENT
REMARK Flexibility Score: inf
ROOT
ATOM      1  C   UNL     1     -10.976 -13.048   9.956  1.00  0.00     0.053 C 
ENDROOT
BRANCH   1   2
ATOM      2  C   UNL     1     -11.700 -13.059   8.647  1.00  0.00     0.041 C 
ATOM      3  O   UNL     1     -11.292 -12.347   7.692  1.00  0.00    -0.550 OA
ATOM      4  O   UNL     1     -12.853 -13.819   8.496  1.00  0.00    -0.550 OA
ENDBRANCH   1   2
BRANCH   1   5
ATOM      5  C   UNL     1     -10.951 -11.635  10.544  1.00  0.00     0.006 C 
BRANCH   5   6
ATOM      6  C   UNL     1     -12.283 -11.297  11.223  1.00  0.00    -0.003 C 
ATOM      7  C   UNL     1     -12.059 -10.620  12.570  1.00  0.00     0.004 C 
ENDBRANCH   5   6
ENDBRANCH   1   5
TORSDOF 3
ENDMDL
MODEL 8
REMARK VINA RESULT:    -3.489      3.395      4.525
REMARK INTER + INTRA:          -4.130
REMARK INTER:                  -4.032
REMARK INTRA:                  -0.098
REMARK UNBOUND:                -0.029
REMARK SMILES CCCCC(=O)[O-]
REMARK SMILES IDX 4 1 5 2 6 3 7 4 3 5 2 6 1 7
REMARK H PARENT
REMARK Flexibility Score: inf
ROOT
ATOM      1  C   UNL     1     -10.501 -11.668   7.398  1.00  0.00     0.053 C 
ENDROOT
BRANCH   1   2
ATOM      2  C   UNL     1     -10.984 -12.820   8.222  1.00  0.00     0.041 C 
ATOM      3  O   UNL     1     -10.481 -13.043   9.354  1.00  0.00    -0.550 OA
ATOM      4  O   UNL     1     -11.955 -13.675   7.718  1.00  0.00    -0.550 OA
ENDBRANCH   1   2
BRANCH   1   5
ATOM      5  C   UNL     1      -8.970 -11.649   7.347  1.00  0.00     0.006 C 
BRANCH   5   6
ATOM      6  C   UNL     1      -8.431 -10.228   7.551  1.00  0.00    -0.003 C 
ATOM      7  C   UNL     1      -8.975  -9.612   8.836  1.00  0.00     0.004 C 
ENDBRANCH   5   6
ENDBRANCH   1   5
TORSDOF 3
ENDMDL
MODEL 9
REMARK VINA RESULT:    -3.463      4.101      4.915
REMARK INTER + INTRA:          -4.100
REMARK INTER:                  -4.043
REMARK INTRA:                  -0.056
REMARK UNBOUND:                -0.029
REMARK SMILES CCCCC(=O)[O-]
REMARK SMILES IDX 4 1 5 2 6 3 7 4 3 5 2 6 1 7
REMARK H PARENT
REMARK Flexibility Score: inf
ROOT
ATOM      1  C   UNL     1      -9.572  -9.820   9.325  1.00  0.00     0.053 C 
ENDROOT
BRANCH   1   2
ATOM      2  C   UNL     1     -10.570  -8.743   9.613  1.00  0.00     0.041 C 
ATOM      3  O   UNL     1     -10.600  -7.701   8.906  1.00  0.00    -0.550 OA
ATOM      4  O   UNL     1     -11.434  -8.868  10.693  1.00  0.00    -0.550 OA
ENDBRANCH   1   2
BRANCH   1   5
ATOM      5  C   UNL     1      -8.640  -9.397   8.186  1.00  0.00     0.006 C 
BRANCH   5   6
ATOM      6  C   UNL     1      -8.174 -10.612   7.377  1.00  0.00    -0.003 C 
ATOM      7  C   UNL     1      -9.226 -11.716   7.384  1.00  0.00     0.004 C 
ENDBRANCH   5   6
ENDBRANCH   1   5
TORSDOF 3
ENDMDL
