MODEL 1
REMARK VINA RESULT:    17.986      0.000      0.000
REMARK INTER + INTRA:          45.253
REMARK INTER:                  45.324
REMARK INTRA:                  -0.071
REMARK UNBOUND:                -0.071
REMARK SMILES CCCCCCCCCCCCCCCCCCCCCCCCCCCC(=O)[O-]
REMARK SMILES IDX 15 1 16 2 17 3 18 4 19 5 20 6 21 7 22 8 23 9 24 10 25 11
REMARK SMILES IDX 26 12 27 13 28 14 29 15 30 16 14 17 13 18 12 19 11 20 10 21
REMARK SMILES IDX 9 22 8 23 7 24 6 25 5 26 4 27 3 28 2 29 1 30
REMARK H PARENT
REMARK Flexibility Score: inf
ROOT
ATOM      1  C   UNL     1     -32.457  21.467  -9.591  1.00  0.00     0.000 C 
ENDROOT
BRANCH   1   2
ATOM      2  C   UNL     1     -32.329  20.430 -10.720  1.00  0.00     0.000 C 
BRANCH   2   3
ATOM      3  C   UNL     1     -32.615  18.976 -10.297  1.00  0.00     0.000 C 
BRANCH   3   4
ATOM      4  C   UNL     1     -31.371  18.059 -10.332  1.00  0.00     0.000 C 
BRANCH   4   5
ATOM      5  C   UNL     1     -31.728  16.567 -10.224  1.00  0.00     0.000 C 
BRANCH   5   6
ATOM      6  C   UNL     1     -30.753  15.670 -11.002  1.00  0.00     0.000 C 
BRANCH   6   7
ATOM      7  C   UNL     1     -29.313  16.213 -10.990  1.00  0.00     0.000 C 
BRANCH   7   8
ATOM      8  C   UNL     1     -29.210  17.635 -11.568  1.00  0.00     0.000 C 
BRANCH   8   9
ATOM      9  C   UNL     1     -28.652  17.717 -13.003  1.00  0.00     0.000 C 
BRANCH   9  10
ATOM     10  C   UNL     1     -29.050  16.552 -13.928  1.00  0.00     0.000 C 
BRANCH  10  11
ATOM     11  C   UNL     1     -28.970  16.919 -15.417  1.00  0.00     0.000 C 
BRANCH  11  12
ATOM     12  C   UNL     1     -30.311  17.479 -15.917  1.00  0.00     0.006 C 
BRANCH  12  13
ATOM     13  C   UNL     1     -30.278  17.811 -17.414  1.00  0.00     0.053 C 
BRANCH  13  14
ATOM     14  C   UNL     1     -30.389  19.284 -17.661  1.00  0.00     0.041 C 
ATOM     15  O   UNL     1     -29.351  19.989 -17.760  1.00  0.00    -0.550 OA
ATOM     16  O   UNL     1     -31.638  19.872 -17.812  1.00  0.00    -0.550 OA
ENDBRANCH  13  14
ENDBRANCH  12  13
ENDBRANCH  11  12
ENDBRANCH  10  11
ENDBRANCH   9  10
ENDBRANCH   8   9
ENDBRANCH   7   8
ENDBRANCH   6   7
ENDBRANCH   5   6
ENDBRANCH   4   5
ENDBRANCH   3   4
ENDBRANCH   2   3
ENDBRANCH   1   2
BRANCH   1  17
ATOM     17  C   UNL     1     -32.052  22.898 -10.014  1.00  0.00     0.000 C 
BRANCH  17  18
ATOM     18  C   UNL     1     -30.571  23.000 -10.419  1.00  0.00     0.000 C 
BRANCH  18  19
ATOM     19  C   UNL     1     -30.149  21.907 -11.414  1.00  0.00     0.000 C 
BRANCH  19  20
ATOM     20  C   UNL     1     -28.654  21.558 -11.308  1.00  0.00     0.000 C 
BRANCH  20  21
ATOM     21  C   UNL     1     -28.081  21.021 -12.630  1.00  0.00     0.000 C 
BRANCH  21  22
ATOM     22  C   UNL     1     -26.748  21.694 -13.004  1.00  0.00    -0.000 C 
BRANCH  22  23
ATOM     23  C   UNL     1     -26.358  22.829 -12.038  1.00  0.00    -0.000 C 
BRANCH  23  24
ATOM     24  C   UNL     1     -25.275  22.467 -11.005  1.00  0.00    -0.000 C 
BRANCH  24  25
ATOM     25  C   UNL     1     -25.617  22.820  -9.544  1.00  0.00    -0.000 C 
BRANCH  25  26
ATOM     26  C   UNL     1     -25.192  21.743  -8.523  1.00  0.00    -0.000 C 
BRANCH  26  27
ATOM     27  C   UNL     1     -23.715  21.862  -8.119  1.00  0.00    -0.000 C 
BRANCH  27  28
ATOM     28  C   UNL     1     -23.543  21.668  -6.607  1.00  0.00    -0.000 C 
BRANCH  28  29
ATOM     29  C   UNL     1     -22.218  22.270  -6.124  1.00  0.00    -0.003 C 
ATOM     30  C   UNL     1     -22.357  23.766  -5.857  1.00  0.00     0.004 C 
ENDBRANCH  28  29
ENDBRANCH  27  28
ENDBRANCH  26  27
ENDBRANCH  25  26
ENDBRANCH  24  25
ENDBRANCH  23  24
ENDBRANCH  22  23
ENDBRANCH  21  22
ENDBRANCH  20  21
ENDBRANCH  19  20
ENDBRANCH  18  19
ENDBRANCH  17  18
ENDBRANCH   1  17
TORSDOF 26
ENDMDL
MODEL 2
REMARK VINA RESULT:    19.158      2.241      4.568
REMARK INTER + INTRA:          48.208
REMARK INTER:                  46.429
REMARK INTRA:                   1.779
REMARK UNBOUND:                -0.071
REMARK SMILES CCCCCCCCCCCCCCCCCCCCCCCCCCCC(=O)[O-]
REMARK SMILES IDX 15 1 16 2 17 3 18 4 19 5 20 6 21 7 22 8 23 9 24 10 25 11
REMARK SMILES IDX 26 12 27 13 28 14 29 15 30 16 14 17 13 18 12 19 11 20 10 21
REMARK SMILES IDX 9 22 8 23 7 24 6 25 5 26 4 27 3 28 2 29 1 30
REMARK H PARENT
REMARK Flexibility Score: inf
ROOT
ATOM      1  C   UNL     1     -29.057  20.486 -10.964  1.00  0.00     0.000 C 
ENDROOT
BRANCH   1   2
ATOM      2  C   UNL     1     -29.423  21.839 -10.328  1.00  0.00     0.000 C 
BRANCH   2   3
ATOM      3  C   UNL     1     -30.683  22.508 -10.910  1.00  0.00     0.000 C 
BRANCH   3   4
ATOM      4  C   UNL     1     -30.924  23.944 -10.392  1.00  0.00     0.000 C 
BRANCH   4   5
ATOM      5  C   UNL     1     -32.218  24.071  -9.570  1.00  0.00     0.000 C 
BRANCH   5   6
ATOM      6  C   UNL     1     -33.061  22.786  -9.596  1.00  0.00     0.000 C 
BRANCH   6   7
ATOM      7  C   UNL     1     -32.449  21.696 -10.492  1.00  0.00     0.000 C 
BRANCH   7   8
ATOM      8  C   UNL     1     -32.956  20.286 -10.143  1.00  0.00     0.000 C 
BRANCH   8   9
ATOM      9  C   UNL     1     -31.862  19.203 -10.048  1.00  0.00     0.000 C 
BRANCH   9  10
ATOM     10  C   UNL     1     -32.233  17.843 -10.666  1.00  0.00     0.000 C 
BRANCH  10  11
ATOM     11  C   UNL     1     -31.208  16.745 -10.348  1.00  0.00     0.000 C 
BRANCH  11  12
ATOM     12  C   UNL     1     -29.785  17.204 -10.700  1.00  0.00     0.006 C 
BRANCH  12  13
ATOM     13  C   UNL     1     -29.045  16.183 -11.574  1.00  0.00     0.053 C 
BRANCH  13  14
ATOM     14  C   UNL     1     -28.919  16.650 -12.991  1.00  0.00     0.041 C 
ATOM     15  O   UNL     1     -28.778  17.875 -13.243  1.00  0.00    -0.550 OA
ATOM     16  O   UNL     1     -28.925  15.729 -14.031  1.00  0.00    -0.550 OA
ENDBRANCH  13  14
ENDBRANCH  12  13
ENDBRANCH  11  12
ENDBRANCH  10  11
ENDBRANCH   9  10
ENDBRANCH   8   9
ENDBRANCH   7   8
ENDBRANCH   6   7
ENDBRANCH   5   6
ENDBRANCH   4   5
ENDBRANCH   3   4
ENDBRANCH   2   3
ENDBRANCH   1   2
BRANCH   1  17
ATOM     17  C   UNL     1     -28.147  20.610 -12.207  1.00  0.00     0.000 C 
BRANCH  17  18
ATOM     18  C   UNL     1     -28.000  22.062 -12.692  1.00  0.00     0.000 C 
BRANCH  18  19
ATOM     19  C   UNL     1     -26.539  22.453 -12.967  1.00  0.00     0.000 C 
BRANCH  19  20
ATOM     20  C   UNL     1     -26.181  23.837 -12.398  1.00  0.00     0.000 C 
BRANCH  20  21
ATOM     21  C   UNL     1     -24.910  23.807 -11.532  1.00  0.00     0.000 C 
BRANCH  21  22
ATOM     22  C   UNL     1     -25.230  23.806 -10.026  1.00  0.00    -0.000 C 
BRANCH  22  23
ATOM     23  C   UNL     1     -26.198  22.678  -9.620  1.00  0.00    -0.000 C 
BRANCH  23  24
ATOM     24  C   UNL     1     -25.796  21.894  -8.356  1.00  0.00    -0.000 C 
BRANCH  24  25
ATOM     25  C   UNL     1     -24.392  21.261  -8.395  1.00  0.00    -0.000 C 
BRANCH  25  26
ATOM     26  C   UNL     1     -24.155  20.195  -7.303  1.00  0.00    -0.000 C 
BRANCH  26  27
ATOM     27  C   UNL     1     -23.609  20.795  -5.999  1.00  0.00    -0.000 C 
BRANCH  27  28
ATOM     28  C   UNL     1     -23.489  22.320  -6.104  1.00  0.00    -0.000 C 
BRANCH  28  29
ATOM     29  C   UNL     1     -22.055  22.735  -6.451  1.00  0.00    -0.003 C 
ATOM     30  C   UNL     1     -21.041  21.992  -5.586  1.00  0.00     0.004 C 
ENDBRANCH  28  29
ENDBRANCH  27  28
ENDBRANCH  26  27
ENDBRANCH  25  26
ENDBRANCH  24  25
ENDBRANCH  23  24
ENDBRANCH  22  23
ENDBRANCH  21  22
ENDBRANCH  20  21
ENDBRANCH  19  20
ENDBRANCH  18  19
ENDBRANCH  17  18
ENDBRANCH   1  17
TORSDOF 26
ENDMDL
MODEL 3
REMARK VINA RESULT:    19.286      5.567     10.719
REMARK INTER + INTRA:          48.529
REMARK INTER:                  48.577
REMARK INTRA:                  -0.048
REMARK UNBOUND:                -0.071
REMARK SMILES CCCCCCCCCCCCCCCCCCCCCCCCCCCC(=O)[O-]
REMARK SMILES IDX 15 1 16 2 17 3 18 4 19 5 20 6 21 7 22 8 23 9 24 10 25 11
REMARK SMILES IDX 26 12 27 13 28 14 29 15 30 16 14 17 13 18 12 19 11 20 10 21
REMARK SMILES IDX 9 22 8 23 7 24 6 25 5 26 4 27 3 28 2 29 1 30
REMARK H PARENT
REMARK Flexibility Score: inf
ROOT
ATOM      1  C   UNL     1     -33.615  17.182  -8.766  1.00  0.00     0.000 C 
ENDROOT
BRANCH   1   2
ATOM      2  C   UNL     1     -32.523  17.524  -9.795  1.00  0.00     0.000 C 
BRANCH   2   3
ATOM      3  C   UNL     1     -32.822  18.757 -10.668  1.00  0.00     0.000 C 
BRANCH   3   4
ATOM      4  C   UNL     1     -32.843  20.088  -9.883  1.00  0.00     0.000 C 
BRANCH   4   5
ATOM      5  C   UNL     1     -32.406  21.291 -10.737  1.00  0.00     0.000 C 
BRANCH   5   6
ATOM      6  C   UNL     1     -33.060  22.605 -10.282  1.00  0.00     0.000 C 
BRANCH   6   7
ATOM      7  C   UNL     1     -32.030  23.643  -9.805  1.00  0.00     0.000 C 
BRANCH   7   8
ATOM      8  C   UNL     1     -30.596  23.086  -9.773  1.00  0.00     0.000 C 
BRANCH   8   9
ATOM      9  C   UNL     1     -30.083  22.529 -11.117  1.00  0.00     0.000 C 
BRANCH   9  10
ATOM     10  C   UNL     1     -28.948  21.495 -11.004  1.00  0.00     0.000 C 
BRANCH  10  11
ATOM     11  C   UNL     1     -29.395  20.190 -10.328  1.00  0.00     0.000 C 
BRANCH  11  12
ATOM     12  C   UNL     1     -29.154  18.985 -11.249  1.00  0.00     0.006 C 
BRANCH  12  13
ATOM     13  C   UNL     1     -29.738  17.689 -10.672  1.00  0.00     0.053 C 
BRANCH  13  14
ATOM     14  C   UNL     1     -29.367  16.495 -11.497  1.00  0.00     0.041 C 
ATOM     15  O   UNL     1     -29.431  15.339 -11.002  1.00  0.00    -0.550 OA
ATOM     16  O   UNL     1     -28.980  16.657 -12.821  1.00  0.00    -0.550 OA
ENDBRANCH  13  14
ENDBRANCH  12  13
ENDBRANCH  11  12
ENDBRANCH  10  11
ENDBRANCH   9  10
ENDBRANCH   8   9
ENDBRANCH   7   8
ENDBRANCH   6   7
ENDBRANCH   5   6
ENDBRANCH   4   5
ENDBRANCH   3   4
ENDBRANCH   2   3
ENDBRANCH   1   2
BRANCH   1  17
ATOM     17  C   UNL     1     -33.481  15.763  -8.168  1.00  0.00     0.000 C 
BRANCH  17  18
ATOM     18  C   UNL     1     -33.053  15.780  -6.690  1.00  0.00     0.000 C 
BRANCH  18  19
ATOM     19  C   UNL     1     -33.538  14.545  -5.915  1.00  0.00     0.000 C 
BRANCH  19  20
ATOM     20  C   UNL     1     -33.672  13.301  -6.811  1.00  0.00     0.000 C 
BRANCH  20  21
ATOM     21  C   UNL     1     -33.057  12.045  -6.171  1.00  0.00     0.000 C 
BRANCH  21  22
ATOM     22  C   UNL     1     -33.093  10.831  -7.115  1.00  0.00    -0.000 C 
BRANCH  22  23
ATOM     23  C   UNL     1     -32.243  11.033  -8.384  1.00  0.00    -0.000 C 
BRANCH  23  24
ATOM     24  C   UNL     1     -31.122   9.998  -8.594  1.00  0.00    -0.000 C 
BRANCH  24  25
ATOM     25  C   UNL     1     -31.338   8.645  -7.889  1.00  0.00    -0.000 C 
BRANCH  25  26
ATOM     26  C   UNL     1     -31.616   7.472  -8.853  1.00  0.00    -0.000 C 
BRANCH  26  27
ATOM     27  C   UNL     1     -32.362   6.313  -8.176  1.00  0.00    -0.000 C 
BRANCH  27  28
ATOM     28  C   UNL     1     -31.386   5.384  -7.446  1.00  0.00    -0.000 C 
BRANCH  28  29
ATOM     29  C   UNL     1     -30.032   5.336  -8.163  1.00  0.00    -0.003 C 
ATOM     30  C   UNL     1     -28.894   5.707  -7.218  1.00  0.00     0.004 C 
ENDBRANCH  28  29
ENDBRANCH  27  28
ENDBRANCH  26  27
ENDBRANCH  25  26
ENDBRANCH  24  25
ENDBRANCH  23  24
ENDBRANCH  22  23
ENDBRANCH  21  22
ENDBRANCH  20  21
ENDBRANCH  19  20
ENDBRANCH  18  19
ENDBRANCH  17  18
ENDBRANCH   1  17
TORSDOF 26
ENDMDL
MODEL 4
REMARK VINA RESULT:    19.575      4.063      9.180
REMARK INTER + INTRA:          49.258
REMARK INTER:                  49.886
REMARK INTRA:                  -0.627
REMARK UNBOUND:                -0.071
REMARK SMILES CCCCCCCCCCCCCCCCCCCCCCCCCCCC(=O)[O-]
REMARK SMILES IDX 15 1 16 2 17 3 18 4 19 5 20 6 21 7 22 8 23 9 24 10 25 11
REMARK SMILES IDX 26 12 27 13 28 14 29 15 30 16 14 17 13 18 12 19 11 20 10 21
REMARK SMILES IDX 9 22 8 23 7 24 6 25 5 26 4 27 3 28 2 29 1 30
REMARK H PARENT
REMARK Flexibility Score: inf
ROOT
ATOM      1  C   UNL     1     -32.339  20.930 -10.509  1.00  0.00     0.000 C 
ENDROOT
BRANCH   1   2
ATOM      2  C   UNL     1     -32.812  22.185  -9.754  1.00  0.00     0.000 C 
BRANCH   2   3
ATOM      3  C   UNL     1     -31.896  23.414  -9.905  1.00  0.00     0.000 C 
BRANCH   3   4
ATOM      4  C   UNL     1     -30.413  23.060 -10.160  1.00  0.00     0.000 C 
BRANCH   4   5
ATOM      5  C   UNL     1     -30.238  21.948 -11.209  1.00  0.00     0.000 C 
BRANCH   5   6
ATOM      6  C   UNL     1     -29.120  20.961 -10.838  1.00  0.00     0.000 C 
BRANCH   6   7
ATOM      7  C   UNL     1     -28.161  21.525  -9.776  1.00  0.00     0.000 C 
BRANCH   7   8
ATOM      8  C   UNL     1     -26.945  22.238 -10.392  1.00  0.00     0.000 C 
BRANCH   8   9
ATOM      9  C   UNL     1     -25.860  22.667  -9.384  1.00  0.00     0.000 C 
BRANCH   9  10
ATOM     10  C   UNL     1     -24.885  21.554  -8.960  1.00  0.00     0.000 C 
BRANCH  10  11
ATOM     11  C   UNL     1     -25.180  21.006  -7.556  1.00  0.00     0.000 C 
BRANCH  11  12
ATOM     12  C   UNL     1     -24.264  21.657  -6.509  1.00  0.00     0.006 C 
BRANCH  12  13
ATOM     13  C   UNL     1     -22.916  22.086  -7.104  1.00  0.00     0.053 C 
BRANCH  13  14
ATOM     14  C   UNL     1     -22.007  22.665  -6.065  1.00  0.00     0.041 C 
ATOM     15  O   UNL     1     -22.235  23.809  -5.592  1.00  0.00    -0.550 OA
ATOM     16  O   UNL     1     -20.927  21.928  -5.596  1.00  0.00    -0.550 OA
ENDBRANCH  13  14
ENDBRANCH  12  13
ENDBRANCH  11  12
ENDBRANCH  10  11
ENDBRANCH   9  10
ENDBRANCH   8   9
ENDBRANCH   7   8
ENDBRANCH   6   7
ENDBRANCH   5   6
ENDBRANCH   4   5
ENDBRANCH   3   4
ENDBRANCH   2   3
ENDBRANCH   1   2
BRANCH   1  17
ATOM     17  C   UNL     1     -32.764  19.604  -9.836  1.00  0.00     0.000 C 
BRANCH  17  18
ATOM     18  C   UNL     1     -32.418  18.371 -10.688  1.00  0.00     0.000 C 
BRANCH  18  19
ATOM     19  C   UNL     1     -31.449  17.411  -9.981  1.00  0.00     0.000 C 
BRANCH  19  20
ATOM     20  C   UNL     1     -31.109  16.178 -10.837  1.00  0.00     0.000 C 
BRANCH  20  21
ATOM     21  C   UNL     1     -29.618  16.112 -11.208  1.00  0.00     0.000 C 
BRANCH  21  22
ATOM     22  C   UNL     1     -29.022  17.505 -11.480  1.00  0.00    -0.000 C 
BRANCH  22  23
ATOM     23  C   UNL     1     -28.777  17.770 -12.978  1.00  0.00    -0.000 C 
BRANCH  23  24
ATOM     24  C   UNL     1     -28.633  16.509 -13.851  1.00  0.00    -0.000 C 
BRANCH  24  25
ATOM     25  C   UNL     1     -29.570  16.446 -15.073  1.00  0.00    -0.000 C 
BRANCH  25  26
ATOM     26  C   UNL     1     -29.725  17.791 -15.814  1.00  0.00    -0.000 C 
BRANCH  26  27
ATOM     27  C   UNL     1     -30.692  17.703 -17.005  1.00  0.00    -0.000 C 
BRANCH  27  28
ATOM     28  C   UNL     1     -30.617  18.970 -17.867  1.00  0.00    -0.000 C 
BRANCH  28  29
ATOM     29  C   UNL     1     -29.724  20.029 -17.211  1.00  0.00    -0.003 C 
ATOM     30  C   UNL     1     -28.879  20.758 -18.251  1.00  0.00     0.004 C 
ENDBRANCH  28  29
ENDBRANCH  27  28
ENDBRANCH  26  27
ENDBRANCH  25  26
ENDBRANCH  24  25
ENDBRANCH  23  24
ENDBRANCH  22  23
ENDBRANCH  21  22
ENDBRANCH  20  21
ENDBRANCH  19  20
ENDBRANCH  18  19
ENDBRANCH  17  18
ENDBRANCH   1  17
TORSDOF 26
ENDMDL
MODEL 5
REMARK VINA RESULT:    19.589      0.877      2.065
REMARK INTER + INTRA:          49.293
REMARK INTER:                  51.365
REMARK INTRA:                  -2.072
REMARK UNBOUND:                -0.071
REMARK SMILES CCCCCCCCCCCCCCCCCCCCCCCCCCCC(=O)[O-]
REMARK SMILES IDX 15 1 16 2 17 3 18 4 19 5 20 6 21 7 22 8 23 9 24 10 25 11
REMARK SMILES IDX 26 12 27 13 28 14 29 15 30 16 14 17 13 18 12 19 11 20 10 21
REMARK SMILES IDX 9 22 8 23 7 24 6 25 5 26 4 27 3 28 2 29 1 30
REMARK H PARENT
REMARK Flexibility Score: inf
ROOT
ATOM      1  C   UNL     1     -30.392  22.602 -10.999  1.00  0.00     0.000 C 
ENDROOT
BRANCH   1   2
ATOM      2  C   UNL     1     -31.838  22.660 -10.476  1.00  0.00     0.000 C 
BRANCH   2   3
ATOM      3  C   UNL     1     -32.267  21.449  -9.626  1.00  0.00     0.000 C 
BRANCH   3   4
ATOM      4  C   UNL     1     -32.623  20.197 -10.459  1.00  0.00     0.000 C 
BRANCH   4   5
ATOM      5  C   UNL     1     -31.887  18.934  -9.979  1.00  0.00     0.000 C 
BRANCH   5   6
ATOM      6  C   UNL     1     -31.058  18.276 -11.094  1.00  0.00     0.000 C 
BRANCH   6   7
ATOM      7  C   UNL     1     -29.642  17.893 -10.629  1.00  0.00     0.000 C 
BRANCH   7   8
ATOM      8  C   UNL     1     -29.010  16.792 -11.499  1.00  0.00     0.000 C 
BRANCH   8   9
ATOM      9  C   UNL     1     -29.036  17.064 -13.017  1.00  0.00     0.000 C 
BRANCH   9  10
ATOM     10  C   UNL     1     -29.112  15.809 -13.904  1.00  0.00     0.000 C 
BRANCH  10  11
ATOM     11  C   UNL     1     -29.070  16.136 -15.404  1.00  0.00     0.000 C 
BRANCH  11  12
ATOM     12  C   UNL     1     -29.888  17.399 -15.714  1.00  0.00     0.006 C 
BRANCH  12  13
ATOM     13  C   UNL     1     -29.891  17.735 -17.211  1.00  0.00     0.053 C 
BRANCH  13  14
ATOM     14  C   UNL     1     -30.321  19.147 -17.463  1.00  0.00     0.041 C 
ATOM     15  O   UNL     1     -31.544  19.445 -17.464  1.00  0.00    -0.550 OA
ATOM     16  O   UNL     1     -29.370  20.139 -17.666  1.00  0.00    -0.550 OA
ENDBRANCH  13  14
ENDBRANCH  12  13
ENDBRANCH  11  12
ENDBRANCH  10  11
ENDBRANCH   9  10
ENDBRANCH   8   9
ENDBRANCH   7   8
ENDBRANCH   6   7
ENDBRANCH   5   6
ENDBRANCH   4   5
ENDBRANCH   3   4
ENDBRANCH   2   3
ENDBRANCH   1   2
BRANCH   1  17
ATOM     17  C   UNL     1     -29.567  21.431 -10.415  1.00  0.00     0.000 C 
BRANCH  17  18
ATOM     18  C   UNL     1     -28.548  20.866 -11.419  1.00  0.00     0.000 C 
BRANCH  18  19
ATOM     19  C   UNL     1     -28.284  21.816 -12.598  1.00  0.00     0.000 C 
BRANCH  19  20
ATOM     20  C   UNL     1     -26.818  22.281 -12.665  1.00  0.00     0.000 C 
BRANCH  20  21
ATOM     21  C   UNL     1     -26.540  23.482 -11.747  1.00  0.00     0.000 C 
BRANCH  21  22
ATOM     22  C   UNL     1     -25.034  23.765 -11.597  1.00  0.00    -0.000 C 
BRANCH  22  23
ATOM     23  C   UNL     1     -24.543  23.638 -10.142  1.00  0.00    -0.000 C 
BRANCH  23  24
ATOM     24  C   UNL     1     -25.310  22.621  -9.278  1.00  0.00    -0.000 C 
BRANCH  24  25
ATOM     25  C   UNL     1     -24.432  21.600  -8.529  1.00  0.00    -0.000 C 
BRANCH  25  26
ATOM     26  C   UNL     1     -24.579  21.654  -6.993  1.00  0.00    -0.000 C 
BRANCH  26  27
ATOM     27  C   UNL     1     -23.254  21.391  -6.262  1.00  0.00    -0.000 C 
BRANCH  27  28
ATOM     28  C   UNL     1     -22.088  22.094  -6.968  1.00  0.00    -0.000 C 
BRANCH  28  29
ATOM     29  C   UNL     1     -22.150  23.610  -6.751  1.00  0.00    -0.003 C 
ATOM     30  C   UNL     1     -22.395  23.948  -5.284  1.00  0.00     0.004 C 
ENDBRANCH  28  29
ENDBRANCH  27  28
ENDBRANCH  26  27
ENDBRANCH  25  26
ENDBRANCH  24  25
ENDBRANCH  23  24
ENDBRANCH  22  23
ENDBRANCH  21  22
ENDBRANCH  20  21
ENDBRANCH  19  20
ENDBRANCH  18  19
ENDBRANCH  17  18
ENDBRANCH   1  17
TORSDOF 26
ENDMDL
MODEL 6
REMARK VINA RESULT:    19.651      5.437      9.694
REMARK INTER + INTRA:          49.450
REMARK INTER:                  50.209
REMARK INTRA:                  -0.759
REMARK UNBOUND:                -0.071
REMARK SMILES CCCCCCCCCCCCCCCCCCCCCCCCCCCC(=O)[O-]
REMARK SMILES IDX 15 1 16 2 17 3 18 4 19 5 20 6 21 7 22 8 23 9 24 10 25 11
REMARK SMILES IDX 26 12 27 13 28 14 29 15 30 16 14 17 13 18 12 19 11 20 10 21
REMARK SMILES IDX 9 22 8 23 7 24 6 25 5 26 4 27 3 28 2 29 1 30
REMARK H PARENT
REMARK Flexibility Score: inf
ROOT
ATOM      1  C   UNL     1     -30.977  17.954 -10.592  1.00  0.00     0.000 C 
ENDROOT
BRANCH   1   2
ATOM      2  C   UNL     1     -32.490  17.968 -10.311  1.00  0.00     0.000 C 
BRANCH   2   3
ATOM      3  C   UNL     1     -33.063  19.346  -9.927  1.00  0.00     0.000 C 
BRANCH   3   4
ATOM      4  C   UNL     1     -32.315  20.535 -10.571  1.00  0.00     0.000 C 
BRANCH   4   5
ATOM      5  C   UNL     1     -32.392  21.817  -9.725  1.00  0.00     0.000 C 
BRANCH   5   6
ATOM      6  C   UNL     1     -31.369  22.875 -10.164  1.00  0.00     0.000 C 
BRANCH   6   7
ATOM      7  C   UNL     1     -30.342  22.323 -11.168  1.00  0.00     0.000 C 
BRANCH   7   8
ATOM      8  C   UNL     1     -29.609  21.077 -10.643  1.00  0.00     0.000 C 
BRANCH   8   9
ATOM      9  C   UNL     1     -28.100  21.267 -10.387  1.00  0.00     0.000 C 
BRANCH   9  10
ATOM     10  C   UNL     1     -27.740  21.871  -9.017  1.00  0.00     0.000 C 
BRANCH  10  11
ATOM     11  C   UNL     1     -26.238  22.152  -8.865  1.00  0.00     0.000 C 
BRANCH  11  12
ATOM     12  C   UNL     1     -25.622  21.269  -7.770  1.00  0.00     0.006 C 
BRANCH  12  13
ATOM     13  C   UNL     1     -24.094  21.184  -7.884  1.00  0.00     0.053 C 
BRANCH  13  14
ATOM     14  C   UNL     1     -23.412  21.831  -6.719  1.00  0.00     0.041 C 
ATOM     15  O   UNL     1     -22.439  22.607  -6.906  1.00  0.00    -0.550 OA
ATOM     16  O   UNL     1     -23.871  21.600  -5.428  1.00  0.00    -0.550 OA
ENDBRANCH  13  14
ENDBRANCH  12  13
ENDBRANCH  11  12
ENDBRANCH  10  11
ENDBRANCH   9  10
ENDBRANCH   8   9
ENDBRANCH   7   8
ENDBRANCH   6   7
ENDBRANCH   5   6
ENDBRANCH   4   5
ENDBRANCH   3   4
ENDBRANCH   2   3
ENDBRANCH   1   2
BRANCH   1  17
ATOM     17  C   UNL     1     -30.387  16.532 -10.739  1.00  0.00     0.000 C 
BRANCH  17  18
ATOM     18  C   UNL     1     -28.989  16.535 -11.381  1.00  0.00     0.000 C 
BRANCH  18  19
ATOM     19  C   UNL     1     -28.869  17.535 -12.542  1.00  0.00     0.000 C 
BRANCH  19  20
ATOM     20  C   UNL     1     -28.836  16.842 -13.917  1.00  0.00     0.000 C 
BRANCH  20  21
ATOM     21  C   UNL     1     -28.825  15.308 -13.802  1.00  0.00     0.000 C 
BRANCH  21  22
ATOM     22  C   UNL     1     -28.324  14.631 -15.090  1.00  0.00    -0.000 C 
BRANCH  22  23
ATOM     23  C   UNL     1     -27.353  13.467 -14.816  1.00  0.00    -0.000 C 
BRANCH  23  24
ATOM     24  C   UNL     1     -25.926  13.661 -15.362  1.00  0.00    -0.000 C 
BRANCH  24  25
ATOM     25  C   UNL     1     -24.898  12.610 -14.901  1.00  0.00    -0.000 C 
BRANCH  25  26
ATOM     26  C   UNL     1     -24.110  11.956 -16.057  1.00  0.00    -0.000 C 
BRANCH  26  27
ATOM     27  C   UNL     1     -22.983  11.038 -15.560  1.00  0.00    -0.000 C 
BRANCH  27  28
ATOM     28  C   UNL     1     -22.239  10.396 -16.737  1.00  0.00    -0.000 C 
BRANCH  28  29
ATOM     29  C   UNL     1     -21.418   9.187 -16.275  1.00  0.00    -0.003 C 
ATOM     30  C   UNL     1     -21.825   8.750 -14.871  1.00  0.00     0.004 C 
ENDBRANCH  28  29
ENDBRANCH  27  28
ENDBRANCH  26  27
ENDBRANCH  25  26
ENDBRANCH  24  25
ENDBRANCH  23  24
ENDBRANCH  22  23
ENDBRANCH  21  22
ENDBRANCH  20  21
ENDBRANCH  19  20
ENDBRANCH  18  19
ENDBRANCH  17  18
ENDBRANCH   1  17
TORSDOF 26
ENDMDL
MODEL 7
REMARK VINA RESULT:    19.783      2.498      3.210
REMARK INTER + INTRA:          49.781
REMARK INTER:                  52.198
REMARK INTRA:                  -2.417
REMARK UNBOUND:                -0.071
REMARK SMILES CCCCCCCCCCCCCCCCCCCCCCCCCCCC(=O)[O-]
REMARK SMILES IDX 15 1 16 2 17 3 18 4 19 5 20 6 21 7 22 8 23 9 24 10 25 11
REMARK SMILES IDX 26 12 27 13 28 14 29 15 30 16 14 17 13 18 12 19 11 20 10 21
REMARK SMILES IDX 9 22 8 23 7 24 6 25 5 26 4 27 3 28 2 29 1 30
REMARK H PARENT
REMARK Flexibility Score: inf
ROOT
ATOM      1  C   UNL     1     -31.451  22.675 -10.854  1.00  0.00     0.000 C 
ENDROOT
BRANCH   1   2
ATOM      2  C   UNL     1     -31.865  22.041  -9.514  1.00  0.00     0.000 C 
BRANCH   2   3
ATOM      3  C   UNL     1     -32.846  20.859  -9.635  1.00  0.00     0.000 C 
BRANCH   3   4
ATOM      4  C   UNL     1     -32.362  19.740 -10.585  1.00  0.00     0.000 C 
BRANCH   4   5
ATOM      5  C   UNL     1     -33.032  18.385 -10.299  1.00  0.00     0.000 C 
BRANCH   5   6
ATOM      6  C   UNL     1     -32.025  17.311  -9.861  1.00  0.00     0.000 C 
BRANCH   6   7
ATOM      7  C   UNL     1     -31.064  16.906 -10.992  1.00  0.00     0.000 C 
BRANCH   7   8
ATOM      8  C   UNL     1     -29.585  17.054 -10.595  1.00  0.00     0.000 C 
BRANCH   8   9
ATOM      9  C   UNL     1     -28.578  16.889 -11.752  1.00  0.00     0.000 C 
BRANCH   9  10
ATOM     10  C   UNL     1     -28.958  17.612 -13.057  1.00  0.00     0.000 C 
BRANCH  10  11
ATOM     11  C   UNL     1     -28.697  16.760 -14.308  1.00  0.00     0.000 C 
BRANCH  11  12
ATOM     12  C   UNL     1     -28.717  15.263 -13.966  1.00  0.00     0.006 C 
BRANCH  12  13
ATOM     13  C   UNL     1     -28.458  14.384 -15.197  1.00  0.00     0.053 C 
BRANCH  13  14
ATOM     14  C   UNL     1     -27.292  13.468 -14.992  1.00  0.00     0.041 C 
ATOM     15  O   UNL     1     -27.473  12.298 -14.563  1.00  0.00    -0.550 OA
ATOM     16  O   UNL     1     -26.007  13.896 -15.304  1.00  0.00    -0.550 OA
ENDBRANCH  13  14
ENDBRANCH  12  13
ENDBRANCH  11  12
ENDBRANCH  10  11
ENDBRANCH   9  10
ENDBRANCH   8   9
ENDBRANCH   7   8
ENDBRANCH   6   7
ENDBRANCH   5   6
ENDBRANCH   4   5
ENDBRANCH   3   4
ENDBRANCH   2   3
ENDBRANCH   1   2
BRANCH   1  17
ATOM     17  C   UNL     1     -29.953  22.491 -11.191  1.00  0.00     0.000 C 
BRANCH  17  18
ATOM     18  C   UNL     1     -29.466  21.051 -10.955  1.00  0.00     0.000 C 
BRANCH  18  19
ATOM     19  C   UNL     1     -28.228  20.697 -11.795  1.00  0.00     0.000 C 
BRANCH  19  20
ATOM     20  C   UNL     1     -27.713  21.890 -12.619  1.00  0.00     0.000 C 
BRANCH  20  21
ATOM     21  C   UNL     1     -26.196  22.094 -12.475  1.00  0.00     0.000 C 
BRANCH  21  22
ATOM     22  C   UNL     1     -25.842  23.504 -11.970  1.00  0.00    -0.000 C 
BRANCH  22  23
ATOM     23  C   UNL     1     -25.222  23.497 -10.559  1.00  0.00    -0.000 C 
BRANCH  23  24
ATOM     24  C   UNL     1     -26.051  22.773  -9.482  1.00  0.00    -0.000 C 
BRANCH  24  25
ATOM     25  C   UNL     1     -25.377  21.539  -8.853  1.00  0.00    -0.000 C 
BRANCH  25  26
ATOM     26  C   UNL     1     -24.486  21.865  -7.635  1.00  0.00    -0.000 C 
BRANCH  26  27
ATOM     27  C   UNL     1     -23.006  21.534  -7.878  1.00  0.00    -0.000 C 
BRANCH  27  28
ATOM     28  C   UNL     1     -22.167  21.815  -6.625  1.00  0.00    -0.000 C 
BRANCH  28  29
ATOM     29  C   UNL     1     -22.857  22.843  -5.722  1.00  0.00    -0.003 C 
ATOM     30  C   UNL     1     -22.032  24.122  -5.611  1.00  0.00     0.004 C 
ENDBRANCH  28  29
ENDBRANCH  27  28
ENDBRANCH  26  27
ENDBRANCH  25  26
ENDBRANCH  24  25
ENDBRANCH  23  24
ENDBRANCH  22  23
ENDBRANCH  21  22
ENDBRANCH  20  21
ENDBRANCH  19  20
ENDBRANCH  18  19
ENDBRANCH  17  18
ENDBRANCH   1  17
TORSDOF 26
ENDMDL
MODEL 8
REMARK VINA RESULT:    19.865      4.008      8.915
REMARK INTER + INTRA:          49.989
REMARK INTER:                  52.018
REMARK INTRA:                  -2.029
REMARK UNBOUND:                -0.071
REMARK SMILES CCCCCCCCCCCCCCCCCCCCCCCCCCCC(=O)[O-]
REMARK SMILES IDX 15 1 16 2 17 3 18 4 19 5 20 6 21 7 22 8 23 9 24 10 25 11
REMARK SMILES IDX 26 12 27 13 28 14 29 15 30 16 14 17 13 18 12 19 11 20 10 21
REMARK SMILES IDX 9 22 8 23 7 24 6 25 5 26 4 27 3 28 2 29 1 30
REMARK H PARENT
REMARK Flexibility Score: inf
ROOT
ATOM      1  C   UNL     1     -31.265  23.527 -10.741  1.00  0.00     0.000 C 
ENDROOT
BRANCH   1   2
ATOM      2  C   UNL     1     -30.460  22.655 -11.721  1.00  0.00     0.000 C 
BRANCH   2   3
ATOM      3  C   UNL     1     -29.064  22.239 -11.220  1.00  0.00     0.000 C 
BRANCH   3   4
ATOM      4  C   UNL     1     -28.555  20.910 -11.823  1.00  0.00     0.000 C 
BRANCH   4   5
ATOM      5  C   UNL     1     -27.793  21.109 -13.144  1.00  0.00     0.000 C 
BRANCH   5   6
ATOM      6  C   UNL     1     -26.764  22.248 -13.065  1.00  0.00     0.000 C 
BRANCH   6   7
ATOM      7  C   UNL     1     -25.757  22.055 -11.917  1.00  0.00     0.000 C 
BRANCH   7   8
ATOM      8  C   UNL     1     -25.532  23.342 -11.104  1.00  0.00     0.000 C 
BRANCH   8   9
ATOM      9  C   UNL     1     -25.276  23.126  -9.598  1.00  0.00     0.000 C 
BRANCH   9  10
ATOM     10  C   UNL     1     -26.229  22.131  -8.910  1.00  0.00     0.000 C 
BRANCH  10  11
ATOM     11  C   UNL     1     -25.733  21.696  -7.523  1.00  0.00     0.000 C 
BRANCH  11  12
ATOM     12  C   UNL     1     -24.301  21.145  -7.599  1.00  0.00     0.006 C 
BRANCH  12  13
ATOM     13  C   UNL     1     -23.552  21.292  -6.269  1.00  0.00     0.053 C 
BRANCH  13  14
ATOM     14  C   UNL     1     -22.486  22.341  -6.343  1.00  0.00     0.041 C 
ATOM     15  O   UNL     1     -22.714  23.506  -5.922  1.00  0.00    -0.550 OA
ATOM     16  O   UNL     1     -21.231  22.024  -6.847  1.00  0.00    -0.550 OA
ENDBRANCH  13  14
ENDBRANCH  12  13
ENDBRANCH  11  12
ENDBRANCH  10  11
ENDBRANCH   9  10
ENDBRANCH   8   9
ENDBRANCH   7   8
ENDBRANCH   6   7
ENDBRANCH   5   6
ENDBRANCH   4   5
ENDBRANCH   3   4
ENDBRANCH   2   3
ENDBRANCH   1   2
BRANCH   1  17
ATOM     17  C   UNL     1     -32.367  22.752  -9.983  1.00  0.00     0.000 C 
BRANCH  17  18
ATOM     18  C   UNL     1     -31.937  21.323  -9.609  1.00  0.00     0.000 C 
BRANCH  18  19
ATOM     19  C   UNL     1     -32.270  20.296 -10.703  1.00  0.00     0.000 C 
BRANCH  19  20
ATOM     20  C   UNL     1     -33.169  19.157 -10.190  1.00  0.00     0.000 C 
BRANCH  20  21
ATOM     21  C   UNL     1     -32.392  17.850  -9.964  1.00  0.00     0.000 C 
BRANCH  21  22
ATOM     22  C   UNL     1     -31.042  17.838 -10.703  1.00  0.00    -0.000 C 
BRANCH  22  23
ATOM     23  C   UNL     1     -30.414  16.433 -10.781  1.00  0.00    -0.000 C 
BRANCH  23  24
ATOM     24  C   UNL     1     -28.935  16.400 -11.210  1.00  0.00    -0.000 C 
BRANCH  24  25
ATOM     25  C   UNL     1     -28.572  17.324 -12.389  1.00  0.00    -0.000 C 
BRANCH  25  26
ATOM     26  C   UNL     1     -29.297  16.975 -13.705  1.00  0.00    -0.000 C 
BRANCH  26  27
ATOM     27  C   UNL     1     -28.412  16.180 -14.677  1.00  0.00    -0.000 C 
BRANCH  27  28
ATOM     28  C   UNL     1     -28.497  14.676 -14.392  1.00  0.00    -0.000 C 
BRANCH  28  29
ATOM     29  C   UNL     1     -27.418  13.909 -15.166  1.00  0.00    -0.003 C 
ATOM     30  C   UNL     1     -27.410  12.432 -14.782  1.00  0.00     0.004 C 
ENDBRANCH  28  29
ENDBRANCH  27  28
ENDBRANCH  26  27
ENDBRANCH  25  26
ENDBRANCH  24  25
ENDBRANCH  23  24
ENDBRANCH  22  23
ENDBRANCH  21  22
ENDBRANCH  20  21
ENDBRANCH  19  20
ENDBRANCH  18  19
ENDBRANCH  17  18
ENDBRANCH   1  17
TORSDOF 26
ENDMDL
MODEL 9
REMARK VINA RESULT:    20.190      3.832      8.824
REMARK INTER + INTRA:          50.808
REMARK INTER:                  51.898
REMARK INTRA:                  -1.090
REMARK UNBOUND:                -0.071
REMARK SMILES CCCCCCCCCCCCCCCCCCCCCCCCCCCC(=O)[O-]
REMARK SMILES IDX 15 1 16 2 17 3 18 4 19 5 20 6 21 7 22 8 23 9 24 10 25 11
REMARK SMILES IDX 26 12 27 13 28 14 29 15 30 16 14 17 13 18 12 19 11 20 10 21
REMARK SMILES IDX 9 22 8 23 7 24 6 25 5 26 4 27 3 28 2 29 1 30
REMARK H PARENT
REMARK Flexibility Score: inf
ROOT
ATOM      1  C   UNL     1     -32.621  23.670  -9.935  1.00  0.00     0.000 C 
ENDROOT
BRANCH   1   2
ATOM      2  C   UNL     1     -31.096  23.462  -9.945  1.00  0.00     0.000 C 
BRANCH   2   3
ATOM      3  C   UNL     1     -30.575  22.558 -11.078  1.00  0.00     0.000 C 
BRANCH   3   4
ATOM      4  C   UNL     1     -29.102  22.123 -10.901  1.00  0.00     0.000 C 
BRANCH   4   5
ATOM      5  C   UNL     1     -28.731  20.908 -11.770  1.00  0.00     0.000 C 
BRANCH   5   6
ATOM      6  C   UNL     1     -27.605  21.219 -12.767  1.00  0.00     0.000 C 
BRANCH   6   7
ATOM      7  C   UNL     1     -27.364  22.730 -12.933  1.00  0.00     0.000 C 
BRANCH   7   8
ATOM      8  C   UNL     1     -25.878  23.110 -12.811  1.00  0.00     0.000 C 
BRANCH   8   9
ATOM      9  C   UNL     1     -25.521  23.956 -11.572  1.00  0.00     0.000 C 
BRANCH   9  10
ATOM     10  C   UNL     1     -25.749  23.261 -10.217  1.00  0.00     0.000 C 
BRANCH  10  11
ATOM     11  C   UNL     1     -24.446  22.752  -9.582  1.00  0.00     0.000 C 
BRANCH  11  12
ATOM     12  C   UNL     1     -24.722  22.078  -8.230  1.00  0.00     0.006 C 
BRANCH  12  13
ATOM     13  C   UNL     1     -23.477  21.381  -7.665  1.00  0.00     0.053 C 
BRANCH  13  14
ATOM     14  C   UNL     1     -23.064  21.961  -6.348  1.00  0.00     0.041 C 
ATOM     15  O   UNL     1     -22.081  22.745  -6.281  1.00  0.00    -0.550 OA
ATOM     16  O   UNL     1     -23.783  21.659  -5.198  1.00  0.00    -0.550 OA
ENDBRANCH  13  14
ENDBRANCH  12  13
ENDBRANCH  11  12
ENDBRANCH  10  11
ENDBRANCH   9  10
ENDBRANCH   8   9
ENDBRANCH   7   8
ENDBRANCH   6   7
ENDBRANCH   5   6
ENDBRANCH   4   5
ENDBRANCH   3   4
ENDBRANCH   2   3
ENDBRANCH   1   2
BRANCH   1  17
ATOM     17  C   UNL     1     -33.428  22.351  -9.953  1.00  0.00     0.000 C 
BRANCH  17  18
ATOM     18  C   UNL     1     -32.584  21.135  -9.536  1.00  0.00     0.000 C 
BRANCH  18  19
ATOM     19  C   UNL     1     -32.313  20.170 -10.701  1.00  0.00     0.000 C 
BRANCH  19  20
ATOM     20  C   UNL     1     -32.759  18.730 -10.392  1.00  0.00     0.000 C 
BRANCH  20  21
ATOM     21  C   UNL     1     -31.571  17.770 -10.219  1.00  0.00     0.000 C 
BRANCH  21  22
ATOM     22  C   UNL     1     -30.253  18.373 -10.737  1.00  0.00    -0.000 C 
BRANCH  22  23
ATOM     23  C   UNL     1     -29.249  17.302 -11.207  1.00  0.00    -0.000 C 
BRANCH  23  24
ATOM     24  C   UNL     1     -28.863  17.375 -12.696  1.00  0.00    -0.000 C 
BRANCH  24  25
ATOM     25  C   UNL     1     -29.168  16.107 -13.516  1.00  0.00    -0.000 C 
BRANCH  25  26
ATOM     26  C   UNL     1     -28.934  16.270 -15.033  1.00  0.00    -0.000 C 
BRANCH  26  27
ATOM     27  C   UNL     1     -29.447  17.614 -15.571  1.00  0.00    -0.000 C 
BRANCH  27  28
ATOM     28  C   UNL     1     -30.514  17.402 -16.652  1.00  0.00    -0.000 C 
BRANCH  28  29
ATOM     29  C   UNL     1     -30.680  18.659 -17.514  1.00  0.00    -0.003 C 
ATOM     30  C   UNL     1     -29.427  19.528 -17.467  1.00  0.00     0.004 C 
ENDBRANCH  28  29
ENDBRANCH  27  28
ENDBRANCH  26  27
ENDBRANCH  25  26
ENDBRANCH  24  25
ENDBRANCH  23  24
ENDBRANCH  22  23
ENDBRANCH  21  22
ENDBRANCH  20  21
ENDBRANCH  19  20
ENDBRANCH  18  19
ENDBRANCH  17  18
ENDBRANCH   1  17
TORSDOF 26
ENDMDL
