MODEL 1
REMARK VINA RESULT:    -4.908      0.000      0.000
REMARK INTER + INTRA:          -5.195
REMARK INTER:                  -5.195
REMARK INTRA:                   0.000
REMARK UNBOUND:                 0.000
REMARK SMILES O=c1ccc2cc(O)c(O)cc2o1
REMARK SMILES IDX 4 1 3 2 2 3 1 4 13 5 12 6 11 7 9 8 7 9 6 10 5 11 8 12 10 14
REMARK H PARENT 8 13 10 15
REMARK Flexibility Score: inf
ROOT
ATOM      1  C   UNL     1      41.486 -32.337  36.749  1.00  0.00     0.019 A 
ATOM      2  C   UNL     1      40.544 -32.846  37.641  1.00  0.00     0.094 A 
ATOM      3  C   UNL     1      40.445 -32.282  38.918  1.00  0.00     0.336 A 
ATOM      4  O   UNL     1      39.599 -32.728  39.738  1.00  0.00    -0.246 OA
ATOM      5  O   UNL     1      41.239 -31.277  39.274  1.00  0.00    -0.423 OA
ATOM      6  C   UNL     1      42.153 -30.762  38.454  1.00  0.00     0.142 A 
ATOM      7  C   UNL     1      42.961 -29.704  38.882  1.00  0.00     0.098 A 
ATOM      8  C   UNL     1      43.924 -29.158  38.022  1.00  0.00     0.161 A 
ATOM      9  C   UNL     1      44.079 -29.672  36.726  1.00  0.00     0.158 A 
ATOM     10  C   UNL     1      43.272 -30.733  36.290  1.00  0.00     0.062 A 
ATOM     11  C   UNL     1      42.309 -31.280  37.149  1.00  0.00     0.022 A 
ENDROOT
BRANCH   9  12
ATOM     12  O   UNL     1      45.040 -29.124  35.877  1.00  0.00    -0.504 OA
ATOM     13  H   UNL     1      45.450 -29.662  35.124  1.00  0.00     0.293 HD
ENDBRANCH   9  12
BRANCH   8  14
ATOM     14  O   UNL     1      44.731 -28.103  38.447  1.00  0.00    -0.504 OA
ATOM     15  H   UNL     1      44.538 -27.601  39.305  1.00  0.00     0.293 HD
ENDBRANCH   8  14
TORSDOF 2
ENDMDL
MODEL 2
REMARK VINA RESULT:    -4.818      1.181      2.268
REMARK INTER + INTRA:          -5.100
REMARK INTER:                  -5.100
REMARK INTRA:                   0.000
REMARK UNBOUND:                 0.000
REMARK SMILES O=c1ccc2cc(O)c(O)cc2o1
REMARK SMILES IDX 4 1 3 2 2 3 1 4 13 5 12 6 11 7 9 8 7 9 6 10 5 11 8 12 10 14
REMARK H PARENT 8 13 10 15
REMARK Flexibility Score: inf
ROOT
ATOM      1  C   UNL     1      41.053 -31.372  39.327  1.00  0.00     0.019 A 
ATOM      2  C   UNL     1      40.184 -32.327  38.799  1.00  0.00     0.094 A 
ATOM      3  C   UNL     1      40.304 -32.681  37.451  1.00  0.00     0.336 A 
ATOM      4  O   UNL     1      39.529 -33.542  36.956  1.00  0.00    -0.246 OA
ATOM      5  O   UNL     1      41.232 -32.115  36.685  1.00  0.00    -0.423 OA
ATOM      6  C   UNL     1      42.081 -31.199  37.148  1.00  0.00     0.142 A 
ATOM      7  C   UNL     1      43.037 -30.637  36.296  1.00  0.00     0.098 A 
ATOM      8  C   UNL     1      43.933 -29.672  36.779  1.00  0.00     0.161 A 
ATOM      9  C   UNL     1      43.872 -29.268  38.121  1.00  0.00     0.158 A 
ATOM     10  C   UNL     1      42.915 -29.828  38.980  1.00  0.00     0.062 A 
ATOM     11  C   UNL     1      42.019 -30.792  38.499  1.00  0.00     0.022 A 
ENDROOT
BRANCH   9  12
ATOM     12  O   UNL     1      44.766 -28.308  38.593  1.00  0.00    -0.504 OA
ATOM     13  H   UNL     1      44.596 -27.318  38.465  1.00  0.00     0.293 HD
ENDBRANCH   9  12
BRANCH   8  14
ATOM     14  O   UNL     1      44.887 -29.111  35.932  1.00  0.00    -0.504 OA
ATOM     15  H   UNL     1      45.272 -28.190  36.105  1.00  0.00     0.293 HD
ENDBRANCH   8  14
TORSDOF 2
ENDMDL
MODEL 3
REMARK VINA RESULT:    -4.660      1.062      4.561
REMARK INTER + INTRA:          -4.932
REMARK INTER:                  -4.932
REMARK INTRA:                   0.000
REMARK UNBOUND:                 0.000
REMARK SMILES O=c1ccc2cc(O)c(O)cc2o1
REMARK SMILES IDX 4 1 3 2 2 3 1 4 13 5 12 6 11 7 9 8 7 9 6 10 5 11 8 12 10 14
REMARK H PARENT 8 13 10 15
REMARK Flexibility Score: inf
ROOT
ATOM      1  C   UNL     1      43.201 -30.913  36.383  1.00  0.00     0.019 A 
ATOM      2  C   UNL     1      44.021 -29.864  36.795  1.00  0.00     0.094 A 
ATOM      3  C   UNL     1      43.843 -29.325  38.074  1.00  0.00     0.336 A 
ATOM      4  O   UNL     1      44.574 -28.377  38.465  1.00  0.00    -0.246 OA
ATOM      5  O   UNL     1      42.903 -29.806  38.883  1.00  0.00    -0.423 OA
ATOM      6  C   UNL     1      42.098 -30.807  38.530  1.00  0.00     0.142 A 
ATOM      7  C   UNL     1      41.128 -31.273  39.422  1.00  0.00     0.098 A 
ATOM      8  C   UNL     1      40.279 -32.326  39.055  1.00  0.00     0.161 A 
ATOM      9  C   UNL     1      40.400 -32.916  37.788  1.00  0.00     0.158 A 
ATOM     10  C   UNL     1      41.372 -32.453  36.888  1.00  0.00     0.062 A 
ATOM     11  C   UNL     1      42.222 -31.400  37.254  1.00  0.00     0.022 A 
ENDROOT
BRANCH   9  12
ATOM     12  O   UNL     1      39.551 -33.962  37.430  1.00  0.00    -0.504 OA
ATOM     13  H   UNL     1      38.545 -33.845  37.410  1.00  0.00     0.293 HD
ENDBRANCH   9  12
BRANCH   8  14
ATOM     14  O   UNL     1      39.311 -32.793  39.943  1.00  0.00    -0.504 OA
ATOM     15  H   UNL     1      38.417 -33.143  39.617  1.00  0.00     0.293 HD
ENDBRANCH   8  14
TORSDOF 2
ENDMDL
MODEL 4
REMARK VINA RESULT:    -4.601      3.210      5.139
REMARK INTER + INTRA:          -4.870
REMARK INTER:                  -4.870
REMARK INTRA:                   0.000
REMARK UNBOUND:                 0.000
REMARK SMILES O=c1ccc2cc(O)c(O)cc2o1
REMARK SMILES IDX 4 1 3 2 2 3 1 4 13 5 12 6 11 7 9 8 7 9 6 10 5 11 8 12 10 14
REMARK H PARENT 8 13 10 15
REMARK Flexibility Score: inf
ROOT
ATOM      1  C   UNL     1      38.867 -33.194  35.129  1.00  0.00     0.019 A 
ATOM      2  C   UNL     1      37.985 -34.186  34.701  1.00  0.00     0.094 A 
ATOM      3  C   UNL     1      37.405 -35.034  35.650  1.00  0.00     0.336 A 
ATOM      4  O   UNL     1      36.606 -35.936  35.283  1.00  0.00    -0.246 OA
ATOM      5  O   UNL     1      37.692 -34.896  36.942  1.00  0.00    -0.423 OA
ATOM      6  C   UNL     1      38.529 -33.964  37.394  1.00  0.00     0.142 A 
ATOM      7  C   UNL     1      38.793 -33.866  38.763  1.00  0.00     0.098 A 
ATOM      8  C   UNL     1      39.673 -32.885  39.244  1.00  0.00     0.161 A 
ATOM      9  C   UNL     1      40.291 -31.999  38.350  1.00  0.00     0.158 A 
ATOM     10  C   UNL     1      40.030 -32.092  36.974  1.00  0.00     0.062 A 
ATOM     11  C   UNL     1      39.151 -33.072  36.493  1.00  0.00     0.022 A 
ENDROOT
BRANCH   9  12
ATOM     12  O   UNL     1      41.165 -31.027  38.836  1.00  0.00    -0.504 OA
ATOM     13  H   UNL     1      40.935 -30.042  38.800  1.00  0.00     0.293 HD
ENDBRANCH   9  12
BRANCH   8  14
ATOM     14  O   UNL     1      39.938 -32.785  40.609  1.00  0.00    -0.504 OA
ATOM     15  H   UNL     1      39.440 -32.128  41.198  1.00  0.00     0.293 HD
ENDBRANCH   8  14
TORSDOF 2
ENDMDL
MODEL 5
REMARK VINA RESULT:    -4.592      5.287      7.711
REMARK INTER + INTRA:          -4.860
REMARK INTER:                  -4.860
REMARK INTRA:                   0.000
REMARK UNBOUND:                 0.000
REMARK SMILES O=c1ccc2cc(O)c(O)cc2o1
REMARK SMILES IDX 4 1 3 2 2 3 1 4 13 5 12 6 11 7 9 8 7 9 6 10 5 11 8 12 10 14
REMARK H PARENT 8 13 10 15
REMARK Flexibility Score: inf
ROOT
ATOM      1  C   UNL     1      38.697 -35.052  38.015  1.00  0.00     0.019 A 
ATOM      2  C   UNL     1      38.633 -33.747  38.501  1.00  0.00     0.094 A 
ATOM      3  C   UNL     1      38.886 -33.513  39.857  1.00  0.00     0.336 A 
ATOM      4  O   UNL     1      38.833 -32.341  40.314  1.00  0.00    -0.246 OA
ATOM      5  O   UNL     1      39.182 -34.523  40.670  1.00  0.00    -0.423 OA
ATOM      6  C   UNL     1      39.253 -35.784  40.249  1.00  0.00     0.142 A 
ATOM      7  C   UNL     1      39.569 -36.806  41.150  1.00  0.00     0.098 A 
ATOM      8  C   UNL     1      39.646 -38.136  40.711  1.00  0.00     0.161 A 
ATOM      9  C   UNL     1      39.405 -38.445  39.364  1.00  0.00     0.158 A 
ATOM     10  C   UNL     1      39.087 -37.424  38.455  1.00  0.00     0.062 A 
ATOM     11  C   UNL     1      39.011 -36.095  38.893  1.00  0.00     0.022 A 
ENDROOT
BRANCH   9  12
ATOM     12  O   UNL     1      39.482 -39.769  38.936  1.00  0.00    -0.504 OA
ATOM     13  H   UNL     1      39.999 -40.465  39.459  1.00  0.00     0.293 HD
ENDBRANCH   9  12
BRANCH   8  14
ATOM     14  O   UNL     1      39.961 -39.156  41.607  1.00  0.00    -0.504 OA
ATOM     15  H   UNL     1      39.980 -40.127  41.318  1.00  0.00     0.293 HD
ENDBRANCH   8  14
TORSDOF 2
ENDMDL
MODEL 6
REMARK VINA RESULT:    -4.583      2.987      6.280
REMARK INTER + INTRA:          -4.851
REMARK INTER:                  -4.851
REMARK INTRA:                   0.000
REMARK UNBOUND:                 0.000
REMARK SMILES O=c1ccc2cc(O)c(O)cc2o1
REMARK SMILES IDX 4 1 3 2 2 3 1 4 13 5 12 6 11 7 9 8 7 9 6 10 5 11 8 12 10 14
REMARK H PARENT 8 13 10 15
REMARK Flexibility Score: inf
ROOT
ATOM      1  C   UNL     1      40.240 -33.025  39.202  1.00  0.00     0.019 A 
ATOM      2  C   UNL     1      40.984 -31.868  38.980  1.00  0.00     0.094 A 
ATOM      3  C   UNL     1      41.062 -31.349  37.683  1.00  0.00     0.336 A 
ATOM      4  O   UNL     1      41.729 -30.303  37.463  1.00  0.00    -0.246 OA
ATOM      5  O   UNL     1      40.435 -31.952  36.677  1.00  0.00    -0.423 OA
ATOM      6  C   UNL     1      39.714 -33.059  36.844  1.00  0.00     0.142 A 
ATOM      7  C   UNL     1      39.075 -33.651  35.750  1.00  0.00     0.098 A 
ATOM      8  C   UNL     1      38.315 -34.816  35.921  1.00  0.00     0.161 A 
ATOM      9  C   UNL     1      38.192 -35.393  37.194  1.00  0.00     0.158 A 
ATOM     10  C   UNL     1      38.830 -34.804  38.296  1.00  0.00     0.062 A 
ATOM     11  C   UNL     1      39.590 -33.639  38.126  1.00  0.00     0.022 A 
ENDROOT
BRANCH   9  12
ATOM     12  O   UNL     1      37.435 -36.552  37.355  1.00  0.00    -0.504 OA
ATOM     13  H   UNL     1      37.778 -37.455  37.051  1.00  0.00     0.293 HD
ENDBRANCH   9  12
BRANCH   8  14
ATOM     14  O   UNL     1      37.678 -35.408  34.831  1.00  0.00    -0.504 OA
ATOM     15  H   UNL     1      37.164 -34.856  34.155  1.00  0.00     0.293 HD
ENDBRANCH   8  14
TORSDOF 2
ENDMDL
MODEL 7
REMARK VINA RESULT:    -4.545      1.270      5.137
REMARK INTER + INTRA:          -4.811
REMARK INTER:                  -4.811
REMARK INTRA:                   0.000
REMARK UNBOUND:                 0.000
REMARK SMILES O=c1ccc2cc(O)c(O)cc2o1
REMARK SMILES IDX 4 1 3 2 2 3 1 4 13 5 12 6 11 7 9 8 7 9 6 10 5 11 8 12 10 14
REMARK H PARENT 8 13 10 15
REMARK Flexibility Score: inf
ROOT
ATOM      1  C   UNL     1      42.541 -29.907  38.920  1.00  0.00     0.019 A 
ATOM      2  C   UNL     1      43.460 -29.346  38.035  1.00  0.00     0.094 A 
ATOM      3  C   UNL     1      43.579 -29.883  36.749  1.00  0.00     0.336 A 
ATOM      4  O   UNL     1      44.404 -29.389  35.935  1.00  0.00    -0.246 OA
ATOM      5  O   UNL     1      42.826 -30.914  36.377  1.00  0.00    -0.423 OA
ATOM      6  C   UNL     1      41.936 -31.481  37.190  1.00  0.00     0.142 A 
ATOM      7  C   UNL     1      41.171 -32.563  36.745  1.00  0.00     0.098 A 
ATOM      8  C   UNL     1      40.232 -33.162  37.597  1.00  0.00     0.161 A 
ATOM      9  C   UNL     1      40.059 -32.676  38.902  1.00  0.00     0.158 A 
ATOM     10  C   UNL     1      40.823 -31.590  39.354  1.00  0.00     0.062 A 
ATOM     11  C   UNL     1      41.761 -30.991  38.503  1.00  0.00     0.022 A 
ENDROOT
BRANCH   9  12
ATOM     12  O   UNL     1      39.124 -33.278  39.743  1.00  0.00    -0.504 OA
ATOM     13  H   UNL     1      38.700 -32.773  40.511  1.00  0.00     0.293 HD
ENDBRANCH   9  12
BRANCH   8  14
ATOM     14  O   UNL     1      39.468 -34.241  37.156  1.00  0.00    -0.504 OA
ATOM     15  H   UNL     1      38.843 -34.158  36.362  1.00  0.00     0.293 HD
ENDBRANCH   8  14
TORSDOF 2
ENDMDL
MODEL 8
REMARK VINA RESULT:    -4.522      3.255      5.367
REMARK INTER + INTRA:          -4.787
REMARK INTER:                  -4.787
REMARK INTRA:                   0.000
REMARK UNBOUND:                 0.000
REMARK SMILES O=c1ccc2cc(O)c(O)cc2o1
REMARK SMILES IDX 4 1 3 2 2 3 1 4 13 5 12 6 11 7 9 8 7 9 6 10 5 11 8 12 10 14
REMARK H PARENT 8 13 10 15
REMARK Flexibility Score: inf
ROOT
ATOM      1  C   UNL     1      38.014 -35.287  36.899  1.00  0.00     0.019 A 
ATOM      2  C   UNL     1      37.887 -35.408  35.515  1.00  0.00     0.094 A 
ATOM      3  C   UNL     1      38.508 -34.463  34.692  1.00  0.00     0.336 A 
ATOM      4  O   UNL     1      38.405 -34.556  33.440  1.00  0.00    -0.246 OA
ATOM      5  O   UNL     1      39.209 -33.465  35.222  1.00  0.00    -0.423 OA
ATOM      6  C   UNL     1      39.356 -33.312  36.536  1.00  0.00     0.142 A 
ATOM      7  C   UNL     1      40.105 -32.243  37.037  1.00  0.00     0.098 A 
ATOM      8  C   UNL     1      40.263 -32.078  38.421  1.00  0.00     0.161 A 
ATOM      9  C   UNL     1      39.668 -32.987  39.308  1.00  0.00     0.158 A 
ATOM     10  C   UNL     1      38.915 -34.062  38.811  1.00  0.00     0.062 A 
ATOM     11  C   UNL     1      38.757 -34.228  37.429  1.00  0.00     0.022 A 
ENDROOT
BRANCH   9  12
ATOM     12  O   UNL     1      39.829 -32.815  40.682  1.00  0.00    -0.504 OA
ATOM     13  H   UNL     1      40.018 -31.905  41.083  1.00  0.00     0.293 HD
ENDBRANCH   9  12
BRANCH   8  14
ATOM     14  O   UNL     1      41.009 -31.013  38.922  1.00  0.00    -0.504 OA
ATOM     15  H   UNL     1      41.091 -30.138  38.417  1.00  0.00     0.293 HD
ENDBRANCH   8  14
TORSDOF 2
ENDMDL
MODEL 9
REMARK VINA RESULT:    -4.516      2.844      6.304
REMARK INTER + INTRA:          -4.780
REMARK INTER:                  -4.780
REMARK INTRA:                   0.000
REMARK UNBOUND:                 0.000
REMARK SMILES O=c1ccc2cc(O)c(O)cc2o1
REMARK SMILES IDX 4 1 3 2 2 3 1 4 13 5 12 6 11 7 9 8 7 9 6 10 5 11 8 12 10 14
REMARK H PARENT 8 13 10 15
REMARK Flexibility Score: inf
ROOT
ATOM      1  C   UNL     1      39.487 -32.405  36.487  1.00  0.00     0.019 A 
ATOM      2  C   UNL     1      40.378 -31.472  37.017  1.00  0.00     0.094 A 
ATOM      3  C   UNL     1      40.904 -31.687  38.295  1.00  0.00     0.336 A 
ATOM      4  O   UNL     1      41.711 -30.855  38.790  1.00  0.00    -0.246 OA
ATOM      5  O   UNL     1      40.559 -32.764  38.993  1.00  0.00    -0.423 OA
ATOM      6  C   UNL     1      39.712 -33.679  38.527  1.00  0.00     0.142 A 
ATOM      7  C   UNL     1      39.386 -34.793  39.306  1.00  0.00     0.098 A 
ATOM      8  C   UNL     1      38.495 -35.760  38.818  1.00  0.00     0.161 A 
ATOM      9  C   UNL     1      37.927 -35.611  37.544  1.00  0.00     0.158 A 
ATOM     10  C   UNL     1      38.251 -34.496  36.757  1.00  0.00     0.062 A 
ATOM     11  C   UNL     1      39.142 -33.529  37.243  1.00  0.00     0.022 A 
ENDROOT
BRANCH   9  12
ATOM     12  O   UNL     1      37.041 -36.576  37.067  1.00  0.00    -0.504 OA
ATOM     13  H   UNL     1      36.040 -36.424  37.071  1.00  0.00     0.293 HD
ENDBRANCH   9  12
BRANCH   8  14
ATOM     14  O   UNL     1      38.168 -36.871  39.593  1.00  0.00    -0.504 OA
ATOM     15  H   UNL     1      38.645 -37.758  39.476  1.00  0.00     0.293 HD
ENDBRANCH   8  14
TORSDOF 2
ENDMDL
