MODEL 1
REMARK VINA RESULT:    -0.806      0.000      0.000
REMARK INTER + INTRA:          -0.909
REMARK INTER:                  -1.182
REMARK INTRA:                   0.274
REMARK UNBOUND:                 0.274
REMARK SMILES O=c1c(O[C@H]2O[C@H](CO)[C@H](O)[C@H](O)[C@@H]2O)c(-c2ccc(O)c(O)c2)oc2cc(O)cc(O)c12
REMARK SMILES IDX 4 1 3 2 16 3 25 4 2 5 26 6 1 7 33 8 27 9 31 10 28 11 30 12
REMARK SMILES IDX 17 13 18 14 19 15 20 16 24 17 22 18 21 19 23 21 32 23 29 25
REMARK SMILES IDX 5 27 14 28 6 29 12 30 7 31 10 32 15 33 13 35 8 37 9 38 11 40
REMARK H PARENT 21 20 23 22 32 24 29 26 15 34 13 36 9 39 11 41
REMARK Flexibility Score: inf
ROOT
ATOM      1  O   UNL     1       4.140  32.922  85.711  1.00  0.00    -0.454 OA
ENDROOT
BRANCH   1   2
ATOM      2  C   UNL     1       2.915  32.251  85.911  1.00  0.00     0.214 A 
ATOM      3  C   UNL     1       2.419  31.353  84.956  1.00  0.00     0.180 A 
ATOM      4  O   UNL     1       1.170  30.891  85.035  1.00  0.00    -0.452 OA
ATOM      5  C   UNL     1       2.106  32.540  87.044  1.00  0.00     0.239 A 
ATOM      6  C   UNL     1       0.298  31.360  85.918  1.00  0.00     0.146 A 
ATOM      7  O   UNL     1       2.575  33.232  87.984  1.00  0.00    -0.285 OA
ATOM      8  C   UNL     1       0.727  32.200  86.986  1.00  0.00     0.111 A 
ATOM      9  C   UNL     1      -1.068  31.145  85.686  1.00  0.00     0.094 A 
ATOM     10  C   UNL     1      -0.247  32.909  87.720  1.00  0.00     0.134 A 
ATOM     11  C   UNL     1      -2.005  31.964  86.312  1.00  0.00     0.123 A 
ATOM     12  C   UNL     1      -1.613  32.768  87.401  1.00  0.00     0.093 A 
BRANCH   3  13
ATOM     13  C   UNL     1       3.116  31.179  83.686  1.00  0.00     0.025 A 
ATOM     14  C   UNL     1       4.499  31.454  83.476  1.00  0.00     0.016 A 
ATOM     15  C   UNL     1       5.026  31.450  82.159  1.00  0.00     0.051 A 
ATOM     16  C   UNL     1       4.195  31.094  81.067  1.00  0.00     0.157 A 
ATOM     17  C   UNL     1       2.301  30.999  82.553  1.00  0.00     0.062 A 
ATOM     18  C   UNL     1       2.818  30.939  81.274  1.00  0.00     0.158 A 
BRANCH  16  19
ATOM     19  O   UNL     1       4.728  30.911  79.788  1.00  0.00    -0.504 OA
ATOM     20  H   UNL     1       4.548  31.569  79.040  1.00  0.00     0.293 HD
ENDBRANCH  16  19
BRANCH  18  21
ATOM     21  O   UNL     1       1.964  30.876  80.177  1.00  0.00    -0.504 OA
ATOM     22  H   UNL     1       0.971  30.704  80.336  1.00  0.00     0.293 HD
ENDBRANCH  18  21
ENDBRANCH   3  13
BRANCH  10  23
ATOM     23  O   UNL     1       0.119  33.756  88.768  1.00  0.00    -0.507 OA
ATOM     24  H   UNL     1       0.498  33.361  89.616  1.00  0.00     0.293 HD
ENDBRANCH  10  23
BRANCH  11  25
ATOM     25  O   UNL     1      -3.353  31.921  85.945  1.00  0.00    -0.508 OA
ATOM     26  H   UNL     1      -3.638  31.937  84.969  1.00  0.00     0.293 HD
ENDBRANCH  11  25
ENDBRANCH   1   2
BRANCH   1  27
ATOM     27  C   UNL     1       5.374  32.399  86.272  1.00  0.00     0.339 C 
ATOM     28  C   UNL     1       5.578  32.947  87.713  1.00  0.00     0.214 C 
ATOM     29  O   UNL     1       6.484  32.687  85.419  1.00  0.00    -0.332 OA
ATOM     30  C   UNL     1       6.020  34.484  87.718  1.00  0.00     0.180 C 
ATOM     31  C   UNL     1       6.777  34.086  85.347  1.00  0.00     0.179 C 
ATOM     32  C   UNL     1       7.219  34.708  86.717  1.00  0.00     0.177 C 
BRANCH  28  33
ATOM     33  O   UNL     1       6.565  32.128  88.354  1.00  0.00    -0.384 OA
ATOM     34  H   UNL     1       6.089  31.340  88.739  1.00  0.00     0.211 HD
ENDBRANCH  28  33
BRANCH  30  35
ATOM     35  O   UNL     1       6.205  34.938  89.057  1.00  0.00    -0.387 OA
ATOM     36  H   UNL     1       5.546  34.419  89.589  1.00  0.00     0.211 HD
ENDBRANCH  30  35
BRANCH  31  37
ATOM     37  C   UNL     1       7.845  34.363  84.274  1.00  0.00     0.191 C 
BRANCH  37  38
ATOM     38  O   UNL     1       8.971  35.094  84.748  1.00  0.00    -0.394 OA
ATOM     39  H   UNL     1       8.690  36.031  84.962  1.00  0.00     0.210 HD
ENDBRANCH  37  38
ENDBRANCH  31  37
BRANCH  32  40
ATOM     40  O   UNL     1       8.371  34.089  87.199  1.00  0.00    -0.387 OA
ATOM     41  H   UNL     1       8.093  33.674  88.059  1.00  0.00     0.211 HD
ENDBRANCH  32  40
ENDBRANCH   1  27
TORSDOF 12
ENDMDL
MODEL 2
REMARK VINA RESULT:    -0.417      2.323      6.475
REMARK INTER + INTRA:          -0.338
REMARK INTER:                  -0.822
REMARK INTRA:                   0.484
REMARK UNBOUND:                 0.274
REMARK SMILES O=c1c(O[C@H]2O[C@H](CO)[C@H](O)[C@H](O)[C@@H]2O)c(-c2ccc(O)c(O)c2)oc2cc(O)cc(O)c12
REMARK SMILES IDX 4 1 3 2 16 3 25 4 2 5 26 6 1 7 33 8 27 9 31 10 28 11 30 12
REMARK SMILES IDX 17 13 18 14 19 15 20 16 24 17 22 18 21 19 23 21 32 23 29 25
REMARK SMILES IDX 5 27 14 28 6 29 12 30 7 31 10 32 15 33 13 35 8 37 9 38 11 40
REMARK H PARENT 21 20 23 22 32 24 29 26 15 34 13 36 9 39 11 41
REMARK Flexibility Score: inf
ROOT
ATOM      1  O   UNL     1       6.246  31.695  87.889  1.00  0.00    -0.454 OA
ENDROOT
BRANCH   1   2
ATOM      2  C   UNL     1       6.132  32.962  88.500  1.00  0.00     0.214 A 
ATOM      3  C   UNL     1       4.877  33.542  88.731  1.00  0.00     0.180 A 
ATOM      4  O   UNL     1       4.771  34.820  89.100  1.00  0.00    -0.452 OA
ATOM      5  C   UNL     1       7.291  33.724  88.814  1.00  0.00     0.239 A 
ATOM      6  C   UNL     1       5.816  35.637  89.125  1.00  0.00     0.146 A 
ATOM      7  O   UNL     1       8.426  33.185  88.749  1.00  0.00    -0.285 OA
ATOM      8  C   UNL     1       7.140  35.125  89.001  1.00  0.00     0.111 A 
ATOM      9  C   UNL     1       5.584  37.019  89.114  1.00  0.00     0.094 A 
ATOM     10  C   UNL     1       8.192  36.029  88.738  1.00  0.00     0.134 A 
ATOM     11  C   UNL     1       6.598  37.880  88.704  1.00  0.00     0.123 A 
ATOM     12  C   UNL     1       7.924  37.407  88.619  1.00  0.00     0.093 A 
BRANCH   3  13
ATOM     13  C   UNL     1       3.668  32.886  88.242  1.00  0.00     0.025 A 
ATOM     14  C   UNL     1       3.395  31.493  88.367  1.00  0.00     0.016 A 
ATOM     15  C   UNL     1       2.293  30.926  87.676  1.00  0.00     0.051 A 
ATOM     16  C   UNL     1       1.422  31.760  86.931  1.00  0.00     0.157 A 
ATOM     17  C   UNL     1       2.873  33.636  87.355  1.00  0.00     0.062 A 
ATOM     18  C   UNL     1       1.767  33.103  86.724  1.00  0.00     0.158 A 
BRANCH  16  19
ATOM     19  O   UNL     1       0.235  31.259  86.389  1.00  0.00    -0.504 OA
ATOM     20  H   UNL     1      -0.280  31.768  85.682  1.00  0.00     0.293 HD
ENDBRANCH  16  19
BRANCH  18  21
ATOM     21  O   UNL     1       1.080  33.846  85.769  1.00  0.00    -0.504 OA
ATOM     22  H   UNL     1       0.062  33.888  85.817  1.00  0.00     0.293 HD
ENDBRANCH  18  21
ENDBRANCH   3  13
BRANCH  10  23
ATOM     23  O   UNL     1       9.505  35.579  88.594  1.00  0.00    -0.507 OA
ATOM     24  H   UNL     1      10.196  35.836  89.284  1.00  0.00     0.293 HD
ENDBRANCH  10  23
BRANCH  11  25
ATOM     25  O   UNL     1       6.341  39.235  88.478  1.00  0.00    -0.508 OA
ATOM     26  H   UNL     1       6.207  39.599  87.538  1.00  0.00     0.293 HD
ENDBRANCH  11  25
ENDBRANCH   1   2
BRANCH   1  27
ATOM     27  C   UNL     1       6.967  31.537  86.638  1.00  0.00     0.339 C 
ATOM     28  C   UNL     1       7.494  32.916  86.148  1.00  0.00     0.214 C 
ATOM     29  O   UNL     1       6.154  30.887  85.659  1.00  0.00    -0.332 OA
ATOM     30  C   UNL     1       6.324  33.835  85.561  1.00  0.00     0.180 C 
ATOM     31  C   UNL     1       5.043  31.688  85.244  1.00  0.00     0.179 C 
ATOM     32  C   UNL     1       5.459  33.018  84.525  1.00  0.00     0.177 C 
BRANCH  28  33
ATOM     33  O   UNL     1       8.500  32.670  85.155  1.00  0.00    -0.384 OA
ATOM     34  H   UNL     1       9.253  32.200  85.611  1.00  0.00     0.211 HD
ENDBRANCH  28  33
BRANCH  30  35
ATOM     35  O   UNL     1       6.855  35.082  85.116  1.00  0.00    -0.387 OA
ATOM     36  H   UNL     1       7.180  34.901  84.196  1.00  0.00     0.211 HD
ENDBRANCH  30  35
BRANCH  31  37
ATOM     37  C   UNL     1       4.095  30.876  84.343  1.00  0.00     0.191 C 
BRANCH  37  38
ATOM     38  O   UNL     1       3.463  31.643  83.323  1.00  0.00    -0.394 OA
ATOM     39  H   UNL     1       4.099  31.768  82.561  1.00  0.00     0.210 HD
ENDBRANCH  37  38
ENDBRANCH  31  37
BRANCH  32  40
ATOM     40  O   UNL     1       6.204  32.754  83.377  1.00  0.00    -0.387 OA
ATOM     41  H   UNL     1       5.619  32.169  82.825  1.00  0.00     0.211 HD
ENDBRANCH  32  40
ENDBRANCH   1  27
TORSDOF 12
ENDMDL
MODEL 3
REMARK VINA RESULT:    -0.179      1.032      2.001
REMARK INTER + INTRA:           0.011
REMARK INTER:                   0.316
REMARK INTRA:                  -0.305
REMARK UNBOUND:                 0.274
REMARK SMILES O=c1c(O[C@H]2O[C@H](CO)[C@H](O)[C@H](O)[C@@H]2O)c(-c2ccc(O)c(O)c2)oc2cc(O)cc(O)c12
REMARK SMILES IDX 4 1 3 2 16 3 25 4 2 5 26 6 1 7 33 8 27 9 31 10 28 11 30 12
REMARK SMILES IDX 17 13 18 14 19 15 20 16 24 17 22 18 21 19 23 21 32 23 29 25
REMARK SMILES IDX 5 27 14 28 6 29 12 30 7 31 10 32 15 33 13 35 8 37 9 38 11 40
REMARK H PARENT 21 20 23 22 32 24 29 26 15 34 13 36 9 39 11 41
REMARK Flexibility Score: inf
ROOT
ATOM      1  O   UNL     1       4.246  33.488  85.701  1.00  0.00    -0.454 OA
ENDROOT
BRANCH   1   2
ATOM      2  C   UNL     1       3.176  32.659  86.101  1.00  0.00     0.214 A 
ATOM      3  C   UNL     1       2.793  31.553  85.331  1.00  0.00     0.180 A 
ATOM      4  O   UNL     1       1.655  30.904  85.583  1.00  0.00    -0.452 OA
ATOM      5  C   UNL     1       2.399  32.979  87.248  1.00  0.00     0.239 A 
ATOM      6  C   UNL     1       0.768  31.351  86.463  1.00  0.00     0.146 A 
ATOM      7  O   UNL     1       2.793  33.878  88.036  1.00  0.00    -0.285 OA
ATOM      8  C   UNL     1       1.104  32.406  87.360  1.00  0.00     0.111 A 
ATOM      9  C   UNL     1      -0.548  30.875  86.384  1.00  0.00     0.094 A 
ATOM     10  C   UNL     1       0.064  33.046  88.068  1.00  0.00     0.134 A 
ATOM     11  C   UNL     1      -1.578  31.610  86.966  1.00  0.00     0.123 A 
ATOM     12  C   UNL     1      -1.271  32.629  87.892  1.00  0.00     0.093 A 
BRANCH   3  13
ATOM     13  C   UNL     1       3.432  31.304  84.042  1.00  0.00     0.025 A 
ATOM     14  C   UNL     1       4.834  31.391  83.802  1.00  0.00     0.016 A 
ATOM     15  C   UNL     1       5.326  31.335  82.473  1.00  0.00     0.051 A 
ATOM     16  C   UNL     1       4.430  31.111  81.397  1.00  0.00     0.157 A 
ATOM     17  C   UNL     1       2.575  31.253  82.927  1.00  0.00     0.062 A 
ATOM     18  C   UNL     1       3.050  31.141  81.635  1.00  0.00     0.158 A 
BRANCH  16  19
ATOM     19  O   UNL     1       4.905  30.875  80.104  1.00  0.00    -0.504 OA
ATOM     20  H   UNL     1       4.355  31.112  79.287  1.00  0.00     0.293 HD
ENDBRANCH  16  19
BRANCH  18  21
ATOM     21  O   UNL     1       2.171  31.210  80.559  1.00  0.00    -0.504 OA
ATOM     22  H   UNL     1       1.477  31.958  80.537  1.00  0.00     0.293 HD
ENDBRANCH  18  21
ENDBRANCH   3  13
BRANCH  10  23
ATOM     23  O   UNL     1       0.335  34.095  88.948  1.00  0.00    -0.507 OA
ATOM     24  H   UNL     1      -0.206  34.184  89.795  1.00  0.00     0.293 HD
ENDBRANCH  10  23
BRANCH  11  25
ATOM     25  O   UNL     1      -2.915  31.284  86.729  1.00  0.00    -0.508 OA
ATOM     26  H   UNL     1      -3.173  30.538  86.088  1.00  0.00     0.293 HD
ENDBRANCH  11  25
ENDBRANCH   1   2
BRANCH   1  27
ATOM     27  C   UNL     1       5.170  34.033  86.681  1.00  0.00     0.339 C 
ATOM     28  C   UNL     1       6.211  34.951  85.979  1.00  0.00     0.214 C 
ATOM     29  O   UNL     1       5.789  32.988  87.435  1.00  0.00    -0.332 OA
ATOM     30  C   UNL     1       7.299  34.113  85.158  1.00  0.00     0.180 C 
ATOM     31  C   UNL     1       6.662  32.179  86.643  1.00  0.00     0.179 C 
ATOM     32  C   UNL     1       7.890  32.961  86.059  1.00  0.00     0.177 C 
BRANCH  28  33
ATOM     33  O   UNL     1       6.837  35.751  86.991  1.00  0.00    -0.384 OA
ATOM     34  H   UNL     1       7.802  35.832  86.746  1.00  0.00     0.211 HD
ENDBRANCH  28  33
BRANCH  30  35
ATOM     35  O   UNL     1       8.235  34.994  84.542  1.00  0.00    -0.387 OA
ATOM     36  H   UNL     1       7.929  35.064  83.599  1.00  0.00     0.211 HD
ENDBRANCH  30  35
BRANCH  31  37
ATOM     37  C   UNL     1       7.149  30.959  87.445  1.00  0.00     0.191 C 
BRANCH  37  38
ATOM     38  O   UNL     1       8.119  31.266  88.441  1.00  0.00    -0.394 OA
ATOM     39  H   UNL     1       8.621  30.434  88.681  1.00  0.00     0.210 HD
ENDBRANCH  37  38
ENDBRANCH  31  37
BRANCH  32  40
ATOM     40  O   UNL     1       8.671  33.500  87.080  1.00  0.00    -0.387 OA
ATOM     41  H   UNL     1       8.986  34.373  86.722  1.00  0.00     0.211 HD
ENDBRANCH  32  40
ENDBRANCH   1  27
TORSDOF 12
ENDMDL
MODEL 4
REMARK VINA RESULT:     0.807      2.772      4.501
REMARK INTER + INTRA:           1.458
REMARK INTER:                   0.942
REMARK INTRA:                   0.516
REMARK UNBOUND:                 0.274
REMARK SMILES O=c1c(O[C@H]2O[C@H](CO)[C@H](O)[C@H](O)[C@@H]2O)c(-c2ccc(O)c(O)c2)oc2cc(O)cc(O)c12
REMARK SMILES IDX 4 1 3 2 16 3 25 4 2 5 26 6 1 7 33 8 27 9 31 10 28 11 30 12
REMARK SMILES IDX 17 13 18 14 19 15 20 16 24 17 22 18 21 19 23 21 32 23 29 25
REMARK SMILES IDX 5 27 14 28 6 29 12 30 7 31 10 32 15 33 13 35 8 37 9 38 11 40
REMARK H PARENT 21 20 23 22 32 24 29 26 15 34 13 36 9 39 11 41
REMARK Flexibility Score: inf
ROOT
ATOM      1  O   UNL     1       4.646  34.709  88.425  1.00  0.00    -0.454 OA
ENDROOT
BRANCH   1   2
ATOM      2  C   UNL     1       3.668  33.771  88.031  1.00  0.00     0.214 A 
ATOM      3  C   UNL     1       3.992  32.418  87.863  1.00  0.00     0.180 A 
ATOM      4  O   UNL     1       3.135  31.576  87.282  1.00  0.00    -0.452 OA
ATOM      5  C   UNL     1       2.349  34.190  87.706  1.00  0.00     0.239 A 
ATOM      6  C   UNL     1       2.013  31.993  86.710  1.00  0.00     0.146 A 
ATOM      7  O   UNL     1       1.985  35.364  87.974  1.00  0.00    -0.285 OA
ATOM      8  C   UNL     1       1.549  33.326  86.910  1.00  0.00     0.111 A 
ATOM      9  C   UNL     1       1.383  31.151  85.783  1.00  0.00     0.094 A 
ATOM     10  C   UNL     1       0.531  33.819  86.066  1.00  0.00     0.134 A 
ATOM     11  C   UNL     1       0.491  31.695  84.861  1.00  0.00     0.123 A 
ATOM     12  C   UNL     1      -0.016  32.994  85.063  1.00  0.00     0.093 A 
BRANCH   3  13
ATOM     13  C   UNL     1       5.377  31.977  87.989  1.00  0.00     0.025 A 
ATOM     14  C   UNL     1       6.206  32.225  89.122  1.00  0.00     0.016 A 
ATOM     15  C   UNL     1       7.594  31.936  89.057  1.00  0.00     0.051 A 
ATOM     16  C   UNL     1       8.135  31.330  87.896  1.00  0.00     0.157 A 
ATOM     17  C   UNL     1       5.996  31.533  86.806  1.00  0.00     0.062 A 
ATOM     18  C   UNL     1       7.335  31.198  86.753  1.00  0.00     0.158 A 
BRANCH  16  19
ATOM     19  O   UNL     1       9.457  30.875  87.872  1.00  0.00    -0.504 OA
ATOM     20  H   UNL     1      10.089  31.045  88.644  1.00  0.00     0.293 HD
ENDBRANCH  16  19
BRANCH  18  21
ATOM     21  O   UNL     1       7.927  30.875  85.536  1.00  0.00    -0.504 OA
ATOM     22  H   UNL     1       7.583  30.064  85.021  1.00  0.00     0.293 HD
ENDBRANCH  18  21
ENDBRANCH   3  13
BRANCH  10  23
ATOM     23  O   UNL     1       0.049  35.122  86.209  1.00  0.00    -0.507 OA
ATOM     24  H   UNL     1      -0.941  35.297  86.123  1.00  0.00     0.293 HD
ENDBRANCH  10  23
BRANCH  11  25
ATOM     25  O   UNL     1       0.009  30.932  83.794  1.00  0.00    -0.508 OA
ATOM     26  H   UNL     1       0.494  30.905  82.901  1.00  0.00     0.293 HD
ENDBRANCH  11  25
ENDBRANCH   1   2
BRANCH   1  27
ATOM     27  C   UNL     1       5.133  35.710  87.491  1.00  0.00     0.339 C 
ATOM     28  C   UNL     1       5.560  35.032  86.158  1.00  0.00     0.214 C 
ATOM     29  O   UNL     1       6.188  36.479  88.072  1.00  0.00    -0.332 OA
ATOM     30  C   UNL     1       6.941  34.238  86.300  1.00  0.00     0.180 C 
ATOM     31  C   UNL     1       7.371  35.707  88.302  1.00  0.00     0.179 C 
ATOM     32  C   UNL     1       8.026  35.152  86.989  1.00  0.00     0.177 C 
BRANCH  28  33
ATOM     33  O   UNL     1       5.659  36.058  85.161  1.00  0.00    -0.384 OA
ATOM     34  H   UNL     1       4.739  36.213  84.806  1.00  0.00     0.211 HD
ENDBRANCH  28  33
BRANCH  30  35
ATOM     35  O   UNL     1       7.297  33.643  85.054  1.00  0.00    -0.387 OA
ATOM     36  H   UNL     1       7.495  34.412  84.458  1.00  0.00     0.211 HD
ENDBRANCH  30  35
BRANCH  31  37
ATOM     37  C   UNL     1       8.403  36.522  89.102  1.00  0.00     0.191 C 
BRANCH  37  38
ATOM     38  O   UNL     1       9.554  36.899  88.353  1.00  0.00    -0.394 OA
ATOM     39  H   UNL     1       9.330  37.682  87.772  1.00  0.00     0.210 HD
ENDBRANCH  37  38
ENDBRANCH  31  37
BRANCH  32  40
ATOM     40  O   UNL     1       8.393  36.191  86.136  1.00  0.00    -0.387 OA
ATOM     41  H   UNL     1       7.651  36.249  85.475  1.00  0.00     0.211 HD
ENDBRANCH  32  40
ENDBRANCH   1  27
TORSDOF 12
ENDMDL
MODEL 5
REMARK VINA RESULT:     1.934      2.804      3.994
REMARK INTER + INTRA:           3.112
REMARK INTER:                  -0.546
REMARK INTRA:                   3.658
REMARK UNBOUND:                 0.274
REMARK SMILES O=c1c(O[C@H]2O[C@H](CO)[C@H](O)[C@H](O)[C@@H]2O)c(-c2ccc(O)c(O)c2)oc2cc(O)cc(O)c12
REMARK SMILES IDX 4 1 3 2 16 3 25 4 2 5 26 6 1 7 33 8 27 9 31 10 28 11 30 12
REMARK SMILES IDX 17 13 18 14 19 15 20 16 24 17 22 18 21 19 23 21 32 23 29 25
REMARK SMILES IDX 5 27 14 28 6 29 12 30 7 31 10 32 15 33 13 35 8 37 9 38 11 40
REMARK H PARENT 21 20 23 22 32 24 29 26 15 34 13 36 9 39 11 41
REMARK Flexibility Score: inf
ROOT
ATOM      1  O   UNL     1       4.270  34.750  88.095  1.00  0.00    -0.454 OA
ENDROOT
BRANCH   1   2
ATOM      2  C   UNL     1       3.236  33.833  87.809  1.00  0.00     0.214 A 
ATOM      3  C   UNL     1       3.494  32.458  87.726  1.00  0.00     0.180 A 
ATOM      4  O   UNL     1       2.577  31.618  87.241  1.00  0.00    -0.452 OA
ATOM      5  C   UNL     1       1.924  34.289  87.505  1.00  0.00     0.239 A 
ATOM      6  C   UNL     1       1.451  32.046  86.685  1.00  0.00     0.146 A 
ATOM      7  O   UNL     1       1.624  35.496  87.701  1.00  0.00    -0.285 OA
ATOM      8  C   UNL     1       1.055  33.410  86.805  1.00  0.00     0.111 A 
ATOM      9  C   UNL     1       0.747  31.171  85.846  1.00  0.00     0.094 A 
ATOM     10  C   UNL     1       0.025  33.889  85.967  1.00  0.00     0.134 A 
ATOM     11  C   UNL     1      -0.158  31.689  84.922  1.00  0.00     0.123 A 
ATOM     12  C   UNL     1      -0.599  33.022  85.049  1.00  0.00     0.093 A 
BRANCH   3  13
ATOM     13  C   UNL     1       4.862  31.964  87.831  1.00  0.00     0.025 A 
ATOM     14  C   UNL     1       5.547  31.728  89.059  1.00  0.00     0.016 A 
ATOM     15  C   UNL     1       6.938  31.448  89.048  1.00  0.00     0.051 A 
ATOM     16  C   UNL     1       7.624  31.325  87.813  1.00  0.00     0.157 A 
ATOM     17  C   UNL     1       5.625  31.997  86.648  1.00  0.00     0.062 A 
ATOM     18  C   UNL     1       6.966  31.671  86.625  1.00  0.00     0.158 A 
BRANCH  16  19
ATOM     19  O   UNL     1       8.947  30.878  87.767  1.00  0.00    -0.504 OA
ATOM     20  H   UNL     1       9.684  31.445  87.366  1.00  0.00     0.293 HD
ENDBRANCH  16  19
BRANCH  18  21
ATOM     21  O   UNL     1       7.704  31.828  85.455  1.00  0.00    -0.504 OA
ATOM     22  H   UNL     1       7.387  31.360  84.606  1.00  0.00     0.293 HD
ENDBRANCH  18  21
ENDBRANCH   3  13
BRANCH  10  23
ATOM     23  O   UNL     1      -0.393  35.220  86.034  1.00  0.00    -0.507 OA
ATOM     24  H   UNL     1      -1.072  35.492  86.729  1.00  0.00     0.293 HD
ENDBRANCH  10  23
BRANCH  11  25
ATOM     25  O   UNL     1      -0.717  30.876  83.933  1.00  0.00    -0.508 OA
ATOM     26  H   UNL     1      -1.418  31.232  83.288  1.00  0.00     0.293 HD
ENDBRANCH  11  25
ENDBRANCH   1   2
BRANCH   1  27
ATOM     27  C   UNL     1       5.663  34.345  88.024  1.00  0.00     0.339 C 
ATOM     28  C   UNL     1       6.534  35.271  88.920  1.00  0.00     0.214 C 
ATOM     29  O   UNL     1       6.118  34.318  86.669  1.00  0.00    -0.332 OA
ATOM     30  C   UNL     1       6.738  36.720  88.274  1.00  0.00     0.180 C 
ATOM     31  C   UNL     1       6.171  35.620  86.078  1.00  0.00     0.179 C 
ATOM     32  C   UNL     1       7.196  36.584  86.770  1.00  0.00     0.177 C 
BRANCH  28  33
ATOM     33  O   UNL     1       7.794  34.619  89.125  1.00  0.00    -0.384 OA
ATOM     34  H   UNL     1       8.404  34.922  88.395  1.00  0.00     0.211 HD
ENDBRANCH  28  33
BRANCH  30  35
ATOM     35  O   UNL     1       7.548  37.528  89.124  1.00  0.00    -0.387 OA
ATOM     36  H   UNL     1       8.158  36.885  89.573  1.00  0.00     0.211 HD
ENDBRANCH  30  35
BRANCH  31  37
ATOM     37  C   UNL     1       6.476  35.521  84.573  1.00  0.00     0.191 C 
BRANCH  37  38
ATOM     38  O   UNL     1       7.445  34.533  84.238  1.00  0.00    -0.394 OA
ATOM     39  H   UNL     1       6.984  33.741  83.835  1.00  0.00     0.210 HD
ENDBRANCH  37  38
ENDBRANCH  31  37
BRANCH  32  40
ATOM     40  O   UNL     1       8.490  36.069  86.706  1.00  0.00    -0.387 OA
ATOM     41  H   UNL     1       8.940  36.415  87.522  1.00  0.00     0.211 HD
ENDBRANCH  32  40
ENDBRANCH   1  27
TORSDOF 12
ENDMDL
