MODEL 1
REMARK VINA RESULT:    -5.157      0.000      0.000
REMARK INTER + INTRA:          -5.555
REMARK INTER:                  -5.459
REMARK INTRA:                  -0.097
REMARK UNBOUND:                -0.097
REMARK SMILES C=C(C)[C@H]1CC=C(C)C(=O)C1
REMARK SMILES IDX 8 1 7 2 6 3 5 4 4 5 11 6 9 7 10 8 2 9 1 10 3 11
REMARK H PARENT
REMARK Flexibility Score: inf
ROOT
ATOM      1  C   UNL     1      11.119 -16.745  16.525  1.00  0.00     0.048 C 
ATOM      2  C   UNL     1      10.835 -15.318  16.905  1.00  0.00    -0.012 C 
ATOM      3  C   UNL     1      10.087 -15.051  17.989  1.00  0.00    -0.019 C 
ATOM      4  C   UNL     1       9.757 -13.641  18.404  1.00  0.00     0.036 C 
ATOM      5  C   UNL     1      10.903 -12.676  18.047  1.00  0.00     0.025 C 
ATOM      6  C   UNL     1      11.241 -12.779  16.548  1.00  0.00     0.089 C 
ATOM      7  C   UNL     1      11.483 -14.211  16.158  1.00  0.00     0.158 C 
ATOM      8  O   UNL     1      12.214 -14.461  15.162  1.00  0.00    -0.295 OA
ENDROOT
BRANCH   5   9
ATOM      9  C   UNL     1      10.571 -11.245  18.446  1.00  0.00    -0.077 C 
ATOM     10  C   UNL     1       9.409 -10.691  18.063  1.00  0.00     0.008 C 
ATOM     11  C   UNL     1      11.523 -10.419  19.275  1.00  0.00     0.039 C 
ENDBRANCH   5   9
TORSDOF 1
ENDMDL
MODEL 2
REMARK VINA RESULT:    -5.031      1.787      3.316
REMARK INTER + INTRA:          -5.422
REMARK INTER:                  -5.324
REMARK INTRA:                  -0.098
REMARK UNBOUND:                -0.097
REMARK SMILES C=C(C)[C@H]1CC=C(C)C(=O)C1
REMARK SMILES IDX 8 1 7 2 6 3 5 4 4 5 11 6 9 7 10 8 2 9 1 10 3 11
REMARK H PARENT
REMARK Flexibility Score: inf
ROOT
ATOM      1  C   UNL     1      12.940 -18.185  13.918  1.00  0.00     0.048 C 
ATOM      2  C   UNL     1      12.112 -17.330  14.838  1.00  0.00    -0.012 C 
ATOM      3  C   UNL     1      12.094 -17.591  16.156  1.00  0.00    -0.019 C 
ATOM      4  C   UNL     1      11.270 -16.778  17.119  1.00  0.00     0.036 C 
ATOM      5  C   UNL     1      11.166 -15.312  16.659  1.00  0.00     0.025 C 
ATOM      6  C   UNL     1      10.621 -15.240  15.220  1.00  0.00     0.089 C 
ATOM      7  C   UNL     1      11.421 -16.129  14.308  1.00  0.00     0.158 C 
ATOM      8  O   UNL     1      11.467 -15.862  13.077  1.00  0.00    -0.295 OA
ENDROOT
BRANCH   5   9
ATOM      9  C   UNL     1      10.319 -14.486  17.617  1.00  0.00    -0.077 C 
ATOM     10  C   UNL     1       9.307 -15.059  18.287  1.00  0.00     0.008 C 
ATOM     11  C   UNL     1      10.590 -13.018  17.841  1.00  0.00     0.039 C 
ENDBRANCH   5   9
TORSDOF 1
ENDMDL
MODEL 3
REMARK VINA RESULT:    -5.014      2.179      4.534
REMARK INTER + INTRA:          -5.404
REMARK INTER:                  -5.306
REMARK INTRA:                  -0.098
REMARK UNBOUND:                -0.097
REMARK SMILES C=C(C)[C@H]1CC=C(C)C(=O)C1
REMARK SMILES IDX 8 1 7 2 6 3 5 4 4 5 11 6 9 7 10 8 2 9 1 10 3 11
REMARK H PARENT
REMARK Flexibility Score: inf
ROOT
ATOM      1  C   UNL     1      11.192  -9.402  16.453  1.00  0.00     0.048 C 
ATOM      2  C   UNL     1      10.755 -10.809  16.758  1.00  0.00    -0.012 C 
ATOM      3  C   UNL     1      10.607 -11.694  15.758  1.00  0.00    -0.019 C 
ATOM      4  C   UNL     1      10.156 -13.109  16.006  1.00  0.00     0.036 C 
ATOM      5  C   UNL     1      10.653 -13.619  17.371  1.00  0.00     0.025 C 
ATOM      6  C   UNL     1      10.211 -12.661  18.493  1.00  0.00     0.089 C 
ATOM      7  C   UNL     1      10.610 -11.248  18.168  1.00  0.00     0.158 C 
ATOM      8  O   UNL     1      10.783 -10.428  19.109  1.00  0.00    -0.295 OA
ENDROOT
BRANCH   5   9
ATOM      9  C   UNL     1      10.185 -15.043  17.638  1.00  0.00    -0.077 C 
ATOM     10  C   UNL     1       9.104 -15.264  18.404  1.00  0.00     0.008 C 
ATOM     11  C   UNL     1      10.910 -16.231  17.056  1.00  0.00     0.039 C 
ENDBRANCH   5   9
TORSDOF 1
ENDMDL
MODEL 4
REMARK VINA RESULT:    -4.996      1.520      2.140
REMARK INTER + INTRA:          -5.385
REMARK INTER:                  -5.297
REMARK INTRA:                  -0.087
REMARK UNBOUND:                -0.097
REMARK SMILES C=C(C)[C@H]1CC=C(C)C(=O)C1
REMARK SMILES IDX 8 1 7 2 6 3 5 4 4 5 11 6 9 7 10 8 2 9 1 10 3 11
REMARK H PARENT
REMARK Flexibility Score: inf
ROOT
ATOM      1  C   UNL     1      10.958 -15.703  15.670  1.00  0.00     0.048 C 
ATOM      2  C   UNL     1      11.031 -14.450  16.498  1.00  0.00    -0.012 C 
ATOM      3  C   UNL     1      11.828 -13.439  16.111  1.00  0.00    -0.019 C 
ATOM      4  C   UNL     1      11.951 -12.169  16.911  1.00  0.00     0.036 C 
ATOM      5  C   UNL     1      10.628 -11.830  17.621  1.00  0.00     0.025 C 
ATOM      6  C   UNL     1      10.163 -13.019  18.483  1.00  0.00     0.089 C 
ATOM      7  C   UNL     1      10.131 -14.282  17.667  1.00  0.00     0.158 C 
ATOM      8  O   UNL     1       9.357 -15.215  18.011  1.00  0.00    -0.295 OA
ENDROOT
BRANCH   5   9
ATOM      9  C   UNL     1      10.749 -10.558  18.448  1.00  0.00    -0.077 C 
ATOM     10  C   UNL     1       9.932  -9.520  18.211  1.00  0.00     0.008 C 
ATOM     11  C   UNL     1      11.776 -10.429  19.546  1.00  0.00     0.039 C 
ENDBRANCH   5   9
TORSDOF 1
ENDMDL
MODEL 5
REMARK VINA RESULT:    -4.953     16.752     18.637
REMARK INTER + INTRA:          -5.340
REMARK INTER:                  -5.241
REMARK INTRA:                  -0.099
REMARK UNBOUND:                -0.097
REMARK SMILES C=C(C)[C@H]1CC=C(C)C(=O)C1
REMARK SMILES IDX 8 1 7 2 6 3 5 4 4 5 11 6 9 7 10 8 2 9 1 10 3 11
REMARK H PARENT
REMARK Flexibility Score: inf
ROOT
ATOM      1  C   UNL     1      -3.711 -29.074  12.305  1.00  0.00     0.048 C 
ATOM      2  C   UNL     1      -2.870 -27.896  12.716  1.00  0.00    -0.012 C 
ATOM      3  C   UNL     1      -3.463 -26.754  13.102  1.00  0.00    -0.019 C 
ATOM      4  C   UNL     1      -2.669 -25.540  13.507  1.00  0.00     0.036 C 
ATOM      5  C   UNL     1      -1.344 -25.943  14.180  1.00  0.00     0.025 C 
ATOM      6  C   UNL     1      -0.542 -26.884  13.261  1.00  0.00     0.089 C 
ATOM      7  C   UNL     1      -1.396 -28.039  12.814  1.00  0.00     0.158 C 
ATOM      8  O   UNL     1      -0.840 -29.122  12.486  1.00  0.00    -0.295 OA
ENDROOT
BRANCH   5   9
ATOM      9  C   UNL     1      -0.525 -24.722  14.575  1.00  0.00    -0.077 C 
ATOM     10  C   UNL     1       0.770 -24.638  14.232  1.00  0.00     0.008 C 
ATOM     11  C   UNL     1      -1.139 -23.583  15.352  1.00  0.00     0.039 C 
ENDBRANCH   5   9
TORSDOF 1
ENDMDL
MODEL 6
REMARK VINA RESULT:    -4.923      1.947      4.484
REMARK INTER + INTRA:          -5.308
REMARK INTER:                  -5.213
REMARK INTRA:                  -0.095
REMARK UNBOUND:                -0.097
REMARK SMILES C=C(C)[C@H]1CC=C(C)C(=O)C1
REMARK SMILES IDX 8 1 7 2 6 3 5 4 4 5 11 6 9 7 10 8 2 9 1 10 3 11
REMARK H PARENT
REMARK Flexibility Score: inf
ROOT
ATOM      1  C   UNL     1      10.171  -9.150  18.235  1.00  0.00     0.048 C 
ATOM      2  C   UNL     1      10.305 -10.570  17.756  1.00  0.00    -0.012 C 
ATOM      3  C   UNL     1      10.087 -11.586  18.608  1.00  0.00    -0.019 C 
ATOM      4  C   UNL     1      10.223 -13.025  18.186  1.00  0.00     0.036 C 
ATOM      5  C   UNL     1       9.830 -13.209  16.709  1.00  0.00     0.025 C 
ATOM      6  C   UNL     1      10.649 -12.259  15.815  1.00  0.00     0.089 C 
ATOM      7  C   UNL     1      10.552 -10.845  16.319  1.00  0.00     0.158 C 
ATOM      8  O   UNL     1      10.721  -9.893  15.511  1.00  0.00    -0.295 OA
ENDROOT
BRANCH   5   9
ATOM      9  C   UNL     1       9.984 -14.658  16.267  1.00  0.00    -0.077 C 
ATOM     10  C   UNL     1       9.583 -15.654  17.073  1.00  0.00     0.008 C 
ATOM     11  C   UNL     1      10.581 -15.012  14.928  1.00  0.00     0.039 C 
ENDBRANCH   5   9
TORSDOF 1
ENDMDL
MODEL 7
REMARK VINA RESULT:    -4.889      1.934      5.074
REMARK INTER + INTRA:          -5.271
REMARK INTER:                  -5.181
REMARK INTRA:                  -0.090
REMARK UNBOUND:                -0.097
REMARK SMILES C=C(C)[C@H]1CC=C(C)C(=O)C1
REMARK SMILES IDX 8 1 7 2 6 3 5 4 4 5 11 6 9 7 10 8 2 9 1 10 3 11
REMARK H PARENT
REMARK Flexibility Score: inf
ROOT
ATOM      1  C   UNL     1      10.074 -12.305  18.440  1.00  0.00     0.048 C 
ATOM      2  C   UNL     1      10.457 -13.475  17.575  1.00  0.00    -0.012 C 
ATOM      3  C   UNL     1      11.425 -13.334  16.653  1.00  0.00    -0.019 C 
ATOM      4  C   UNL     1      11.837 -14.467  15.750  1.00  0.00     0.036 C 
ATOM      5  C   UNL     1      11.691 -15.825  16.461  1.00  0.00     0.025 C 
ATOM      6  C   UNL     1      10.257 -15.997  16.997  1.00  0.00     0.089 C 
ATOM      7  C   UNL     1       9.857 -14.808  17.826  1.00  0.00     0.158 C 
ATOM      8  O   UNL     1       8.975 -14.950  18.715  1.00  0.00    -0.295 OA
ENDROOT
BRANCH   5   9
ATOM      9  C   UNL     1      12.087 -16.977  15.549  1.00  0.00    -0.077 C 
ATOM     10  C   UNL     1      12.707 -18.055  16.054  1.00  0.00     0.008 C 
ATOM     11  C   UNL     1      11.795 -16.943  14.068  1.00  0.00     0.039 C 
ENDBRANCH   5   9
TORSDOF 1
ENDMDL
MODEL 8
REMARK VINA RESULT:    -4.673      2.235      3.792
REMARK INTER + INTRA:          -5.042
REMARK INTER:                  -4.953
REMARK INTRA:                  -0.089
REMARK UNBOUND:                -0.097
REMARK SMILES C=C(C)[C@H]1CC=C(C)C(=O)C1
REMARK SMILES IDX 8 1 7 2 6 3 5 4 4 5 11 6 9 7 10 8 2 9 1 10 3 11
REMARK H PARENT
REMARK Flexibility Score: inf
ROOT
ATOM      1  C   UNL     1      12.010 -17.739  12.787  1.00  0.00     0.048 C 
ATOM      2  C   UNL     1      11.665 -16.873  13.968  1.00  0.00    -0.012 C 
ATOM      3  C   UNL     1      10.864 -15.807  13.803  1.00  0.00    -0.019 C 
ATOM      4  C   UNL     1      10.501 -14.897  14.947  1.00  0.00     0.036 C 
ATOM      5  C   UNL     1      10.421 -15.678  16.272  1.00  0.00     0.025 C 
ATOM      6  C   UNL     1      11.737 -16.437  16.526  1.00  0.00     0.089 C 
ATOM      7  C   UNL     1      12.106 -17.269  15.328  1.00  0.00     0.158 C 
ATOM      8  O   UNL     1      12.828 -18.290  15.490  1.00  0.00    -0.295 OA
ENDROOT
BRANCH   5   9
ATOM      9  C   UNL     1      10.074 -14.762  17.437  1.00  0.00    -0.077 C 
ATOM     10  C   UNL     1       9.225 -15.178  18.391  1.00  0.00     0.008 C 
ATOM     11  C   UNL     1      10.667 -13.380  17.555  1.00  0.00     0.039 C 
ENDBRANCH   5   9
TORSDOF 1
ENDMDL
MODEL 9
REMARK VINA RESULT:    -4.603      1.495      4.586
REMARK INTER + INTRA:          -4.969
REMARK INTER:                  -4.876
REMARK INTRA:                  -0.093
REMARK UNBOUND:                -0.097
REMARK SMILES C=C(C)[C@H]1CC=C(C)C(=O)C1
REMARK SMILES IDX 8 1 7 2 6 3 5 4 4 5 11 6 9 7 10 8 2 9 1 10 3 11
REMARK H PARENT
REMARK Flexibility Score: inf
ROOT
ATOM      1  C   UNL     1       9.932 -12.151  18.439  1.00  0.00     0.048 C 
ATOM      2  C   UNL     1      10.509 -13.328  17.700  1.00  0.00    -0.012 C 
ATOM      3  C   UNL     1      10.104 -14.572  18.005  1.00  0.00    -0.019 C 
ATOM      4  C   UNL     1      10.661 -15.786  17.308  1.00  0.00     0.036 C 
ATOM      5  C   UNL     1      11.023 -15.468  15.846  1.00  0.00     0.025 C 
ATOM      6  C   UNL     1      11.984 -14.266  15.781  1.00  0.00     0.089 C 
ATOM      7  C   UNL     1      11.427 -13.103  16.556  1.00  0.00     0.158 C 
ATOM      8  O   UNL     1      11.781 -11.934  16.246  1.00  0.00    -0.295 OA
ENDROOT
BRANCH   5   9
ATOM      9  C   UNL     1      11.606 -16.684  15.139  1.00  0.00    -0.077 C 
ATOM     10  C   UNL     1      11.696 -16.706  13.800  1.00  0.00     0.008 C 
ATOM     11  C   UNL     1      12.096 -17.883  15.913  1.00  0.00     0.039 C 
ENDBRANCH   5   9
TORSDOF 1
ENDMDL
