MODEL 1
REMARK VINA RESULT:    -4.039      0.000      0.000
REMARK INTER + INTRA:          -4.678
REMARK INTER:                  -4.511
REMARK INTRA:                  -0.166
REMARK UNBOUND:                -0.166
REMARK SMILES O=C([O-])c1ccccc1C(=O)[O-]
REMARK SMILES IDX 4 1 9 2 5 3 8 4 6 5 7 6 2 7 1 8 3 9 10 10 11 11 12 12
REMARK H PARENT
REMARK Flexibility Score: inf
ROOT
ATOM      1  C   UNL     1     116.237  49.804  21.794  1.00  0.00     0.006 A 
ATOM      2  C   UNL     1     116.781  50.047  23.087  1.00  0.00     0.006 A 
ATOM      3  C   UNL     1     116.721  50.543  20.698  1.00  0.00     0.010 A 
ATOM      4  C   UNL     1     117.834  50.971  23.222  1.00  0.00     0.010 A 
ATOM      5  C   UNL     1     117.749  51.472  20.861  1.00  0.00     0.001 A 
ATOM      6  C   UNL     1     118.313  51.677  22.118  1.00  0.00     0.001 A 
ENDROOT
BRANCH   1   7
ATOM      7  C   UNL     1     115.226  48.755  21.527  1.00  0.00     0.072 C 
ATOM      8  O   UNL     1     115.525  47.722  20.872  1.00  0.00    -0.545 OA
ATOM      9  O   UNL     1     113.911  48.933  21.943  1.00  0.00    -0.545 OA
ENDBRANCH   1   7
BRANCH   2  10
ATOM     10  C   UNL     1     116.249  49.421  24.319  1.00  0.00     0.072 C 
ATOM     11  O   UNL     1     116.681  48.306  24.714  1.00  0.00    -0.545 OA
ATOM     12  O   UNL     1     115.214  50.029  25.018  1.00  0.00    -0.545 OA
ENDBRANCH   2  10
TORSDOF 2
ENDMDL
MODEL 2
REMARK VINA RESULT:    -4.036      0.084      2.882
REMARK INTER + INTRA:          -4.674
REMARK INTER:                  -4.500
REMARK INTRA:                  -0.174
REMARK UNBOUND:                -0.166
REMARK SMILES O=C([O-])c1ccccc1C(=O)[O-]
REMARK SMILES IDX 4 1 9 2 5 3 8 4 6 5 7 6 2 7 1 8 3 9 10 10 11 11 12 12
REMARK H PARENT
REMARK Flexibility Score: inf
ROOT
ATOM      1  C   UNL     1     116.828  50.043  23.056  1.00  0.00     0.006 A 
ATOM      2  C   UNL     1     116.275  49.763  21.774  1.00  0.00     0.006 A 
ATOM      3  C   UNL     1     117.888  50.962  23.158  1.00  0.00     0.010 A 
ATOM      4  C   UNL     1     116.761  50.463  20.653  1.00  0.00     0.010 A 
ATOM      5  C   UNL     1     118.368  51.627  22.029  1.00  0.00     0.001 A 
ATOM      6  C   UNL     1     117.798  51.386  20.782  1.00  0.00     0.001 A 
ENDROOT
BRANCH   1   7
ATOM      7  C   UNL     1     116.293  49.462  24.310  1.00  0.00     0.072 C 
ATOM      8  O   UNL     1     116.730  48.365  24.750  1.00  0.00    -0.545 OA
ATOM      9  O   UNL     1     115.252  50.092  24.981  1.00  0.00    -0.545 OA
ENDBRANCH   1   7
BRANCH   2  10
ATOM     10  C   UNL     1     115.253  48.716  21.545  1.00  0.00     0.072 C 
ATOM     11  O   UNL     1     115.545  47.650  20.941  1.00  0.00    -0.545 OA
ATOM     12  O   UNL     1     113.937  48.929  21.938  1.00  0.00    -0.545 OA
ENDBRANCH   2  10
TORSDOF 2
ENDMDL
MODEL 3
REMARK VINA RESULT:    -4.000     12.817     14.456
REMARK INTER + INTRA:          -4.634
REMARK INTER:                  -4.476
REMARK INTRA:                  -0.158
REMARK UNBOUND:                -0.166
REMARK SMILES O=C([O-])c1ccccc1C(=O)[O-]
REMARK SMILES IDX 4 1 9 2 5 3 8 4 6 5 7 6 2 7 1 8 3 9 10 10 11 11 12 12
REMARK H PARENT
REMARK Flexibility Score: inf
ROOT
ATOM      1  C   UNL     1     109.170  50.735  10.774  1.00  0.00     0.006 A 
ATOM      2  C   UNL     1     107.773  50.978  10.638  1.00  0.00     0.006 A 
ATOM      3  C   UNL     1     110.081  51.709  10.326  1.00  0.00     0.010 A 
ATOM      4  C   UNL     1     107.343  52.215  10.120  1.00  0.00     0.010 A 
ATOM      5  C   UNL     1     109.631  52.918   9.794  1.00  0.00     0.001 A 
ATOM      6  C   UNL     1     108.265  53.174   9.702  1.00  0.00     0.001 A 
ENDROOT
BRANCH   1   7
ATOM      7  C   UNL     1     109.718  49.527  11.433  1.00  0.00     0.072 C 
ATOM      8  O   UNL     1     109.740  49.430  12.689  1.00  0.00    -0.545 OA
ATOM      9  O   UNL     1     110.277  48.509  10.669  1.00  0.00    -0.545 OA
ENDBRANCH   1   7
BRANCH   2  10
ATOM     10  C   UNL     1     106.741  49.964  10.954  1.00  0.00     0.072 C 
ATOM     11  O   UNL     1     106.096  49.393  10.035  1.00  0.00    -0.545 OA
ATOM     12  O   UNL     1     106.425  49.680  12.276  1.00  0.00    -0.545 OA
ENDBRANCH   2  10
TORSDOF 2
ENDMDL
MODEL 4
REMARK VINA RESULT:    -3.833     13.281     13.892
REMARK INTER + INTRA:          -4.448
REMARK INTER:                  -4.264
REMARK INTRA:                  -0.184
REMARK UNBOUND:                -0.166
REMARK SMILES O=C([O-])c1ccccc1C(=O)[O-]
REMARK SMILES IDX 4 1 9 2 5 3 8 4 6 5 7 6 2 7 1 8 3 9 10 10 11 11 12 12
REMARK H PARENT
REMARK Flexibility Score: inf
ROOT
ATOM      1  C   UNL     1     110.379  49.869   9.924  1.00  0.00     0.006 A 
ATOM      2  C   UNL     1     109.459  50.527  10.789  1.00  0.00     0.006 A 
ATOM      3  C   UNL     1     111.218  50.642   9.102  1.00  0.00     0.010 A 
ATOM      4  C   UNL     1     109.461  51.934  10.845  1.00  0.00     0.010 A 
ATOM      5  C   UNL     1     111.186  52.036   9.157  1.00  0.00     0.001 A 
ATOM      6  C   UNL     1     110.318  52.680  10.036  1.00  0.00     0.001 A 
ENDROOT
BRANCH   1   7
ATOM      7  C   UNL     1     110.547  48.397   9.896  1.00  0.00     0.072 C 
ATOM      8  O   UNL     1     111.428  47.835  10.600  1.00  0.00    -0.545 OA
ATOM      9  O   UNL     1     109.776  47.624   9.037  1.00  0.00    -0.545 OA
ENDBRANCH   1   7
BRANCH   2  10
ATOM     10  C   UNL     1     108.444  49.805  11.591  1.00  0.00     0.072 C 
ATOM     11  O   UNL     1     108.758  49.246  12.675  1.00  0.00    -0.545 OA
ATOM     12  O   UNL     1     107.143  49.681  11.119  1.00  0.00    -0.545 OA
ENDBRANCH   2  10
TORSDOF 2
ENDMDL
MODEL 5
REMARK VINA RESULT:    -3.831      2.346      3.959
REMARK INTER + INTRA:          -4.445
REMARK INTER:                  -4.237
REMARK INTRA:                  -0.208
REMARK UNBOUND:                -0.166
REMARK SMILES O=C([O-])c1ccccc1C(=O)[O-]
REMARK SMILES IDX 4 1 9 2 5 3 8 4 6 5 7 6 2 7 1 8 3 9 10 10 11 11 12 12
REMARK H PARENT
REMARK Flexibility Score: inf
ROOT
ATOM      1  C   UNL     1     116.802  49.460  22.266  1.00  0.00     0.006 A 
ATOM      2  C   UNL     1     115.882  48.383  22.124  1.00  0.00     0.006 A 
ATOM      3  C   UNL     1     116.715  50.289  23.399  1.00  0.00     0.010 A 
ATOM      4  C   UNL     1     114.955  48.136  23.154  1.00  0.00     0.010 A 
ATOM      5  C   UNL     1     115.772  50.039  24.397  1.00  0.00     0.001 A 
ATOM      6  C   UNL     1     114.902  48.958  24.279  1.00  0.00     0.001 A 
ENDROOT
BRANCH   1   7
ATOM      7  C   UNL     1     117.901  49.715  21.305  1.00  0.00     0.072 C 
ATOM      8  O   UNL     1     119.078  49.346  21.559  1.00  0.00    -0.545 OA
ATOM      9  O   UNL     1     117.655  50.428  20.137  1.00  0.00    -0.545 OA
ENDBRANCH   1   7
BRANCH   2  10
ATOM     10  C   UNL     1     115.805  47.540  20.908  1.00  0.00     0.072 C 
ATOM     11  O   UNL     1     114.996  47.816  19.983  1.00  0.00    -0.545 OA
ATOM     12  O   UNL     1     116.582  46.393  20.805  1.00  0.00    -0.545 OA
ENDBRANCH   2  10
TORSDOF 2
ENDMDL
MODEL 6
REMARK VINA RESULT:    -3.759     16.824     18.196
REMARK INTER + INTRA:          -4.365
REMARK INTER:                  -4.196
REMARK INTRA:                  -0.170
REMARK UNBOUND:                -0.166
REMARK SMILES O=C([O-])c1ccccc1C(=O)[O-]
REMARK SMILES IDX 4 1 9 2 5 3 8 4 6 5 7 6 2 7 1 8 3 9 10 10 11 11 12 12
REMARK H PARENT
REMARK Flexibility Score: inf
ROOT
ATOM      1  C   UNL     1     103.775  40.002  14.236  1.00  0.00     0.006 A 
ATOM      2  C   UNL     1     104.774  39.026  14.515  1.00  0.00     0.006 A 
ATOM      3  C   UNL     1     103.982  41.330  14.653  1.00  0.00     0.010 A 
ATOM      4  C   UNL     1     105.969  39.430  15.140  1.00  0.00     0.010 A 
ATOM      5  C   UNL     1     105.164  41.703  15.292  1.00  0.00     0.001 A 
ATOM      6  C   UNL     1     106.160  40.757  15.524  1.00  0.00     0.001 A 
ENDROOT
BRANCH   1   7
ATOM      7  C   UNL     1     102.548  39.703  13.462  1.00  0.00     0.072 C 
ATOM      8  O   UNL     1     101.439  39.556  14.042  1.00  0.00    -0.545 OA
ATOM      9  O   UNL     1     102.620  39.515  12.087  1.00  0.00    -0.545 OA
ENDBRANCH   1   7
BRANCH   2  10
ATOM     10  C   UNL     1     104.593  37.582  14.239  1.00  0.00     0.072 C 
ATOM     11  O   UNL     1     105.270  37.007  13.346  1.00  0.00    -0.545 OA
ATOM     12  O   UNL     1     103.621  36.859  14.920  1.00  0.00    -0.545 OA
ENDBRANCH   2  10
TORSDOF 2
ENDMDL
MODEL 7
REMARK VINA RESULT:    -3.743      2.637      4.326
REMARK INTER + INTRA:          -4.347
REMARK INTER:                  -4.482
REMARK INTRA:                   0.135
REMARK UNBOUND:                -0.166
REMARK SMILES O=C([O-])c1ccccc1C(=O)[O-]
REMARK SMILES IDX 4 1 9 2 5 3 8 4 6 5 7 6 2 7 1 8 3 9 10 10 11 11 12 12
REMARK H PARENT
REMARK Flexibility Score: inf
ROOT
ATOM      1  C   UNL     1     117.289  50.036  22.920  1.00  0.00     0.006 A 
ATOM      2  C   UNL     1     117.062  50.441  21.574  1.00  0.00     0.006 A 
ATOM      3  C   UNL     1     116.289  49.311  23.593  1.00  0.00     0.010 A 
ATOM      4  C   UNL     1     115.872  50.048  20.933  1.00  0.00     0.010 A 
ATOM      5  C   UNL     1     115.107  48.952  22.946  1.00  0.00     0.001 A 
ATOM      6  C   UNL     1     114.904  49.311  21.615  1.00  0.00     0.001 A 
ENDROOT
BRANCH   1   7
ATOM      7  C   UNL     1     118.565  50.281  23.632  1.00  0.00     0.072 C 
ATOM      8  O   UNL     1     119.125  49.363  24.287  1.00  0.00    -0.545 OA
ATOM      9  O   UNL     1     119.125  51.554  23.640  1.00  0.00    -0.545 OA
ENDBRANCH   1   7
BRANCH   2  10
ATOM     10  C   UNL     1     117.992  51.319  20.826  1.00  0.00     0.072 C 
ATOM     11  O   UNL     1     118.877  50.830  20.076  1.00  0.00    -0.545 OA
ATOM     12  O   UNL     1     117.939  52.697  20.997  1.00  0.00    -0.545 OA
ENDBRANCH   2  10
TORSDOF 2
ENDMDL
MODEL 8
REMARK VINA RESULT:    -3.736      2.333      3.513
REMARK INTER + INTRA:          -4.339
REMARK INTER:                  -4.120
REMARK INTRA:                  -0.219
REMARK UNBOUND:                -0.166
REMARK SMILES O=C([O-])c1ccccc1C(=O)[O-]
REMARK SMILES IDX 4 1 9 2 5 3 8 4 6 5 7 6 2 7 1 8 3 9 10 10 11 11 12 12
REMARK H PARENT
REMARK Flexibility Score: inf
ROOT
ATOM      1  C   UNL     1     115.806  48.292  22.178  1.00  0.00     0.006 A 
ATOM      2  C   UNL     1     116.624  49.451  22.304  1.00  0.00     0.006 A 
ATOM      3  C   UNL     1     114.937  47.951  23.231  1.00  0.00     0.010 A 
ATOM      4  C   UNL     1     116.492  50.260  23.448  1.00  0.00     0.010 A 
ATOM      5  C   UNL     1     114.840  48.756  24.366  1.00  0.00     0.001 A 
ATOM      6  C   UNL     1     115.607  49.914  24.469  1.00  0.00     0.001 A 
ENDROOT
BRANCH   1   7
ATOM      7  C   UNL     1     115.773  47.456  20.956  1.00  0.00     0.072 C 
ATOM      8  O   UNL     1     114.981  47.723  20.013  1.00  0.00    -0.545 OA
ATOM      9  O   UNL     1     116.572  46.323  20.864  1.00  0.00    -0.545 OA
ENDBRANCH   1   7
BRANCH   2  10
ATOM     10  C   UNL     1     117.664  49.817  21.314  1.00  0.00     0.072 C 
ATOM     11  O   UNL     1     117.386  50.551  20.329  1.00  0.00    -0.545 OA
ATOM     12  O   UNL     1     118.947  49.298  21.428  1.00  0.00    -0.545 OA
ENDBRANCH   2  10
TORSDOF 2
ENDMDL
MODEL 9
REMARK VINA RESULT:    -3.641      7.949     10.216
REMARK INTER + INTRA:          -4.233
REMARK INTER:                  -4.003
REMARK INTRA:                  -0.230
REMARK UNBOUND:                -0.166
REMARK SMILES O=C([O-])c1ccccc1C(=O)[O-]
REMARK SMILES IDX 4 1 9 2 5 3 8 4 6 5 7 6 2 7 1 8 3 9 10 10 11 11 12 12
REMARK H PARENT
REMARK Flexibility Score: inf
ROOT
ATOM      1  C   UNL     1     108.640  46.078  21.075  1.00  0.00     0.006 A 
ATOM      2  C   UNL     1     107.521  45.472  20.438  1.00  0.00     0.006 A 
ATOM      3  C   UNL     1     109.145  45.509  22.259  1.00  0.00     0.010 A 
ATOM      4  C   UNL     1     106.992  44.282  20.973  1.00  0.00     0.010 A 
ATOM      5  C   UNL     1     108.590  44.341  22.783  1.00  0.00     0.001 A 
ATOM      6  C   UNL     1     107.523  43.723  22.135  1.00  0.00     0.001 A 
ENDROOT
BRANCH   1   7
ATOM      7  C   UNL     1     109.352  47.250  20.514  1.00  0.00     0.072 C 
ATOM      8  O   UNL     1     109.083  48.417  20.906  1.00  0.00    -0.545 OA
ATOM      9  O   UNL     1     110.281  47.079  19.495  1.00  0.00    -0.545 OA
ENDBRANCH   1   7
BRANCH   2  10
ATOM     10  C   UNL     1     106.835  46.068  19.269  1.00  0.00     0.072 C 
ATOM     11  O   UNL     1     107.088  45.671  18.101  1.00  0.00    -0.545 OA
ATOM     12  O   UNL     1     105.949  47.124  19.445  1.00  0.00    -0.545 OA
ENDBRANCH   2  10
TORSDOF 2
ENDMDL
