MODEL 1
REMARK VINA RESULT:    -3.655      0.000      0.000
REMARK INTER + INTRA:          -4.328
REMARK INTER:                  -4.296
REMARK INTRA:                  -0.032
REMARK UNBOUND:                -0.032
REMARK SMILES O=C([O-])CCC(=O)[O-]
REMARK SMILES IDX 4 1 2 2 1 3 3 4 5 5 6 6 7 7 8 8
REMARK H PARENT
REMARK Flexibility Score: inf
ROOT
ATOM      1  C   UNL     1      81.699  63.262  10.187  1.00  0.00     0.059 C 
ENDROOT
BRANCH   1   2
ATOM      2  C   UNL     1      82.121  63.413  11.615  1.00  0.00     0.042 C 
ATOM      3  O   UNL     1      82.285  64.559  12.108  1.00  0.00    -0.550 OA
ATOM      4  O   UNL     1      82.380  62.288  12.386  1.00  0.00    -0.550 OA
ENDBRANCH   1   2
BRANCH   1   5
ATOM      5  C   UNL     1      82.903  62.930   9.306  1.00  0.00     0.059 C 
BRANCH   5   6
ATOM      6  C   UNL     1      82.454  62.520   7.938  1.00  0.00     0.042 C 
ATOM      7  O   UNL     1      81.347  62.918   7.490  1.00  0.00    -0.550 OA
ATOM      8  O   UNL     1      83.279  61.738   7.140  1.00  0.00    -0.550 OA
ENDBRANCH   5   6
ENDBRANCH   1   5
TORSDOF 3
ENDMDL
MODEL 2
REMARK VINA RESULT:    -3.645      0.103      1.148
REMARK INTER + INTRA:          -4.316
REMARK INTER:                  -4.283
REMARK INTRA:                  -0.033
REMARK UNBOUND:                -0.032
REMARK SMILES O=C([O-])CCC(=O)[O-]
REMARK SMILES IDX 4 1 2 2 1 3 3 4 5 5 6 6 7 7 8 8
REMARK H PARENT
REMARK Flexibility Score: inf
ROOT
ATOM      1  C   UNL     1      81.719  63.196  10.150  1.00  0.00     0.059 C 
ENDROOT
BRANCH   1   2
ATOM      2  C   UNL     1      82.184  63.329  11.566  1.00  0.00     0.042 C 
ATOM      3  O   UNL     1      82.415  62.301  12.255  1.00  0.00    -0.550 OA
ATOM      4  O   UNL     1      82.315  64.587  12.140  1.00  0.00    -0.550 OA
ENDBRANCH   1   2
BRANCH   1   5
ATOM      5  C   UNL     1      82.895  62.872   9.229  1.00  0.00     0.059 C 
BRANCH   5   6
ATOM      6  C   UNL     1      82.406  62.514   7.861  1.00  0.00     0.042 C 
ATOM      7  O   UNL     1      81.291  62.936   7.457  1.00  0.00    -0.550 OA
ATOM      8  O   UNL     1      83.203  61.755   7.014  1.00  0.00    -0.550 OA
ENDBRANCH   5   6
ENDBRANCH   1   5
TORSDOF 3
ENDMDL
MODEL 3
REMARK VINA RESULT:    -3.627      0.084      4.193
REMARK INTER + INTRA:          -4.295
REMARK INTER:                  -4.262
REMARK INTRA:                  -0.032
REMARK UNBOUND:                -0.032
REMARK SMILES O=C([O-])CCC(=O)[O-]
REMARK SMILES IDX 4 1 2 2 1 3 3 4 5 5 6 6 7 7 8 8
REMARK H PARENT
REMARK Flexibility Score: inf
ROOT
ATOM      1  C   UNL     1      82.872  62.900   9.239  1.00  0.00     0.059 C 
ENDROOT
BRANCH   1   2
ATOM      2  C   UNL     1      82.396  62.548   7.865  1.00  0.00     0.042 C 
ATOM      3  O   UNL     1      81.274  62.950   7.462  1.00  0.00    -0.550 OA
ATOM      4  O   UNL     1      83.171  61.736   7.047  1.00  0.00    -0.550 OA
ENDBRANCH   1   2
BRANCH   1   5
ATOM      5  C   UNL     1      81.687  63.235  10.146  1.00  0.00     0.059 C 
BRANCH   5   6
ATOM      6  C   UNL     1      82.140  63.389  11.564  1.00  0.00     0.042 C 
ATOM      7  O   UNL     1      82.240  64.534  12.076  1.00  0.00    -0.550 OA
ATOM      8  O   UNL     1      82.407  62.264  12.334  1.00  0.00    -0.550 OA
ENDBRANCH   5   6
ENDBRANCH   1   5
TORSDOF 3
ENDMDL
MODEL 4
REMARK VINA RESULT:    -3.598      0.225      4.356
REMARK INTER + INTRA:          -4.261
REMARK INTER:                  -4.230
REMARK INTRA:                  -0.031
REMARK UNBOUND:                -0.032
REMARK SMILES O=C([O-])CCC(=O)[O-]
REMARK SMILES IDX 4 1 2 2 1 3 3 4 5 5 6 6 7 7 8 8
REMARK H PARENT
REMARK Flexibility Score: inf
ROOT
ATOM      1  C   UNL     1      82.795  62.884   9.209  1.00  0.00     0.059 C 
ENDROOT
BRANCH   1   2
ATOM      2  C   UNL     1      82.269  62.587   7.840  1.00  0.00     0.042 C 
ATOM      3  O   UNL     1      82.931  61.864   7.051  1.00  0.00    -0.550 OA
ATOM      4  O   UNL     1      81.070  63.148   7.419  1.00  0.00    -0.550 OA
ENDBRANCH   1   2
BRANCH   1   5
ATOM      5  C   UNL     1      81.649  63.248  10.154  1.00  0.00     0.059 C 
BRANCH   5   6
ATOM      6  C   UNL     1      82.142  63.336  11.564  1.00  0.00     0.042 C 
ATOM      7  O   UNL     1      82.423  62.289  12.204  1.00  0.00    -0.550 OA
ATOM      8  O   UNL     1      82.336  64.578  12.156  1.00  0.00    -0.550 OA
ENDBRANCH   5   6
ENDBRANCH   1   5
TORSDOF 3
ENDMDL
MODEL 5
REMARK VINA RESULT:    -3.550      1.799      2.515
REMARK INTER + INTRA:          -4.205
REMARK INTER:                  -4.162
REMARK INTRA:                  -0.043
REMARK UNBOUND:                -0.032
REMARK SMILES O=C([O-])CCC(=O)[O-]
REMARK SMILES IDX 4 1 2 2 1 3 3 4 5 5 6 6 7 7 8 8
REMARK H PARENT
REMARK Flexibility Score: inf
ROOT
ATOM      1  C   UNL     1      82.103  62.940  10.437  1.00  0.00     0.059 C 
ENDROOT
BRANCH   1   2
ATOM      2  C   UNL     1      83.058  63.650  11.344  1.00  0.00     0.042 C 
ATOM      3  O   UNL     1      82.624  64.389  12.266  1.00  0.00    -0.550 OA
ATOM      4  O   UNL     1      84.427  63.533  11.141  1.00  0.00    -0.550 OA
ENDBRANCH   1   2
BRANCH   1   5
ATOM      5  C   UNL     1      80.761  63.672  10.394  1.00  0.00     0.059 C 
BRANCH   5   6
ATOM      6  C   UNL     1      80.042  63.373   9.116  1.00  0.00     0.042 C 
ATOM      7  O   UNL     1      80.657  63.413   8.020  1.00  0.00    -0.550 OA
ATOM      8  O   UNL     1      78.703  63.004   9.142  1.00  0.00    -0.550 OA
ENDBRANCH   5   6
ENDBRANCH   1   5
TORSDOF 3
ENDMDL
MODEL 6
REMARK VINA RESULT:    -3.528      2.026      3.732
REMARK INTER + INTRA:          -4.179
REMARK INTER:                  -4.133
REMARK INTRA:                  -0.046
REMARK UNBOUND:                -0.032
REMARK SMILES O=C([O-])CCC(=O)[O-]
REMARK SMILES IDX 4 1 2 2 1 3 3 4 5 5 6 6 7 7 8 8
REMARK H PARENT
REMARK Flexibility Score: inf
ROOT
ATOM      1  C   UNL     1      80.865  63.591  10.739  1.00  0.00     0.059 C 
ENDROOT
BRANCH   1   2
ATOM      2  C   UNL     1      79.884  63.616   9.610  1.00  0.00     0.042 C 
ATOM      3  O   UNL     1      80.286  63.541   8.420  1.00  0.00    -0.550 OA
ATOM      4  O   UNL     1      78.529  63.770   9.870  1.00  0.00    -0.550 OA
ENDBRANCH   1   2
BRANCH   1   5
ATOM      5  C   UNL     1      82.234  63.118  10.248  1.00  0.00     0.059 C 
BRANCH   5   6
ATOM      6  C   UNL     1      83.312  63.577  11.179  1.00  0.00     0.042 C 
ATOM      7  O   UNL     1      83.015  64.056  12.304  1.00  0.00    -0.550 OA
ATOM      8  O   UNL     1      84.646  63.431  10.823  1.00  0.00    -0.550 OA
ENDBRANCH   5   6
ENDBRANCH   1   5
TORSDOF 3
ENDMDL
MODEL 7
REMARK VINA RESULT:    -3.432      1.353      1.717
REMARK INTER + INTRA:          -4.066
REMARK INTER:                  -4.031
REMARK INTRA:                  -0.035
REMARK UNBOUND:                -0.032
REMARK SMILES O=C([O-])CCC(=O)[O-]
REMARK SMILES IDX 4 1 2 2 1 3 3 4 5 5 6 6 7 7 8 8
REMARK H PARENT
REMARK Flexibility Score: inf
ROOT
ATOM      1  C   UNL     1      82.577  62.875   9.116  1.00  0.00     0.059 C 
ENDROOT
BRANCH   1   2
ATOM      2  C   UNL     1      81.953  63.264  10.420  1.00  0.00     0.042 C 
ATOM      3  O   UNL     1      82.621  63.201  11.485  1.00  0.00    -0.550 OA
ATOM      4  O   UNL     1      80.620  63.650  10.464  1.00  0.00    -0.550 OA
ENDBRANCH   1   2
BRANCH   1   5
ATOM      5  C   UNL     1      81.499  62.501   8.098  1.00  0.00     0.059 C 
BRANCH   5   6
ATOM      6  C   UNL     1      82.124  62.073   6.808  1.00  0.00     0.042 C 
ATOM      7  O   UNL     1      81.480  62.165   5.731  1.00  0.00    -0.550 OA
ATOM      8  O   UNL     1      83.436  61.616   6.789  1.00  0.00    -0.550 OA
ENDBRANCH   5   6
ENDBRANCH   1   5
TORSDOF 3
ENDMDL
MODEL 8
REMARK VINA RESULT:    -3.424      1.939      4.516
REMARK INTER + INTRA:          -4.057
REMARK INTER:                  -4.016
REMARK INTRA:                  -0.041
REMARK UNBOUND:                -0.032
REMARK SMILES O=C([O-])CCC(=O)[O-]
REMARK SMILES IDX 4 1 2 2 1 3 3 4 5 5 6 6 7 7 8 8
REMARK H PARENT
REMARK Flexibility Score: inf
ROOT
ATOM      1  C   UNL     1      81.958  62.543   8.296  1.00  0.00     0.059 C 
ENDROOT
BRANCH   1   2
ATOM      2  C   UNL     1      82.391  62.040   6.955  1.00  0.00     0.042 C 
ATOM      3  O   UNL     1      81.646  62.189   5.952  1.00  0.00    -0.550 OA
ATOM      4  O   UNL     1      83.597  61.364   6.823  1.00  0.00    -0.550 OA
ENDBRANCH   1   2
BRANCH   1   5
ATOM      5  C   UNL     1      80.553  63.140   8.214  1.00  0.00     0.059 C 
BRANCH   5   6
ATOM      6  C   UNL     1      80.092  63.583   9.568  1.00  0.00     0.042 C 
ATOM      7  O   UNL     1      80.923  63.730  10.502  1.00  0.00    -0.550 OA
ATOM      8  O   UNL     1      78.753  63.878   9.784  1.00  0.00    -0.550 OA
ENDBRANCH   5   6
ENDBRANCH   1   5
TORSDOF 3
ENDMDL
MODEL 9
REMARK VINA RESULT:    -3.404      3.003      4.960
REMARK INTER + INTRA:          -4.033
REMARK INTER:                  -3.994
REMARK INTRA:                  -0.039
REMARK UNBOUND:                -0.032
REMARK SMILES O=C([O-])CCC(=O)[O-]
REMARK SMILES IDX 4 1 2 2 1 3 3 4 5 5 6 6 7 7 8 8
REMARK H PARENT
REMARK Flexibility Score: inf
ROOT
ATOM      1  C   UNL     1      81.010  62.306   5.618  1.00  0.00     0.059 C 
ENDROOT
BRANCH   1   2
ATOM      2  C   UNL     1      79.983  63.383   5.473  1.00  0.00     0.042 C 
ATOM      3  O   UNL     1      78.925  63.345   6.154  1.00  0.00    -0.550 OA
ATOM      4  O   UNL     1      80.171  64.405   4.551  1.00  0.00    -0.550 OA
ENDBRANCH   1   2
BRANCH   1   5
ATOM      5  C   UNL     1      81.241  61.982   7.095  1.00  0.00     0.059 C 
BRANCH   5   6
ATOM      6  C   UNL     1      82.694  62.098   7.435  1.00  0.00     0.042 C 
ATOM      7  O   UNL     1      83.059  62.781   8.427  1.00  0.00    -0.550 OA
ATOM      8  O   UNL     1      83.640  61.414   6.684  1.00  0.00    -0.550 OA
ENDBRANCH   5   6
ENDBRANCH   1   5
TORSDOF 3
ENDMDL
