MODEL 1
REMARK VINA RESULT:    -3.812      0.000      0.000
REMARK INTER + INTRA:          -6.289
REMARK INTER:                  -5.595
REMARK INTRA:                  -0.694
REMARK UNBOUND:                -0.694
REMARK SMILES CCCOC(=O)c1ccccc1C(=O)OCCC
REMARK SMILES IDX 7 1 8 2 9 3 10 4 11 5 12 6 5 7 6 8 4 9 3 10 2 11 1 12 13 13
REMARK SMILES IDX 14 14 15 15 16 16 17 17 18 18
REMARK H PARENT
REMARK Flexibility Score: inf
ROOT
ATOM      1  C   UNL     1      78.473  33.990  52.043  1.00  0.00     0.074 A 
ATOM      2  C   UNL     1      78.991  32.700  52.248  1.00  0.00     0.016 A 
ATOM      3  C   UNL     1      78.138  31.612  52.444  1.00  0.00     0.001 A 
ATOM      4  C   UNL     1      76.757  31.798  52.436  1.00  0.00     0.001 A 
ATOM      5  C   UNL     1      76.222  33.067  52.209  1.00  0.00     0.016 A 
ATOM      6  C   UNL     1      77.064  34.173  51.988  1.00  0.00     0.074 A 
ENDROOT
BRANCH   1   7
ATOM      7  C   UNL     1      79.427  35.114  51.950  1.00  0.00     0.339 C 
ATOM      8  O   UNL     1      79.484  35.975  52.870  1.00  0.00    -0.246 OA
BRANCH   7   9
ATOM      9  O   UNL     1      80.300  35.189  50.857  1.00  0.00    -0.462 OA
BRANCH   9  10
ATOM     10  C   UNL     1      79.860  35.147  49.500  1.00  0.00     0.233 C 
BRANCH  10  11
ATOM     11  C   UNL     1      80.635  34.079  48.721  1.00  0.00     0.038 C 
ATOM     12  C   UNL     1      81.027  32.913  49.623  1.00  0.00     0.007 C 
ENDBRANCH  10  11
ENDBRANCH   9  10
ENDBRANCH   7   9
ENDBRANCH   1   7
BRANCH   6  13
ATOM     13  C   UNL     1      76.444  35.471  51.632  1.00  0.00     0.339 C 
ATOM     14  O   UNL     1      76.701  36.003  50.517  1.00  0.00    -0.246 OA
BRANCH  13  15
ATOM     15  O   UNL     1      75.612  36.124  52.549  1.00  0.00    -0.462 OA
BRANCH  15  16
ATOM     16  C   UNL     1      74.189  36.034  52.530  1.00  0.00     0.233 C 
BRANCH  16  17
ATOM     17  C   UNL     1      73.685  35.279  53.762  1.00  0.00     0.038 C 
ATOM     18  C   UNL     1      72.782  34.114  53.363  1.00  0.00     0.007 C 
ENDBRANCH  16  17
ENDBRANCH  15  16
ENDBRANCH  13  15
ENDBRANCH   6  13
TORSDOF 8
ENDMDL
MODEL 2
REMARK VINA RESULT:    -3.776      0.137      5.369
REMARK INTER + INTRA:          -6.236
REMARK INTER:                  -5.695
REMARK INTRA:                  -0.541
REMARK UNBOUND:                -0.694
REMARK SMILES CCCOC(=O)c1ccccc1C(=O)OCCC
REMARK SMILES IDX 7 1 8 2 9 3 10 4 11 5 12 6 5 7 6 8 4 9 3 10 2 11 1 12 13 13
REMARK SMILES IDX 14 14 15 15 16 16 17 17 18 18
REMARK H PARENT
REMARK Flexibility Score: inf
ROOT
ATOM      1  C   UNL     1      77.162  34.204  51.971  1.00  0.00     0.074 A 
ATOM      2  C   UNL     1      76.304  33.114  52.198  1.00  0.00     0.016 A 
ATOM      3  C   UNL     1      76.819  31.835  52.412  1.00  0.00     0.001 A 
ATOM      4  C   UNL     1      78.197  31.626  52.404  1.00  0.00     0.001 A 
ATOM      5  C   UNL     1      79.067  32.699  52.204  1.00  0.00     0.016 A 
ATOM      6  C   UNL     1      78.569  34.001  52.008  1.00  0.00     0.074 A 
ENDROOT
BRANCH   1   7
ATOM      7  C   UNL     1      76.553  35.510  51.644  1.00  0.00     0.339 C 
ATOM      8  O   UNL     1      76.790  36.059  50.533  1.00  0.00    -0.246 OA
BRANCH   7   9
ATOM      9  O   UNL     1      75.677  36.110  52.556  1.00  0.00    -0.462 OA
BRANCH   9  10
ATOM     10  C   UNL     1      74.260  36.122  52.389  1.00  0.00     0.233 C 
BRANCH  10  11
ATOM     11  C   UNL     1      73.572  35.505  53.612  1.00  0.00     0.038 C 
ATOM     12  C   UNL     1      72.805  34.242  53.236  1.00  0.00     0.007 C 
ENDBRANCH  10  11
ENDBRANCH   9  10
ENDBRANCH   7   9
ENDBRANCH   1   7
BRANCH   6  13
ATOM     13  C   UNL     1      79.536  35.120  51.923  1.00  0.00     0.339 C 
ATOM     14  O   UNL     1      79.664  35.913  52.897  1.00  0.00    -0.246 OA
BRANCH  13  15
ATOM     15  O   UNL     1      80.272  35.322  50.749  1.00  0.00    -0.462 OA
BRANCH  15  16
ATOM     16  C   UNL     1      79.767  35.050  49.444  1.00  0.00     0.233 C 
BRANCH  16  17
ATOM     17  C   UNL     1      80.654  34.028  48.729  1.00  0.00     0.038 C 
ATOM     18  C   UNL     1      81.016  32.870  49.655  1.00  0.00     0.007 C 
ENDBRANCH  16  17
ENDBRANCH  15  16
ENDBRANCH  13  15
ENDBRANCH   6  13
TORSDOF 8
ENDMDL
MODEL 3
REMARK VINA RESULT:    -3.068     15.139     17.219
REMARK INTER + INTRA:          -5.196
REMARK INTER:                  -5.169
REMARK INTRA:                  -0.027
REMARK UNBOUND:                -0.694
REMARK SMILES CCCOC(=O)c1ccccc1C(=O)OCCC
REMARK SMILES IDX 7 1 8 2 9 3 10 4 11 5 12 6 5 7 6 8 4 9 3 10 2 11 1 12 13 13
REMARK SMILES IDX 14 14 15 15 16 16 17 17 18 18
REMARK H PARENT
REMARK Flexibility Score: inf
ROOT
ATOM      1  C   UNL     1      85.034  30.401  64.855  1.00  0.00     0.074 A 
ATOM      2  C   UNL     1      83.646  30.350  64.638  1.00  0.00     0.016 A 
ATOM      3  C   UNL     1      83.004  29.130  64.418  1.00  0.00     0.001 A 
ATOM      4  C   UNL     1      83.738  27.945  64.414  1.00  0.00     0.001 A 
ATOM      5  C   UNL     1      85.112  27.972  64.652  1.00  0.00     0.016 A 
ATOM      6  C   UNL     1      85.776  29.189  64.897  1.00  0.00     0.074 A 
ENDROOT
BRANCH   1   7
ATOM      7  C   UNL     1      85.669  31.729  64.973  1.00  0.00     0.339 C 
ATOM      8  O   UNL     1      86.337  32.200  64.013  1.00  0.00    -0.246 OA
BRANCH   7   9
ATOM      9  O   UNL     1      85.485  32.480  66.141  1.00  0.00    -0.462 OA
BRANCH   9  10
ATOM     10  C   UNL     1      85.312  31.894  67.430  1.00  0.00     0.233 C 
BRANCH  10  11
ATOM     11  C   UNL     1      83.988  32.349  68.051  1.00  0.00     0.038 C 
ATOM     12  C   UNL     1      82.798  31.694  67.357  1.00  0.00     0.007 C 
ENDBRANCH  10  11
ENDBRANCH   9  10
ENDBRANCH   7   9
ENDBRANCH   1   7
BRANCH   6  13
ATOM     13  C   UNL     1      87.211  29.147  65.264  1.00  0.00     0.339 C 
ATOM     14  O   UNL     1      87.632  29.846  66.227  1.00  0.00    -0.246 OA
BRANCH  13  15
ATOM     15  O   UNL     1      88.103  28.370  64.515  1.00  0.00    -0.462 OA
BRANCH  15  16
ATOM     16  C   UNL     1      88.125  26.944  64.544  1.00  0.00     0.233 C 
BRANCH  16  17
ATOM     17  C   UNL     1      88.119  26.380  63.121  1.00  0.00     0.038 C 
ATOM     18  C   UNL     1      87.282  25.107  63.036  1.00  0.00     0.007 C 
ENDBRANCH  16  17
ENDBRANCH  15  16
ENDBRANCH  13  15
ENDBRANCH   6  13
TORSDOF 8
ENDMDL
MODEL 4
REMARK VINA RESULT:    -3.025     15.770     17.215
REMARK INTER + INTRA:          -5.133
REMARK INTER:                  -5.069
REMARK INTRA:                  -0.064
REMARK UNBOUND:                -0.694
REMARK SMILES CCCOC(=O)c1ccccc1C(=O)OCCC
REMARK SMILES IDX 7 1 8 2 9 3 10 4 11 5 12 6 5 7 6 8 4 9 3 10 2 11 1 12 13 13
REMARK SMILES IDX 14 14 15 15 16 16 17 17 18 18
REMARK H PARENT
REMARK Flexibility Score: inf
ROOT
ATOM      1  C   UNL     1      86.012  30.345  65.446  1.00  0.00     0.074 A 
ATOM      2  C   UNL     1      84.956  29.739  64.745  1.00  0.00     0.016 A 
ATOM      3  C   UNL     1      83.679  30.301  64.754  1.00  0.00     0.001 A 
ATOM      4  C   UNL     1      83.439  31.478  65.462  1.00  0.00     0.001 A 
ATOM      5  C   UNL     1      84.480  32.109  66.144  1.00  0.00     0.016 A 
ATOM      6  C   UNL     1      85.780  31.570  66.130  1.00  0.00     0.074 A 
ENDROOT
BRANCH   1   7
ATOM      7  C   UNL     1      87.312  29.644  65.486  1.00  0.00     0.339 C 
ATOM      8  O   UNL     1      88.069  29.769  66.487  1.00  0.00    -0.246 OA
BRANCH   7   9
ATOM      9  O   UNL     1      87.675  28.804  64.426  1.00  0.00    -0.462 OA
BRANCH   9  10
ATOM     10  C   UNL     1      88.125  27.462  64.609  1.00  0.00     0.233 C 
BRANCH  10  11
ATOM     11  C   UNL     1      87.099  26.473  64.046  1.00  0.00     0.038 C 
ATOM     12  C   UNL     1      87.784  25.323  63.316  1.00  0.00     0.007 C 
ENDBRANCH  10  11
ENDBRANCH   9  10
ENDBRANCH   7   9
ENDBRANCH   1   7
BRANCH   6  13
ATOM     13  C   UNL     1      86.871  32.344  66.768  1.00  0.00     0.339 C 
ATOM     14  O   UNL     1      86.776  32.678  67.981  1.00  0.00    -0.246 OA
BRANCH  13  15
ATOM     15  O   UNL     1      87.982  32.739  66.013  1.00  0.00    -0.462 OA
BRANCH  15  16
ATOM     16  C   UNL     1      87.889  33.488  64.803  1.00  0.00     0.233 C 
BRANCH  16  17
ATOM     17  C   UNL     1      87.876  34.989  65.103  1.00  0.00     0.038 C 
ATOM     18  C   UNL     1      87.020  35.746  64.092  1.00  0.00     0.007 C 
ENDBRANCH  16  17
ENDBRANCH  15  16
ENDBRANCH  13  15
ENDBRANCH   6  13
TORSDOF 8
ENDMDL
MODEL 5
REMARK VINA RESULT:    -3.008     15.415     17.170
REMARK INTER + INTRA:          -5.109
REMARK INTER:                  -5.165
REMARK INTRA:                   0.056
REMARK UNBOUND:                -0.694
REMARK SMILES CCCOC(=O)c1ccccc1C(=O)OCCC
REMARK SMILES IDX 7 1 8 2 9 3 10 4 11 5 12 6 5 7 6 8 4 9 3 10 2 11 1 12 13 13
REMARK SMILES IDX 14 14 15 15 16 16 17 17 18 18
REMARK H PARENT
REMARK Flexibility Score: inf
ROOT
ATOM      1  C   UNL     1      85.449  31.568  66.227  1.00  0.00     0.074 A 
ATOM      2  C   UNL     1      84.190  32.009  66.670  1.00  0.00     0.016 A 
ATOM      3  C   UNL     1      83.022  31.572  66.043  1.00  0.00     0.001 A 
ATOM      4  C   UNL     1      83.094  30.688  64.968  1.00  0.00     0.001 A 
ATOM      5  C   UNL     1      84.333  30.219  64.530  1.00  0.00     0.016 A 
ATOM      6  C   UNL     1      85.522  30.630  65.161  1.00  0.00     0.074 A 
ENDROOT
BRANCH   1   7
ATOM      7  C   UNL     1      86.650  32.149  66.861  1.00  0.00     0.339 C 
ATOM      8  O   UNL     1      86.670  32.365  68.103  1.00  0.00    -0.246 OA
BRANCH   7   9
ATOM      9  O   UNL     1      87.782  32.414  66.079  1.00  0.00    -0.462 OA
BRANCH   9  10
ATOM     10  C   UNL     1      88.125  33.718  65.614  1.00  0.00     0.233 C 
BRANCH  10  11
ATOM     11  C   UNL     1      87.041  34.251  64.671  1.00  0.00     0.038 C 
ATOM     12  C   UNL     1      87.134  35.766  64.521  1.00  0.00     0.007 C 
ENDBRANCH  10  11
ENDBRANCH   9  10
ENDBRANCH   7   9
ENDBRANCH   1   7
BRANCH   6  13
ATOM     13  C   UNL     1      86.797  30.008  64.735  1.00  0.00     0.339 C 
ATOM     14  O   UNL     1      87.581  30.642  63.977  1.00  0.00    -0.246 OA
BRANCH  13  15
ATOM     15  O   UNL     1      87.109  28.703  65.137  1.00  0.00    -0.462 OA
BRANCH  15  16
ATOM     16  C   UNL     1      88.123  27.909  64.527  1.00  0.00     0.233 C 
BRANCH  16  17
ATOM     17  C   UNL     1      87.609  26.490  64.271  1.00  0.00     0.038 C 
ATOM     18  C   UNL     1      87.998  26.006  62.877  1.00  0.00     0.007 C 
ENDBRANCH  16  17
ENDBRANCH  15  16
ENDBRANCH  13  15
ENDBRANCH   6  13
TORSDOF 8
ENDMDL
MODEL 6
REMARK VINA RESULT:    -2.867     14.414     16.192
REMARK INTER + INTRA:          -4.901
REMARK INTER:                  -4.246
REMARK INTRA:                  -0.655
REMARK UNBOUND:                -0.694
REMARK SMILES CCCOC(=O)c1ccccc1C(=O)OCCC
REMARK SMILES IDX 7 1 8 2 9 3 10 4 11 5 12 6 5 7 6 8 4 9 3 10 2 11 1 12 13 13
REMARK SMILES IDX 14 14 15 15 16 16 17 17 18 18
REMARK H PARENT
REMARK Flexibility Score: inf
ROOT
ATOM      1  C   UNL     1      86.270  31.122  65.701  1.00  0.00     0.074 A 
ATOM      2  C   UNL     1      86.451  29.729  65.639  1.00  0.00     0.016 A 
ATOM      3  C   UNL     1      87.371  29.169  64.752  1.00  0.00     0.001 A 
ATOM      4  C   UNL     1      88.125  29.991  63.916  1.00  0.00     0.001 A 
ATOM      5  C   UNL     1      87.979  31.377  63.979  1.00  0.00     0.016 A 
ATOM      6  C   UNL     1      87.072  31.964  64.882  1.00  0.00     0.074 A 
ENDROOT
BRANCH   1   7
ATOM      7  C   UNL     1      85.206  31.645  66.582  1.00  0.00     0.339 C 
ATOM      8  O   UNL     1      85.499  32.144  67.703  1.00  0.00    -0.246 OA
BRANCH   7   9
ATOM      9  O   UNL     1      83.876  31.627  66.142  1.00  0.00    -0.462 OA
BRANCH   9  10
ATOM     10  C   UNL     1      83.501  31.356  64.793  1.00  0.00     0.233 C 
BRANCH  10  11
ATOM     11  C   UNL     1      82.545  30.160  64.734  1.00  0.00     0.038 C 
ATOM     12  C   UNL     1      83.283  28.881  64.352  1.00  0.00     0.007 C 
ENDBRANCH  10  11
ENDBRANCH   9  10
ENDBRANCH   7   9
ENDBRANCH   1   7
BRANCH   6  13
ATOM     13  C   UNL     1      87.045  33.441  64.994  1.00  0.00     0.339 C 
ATOM     14  O   UNL     1      87.845  34.025  65.776  1.00  0.00    -0.246 OA
BRANCH  13  15
ATOM     15  O   UNL     1      86.103  34.181  64.267  1.00  0.00    -0.462 OA
BRANCH  15  16
ATOM     16  C   UNL     1      85.274  33.623  63.251  1.00  0.00     0.233 C 
BRANCH  16  17
ATOM     17  C   UNL     1      84.762  34.722  62.316  1.00  0.00     0.038 C 
ATOM     18  C   UNL     1      85.723  35.907  62.279  1.00  0.00     0.007 C 
ENDBRANCH  16  17
ENDBRANCH  15  16
ENDBRANCH  13  15
ENDBRANCH   6  13
TORSDOF 8
ENDMDL
MODEL 7
REMARK VINA RESULT:    -2.690      1.845      4.265
REMARK INTER + INTRA:          -4.641
REMARK INTER:                  -4.319
REMARK INTRA:                  -0.322
REMARK UNBOUND:                -0.694
REMARK SMILES CCCOC(=O)c1ccccc1C(=O)OCCC
REMARK SMILES IDX 7 1 8 2 9 3 10 4 11 5 12 6 5 7 6 8 4 9 3 10 2 11 1 12 13 13
REMARK SMILES IDX 14 14 15 15 16 16 17 17 18 18
REMARK H PARENT
REMARK Flexibility Score: inf
ROOT
ATOM      1  C   UNL     1      76.187  34.915  52.326  1.00  0.00     0.074 A 
ATOM      2  C   UNL     1      75.240  35.924  52.572  1.00  0.00     0.016 A 
ATOM      3  C   UNL     1      73.919  35.601  52.886  1.00  0.00     0.001 A 
ATOM      4  C   UNL     1      73.526  34.265  52.960  1.00  0.00     0.001 A 
ATOM      5  C   UNL     1      74.456  33.248  52.743  1.00  0.00     0.016 A 
ATOM      6  C   UNL     1      75.798  33.552  52.447  1.00  0.00     0.074 A 
ENDROOT
BRANCH   1   7
ATOM      7  C   UNL     1      77.539  35.323  51.893  1.00  0.00     0.339 C 
ATOM      8  O   UNL     1      78.344  35.828  52.722  1.00  0.00    -0.246 OA
BRANCH   7   9
ATOM      9  O   UNL     1      77.936  35.100  50.568  1.00  0.00    -0.462 OA
BRANCH   9  10
ATOM     10  C   UNL     1      78.464  36.124  49.727  1.00  0.00     0.233 C 
BRANCH  10  11
ATOM     11  C   UNL     1      79.965  35.914  49.508  1.00  0.00     0.038 C 
ATOM     12  C   UNL     1      80.256  34.514  48.976  1.00  0.00     0.007 C 
ENDBRANCH  10  11
ENDBRANCH   9  10
ENDBRANCH   7   9
ENDBRANCH   1   7
BRANCH   6  13
ATOM     13  C   UNL     1      76.768  32.437  52.347  1.00  0.00     0.339 C 
ATOM     14  O   UNL     1      76.380  31.301  51.957  1.00  0.00    -0.246 OA
BRANCH  13  15
ATOM     15  O   UNL     1      78.102  32.634  52.727  1.00  0.00    -0.462 OA
BRANCH  15  16
ATOM     16  C   UNL     1      79.169  31.769  52.342  1.00  0.00     0.233 C 
BRANCH  16  17
ATOM     17  C   UNL     1      80.257  32.557  51.608  1.00  0.00     0.038 C 
ATOM     18  C   UNL     1      80.969  33.523  52.550  1.00  0.00     0.007 C 
ENDBRANCH  16  17
ENDBRANCH  15  16
ENDBRANCH  13  15
ENDBRANCH   6  13
TORSDOF 8
ENDMDL
MODEL 8
REMARK VINA RESULT:    -2.520     15.034     16.501
REMARK INTER + INTRA:          -4.393
REMARK INTER:                  -4.739
REMARK INTRA:                   0.346
REMARK UNBOUND:                -0.694
REMARK SMILES CCCOC(=O)c1ccccc1C(=O)OCCC
REMARK SMILES IDX 7 1 8 2 9 3 10 4 11 5 12 6 5 7 6 8 4 9 3 10 2 11 1 12 13 13
REMARK SMILES IDX 14 14 15 15 16 16 17 17 18 18
REMARK H PARENT
REMARK Flexibility Score: inf
ROOT
ATOM      1  C   UNL     1      85.247  29.786  64.725  1.00  0.00     0.074 A 
ATOM      2  C   UNL     1      84.392  28.717  64.403  1.00  0.00     0.016 A 
ATOM      3  C   UNL     1      83.011  28.906  64.330  1.00  0.00     0.001 A 
ATOM      4  C   UNL     1      82.465  30.165  64.576  1.00  0.00     0.001 A 
ATOM      5  C   UNL     1      83.298  31.244  64.873  1.00  0.00     0.016 A 
ATOM      6  C   UNL     1      84.694  31.080  64.930  1.00  0.00     0.074 A 
ENDROOT
BRANCH   1   7
ATOM      7  C   UNL     1      86.686  29.498  64.892  1.00  0.00     0.339 C 
ATOM      8  O   UNL     1      87.527  30.438  64.874  1.00  0.00    -0.246 OA
BRANCH   7   9
ATOM      9  O   UNL     1      87.104  28.180  65.116  1.00  0.00    -0.462 OA
BRANCH   9  10
ATOM     10  C   UNL     1      88.125  27.542  64.351  1.00  0.00     0.233 C 
BRANCH  10  11
ATOM     11  C   UNL     1      87.943  26.021  64.382  1.00  0.00     0.038 C 
ATOM     12  C   UNL     1      87.864  25.445  62.971  1.00  0.00     0.007 C 
ENDBRANCH  10  11
ENDBRANCH   9  10
ENDBRANCH   7   9
ENDBRANCH   1   7
BRANCH   6  13
ATOM     13  C   UNL     1      85.538  32.282  65.128  1.00  0.00     0.339 C 
ATOM     14  O   UNL     1      85.702  33.096  64.178  1.00  0.00    -0.246 OA
BRANCH  13  15
ATOM     15  O   UNL     1      86.186  32.488  66.353  1.00  0.00    -0.462 OA
BRANCH  15  16
ATOM     16  C   UNL     1      85.701  31.989  67.597  1.00  0.00     0.233 C 
BRANCH  16  17
ATOM     17  C   UNL     1      84.367  32.649  67.954  1.00  0.00     0.038 C 
ATOM     18  C   UNL     1      83.265  31.607  68.125  1.00  0.00     0.007 C 
ENDBRANCH  16  17
ENDBRANCH  15  16
ENDBRANCH  13  15
ENDBRANCH   6  13
TORSDOF 8
ENDMDL
MODEL 9
REMARK VINA RESULT:    -2.362      1.478      5.801
REMARK INTER + INTRA:          -4.161
REMARK INTER:                  -3.999
REMARK INTRA:                  -0.162
REMARK UNBOUND:                -0.694
REMARK SMILES CCCOC(=O)c1ccccc1C(=O)OCCC
REMARK SMILES IDX 7 1 8 2 9 3 10 4 11 5 12 6 5 7 6 8 4 9 3 10 2 11 1 12 13 13
REMARK SMILES IDX 14 14 15 15 16 16 17 17 18 18
REMARK H PARENT
REMARK Flexibility Score: inf
ROOT
ATOM      1  C   UNL     1      75.189  34.012  52.699  1.00  0.00     0.074 A 
ATOM      2  C   UNL     1      74.866  32.745  53.215  1.00  0.00     0.016 A 
ATOM      3  C   UNL     1      75.744  31.670  53.066  1.00  0.00     0.001 A 
ATOM      4  C   UNL     1      76.956  31.846  52.401  1.00  0.00     0.001 A 
ATOM      5  C   UNL     1      77.306  33.102  51.903  1.00  0.00     0.016 A 
ATOM      6  C   UNL     1      76.445  34.204  52.061  1.00  0.00     0.074 A 
ENDROOT
BRANCH   1   7
ATOM      7  C   UNL     1      74.172  35.079  52.795  1.00  0.00     0.339 C 
ATOM      8  O   UNL     1      73.265  35.171  51.923  1.00  0.00    -0.246 OA
BRANCH   7   9
ATOM      9  O   UNL     1      74.195  35.958  53.885  1.00  0.00    -0.462 OA
BRANCH   9  10
ATOM     10  C   UNL     1      73.394  35.780  55.052  1.00  0.00     0.233 C 
BRANCH  10  11
ATOM     11  C   UNL     1      72.724  34.402  55.034  1.00  0.00     0.038 C 
ATOM     12  C   UNL     1      71.780  34.231  56.220  1.00  0.00     0.007 C 
ENDBRANCH  10  11
ENDBRANCH   9  10
ENDBRANCH   7   9
ENDBRANCH   1   7
BRANCH   6  13
ATOM     13  C   UNL     1      76.918  35.538  51.623  1.00  0.00     0.339 C 
ATOM     14  O   UNL     1      76.343  36.122  50.664  1.00  0.00    -0.246 OA
BRANCH  13  15
ATOM     15  O   UNL     1      78.028  36.125  52.242  1.00  0.00    -0.462 OA
BRANCH  15  16
ATOM     16  C   UNL     1      79.372  35.927  51.809  1.00  0.00     0.233 C 
BRANCH  16  17
ATOM     17  C   UNL     1      79.432  35.830  50.282  1.00  0.00     0.038 C 
ATOM     18  C   UNL     1      80.195  34.584  49.839  1.00  0.00     0.007 C 
ENDBRANCH  16  17
ENDBRANCH  15  16
ENDBRANCH  13  15
ENDBRANCH   6  13
TORSDOF 8
ENDMDL
