MODEL 1
REMARK VINA RESULT:    -2.049      0.000      0.000
REMARK INTER + INTRA:          -7.643
REMARK INTER:                  -5.404
REMARK INTRA:                  -2.239
REMARK UNBOUND:                -2.239
REMARK SMILES CCCCCCCCCCCCCCCCCCCCCCCCCCCCCC(=O)[O-]
REMARK SMILES IDX 16 1 17 2 18 3 19 4 20 5 21 6 22 7 23 8 24 9 25 10 26 11
REMARK SMILES IDX 27 12 28 13 29 14 30 15 31 16 32 17 15 18 14 19 13 20 12 21
REMARK SMILES IDX 11 22 10 23 9 24 8 25 7 26 6 27 5 28 4 29 3 30 2 31 1 32
REMARK H PARENT
REMARK Flexibility Score: inf
ROOT
ATOM      1  C   UNL     1      30.987  24.818  67.389  1.00  0.00     0.000 C 
ENDROOT
BRANCH   1   2
ATOM      2  C   UNL     1      32.197  24.755  68.331  1.00  0.00     0.000 C 
BRANCH   2   3
ATOM      3  C   UNL     1      31.901  23.875  69.555  1.00  0.00     0.000 C 
BRANCH   3   4
ATOM      4  C   UNL     1      30.536  24.181  70.192  1.00  0.00     0.000 C 
BRANCH   4   5
ATOM      5  C   UNL     1      30.645  25.132  71.397  1.00  0.00     0.000 C 
BRANCH   5   6
ATOM      6  C   UNL     1      31.219  26.505  71.013  1.00  0.00     0.000 C 
BRANCH   6   7
ATOM      7  C   UNL     1      32.507  26.845  71.782  1.00  0.00     0.000 C 
BRANCH   7   8
ATOM      8  C   UNL     1      33.525  25.690  71.777  1.00  0.00     0.000 C 
BRANCH   8   9
ATOM      9  C   UNL     1      34.857  26.049  71.085  1.00  0.00     0.000 C 
BRANCH   9  10
ATOM     10  C   UNL     1      35.267  25.005  70.032  1.00  0.00     0.000 C 
BRANCH  10  11
ATOM     11  C   UNL     1      36.401  25.496  69.118  1.00  0.00     0.000 C 
BRANCH  11  12
ATOM     12  C   UNL     1      37.516  24.455  68.947  1.00  0.00     0.000 C 
BRANCH  12  13
ATOM     13  C   UNL     1      37.946  23.879  70.305  1.00  0.00     0.006 C 
BRANCH  13  14
ATOM     14  C   UNL     1      39.229  24.532  70.834  1.00  0.00     0.053 C 
BRANCH  14  15
ATOM     15  C   UNL     1      39.316  24.458  72.328  1.00  0.00     0.041 C 
ATOM     16  O   UNL     1      38.416  23.876  72.989  1.00  0.00    -0.550 OA
ATOM     17  O   UNL     1      40.365  25.079  72.994  1.00  0.00    -0.550 OA
ENDBRANCH  14  15
ENDBRANCH  13  14
ENDBRANCH  12  13
ENDBRANCH  11  12
ENDBRANCH  10  11
ENDBRANCH   9  10
ENDBRANCH   8   9
ENDBRANCH   7   8
ENDBRANCH   6   7
ENDBRANCH   5   6
ENDBRANCH   4   5
ENDBRANCH   3   4
ENDBRANCH   2   3
ENDBRANCH   1   2
BRANCH   1  18
ATOM     18  C   UNL     1      31.146  23.908  66.157  1.00  0.00     0.000 C 
BRANCH  18  19
ATOM     19  C   UNL     1      32.551  23.914  65.523  1.00  0.00     0.000 C 
BRANCH  19  20
ATOM     20  C   UNL     1      32.582  24.169  64.006  1.00  0.00     0.000 C 
BRANCH  20  21
ATOM     21  C   UNL     1      33.226  25.519  63.649  1.00  0.00     0.000 C 
BRANCH  21  22
ATOM     22  C   UNL     1      32.438  26.309  62.586  1.00  0.00     0.000 C 
BRANCH  22  23
ATOM     23  C   UNL     1      31.187  27.049  63.101  1.00  0.00     0.000 C 
BRANCH  23  24
ATOM     24  C   UNL     1      29.866  26.708  62.386  1.00  0.00    -0.000 C 
BRANCH  24  25
ATOM     25  C   UNL     1      28.644  26.604  63.323  1.00  0.00    -0.000 C 
BRANCH  25  26
ATOM     26  C   UNL     1      27.927  25.246  63.221  1.00  0.00    -0.000 C 
BRANCH  26  27
ATOM     27  C   UNL     1      27.737  24.773  61.768  1.00  0.00    -0.000 C 
BRANCH  27  28
ATOM     28  C   UNL     1      26.352  24.178  61.440  1.00  0.00    -0.000 C 
BRANCH  28  29
ATOM     29  C   UNL     1      25.153  25.067  61.811  1.00  0.00    -0.000 C 
BRANCH  29  30
ATOM     30  C   UNL     1      24.110  24.332  62.671  1.00  0.00    -0.000 C 
BRANCH  30  31
ATOM     31  C   UNL     1      23.673  25.152  63.894  1.00  0.00    -0.003 C 
ATOM     32  C   UNL     1      22.428  24.580  64.573  1.00  0.00     0.004 C 
ENDBRANCH  30  31
ENDBRANCH  29  30
ENDBRANCH  28  29
ENDBRANCH  27  28
ENDBRANCH  26  27
ENDBRANCH  25  26
ENDBRANCH  24  25
ENDBRANCH  23  24
ENDBRANCH  22  23
ENDBRANCH  21  22
ENDBRANCH  20  21
ENDBRANCH  19  20
ENDBRANCH  18  19
ENDBRANCH   1  18
TORSDOF 28
ENDMDL
MODEL 2
REMARK VINA RESULT:    -1.623      1.167      1.441
REMARK INTER + INTRA:          -6.519
REMARK INTER:                  -4.622
REMARK INTRA:                  -1.897
REMARK UNBOUND:                -2.239
REMARK SMILES CCCCCCCCCCCCCCCCCCCCCCCCCCCCCC(=O)[O-]
REMARK SMILES IDX 16 1 17 2 18 3 19 4 20 5 21 6 22 7 23 8 24 9 25 10 26 11
REMARK SMILES IDX 27 12 28 13 29 14 30 15 31 16 32 17 15 18 14 19 13 20 12 21
REMARK SMILES IDX 11 22 10 23 9 24 8 25 7 26 6 27 5 28 4 29 3 30 2 31 1 32
REMARK H PARENT
REMARK Flexibility Score: inf
ROOT
ATOM      1  C   UNL     1      31.034  25.119  67.490  1.00  0.00     0.000 C 
ENDROOT
BRANCH   1   2
ATOM      2  C   UNL     1      32.288  24.880  68.342  1.00  0.00     0.000 C 
BRANCH   2   3
ATOM      3  C   UNL     1      31.999  23.903  69.491  1.00  0.00     0.000 C 
BRANCH   3   4
ATOM      4  C   UNL     1      30.634  24.148  70.153  1.00  0.00     0.000 C 
BRANCH   4   5
ATOM      5  C   UNL     1      30.743  24.973  71.447  1.00  0.00     0.000 C 
BRANCH   5   6
ATOM      6  C   UNL     1      31.250  26.402  71.194  1.00  0.00     0.000 C 
BRANCH   6   7
ATOM      7  C   UNL     1      32.543  26.717  71.965  1.00  0.00     0.000 C 
BRANCH   7   8
ATOM      8  C   UNL     1      33.626  25.640  71.775  1.00  0.00     0.000 C 
BRANCH   8   9
ATOM      9  C   UNL     1      34.898  26.164  71.076  1.00  0.00     0.000 C 
BRANCH   9  10
ATOM     10  C   UNL     1      35.061  25.596  69.656  1.00  0.00     0.000 C 
BRANCH  10  11
ATOM     11  C   UNL     1      36.276  26.179  68.918  1.00  0.00     0.000 C 
BRANCH  11  12
ATOM     12  C   UNL     1      37.198  25.093  68.346  1.00  0.00     0.000 C 
BRANCH  12  13
ATOM     13  C   UNL     1      37.260  23.875  69.280  1.00  0.00     0.006 C 
BRANCH  13  14
ATOM     14  C   UNL     1      38.499  23.898  70.185  1.00  0.00     0.053 C 
BRANCH  14  15
ATOM     15  C   UNL     1      38.134  24.134  71.619  1.00  0.00     0.041 C 
ATOM     16  O   UNL     1      36.992  24.569  71.922  1.00  0.00    -0.550 OA
ATOM     17  O   UNL     1      39.075  23.922  72.619  1.00  0.00    -0.550 OA
ENDBRANCH  14  15
ENDBRANCH  13  14
ENDBRANCH  12  13
ENDBRANCH  11  12
ENDBRANCH  10  11
ENDBRANCH   9  10
ENDBRANCH   8   9
ENDBRANCH   7   8
ENDBRANCH   6   7
ENDBRANCH   5   6
ENDBRANCH   4   5
ENDBRANCH   3   4
ENDBRANCH   2   3
ENDBRANCH   1   2
BRANCH   1  18
ATOM     18  C   UNL     1      31.014  24.263  66.211  1.00  0.00     0.000 C 
BRANCH  18  19
ATOM     19  C   UNL     1      32.395  24.015  65.574  1.00  0.00     0.000 C 
BRANCH  19  20
ATOM     20  C   UNL     1      32.438  24.127  64.040  1.00  0.00     0.000 C 
BRANCH  20  21
ATOM     21  C   UNL     1      33.488  25.139  63.553  1.00  0.00     0.000 C 
BRANCH  21  22
ATOM     22  C   UNL     1      32.983  26.040  62.409  1.00  0.00     0.000 C 
BRANCH  22  23
ATOM     23  C   UNL     1      32.183  27.283  62.847  1.00  0.00     0.000 C 
BRANCH  23  24
ATOM     24  C   UNL     1      30.696  27.298  62.446  1.00  0.00    -0.000 C 
BRANCH  24  25
ATOM     25  C   UNL     1      29.716  27.202  63.635  1.00  0.00    -0.000 C 
BRANCH  25  26
ATOM     26  C   UNL     1      28.545  26.240  63.367  1.00  0.00    -0.000 C 
BRANCH  26  27
ATOM     27  C   UNL     1      28.894  25.134  62.355  1.00  0.00    -0.000 C 
BRANCH  27  28
ATOM     28  C   UNL     1      27.689  24.371  61.766  1.00  0.00    -0.000 C 
BRANCH  28  29
ATOM     29  C   UNL     1      26.308  24.890  62.202  1.00  0.00    -0.000 C 
BRANCH  29  30
ATOM     30  C   UNL     1      25.194  24.529  61.204  1.00  0.00    -0.000 C 
BRANCH  30  31
ATOM     31  C   UNL     1      24.148  25.646  61.061  1.00  0.00    -0.003 C 
ATOM     32  C   UNL     1      24.586  26.742  60.090  1.00  0.00     0.004 C 
ENDBRANCH  30  31
ENDBRANCH  29  30
ENDBRANCH  28  29
ENDBRANCH  27  28
ENDBRANCH  26  27
ENDBRANCH  25  26
ENDBRANCH  24  25
ENDBRANCH  23  24
ENDBRANCH  22  23
ENDBRANCH  21  22
ENDBRANCH  20  21
ENDBRANCH  19  20
ENDBRANCH  18  19
ENDBRANCH   1  18
TORSDOF 28
ENDMDL
MODEL 3
REMARK VINA RESULT:    -1.390      1.963      2.683
REMARK INTER + INTRA:          -5.905
REMARK INTER:                  -6.058
REMARK INTRA:                   0.153
REMARK UNBOUND:                -2.239
REMARK SMILES CCCCCCCCCCCCCCCCCCCCCCCCCCCCCC(=O)[O-]
REMARK SMILES IDX 16 1 17 2 18 3 19 4 20 5 21 6 22 7 23 8 24 9 25 10 26 11
REMARK SMILES IDX 27 12 28 13 29 14 30 15 31 16 32 17 15 18 14 19 13 20 12 21
REMARK SMILES IDX 11 22 10 23 9 24 8 25 7 26 6 27 5 28 4 29 3 30 2 31 1 32
REMARK H PARENT
REMARK Flexibility Score: inf
ROOT
ATOM      1  C   UNL     1      31.736  24.533  66.885  1.00  0.00     0.000 C 
ENDROOT
BRANCH   1   2
ATOM      2  C   UNL     1      33.066  23.875  67.279  1.00  0.00     0.000 C 
BRANCH   2   3
ATOM      3  C   UNL     1      33.392  24.128  68.758  1.00  0.00     0.000 C 
BRANCH   3   4
ATOM      4  C   UNL     1      32.164  23.987  69.671  1.00  0.00     0.000 C 
BRANCH   4   5
ATOM      5  C   UNL     1      31.596  25.347  70.114  1.00  0.00     0.000 C 
BRANCH   5   6
ATOM      6  C   UNL     1      32.619  26.485  69.974  1.00  0.00     0.000 C 
BRANCH   6   7
ATOM      7  C   UNL     1      33.375  26.768  71.284  1.00  0.00     0.000 C 
BRANCH   7   8
ATOM      8  C   UNL     1      34.872  26.423  71.193  1.00  0.00     0.000 C 
BRANCH   8   9
ATOM      9  C   UNL     1      35.145  24.914  71.019  1.00  0.00     0.000 C 
BRANCH   9  10
ATOM     10  C   UNL     1      36.178  24.632  69.914  1.00  0.00     0.000 C 
BRANCH  10  11
ATOM     11  C   UNL     1      37.411  23.875  70.432  1.00  0.00     0.000 C 
BRANCH  11  12
ATOM     12  C   UNL     1      38.376  24.780  71.211  1.00  0.00     0.000 C 
BRANCH  12  13
ATOM     13  C   UNL     1      39.170  23.974  72.250  1.00  0.00     0.006 C 
BRANCH  13  14
ATOM     14  C   UNL     1      40.205  24.834  72.986  1.00  0.00     0.053 C 
BRANCH  14  15
ATOM     15  C   UNL     1      39.664  25.372  74.276  1.00  0.00     0.041 C 
ATOM     16  O   UNL     1      39.347  26.587  74.375  1.00  0.00    -0.550 OA
ATOM     17  O   UNL     1      39.559  24.542  75.384  1.00  0.00    -0.550 OA
ENDBRANCH  14  15
ENDBRANCH  13  14
ENDBRANCH  12  13
ENDBRANCH  11  12
ENDBRANCH  10  11
ENDBRANCH   9  10
ENDBRANCH   8   9
ENDBRANCH   7   8
ENDBRANCH   6   7
ENDBRANCH   5   6
ENDBRANCH   4   5
ENDBRANCH   3   4
ENDBRANCH   2   3
ENDBRANCH   1   2
BRANCH   1  18
ATOM     18  C   UNL     1      31.491  24.511  65.366  1.00  0.00     0.000 C 
BRANCH  18  19
ATOM     19  C   UNL     1      32.697  24.059  64.520  1.00  0.00     0.000 C 
BRANCH  19  20
ATOM     20  C   UNL     1      33.202  25.092  63.496  1.00  0.00     0.000 C 
BRANCH  20  21
ATOM     21  C   UNL     1      32.237  26.278  63.332  1.00  0.00     0.000 C 
BRANCH  21  22
ATOM     22  C   UNL     1      30.766  25.849  63.168  1.00  0.00     0.000 C 
BRANCH  22  23
ATOM     23  C   UNL     1      29.840  26.890  62.508  1.00  0.00     0.000 C 
BRANCH  23  24
ATOM     24  C   UNL     1      28.333  26.705  62.766  1.00  0.00    -0.000 C 
BRANCH  24  25
ATOM     25  C   UNL     1      27.774  25.338  62.315  1.00  0.00    -0.000 C 
BRANCH  25  26
ATOM     26  C   UNL     1      26.274  25.178  62.618  1.00  0.00    -0.000 C 
BRANCH  26  27
ATOM     27  C   UNL     1      25.451  24.767  61.383  1.00  0.00    -0.000 C 
BRANCH  27  28
ATOM     28  C   UNL     1      24.253  25.682  61.051  1.00  0.00    -0.000 C 
BRANCH  28  29
ATOM     29  C   UNL     1      24.363  26.448  59.722  1.00  0.00    -0.000 C 
BRANCH  29  30
ATOM     30  C   UNL     1      23.647  27.810  59.758  1.00  0.00    -0.000 C 
BRANCH  30  31
ATOM     31  C   UNL     1      24.118  28.753  58.641  1.00  0.00    -0.003 C 
ATOM     32  C   UNL     1      24.120  30.220  59.070  1.00  0.00     0.004 C 
ENDBRANCH  30  31
ENDBRANCH  29  30
ENDBRANCH  28  29
ENDBRANCH  27  28
ENDBRANCH  26  27
ENDBRANCH  25  26
ENDBRANCH  24  25
ENDBRANCH  23  24
ENDBRANCH  22  23
ENDBRANCH  21  22
ENDBRANCH  20  21
ENDBRANCH  19  20
ENDBRANCH  18  19
ENDBRANCH   1  18
TORSDOF 28
ENDMDL
MODEL 4
REMARK VINA RESULT:    -1.282      2.379      4.496
REMARK INTER + INTRA:          -5.620
REMARK INTER:                  -5.528
REMARK INTRA:                  -0.092
REMARK UNBOUND:                -2.239
REMARK SMILES CCCCCCCCCCCCCCCCCCCCCCCCCCCCCC(=O)[O-]
REMARK SMILES IDX 16 1 17 2 18 3 19 4 20 5 21 6 22 7 23 8 24 9 25 10 26 11
REMARK SMILES IDX 27 12 28 13 29 14 30 15 31 16 32 17 15 18 14 19 13 20 12 21
REMARK SMILES IDX 11 22 10 23 9 24 8 25 7 26 6 27 5 28 4 29 3 30 2 31 1 32
REMARK H PARENT
REMARK Flexibility Score: inf
ROOT
ATOM      1  C   UNL     1      33.286  25.455  71.495  1.00  0.00     0.000 C 
ENDROOT
BRANCH   1   2
ATOM      2  C   UNL     1      33.977  26.769  71.104  1.00  0.00     0.000 C 
BRANCH   2   3
ATOM      3  C   UNL     1      34.653  26.652  69.730  1.00  0.00     0.000 C 
BRANCH   3   4
ATOM      4  C   UNL     1      34.725  25.203  69.223  1.00  0.00     0.000 C 
BRANCH   4   5
ATOM      5  C   UNL     1      36.080  24.537  69.523  1.00  0.00     0.000 C 
BRANCH   5   6
ATOM      6  C   UNL     1      36.116  23.875  70.910  1.00  0.00     0.000 C 
BRANCH   6   7
ATOM      7  C   UNL     1      37.518  23.901  71.542  1.00  0.00     0.000 C 
BRANCH   7   8
ATOM      8  C   UNL     1      38.567  24.570  70.636  1.00  0.00     0.000 C 
BRANCH   8   9
ATOM      9  C   UNL     1      40.002  24.058  70.876  1.00  0.00     0.000 C 
BRANCH   9  10
ATOM     10  C   UNL     1      40.587  24.560  72.207  1.00  0.00     0.000 C 
BRANCH  10  11
ATOM     11  C   UNL     1      39.503  24.971  73.215  1.00  0.00     0.000 C 
BRANCH  11  12
ATOM     12  C   UNL     1      40.087  25.560  74.507  1.00  0.00     0.000 C 
BRANCH  12  13
ATOM     13  C   UNL     1      39.285  26.786  74.966  1.00  0.00     0.006 C 
BRANCH  13  14
ATOM     14  C   UNL     1      40.191  27.958  75.365  1.00  0.00     0.053 C 
BRANCH  14  15
ATOM     15  C   UNL     1      39.702  28.641  76.606  1.00  0.00     0.041 C 
ATOM     16  O   UNL     1      38.830  28.095  77.331  1.00  0.00    -0.550 OA
ATOM     17  O   UNL     1      40.175  29.905  76.934  1.00  0.00    -0.550 OA
ENDBRANCH  14  15
ENDBRANCH  13  14
ENDBRANCH  12  13
ENDBRANCH  11  12
ENDBRANCH  10  11
ENDBRANCH   9  10
ENDBRANCH   8   9
ENDBRANCH   7   8
ENDBRANCH   6   7
ENDBRANCH   5   6
ENDBRANCH   4   5
ENDBRANCH   3   4
ENDBRANCH   2   3
ENDBRANCH   1   2
BRANCH   1  18
ATOM     18  C   UNL     1      31.882  25.318  70.878  1.00  0.00     0.000 C 
BRANCH  18  19
ATOM     19  C   UNL     1      31.730  24.171  69.860  1.00  0.00     0.000 C 
BRANCH  19  20
ATOM     20  C   UNL     1      31.257  24.600  68.459  1.00  0.00     0.000 C 
BRANCH  20  21
ATOM     21  C   UNL     1      32.286  24.272  67.365  1.00  0.00     0.000 C 
BRANCH  21  22
ATOM     22  C   UNL     1      31.681  24.241  65.948  1.00  0.00     0.000 C 
BRANCH  22  23
ATOM     23  C   UNL     1      32.236  25.292  64.965  1.00  0.00     0.000 C 
BRANCH  23  24
ATOM     24  C   UNL     1      32.334  24.846  63.494  1.00  0.00    -0.000 C 
BRANCH  24  25
ATOM     25  C   UNL     1      31.048  24.197  62.938  1.00  0.00    -0.000 C 
BRANCH  25  26
ATOM     26  C   UNL     1      29.780  24.998  63.282  1.00  0.00    -0.000 C 
BRANCH  26  27
ATOM     27  C   UNL     1      28.565  24.600  62.424  1.00  0.00    -0.000 C 
BRANCH  27  28
ATOM     28  C   UNL     1      27.411  25.624  62.392  1.00  0.00    -0.000 C 
BRANCH  28  29
ATOM     29  C   UNL     1      26.091  25.105  61.799  1.00  0.00    -0.000 C 
BRANCH  29  30
ATOM     30  C   UNL     1      25.101  24.628  62.876  1.00  0.00    -0.000 C 
BRANCH  30  31
ATOM     31  C   UNL     1      23.640  24.924  62.505  1.00  0.00    -0.003 C 
ATOM     32  C   UNL     1      22.727  25.004  63.729  1.00  0.00     0.004 C 
ENDBRANCH  30  31
ENDBRANCH  29  30
ENDBRANCH  28  29
ENDBRANCH  27  28
ENDBRANCH  26  27
ENDBRANCH  25  26
ENDBRANCH  24  25
ENDBRANCH  23  24
ENDBRANCH  22  23
ENDBRANCH  21  22
ENDBRANCH  20  21
ENDBRANCH  19  20
ENDBRANCH  18  19
ENDBRANCH   1  18
TORSDOF 28
ENDMDL
MODEL 5
REMARK VINA RESULT:    -0.798      3.654      7.075
REMARK INTER + INTRA:          -4.342
REMARK INTER:                  -3.324
REMARK INTRA:                  -1.018
REMARK UNBOUND:                -2.239
REMARK SMILES CCCCCCCCCCCCCCCCCCCCCCCCCCCCCC(=O)[O-]
REMARK SMILES IDX 16 1 17 2 18 3 19 4 20 5 21 6 22 7 23 8 24 9 25 10 26 11
REMARK SMILES IDX 27 12 28 13 29 14 30 15 31 16 32 17 15 18 14 19 13 20 12 21
REMARK SMILES IDX 11 22 10 23 9 24 8 25 7 26 6 27 5 28 4 29 3 30 2 31 1 32
REMARK H PARENT
REMARK Flexibility Score: inf
ROOT
ATOM      1  C   UNL     1      31.485  24.755  68.408  1.00  0.00     0.000 C 
ENDROOT
BRANCH   1   2
ATOM      2  C   UNL     1      31.940  23.890  69.593  1.00  0.00     0.000 C 
BRANCH   2   3
ATOM      3  C   UNL     1      31.529  24.523  70.930  1.00  0.00     0.000 C 
BRANCH   3   4
ATOM      4  C   UNL     1      31.468  26.058  70.870  1.00  0.00     0.000 C 
BRANCH   4   5
ATOM      5  C   UNL     1      32.383  26.728  71.911  1.00  0.00     0.000 C 
BRANCH   5   6
ATOM      6  C   UNL     1      33.858  26.329  71.742  1.00  0.00     0.000 C 
BRANCH   6   7
ATOM      7  C   UNL     1      34.422  26.715  70.365  1.00  0.00     0.000 C 
BRANCH   7   8
ATOM      8  C   UNL     1      34.958  25.504  69.581  1.00  0.00     0.000 C 
BRANCH   8   9
ATOM      9  C   UNL     1      36.128  25.852  68.636  1.00  0.00     0.000 C 
BRANCH   9  10
ATOM     10  C   UNL     1      37.388  25.021  68.936  1.00  0.00     0.000 C 
BRANCH  10  11
ATOM     11  C   UNL     1      37.123  23.875  69.925  1.00  0.00     0.000 C 
BRANCH  11  12
ATOM     12  C   UNL     1      38.048  23.924  71.149  1.00  0.00     0.000 C 
BRANCH  12  13
ATOM     13  C   UNL     1      39.524  23.926  70.725  1.00  0.00     0.006 C 
BRANCH  13  14
ATOM     14  C   UNL     1      40.473  24.066  71.922  1.00  0.00     0.053 C 
BRANCH  14  15
ATOM     15  C   UNL     1      39.780  24.649  73.115  1.00  0.00     0.041 C 
ATOM     16  O   UNL     1      40.165  25.745  73.602  1.00  0.00    -0.550 OA
ATOM     17  O   UNL     1      38.740  23.957  73.722  1.00  0.00    -0.550 OA
ENDBRANCH  14  15
ENDBRANCH  13  14
ENDBRANCH  12  13
ENDBRANCH  11  12
ENDBRANCH  10  11
ENDBRANCH   9  10
ENDBRANCH   8   9
ENDBRANCH   7   8
ENDBRANCH   6   7
ENDBRANCH   5   6
ENDBRANCH   4   5
ENDBRANCH   3   4
ENDBRANCH   2   3
ENDBRANCH   1   2
BRANCH   1  18
ATOM     18  C   UNL     1      30.873  23.922  67.268  1.00  0.00     0.000 C 
BRANCH  18  19
ATOM     19  C   UNL     1      30.557  24.714  65.984  1.00  0.00     0.000 C 
BRANCH  19  20
ATOM     20  C   UNL     1      31.188  24.152  64.697  1.00  0.00     0.000 C 
BRANCH  20  21
ATOM     21  C   UNL     1      32.382  24.991  64.213  1.00  0.00     0.000 C 
BRANCH  21  22
ATOM     22  C   UNL     1      33.332  24.217  63.278  1.00  0.00     0.000 C 
BRANCH  22  23
ATOM     23  C   UNL     1      33.404  24.735  61.828  1.00  0.00     0.000 C 
BRANCH  23  24
ATOM     24  C   UNL     1      34.328  23.946  60.880  1.00  0.00    -0.000 C 
BRANCH  24  25
ATOM     25  C   UNL     1      35.833  24.103  61.184  1.00  0.00    -0.000 C 
BRANCH  25  26
ATOM     26  C   UNL     1      36.476  25.277  60.425  1.00  0.00    -0.000 C 
BRANCH  26  27
ATOM     27  C   UNL     1      35.939  25.433  58.990  1.00  0.00    -0.000 C 
BRANCH  27  28
ATOM     28  C   UNL     1      36.825  24.828  57.881  1.00  0.00    -0.000 C 
BRANCH  28  29
ATOM     29  C   UNL     1      37.931  23.878  58.372  1.00  0.00    -0.000 C 
BRANCH  29  30
ATOM     30  C   UNL     1      39.148  24.626  58.943  1.00  0.00    -0.000 C 
BRANCH  30  31
ATOM     31  C   UNL     1      40.364  24.574  58.006  1.00  0.00    -0.003 C 
ATOM     32  C   UNL     1      41.140  25.890  57.974  1.00  0.00     0.004 C 
ENDBRANCH  30  31
ENDBRANCH  29  30
ENDBRANCH  28  29
ENDBRANCH  27  28
ENDBRANCH  26  27
ENDBRANCH  25  26
ENDBRANCH  24  25
ENDBRANCH  23  24
ENDBRANCH  22  23
ENDBRANCH  21  22
ENDBRANCH  20  21
ENDBRANCH  19  20
ENDBRANCH  18  19
ENDBRANCH   1  18
TORSDOF 28
ENDMDL
MODEL 6
REMARK VINA RESULT:    -0.572      4.942      9.378
REMARK INTER + INTRA:          -3.747
REMARK INTER:                  -1.551
REMARK INTRA:                  -2.196
REMARK UNBOUND:                -2.239
REMARK SMILES CCCCCCCCCCCCCCCCCCCCCCCCCCCCCC(=O)[O-]
REMARK SMILES IDX 16 1 17 2 18 3 19 4 20 5 21 6 22 7 23 8 24 9 25 10 26 11
REMARK SMILES IDX 27 12 28 13 29 14 30 15 31 16 32 17 15 18 14 19 13 20 12 21
REMARK SMILES IDX 11 22 10 23 9 24 8 25 7 26 6 27 5 28 4 29 3 30 2 31 1 32
REMARK H PARENT
REMARK Flexibility Score: inf
ROOT
ATOM      1  C   UNL     1      31.416  27.677  63.427  1.00  0.00     0.000 C 
ENDROOT
BRANCH   1   2
ATOM      2  C   UNL     1      30.731  27.814  62.060  1.00  0.00     0.000 C 
BRANCH   2   3
ATOM      3  C   UNL     1      29.208  27.658  62.185  1.00  0.00     0.000 C 
BRANCH   3   4
ATOM      4  C   UNL     1      28.801  26.427  63.010  1.00  0.00     0.000 C 
BRANCH   4   5
ATOM      5  C   UNL     1      29.114  25.102  62.292  1.00  0.00     0.000 C 
BRANCH   5   6
ATOM      6  C   UNL     1      29.296  23.931  63.270  1.00  0.00     0.000 C 
BRANCH   6   7
ATOM      7  C   UNL     1      30.710  23.876  63.873  1.00  0.00     0.000 C 
BRANCH   7   8
ATOM      8  C   UNL     1      30.716  24.092  65.396  1.00  0.00     0.000 C 
BRANCH   8   9
ATOM      9  C   UNL     1      31.896  24.956  65.890  1.00  0.00     0.000 C 
BRANCH   9  10
ATOM     10  C   UNL     1      33.228  24.185  65.877  1.00  0.00     0.000 C 
BRANCH  10  11
ATOM     11  C   UNL     1      33.810  23.982  67.285  1.00  0.00     0.000 C 
BRANCH  11  12
ATOM     12  C   UNL     1      33.037  24.754  68.362  1.00  0.00     0.000 C 
BRANCH  12  13
ATOM     13  C   UNL     1      33.822  24.795  69.682  1.00  0.00     0.006 C 
BRANCH  13  14
ATOM     14  C   UNL     1      32.955  24.411  70.887  1.00  0.00     0.053 C 
BRANCH  14  15
ATOM     15  C   UNL     1      31.575  24.987  70.785  1.00  0.00     0.041 C 
ATOM     16  O   UNL     1      31.315  26.108  71.295  1.00  0.00    -0.550 OA
ATOM     17  O   UNL     1      30.563  24.260  70.171  1.00  0.00    -0.550 OA
ENDBRANCH  14  15
ENDBRANCH  13  14
ENDBRANCH  12  13
ENDBRANCH  11  12
ENDBRANCH  10  11
ENDBRANCH   9  10
ENDBRANCH   8   9
ENDBRANCH   7   8
ENDBRANCH   6   7
ENDBRANCH   5   6
ENDBRANCH   4   5
ENDBRANCH   3   4
ENDBRANCH   2   3
ENDBRANCH   1   2
BRANCH   1  18
ATOM     18  C   UNL     1      32.647  26.754  63.384  1.00  0.00     0.000 C 
BRANCH  18  19
ATOM     19  C   UNL     1      32.941  26.129  62.006  1.00  0.00     0.000 C 
BRANCH  19  20
ATOM     20  C   UNL     1      33.666  24.771  62.046  1.00  0.00     0.000 C 
BRANCH  20  21
ATOM     21  C   UNL     1      34.431  24.475  60.745  1.00  0.00     0.000 C 
BRANCH  21  22
ATOM     22  C   UNL     1      35.874  23.987  60.984  1.00  0.00     0.000 C 
BRANCH  22  23
ATOM     23  C   UNL     1      36.828  24.123  59.781  1.00  0.00     0.000 C 
BRANCH  23  24
ATOM     24  C   UNL     1      38.327  23.952  60.093  1.00  0.00    -0.000 C 
BRANCH  24  25
ATOM     25  C   UNL     1      39.265  24.307  58.919  1.00  0.00    -0.000 C 
BRANCH  25  26
ATOM     26  C   UNL     1      39.186  25.791  58.520  1.00  0.00    -0.000 C 
BRANCH  26  27
ATOM     27  C   UNL     1      39.140  26.739  59.732  1.00  0.00    -0.000 C 
BRANCH  27  28
ATOM     28  C   UNL     1      39.685  28.162  59.481  1.00  0.00    -0.000 C 
BRANCH  28  29
ATOM     29  C   UNL     1      38.995  29.278  60.284  1.00  0.00    -0.000 C 
BRANCH  29  30
ATOM     30  C   UNL     1      38.668  30.512  59.426  1.00  0.00    -0.000 C 
BRANCH  30  31
ATOM     31  C   UNL     1      38.979  31.832  60.149  1.00  0.00    -0.003 C 
ATOM     32  C   UNL     1      39.578  31.614  61.539  1.00  0.00     0.004 C 
ENDBRANCH  30  31
ENDBRANCH  29  30
ENDBRANCH  28  29
ENDBRANCH  27  28
ENDBRANCH  26  27
ENDBRANCH  25  26
ENDBRANCH  24  25
ENDBRANCH  23  24
ENDBRANCH  22  23
ENDBRANCH  21  22
ENDBRANCH  20  21
ENDBRANCH  19  20
ENDBRANCH  18  19
ENDBRANCH   1  18
TORSDOF 28
ENDMDL
MODEL 7
REMARK VINA RESULT:    -0.118      6.317      9.455
REMARK INTER + INTRA:          -2.549
REMARK INTER:                  -1.082
REMARK INTRA:                  -1.467
REMARK UNBOUND:                -2.239
REMARK SMILES CCCCCCCCCCCCCCCCCCCCCCCCCCCCCC(=O)[O-]
REMARK SMILES IDX 16 1 17 2 18 3 19 4 20 5 21 6 22 7 23 8 24 9 25 10 26 11
REMARK SMILES IDX 27 12 28 13 29 14 30 15 31 16 32 17 15 18 14 19 13 20 12 21
REMARK SMILES IDX 11 22 10 23 9 24 8 25 7 26 6 27 5 28 4 29 3 30 2 31 1 32
REMARK H PARENT
REMARK Flexibility Score: inf
ROOT
ATOM      1  C   UNL     1      33.613  24.944  62.293  1.00  0.00     0.000 C 
ENDROOT
BRANCH   1   2
ATOM      2  C   UNL     1      34.720  23.883  62.207  1.00  0.00     0.000 C 
BRANCH   2   3
ATOM      3  C   UNL     1      35.916  24.395  61.391  1.00  0.00     0.000 C 
BRANCH   3   4
ATOM      4  C   UNL     1      35.498  25.020  60.050  1.00  0.00     0.000 C 
BRANCH   4   5
ATOM      5  C   UNL     1      36.465  24.667  58.905  1.00  0.00     0.000 C 
BRANCH   5   6
ATOM      6  C   UNL     1      37.803  24.109  59.416  1.00  0.00     0.000 C 
BRANCH   6   7
ATOM      7  C   UNL     1      38.818  23.875  58.285  1.00  0.00     0.000 C 
BRANCH   7   8
ATOM      8  C   UNL     1      40.277  23.966  58.767  1.00  0.00     0.000 C 
BRANCH   8   9
ATOM      9  C   UNL     1      41.041  25.174  58.187  1.00  0.00     0.000 C 
BRANCH   9  10
ATOM     10  C   UNL     1      40.171  26.443  58.130  1.00  0.00     0.000 C 
BRANCH  10  11
ATOM     11  C   UNL     1      40.423  27.389  59.314  1.00  0.00     0.000 C 
BRANCH  11  12
ATOM     12  C   UNL     1      39.124  27.879  59.967  1.00  0.00     0.000 C 
BRANCH  12  13
ATOM     13  C   UNL     1      38.932  29.388  59.750  1.00  0.00     0.006 C 
BRANCH  13  14
ATOM     14  C   UNL     1      39.713  30.226  60.770  1.00  0.00     0.053 C 
BRANCH  14  15
ATOM     15  C   UNL     1      39.330  31.673  60.710  1.00  0.00     0.041 C 
ATOM     16  O   UNL     1      38.564  32.091  59.802  1.00  0.00    -0.550 OA
ATOM     17  O   UNL     1      39.860  32.571  61.628  1.00  0.00    -0.550 OA
ENDBRANCH  14  15
ENDBRANCH  13  14
ENDBRANCH  12  13
ENDBRANCH  11  12
ENDBRANCH  10  11
ENDBRANCH   9  10
ENDBRANCH   8   9
ENDBRANCH   7   8
ENDBRANCH   6   7
ENDBRANCH   5   6
ENDBRANCH   4   5
ENDBRANCH   3   4
ENDBRANCH   2   3
ENDBRANCH   1   2
BRANCH   1  18
ATOM     18  C   UNL     1      32.924  24.972  63.669  1.00  0.00     0.000 C 
BRANCH  18  19
ATOM     19  C   UNL     1      31.395  25.160  63.625  1.00  0.00     0.000 C 
BRANCH  19  20
ATOM     20  C   UNL     1      30.916  26.623  63.608  1.00  0.00     0.000 C 
BRANCH  20  21
ATOM     21  C   UNL     1      29.925  26.903  62.466  1.00  0.00     0.000 C 
BRANCH  21  22
ATOM     22  C   UNL     1      28.558  26.218  62.663  1.00  0.00     0.000 C 
BRANCH  22  23
ATOM     23  C   UNL     1      28.389  24.858  61.958  1.00  0.00     0.000 C 
BRANCH  23  24
ATOM     24  C   UNL     1      26.977  24.246  62.013  1.00  0.00    -0.000 C 
BRANCH  24  25
ATOM     25  C   UNL     1      25.926  25.133  62.715  1.00  0.00    -0.000 C 
BRANCH  25  26
ATOM     26  C   UNL     1      24.497  24.577  62.591  1.00  0.00    -0.000 C 
BRANCH  26  27
ATOM     27  C   UNL     1      23.988  24.543  61.139  1.00  0.00    -0.000 C 
BRANCH  27  28
ATOM     28  C   UNL     1      24.617  25.586  60.191  1.00  0.00    -0.000 C 
BRANCH  28  29
ATOM     29  C   UNL     1      24.091  27.022  60.356  1.00  0.00    -0.000 C 
BRANCH  29  30
ATOM     30  C   UNL     1      24.226  27.857  59.071  1.00  0.00    -0.000 C 
BRANCH  30  31
ATOM     31  C   UNL     1      23.732  29.301  59.252  1.00  0.00    -0.003 C 
ATOM     32  C   UNL     1      24.214  30.231  58.139  1.00  0.00     0.004 C 
ENDBRANCH  30  31
ENDBRANCH  29  30
ENDBRANCH  28  29
ENDBRANCH  27  28
ENDBRANCH  26  27
ENDBRANCH  25  26
ENDBRANCH  24  25
ENDBRANCH  23  24
ENDBRANCH  22  23
ENDBRANCH  21  22
ENDBRANCH  20  21
ENDBRANCH  19  20
ENDBRANCH  18  19
ENDBRANCH   1  18
TORSDOF 28
ENDMDL
MODEL 8
REMARK VINA RESULT:     0.350      4.327      8.597
REMARK INTER + INTRA:          -1.317
REMARK INTER:                  -2.362
REMARK INTRA:                   1.045
REMARK UNBOUND:                -2.239
REMARK SMILES CCCCCCCCCCCCCCCCCCCCCCCCCCCCCC(=O)[O-]
REMARK SMILES IDX 16 1 17 2 18 3 19 4 20 5 21 6 22 7 23 8 24 9 25 10 26 11
REMARK SMILES IDX 27 12 28 13 29 14 30 15 31 16 32 17 15 18 14 19 13 20 12 21
REMARK SMILES IDX 11 22 10 23 9 24 8 25 7 26 6 27 5 28 4 29 3 30 2 31 1 32
REMARK H PARENT
REMARK Flexibility Score: inf
ROOT
ATOM      1  C   UNL     1      29.477  26.940  62.324  1.00  0.00     0.000 C 
ENDROOT
BRANCH   1   2
ATOM      2  C   UNL     1      29.755  25.888  63.407  1.00  0.00     0.000 C 
BRANCH   2   3
ATOM      3  C   UNL     1      29.822  24.477  62.804  1.00  0.00     0.000 C 
BRANCH   3   4
ATOM      4  C   UNL     1      31.264  23.998  62.567  1.00  0.00     0.000 C 
BRANCH   4   5
ATOM      5  C   UNL     1      32.272  24.656  63.526  1.00  0.00     0.000 C 
BRANCH   5   6
ATOM      6  C   UNL     1      32.426  23.877  64.843  1.00  0.00     0.000 C 
BRANCH   6   7
ATOM      7  C   UNL     1      33.156  24.686  65.928  1.00  0.00     0.000 C 
BRANCH   7   8
ATOM      8  C   UNL     1      32.978  24.090  67.335  1.00  0.00     0.000 C 
BRANCH   8   9
ATOM      9  C   UNL     1      34.055  24.553  68.339  1.00  0.00     0.000 C 
BRANCH   9  10
ATOM     10  C   UNL     1      33.754  24.086  69.774  1.00  0.00     0.000 C 
BRANCH  10  11
ATOM     11  C   UNL     1      34.755  24.638  70.801  1.00  0.00     0.000 C 
BRANCH  11  12
ATOM     12  C   UNL     1      34.684  26.166  70.935  1.00  0.00     0.000 C 
BRANCH  12  13
ATOM     13  C   UNL     1      33.233  26.661  70.833  1.00  0.00     0.006 C 
BRANCH  13  14
ATOM     14  C   UNL     1      32.335  26.056  71.919  1.00  0.00     0.053 C 
BRANCH  14  15
ATOM     15  C   UNL     1      31.152  25.347  71.332  1.00  0.00     0.041 C 
ATOM     16  O   UNL     1      30.635  25.755  70.258  1.00  0.00    -0.550 OA
ATOM     17  O   UNL     1      30.589  24.266  71.997  1.00  0.00    -0.550 OA
ENDBRANCH  14  15
ENDBRANCH  13  14
ENDBRANCH  12  13
ENDBRANCH  11  12
ENDBRANCH  10  11
ENDBRANCH   9  10
ENDBRANCH   8   9
ENDBRANCH   7   8
ENDBRANCH   6   7
ENDBRANCH   5   6
ENDBRANCH   4   5
ENDBRANCH   3   4
ENDBRANCH   2   3
ENDBRANCH   1   2
BRANCH   1  18
ATOM     18  C   UNL     1      29.584  28.380  62.856  1.00  0.00     0.000 C 
BRANCH  18  19
ATOM     19  C   UNL     1      30.794  28.645  63.773  1.00  0.00     0.000 C 
BRANCH  19  20
ATOM     20  C   UNL     1      32.137  28.095  63.260  1.00  0.00     0.000 C 
BRANCH  20  21
ATOM     21  C   UNL     1      32.055  27.607  61.804  1.00  0.00     0.000 C 
BRANCH  21  22
ATOM     22  C   UNL     1      33.408  27.127  61.244  1.00  0.00     0.000 C 
BRANCH  22  23
ATOM     23  C   UNL     1      33.477  25.635  60.861  1.00  0.00     0.000 C 
BRANCH  23  24
ATOM     24  C   UNL     1      34.505  24.791  61.637  1.00  0.00    -0.000 C 
BRANCH  24  25
ATOM     25  C   UNL     1      35.742  24.377  60.811  1.00  0.00    -0.000 C 
BRANCH  25  26
ATOM     26  C   UNL     1      35.583  24.675  59.310  1.00  0.00    -0.000 C 
BRANCH  26  27
ATOM     27  C   UNL     1      36.613  23.935  58.437  1.00  0.00    -0.000 C 
BRANCH  27  28
ATOM     28  C   UNL     1      38.046  23.875  59.009  1.00  0.00    -0.000 C 
BRANCH  28  29
ATOM     29  C   UNL     1      38.498  25.131  59.774  1.00  0.00    -0.000 C 
BRANCH  29  30
ATOM     30  C   UNL     1      39.353  26.077  58.913  1.00  0.00    -0.000 C 
BRANCH  30  31
ATOM     31  C   UNL     1      40.617  25.395  58.367  1.00  0.00    -0.003 C 
ATOM     32  C   UNL     1      41.802  26.354  58.255  1.00  0.00     0.004 C 
ENDBRANCH  30  31
ENDBRANCH  29  30
ENDBRANCH  28  29
ENDBRANCH  27  28
ENDBRANCH  26  27
ENDBRANCH  25  26
ENDBRANCH  24  25
ENDBRANCH  23  24
ENDBRANCH  22  23
ENDBRANCH  21  22
ENDBRANCH  20  21
ENDBRANCH  19  20
ENDBRANCH  18  19
ENDBRANCH   1  18
TORSDOF 28
ENDMDL
MODEL 9
REMARK VINA RESULT:     0.350      5.456      9.330
REMARK INTER + INTRA:          -1.316
REMARK INTER:                  -0.295
REMARK INTRA:                  -1.021
REMARK UNBOUND:                -2.239
REMARK SMILES CCCCCCCCCCCCCCCCCCCCCCCCCCCCCC(=O)[O-]
REMARK SMILES IDX 16 1 17 2 18 3 19 4 20 5 21 6 22 7 23 8 24 9 25 10 26 11
REMARK SMILES IDX 27 12 28 13 29 14 30 15 31 16 32 17 15 18 14 19 13 20 12 21
REMARK SMILES IDX 11 22 10 23 9 24 8 25 7 26 6 27 5 28 4 29 3 30 2 31 1 32
REMARK H PARENT
REMARK Flexibility Score: inf
ROOT
ATOM      1  C   UNL     1      34.241  24.741  64.868  1.00  0.00     0.000 C 
ENDROOT
BRANCH   1   2
ATOM      2  C   UNL     1      34.161  23.900  63.587  1.00  0.00     0.000 C 
BRANCH   2   3
ATOM      3  C   UNL     1      33.035  24.397  62.668  1.00  0.00     0.000 C 
BRANCH   3   4
ATOM      4  C   UNL     1      33.498  25.497  61.699  1.00  0.00     0.000 C 
BRANCH   4   5
ATOM      5  C   UNL     1      34.292  24.939  60.505  1.00  0.00     0.000 C 
BRANCH   5   6
ATOM      6  C   UNL     1      35.320  23.876  60.927  1.00  0.00     0.000 C 
BRANCH   6   7
ATOM      7  C   UNL     1      36.713  24.127  60.326  1.00  0.00     0.000 C 
BRANCH   7   8
ATOM      8  C   UNL     1      36.659  24.496  58.833  1.00  0.00     0.000 C 
BRANCH   8   9
ATOM      9  C   UNL     1      37.734  25.521  58.415  1.00  0.00     0.000 C 
BRANCH   9  10
ATOM     10  C   UNL     1      39.049  25.339  59.193  1.00  0.00     0.000 C 
BRANCH  10  11
ATOM     11  C   UNL     1      39.773  26.668  59.456  1.00  0.00     0.000 C 
BRANCH  11  12
ATOM     12  C   UNL     1      38.808  27.856  59.565  1.00  0.00     0.000 C 
BRANCH  12  13
ATOM     13  C   UNL     1      39.519  29.095  60.129  1.00  0.00     0.006 C 
BRANCH  13  14
ATOM     14  C   UNL     1      38.691  30.374  59.949  1.00  0.00     0.053 C 
BRANCH  14  15
ATOM     15  C   UNL     1      39.367  31.565  60.558  1.00  0.00     0.041 C 
ATOM     16  O   UNL     1      40.355  31.412  61.323  1.00  0.00    -0.550 OA
ATOM     17  O   UNL     1      38.872  32.840  60.321  1.00  0.00    -0.550 OA
ENDBRANCH  14  15
ENDBRANCH  13  14
ENDBRANCH  12  13
ENDBRANCH  11  12
ENDBRANCH  10  11
ENDBRANCH   9  10
ENDBRANCH   8   9
ENDBRANCH   7   8
ENDBRANCH   6   7
ENDBRANCH   5   6
ENDBRANCH   4   5
ENDBRANCH   3   4
ENDBRANCH   2   3
ENDBRANCH   1   2
BRANCH   1  18
ATOM     18  C   UNL     1      34.289  23.878  66.142  1.00  0.00     0.000 C 
BRANCH  18  19
ATOM     19  C   UNL     1      35.613  23.954  66.928  1.00  0.00     0.000 C 
BRANCH  19  20
ATOM     20  C   UNL     1      35.461  24.105  68.452  1.00  0.00     0.000 C 
BRANCH  20  21
ATOM     21  C   UNL     1      34.102  24.702  68.852  1.00  0.00     0.000 C 
BRANCH  21  22
ATOM     22  C   UNL     1      33.952  24.915  70.371  1.00  0.00     0.000 C 
BRANCH  22  23
ATOM     23  C   UNL     1      32.797  25.842  70.801  1.00  0.00     0.000 C 
BRANCH  23  24
ATOM     24  C   UNL     1      31.382  25.243  70.689  1.00  0.00    -0.000 C 
BRANCH  24  25
ATOM     25  C   UNL     1      31.305  23.943  69.861  1.00  0.00    -0.000 C 
BRANCH  25  26
ATOM     26  C   UNL     1      30.306  24.038  68.694  1.00  0.00    -0.000 C 
BRANCH  26  27
ATOM     27  C   UNL     1      30.992  24.205  67.326  1.00  0.00    -0.000 C 
BRANCH  27  28
ATOM     28  C   UNL     1      30.072  24.035  66.098  1.00  0.00    -0.000 C 
BRANCH  28  29
ATOM     29  C   UNL     1      30.514  24.799  64.838  1.00  0.00    -0.000 C 
BRANCH  29  30
ATOM     30  C   UNL     1      30.210  24.032  63.540  1.00  0.00    -0.000 C 
BRANCH  30  31
ATOM     31  C   UNL     1      29.355  24.850  62.559  1.00  0.00    -0.003 C 
ATOM     32  C   UNL     1      29.303  26.334  62.920  1.00  0.00     0.004 C 
ENDBRANCH  30  31
ENDBRANCH  29  30
ENDBRANCH  28  29
ENDBRANCH  27  28
ENDBRANCH  26  27
ENDBRANCH  25  26
ENDBRANCH  24  25
ENDBRANCH  23  24
ENDBRANCH  22  23
ENDBRANCH  21  22
ENDBRANCH  20  21
ENDBRANCH  19  20
ENDBRANCH  18  19
ENDBRANCH   1  18
TORSDOF 28
ENDMDL
