MODEL 1
REMARK VINA RESULT:    -7.657      0.000      0.000
REMARK INTER + INTRA:         -10.978
REMARK INTER:                 -10.343
REMARK INTRA:                  -0.635
REMARK UNBOUND:                -0.635
REMARK SMILES CC[C@@H](CC[C@@H](C)[C@@H]1CC[C@H]2[C@@H]3CC(=O)C4=CC(=O)CC[C@]4(C)[C@@H]3CC[C@]21C)C(C)C
REMARK SMILES IDX 4 1 3 2 2 3 1 4 29 5 30 6 31 7 5 8 6 9 7 10 8 11 9 12 27 13
REMARK SMILES IDX 10 14 11 15 26 16 28 17 12 18 25 19 24 20 13 21 22 22 14 23
REMARK SMILES IDX 16 24 21 25 23 26 15 27 17 28 20 29 18 30 19 31
REMARK H PARENT
REMARK Flexibility Score: inf
ROOT
ATOM      1  C   UNL     1      22.845  29.618 -15.898  1.00  0.00     0.004 C 
ENDROOT
BRANCH   1   2
ATOM      2  C   UNL     1      21.932  28.506 -15.287  1.00  0.00    -0.009 C 
BRANCH   2   3
ATOM      3  C   UNL     1      20.522  28.439 -15.943  1.00  0.00     0.000 C 
ATOM      4  C   UNL     1      20.043  26.998 -16.139  1.00  0.00     0.004 C 
ENDBRANCH   2   3
BRANCH   2   5
ATOM      5  C   UNL     1      21.831  28.585 -13.721  1.00  0.00    -0.014 C 
ATOM      6  C   UNL     1      22.853  29.569 -13.119  1.00  0.00     0.007 C 
ATOM      7  C   UNL     1      20.416  28.885 -13.187  1.00  0.00     0.007 C 
ENDBRANCH   2   5
ENDBRANCH   1   2
BRANCH   1   8
ATOM      8  C   UNL     1      22.612  29.998 -17.380  1.00  0.00     0.004 C 
BRANCH   8   9
ATOM      9  C   UNL     1      23.581  29.500 -18.517  1.00  0.00    -0.011 C 
ATOM     10  C   UNL     1      24.292  28.157 -18.241  1.00  0.00     0.008 C 
BRANCH   9  11
ATOM     11  C   UNL     1      22.857  29.609 -19.907  1.00  0.00    -0.002 C 
ATOM     12  C   UNL     1      21.932  30.807 -20.095  1.00  0.00     0.005 C 
ATOM     13  C   UNL     1      22.066  28.399 -20.481  1.00  0.00    -0.026 C 
ATOM     14  C   UNL     1      21.258  30.558 -21.435  1.00  0.00     0.005 C 
ATOM     15  C   UNL     1      21.324  29.035 -21.711  1.00  0.00    -0.001 C 
ATOM     16  C   UNL     1      23.035  27.243 -20.890  1.00  0.00     0.007 C 
ATOM     17  C   UNL     1      21.004  27.846 -19.493  1.00  0.00     0.012 C 
ATOM     18  C   UNL     1      22.023  28.691 -23.062  1.00  0.00     0.004 C 
ATOM     19  C   UNL     1      22.404  26.352 -21.960  1.00  0.00     0.005 C 
ATOM     20  C   UNL     1      22.137  27.133 -23.278  1.00  0.00     0.003 C 
ATOM     21  C   UNL     1      21.435  29.460 -24.276  1.00  0.00     0.085 C 
ATOM     22  C   UNL     1      21.046  26.468 -24.219  1.00  0.00    -0.000 C 
ATOM     23  C   UNL     1      21.463  28.641 -25.528  1.00  0.00     0.159 C 
ATOM     24  C   UNL     1      20.829  27.326 -25.467  1.00  0.00     0.005 C 
ATOM     25  C   UNL     1      19.640  26.295 -23.561  1.00  0.00     0.020 C 
ATOM     26  C   UNL     1      21.598  25.081 -24.662  1.00  0.00     0.017 C 
ATOM     27  O   UNL     1      21.926  29.104 -26.608  1.00  0.00    -0.295 OA
ATOM     28  C   UNL     1      19.811  27.082 -26.306  1.00  0.00     0.055 C 
ATOM     29  C   UNL     1      18.636  25.617 -24.520  1.00  0.00     0.081 C 
ATOM     30  C   UNL     1      18.742  26.142 -25.929  1.00  0.00     0.156 C 
ATOM     31  O   UNL     1      17.890  25.792 -26.788  1.00  0.00    -0.295 OA
ENDBRANCH   9  11
ENDBRANCH   8   9
ENDBRANCH   1   8
TORSDOF 6
ENDMDL
MODEL 2
REMARK VINA RESULT:    -6.997      4.723     10.649
REMARK INTER + INTRA:         -10.085
REMARK INTER:                  -9.588
REMARK INTRA:                  -0.498
REMARK UNBOUND:                -0.635
REMARK SMILES CC[C@@H](CC[C@@H](C)[C@@H]1CC[C@H]2[C@@H]3CC(=O)C4=CC(=O)CC[C@]4(C)[C@@H]3CC[C@]21C)C(C)C
REMARK SMILES IDX 4 1 3 2 2 3 1 4 29 5 30 6 31 7 5 8 6 9 7 10 8 11 9 12 27 13
REMARK SMILES IDX 10 14 11 15 26 16 28 17 12 18 25 19 24 20 13 21 22 22 14 23
REMARK SMILES IDX 16 24 21 25 23 26 15 27 17 28 20 29 18 30 19 31
REMARK H PARENT
REMARK Flexibility Score: inf
ROOT
ATOM      1  C   UNL     1      22.846  27.930 -20.435  1.00  0.00     0.004 C 
ENDROOT
BRANCH   1   2
ATOM      2  C   UNL     1      22.300  27.627 -21.867  1.00  0.00    -0.009 C 
BRANCH   2   3
ATOM      3  C   UNL     1      21.623  28.857 -22.540  1.00  0.00     0.000 C 
ATOM      4  C   UNL     1      21.961  28.959 -24.031  1.00  0.00     0.004 C 
ENDBRANCH   2   3
BRANCH   2   5
ATOM      5  C   UNL     1      21.367  26.364 -21.916  1.00  0.00    -0.014 C 
ATOM      6  C   UNL     1      19.884  26.740 -22.096  1.00  0.00     0.007 C 
ATOM      7  C   UNL     1      21.783  25.303 -22.953  1.00  0.00     0.007 C 
ENDBRANCH   2   5
ENDBRANCH   1   2
BRANCH   1   8
ATOM      8  C   UNL     1      22.260  29.156 -19.692  1.00  0.00     0.004 C 
BRANCH   8   9
ATOM      9  C   UNL     1      21.309  28.983 -18.449  1.00  0.00    -0.011 C 
ATOM     10  C   UNL     1      20.669  27.586 -18.291  1.00  0.00     0.008 C 
BRANCH   9  11
ATOM     11  C   UNL     1      22.017  29.552 -17.166  1.00  0.00    -0.002 C 
ATOM     12  C   UNL     1      23.403  30.153 -17.369  1.00  0.00     0.005 C 
ATOM     13  C   UNL     1      22.142  28.680 -15.884  1.00  0.00    -0.026 C 
ATOM     14  C   UNL     1      23.895  30.454 -15.963  1.00  0.00     0.005 C 
ATOM     15  C   UNL     1      23.115  29.532 -14.992  1.00  0.00    -0.001 C 
ATOM     16  C   UNL     1      20.745  28.462 -15.219  1.00  0.00     0.007 C 
ATOM     17  C   UNL     1      22.799  27.299 -16.152  1.00  0.00     0.012 C 
ATOM     18  C   UNL     1      22.355  30.322 -13.882  1.00  0.00     0.004 C 
ATOM     19  C   UNL     1      20.890  28.164 -13.727  1.00  0.00     0.005 C 
ATOM     20  C   UNL     1      21.515  29.361 -12.956  1.00  0.00     0.003 C 
ATOM     21  C   UNL     1      23.255  31.324 -13.109  1.00  0.00     0.085 C 
ATOM     22  C   UNL     1      22.170  28.970 -11.564  1.00  0.00    -0.000 C 
ATOM     23  C   UNL     1      22.857  31.445 -11.672  1.00  0.00     0.159 C 
ATOM     24  C   UNL     1      22.786  30.205 -10.903  1.00  0.00     0.005 C 
ATOM     25  C   UNL     1      23.314  27.911 -11.660  1.00  0.00     0.020 C 
ATOM     26  C   UNL     1      21.030  28.436 -10.648  1.00  0.00     0.017 C 
ATOM     27  O   UNL     1      22.686  32.572 -11.128  1.00  0.00    -0.295 OA
ATOM     28  C   UNL     1      23.576  30.090  -9.825  1.00  0.00     0.055 C 
ATOM     29  C   UNL     1      23.887  27.556 -10.270  1.00  0.00     0.081 C 
ATOM     30  C   UNL     1      24.063  28.768  -9.393  1.00  0.00     0.156 C 
ATOM     31  O   UNL     1      24.657  28.655  -8.288  1.00  0.00    -0.295 OA
ENDBRANCH   9  11
ENDBRANCH   8   9
ENDBRANCH   1   8
TORSDOF 6
ENDMDL
MODEL 3
REMARK VINA RESULT:    -6.919     11.902     13.958
REMARK INTER + INTRA:          -9.980
REMARK INTER:                  -8.975
REMARK INTRA:                  -1.005
REMARK UNBOUND:                -0.635
REMARK SMILES CC[C@@H](CC[C@@H](C)[C@@H]1CC[C@H]2[C@@H]3CC(=O)C4=CC(=O)CC[C@]4(C)[C@@H]3CC[C@]21C)C(C)C
REMARK SMILES IDX 4 1 3 2 2 3 1 4 29 5 30 6 31 7 5 8 6 9 7 10 8 11 9 12 27 13
REMARK SMILES IDX 10 14 11 15 26 16 28 17 12 18 25 19 24 20 13 21 22 22 14 23
REMARK SMILES IDX 16 24 21 25 23 26 15 27 17 28 20 29 18 30 19 31
REMARK H PARENT
REMARK Flexibility Score: inf
ROOT
ATOM      1  C   UNL     1      33.371  32.736 -15.602  1.00  0.00     0.004 C 
ENDROOT
BRANCH   1   2
ATOM      2  C   UNL     1      33.862  31.475 -14.823  1.00  0.00    -0.009 C 
BRANCH   2   3
ATOM      3  C   UNL     1      32.926  31.077 -13.644  1.00  0.00     0.000 C 
ATOM      4  C   UNL     1      33.569  30.040 -12.718  1.00  0.00     0.004 C 
ENDBRANCH   2   3
BRANCH   2   5
ATOM      5  C   UNL     1      35.357  31.585 -14.353  1.00  0.00    -0.014 C 
ATOM      6  C   UNL     1      36.338  30.997 -15.386  1.00  0.00     0.007 C 
ATOM      7  C   UNL     1      35.795  33.005 -13.944  1.00  0.00     0.007 C 
ENDBRANCH   2   5
ENDBRANCH   1   2
BRANCH   1   8
ATOM      8  C   UNL     1      33.779  32.859 -17.091  1.00  0.00     0.004 C 
BRANCH   8   9
ATOM      9  C   UNL     1      32.913  32.210 -18.235  1.00  0.00    -0.011 C 
ATOM     10  C   UNL     1      31.908  31.130 -17.775  1.00  0.00     0.008 C 
BRANCH   9  11
ATOM     11  C   UNL     1      32.319  33.342 -19.148  1.00  0.00    -0.002 C 
ATOM     12  C   UNL     1      30.799  33.401 -19.249  1.00  0.00     0.005 C 
ATOM     13  C   UNL     1      32.823  33.522 -20.609  1.00  0.00    -0.026 C 
ATOM     14  C   UNL     1      30.530  34.457 -20.309  1.00  0.00     0.005 C 
ATOM     15  C   UNL     1      31.798  34.559 -21.194  1.00  0.00    -0.001 C 
ATOM     16  C   UNL     1      34.294  34.048 -20.630  1.00  0.00     0.007 C 
ATOM     17  C   UNL     1      32.739  32.216 -21.444  1.00  0.00     0.012 C 
ATOM     18  C   UNL     1      32.387  36.001 -21.249  1.00  0.00     0.004 C 
ATOM     19  C   UNL     1      34.595  34.783 -21.936  1.00  0.00     0.005 C 
ATOM     20  C   UNL     1      33.714  36.055 -22.099  1.00  0.00     0.003 C 
ATOM     21  C   UNL     1      31.341  37.082 -21.635  1.00  0.00     0.085 C 
ATOM     22  C   UNL     1      33.577  36.565 -23.595  1.00  0.00    -0.000 C 
ATOM     23  C   UNL     1      31.945  38.185 -22.446  1.00  0.00     0.159 C 
ATOM     24  C   UNL     1      32.667  37.793 -23.655  1.00  0.00     0.005 C 
ATOM     25  C   UNL     1      32.963  35.520 -24.583  1.00  0.00     0.020 C 
ATOM     26  C   UNL     1      34.998  36.978 -24.078  1.00  0.00     0.017 C 
ATOM     27  O   UNL     1      31.756  39.399 -22.152  1.00  0.00    -0.295 OA
ATOM     28  C   UNL     1      32.232  38.275 -24.829  1.00  0.00     0.055 C 
ATOM     29  C   UNL     1      32.884  36.070 -26.024  1.00  0.00     0.081 C 
ATOM     30  C   UNL     1      32.420  37.503 -26.069  1.00  0.00     0.156 C 
ATOM     31  O   UNL     1      32.165  38.039 -27.180  1.00  0.00    -0.295 OA
ENDBRANCH   9  11
ENDBRANCH   8   9
ENDBRANCH   1   8
TORSDOF 6
ENDMDL
MODEL 4
REMARK VINA RESULT:    -6.693      4.832     10.641
REMARK INTER + INTRA:          -9.675
REMARK INTER:                  -9.195
REMARK INTRA:                  -0.480
REMARK UNBOUND:                -0.635
REMARK SMILES CC[C@@H](CC[C@@H](C)[C@@H]1CC[C@H]2[C@@H]3CC(=O)C4=CC(=O)CC[C@]4(C)[C@@H]3CC[C@]21C)C(C)C
REMARK SMILES IDX 4 1 3 2 2 3 1 4 29 5 30 6 31 7 5 8 6 9 7 10 8 11 9 12 27 13
REMARK SMILES IDX 10 14 11 15 26 16 28 17 12 18 25 19 24 20 13 21 22 22 14 23
REMARK SMILES IDX 16 24 21 25 23 26 15 27 17 28 20 29 18 30 19 31
REMARK H PARENT
REMARK Flexibility Score: inf
ROOT
ATOM      1  C   UNL     1      22.292  28.292 -20.055  1.00  0.00     0.004 C 
ENDROOT
BRANCH   1   2
ATOM      2  C   UNL     1      22.206  27.926 -21.571  1.00  0.00    -0.009 C 
BRANCH   2   3
ATOM      3  C   UNL     1      21.734  29.111 -22.464  1.00  0.00     0.000 C 
ATOM      4  C   UNL     1      21.343  30.339 -21.637  1.00  0.00     0.004 C 
ENDBRANCH   2   3
BRANCH   2   5
ATOM      5  C   UNL     1      21.357  26.632 -21.843  1.00  0.00    -0.014 C 
ATOM      6  C   UNL     1      19.891  26.958 -22.191  1.00  0.00     0.007 C 
ATOM      7  C   UNL     1      21.961  25.682 -22.896  1.00  0.00     0.007 C 
ENDBRANCH   2   5
ENDBRANCH   1   2
BRANCH   1   8
ATOM      8  C   UNL     1      23.703  28.383 -19.422  1.00  0.00     0.004 C 
BRANCH   8   9
ATOM      9  C   UNL     1      24.031  29.436 -18.298  1.00  0.00    -0.011 C 
ATOM     10  C   UNL     1      23.243  30.762 -18.381  1.00  0.00     0.008 C 
BRANCH   9  11
ATOM     11  C   UNL     1      24.016  28.727 -16.896  1.00  0.00    -0.002 C 
ATOM     12  C   UNL     1      24.017  27.202 -16.910  1.00  0.00     0.005 C 
ATOM     13  C   UNL     1      22.955  29.117 -15.827  1.00  0.00    -0.026 C 
ATOM     14  C   UNL     1      23.830  26.810 -15.453  1.00  0.00     0.005 C 
ATOM     15  C   UNL     1      23.155  28.006 -14.734  1.00  0.00    -0.001 C 
ATOM     16  C   UNL     1      23.218  30.557 -15.280  1.00  0.00     0.007 C 
ATOM     17  C   UNL     1      21.499  29.033 -16.359  1.00  0.00     0.012 C 
ATOM     18  C   UNL     1      23.975  28.522 -13.512  1.00  0.00     0.004 C 
ATOM     19  C   UNL     1      22.624  30.729 -13.882  1.00  0.00     0.005 C 
ATOM     20  C   UNL     1      23.297  29.781 -12.848  1.00  0.00     0.003 C 
ATOM     21  C   UNL     1      24.359  27.403 -12.507  1.00  0.00     0.085 C 
ATOM     22  C   UNL     1      22.427  29.514 -11.548  1.00  0.00    -0.000 C 
ATOM     23  C   UNL     1      24.373  27.895 -11.095  1.00  0.00     0.159 C 
ATOM     24  C   UNL     1      23.156  28.546 -10.613  1.00  0.00     0.005 C 
ATOM     25  C   UNL     1      21.026  28.879 -11.824  1.00  0.00     0.020 C 
ATOM     26  C   UNL     1      22.256  30.876 -10.814  1.00  0.00     0.017 C 
ATOM     27  O   UNL     1      25.352  27.673 -10.328  1.00  0.00    -0.295 OA
ATOM     28  C   UNL     1      22.534  28.007  -9.554  1.00  0.00     0.055 C 
ATOM     29  C   UNL     1      20.223  28.672 -10.521  1.00  0.00     0.081 C 
ATOM     30  C   UNL     1      21.075  28.141  -9.397  1.00  0.00     0.156 C 
ATOM     31  O   UNL     1      20.531  27.782  -8.320  1.00  0.00    -0.295 OA
ENDBRANCH   9  11
ENDBRANCH   8   9
ENDBRANCH   1   8
TORSDOF 6
ENDMDL
MODEL 5
REMARK VINA RESULT:    -6.620      2.974      8.586
REMARK INTER + INTRA:          -9.576
REMARK INTER:                  -8.764
REMARK INTRA:                  -0.813
REMARK UNBOUND:                -0.635
REMARK SMILES CC[C@@H](CC[C@@H](C)[C@@H]1CC[C@H]2[C@@H]3CC(=O)C4=CC(=O)CC[C@]4(C)[C@@H]3CC[C@]21C)C(C)C
REMARK SMILES IDX 4 1 3 2 2 3 1 4 29 5 30 6 31 7 5 8 6 9 7 10 8 11 9 12 27 13
REMARK SMILES IDX 10 14 11 15 26 16 28 17 12 18 25 19 24 20 13 21 22 22 14 23
REMARK SMILES IDX 16 24 21 25 23 26 15 27 17 28 20 29 18 30 19 31
REMARK H PARENT
REMARK Flexibility Score: inf
ROOT
ATOM      1  C   UNL     1      21.669  24.017 -27.259  1.00  0.00     0.004 C 
ENDROOT
BRANCH   1   2
ATOM      2  C   UNL     1      23.185  23.981 -26.884  1.00  0.00    -0.009 C 
BRANCH   2   3
ATOM      3  C   UNL     1      24.124  23.916 -28.125  1.00  0.00     0.000 C 
ATOM      4  C   UNL     1      25.206  24.999 -28.090  1.00  0.00     0.004 C 
ENDBRANCH   2   3
BRANCH   2   5
ATOM      5  C   UNL     1      23.536  22.858 -25.843  1.00  0.00    -0.014 C 
ATOM      6  C   UNL     1      24.611  23.311 -24.836  1.00  0.00     0.007 C 
ATOM      7  C   UNL     1      22.318  22.271 -25.103  1.00  0.00     0.007 C 
ENDBRANCH   2   5
ENDBRANCH   1   2
BRANCH   1   8
ATOM      8  C   UNL     1      20.957  25.392 -27.224  1.00  0.00     0.004 C 
BRANCH   8   9
ATOM      9  C   UNL     1      19.930  25.754 -26.087  1.00  0.00    -0.011 C 
ATOM     10  C   UNL     1      19.399  24.558 -25.266  1.00  0.00     0.008 C 
BRANCH   9  11
ATOM     11  C   UNL     1      20.485  26.959 -25.245  1.00  0.00    -0.002 C 
ATOM     12  C   UNL     1      21.403  27.930 -25.979  1.00  0.00     0.005 C 
ATOM     13  C   UNL     1      21.178  26.710 -23.875  1.00  0.00    -0.026 C 
ATOM     14  C   UNL     1      21.908  28.868 -24.894  1.00  0.00     0.005 C 
ATOM     15  C   UNL     1      21.780  28.123 -23.542  1.00  0.00    -0.001 C 
ATOM     16  C   UNL     1      20.146  26.225 -22.808  1.00  0.00     0.007 C 
ATOM     17  C   UNL     1      22.340  25.684 -23.962  1.00  0.00     0.012 C 
ATOM     18  C   UNL     1      20.919  28.898 -22.498  1.00  0.00     0.004 C 
ATOM     19  C   UNL     1      20.628  26.548 -21.393  1.00  0.00     0.005 C 
ATOM     20  C   UNL     1      20.751  28.081 -21.160  1.00  0.00     0.003 C 
ATOM     21  C   UNL     1      21.372  30.369 -22.292  1.00  0.00     0.085 C 
ATOM     22  C   UNL     1      21.708  28.483 -19.961  1.00  0.00    -0.000 C 
ATOM     23  C   UNL     1      21.179  30.825 -20.881  1.00  0.00     0.159 C 
ATOM     24  C   UNL     1      21.791  30.006 -19.836  1.00  0.00     0.005 C 
ATOM     25  C   UNL     1      23.180  27.978 -20.108  1.00  0.00     0.020 C 
ATOM     26  C   UNL     1      21.082  27.913 -18.655  1.00  0.00     0.017 C 
ATOM     27  O   UNL     1      20.600  31.915 -20.613  1.00  0.00    -0.295 OA
ATOM     28  C   UNL     1      22.697  30.586 -19.035  1.00  0.00     0.055 C 
ATOM     29  C   UNL     1      24.049  28.379 -18.896  1.00  0.00     0.081 C 
ATOM     30  C   UNL     1      23.786  29.791 -18.441  1.00  0.00     0.156 C 
ATOM     31  O   UNL     1      24.522  30.307 -17.559  1.00  0.00    -0.295 OA
ENDBRANCH   9  11
ENDBRANCH   8   9
ENDBRANCH   1   8
TORSDOF 6
ENDMDL
MODEL 6
REMARK VINA RESULT:    -6.210      8.850     12.887
REMARK INTER + INTRA:          -9.022
REMARK INTER:                  -7.764
REMARK INTRA:                  -1.258
REMARK UNBOUND:                -0.635
REMARK SMILES CC[C@@H](CC[C@@H](C)[C@@H]1CC[C@H]2[C@@H]3CC(=O)C4=CC(=O)CC[C@]4(C)[C@@H]3CC[C@]21C)C(C)C
REMARK SMILES IDX 4 1 3 2 2 3 1 4 29 5 30 6 31 7 5 8 6 9 7 10 8 11 9 12 27 13
REMARK SMILES IDX 10 14 11 15 26 16 28 17 12 18 25 19 24 20 13 21 22 22 14 23
REMARK SMILES IDX 16 24 21 25 23 26 15 27 17 28 20 29 18 30 19 31
REMARK H PARENT
REMARK Flexibility Score: inf
ROOT
ATOM      1  C   UNL     1      28.186  32.086  -8.567  1.00  0.00     0.004 C 
ENDROOT
BRANCH   1   2
ATOM      2  C   UNL     1      29.671  32.462  -8.261  1.00  0.00    -0.009 C 
BRANCH   2   3
ATOM      3  C   UNL     1      29.883  33.984  -8.016  1.00  0.00     0.000 C 
ATOM      4  C   UNL     1      31.356  34.389  -8.125  1.00  0.00     0.004 C 
ENDBRANCH   2   3
BRANCH   2   5
ATOM      5  C   UNL     1      30.679  31.911  -9.334  1.00  0.00    -0.014 C 
ATOM      6  C   UNL     1      31.484  30.704  -8.813  1.00  0.00     0.007 C 
ATOM      7  C   UNL     1      30.042  31.583 -10.699  1.00  0.00     0.007 C 
ENDBRANCH   2   5
ENDBRANCH   1   2
BRANCH   1   8
ATOM      8  C   UNL     1      27.612  30.824  -7.877  1.00  0.00     0.004 C 
BRANCH   8   9
ATOM      9  C   UNL     1      27.769  29.395  -8.520  1.00  0.00    -0.011 C 
ATOM     10  C   UNL     1      28.852  28.496  -7.883  1.00  0.00     0.008 C 
BRANCH   9  11
ATOM     11  C   UNL     1      26.352  28.736  -8.682  1.00  0.00    -0.002 C 
ATOM     12  C   UNL     1      26.288  27.222  -8.518  1.00  0.00     0.005 C 
ATOM     13  C   UNL     1      25.480  29.040  -9.934  1.00  0.00    -0.026 C 
ATOM     14  C   UNL     1      24.859  26.860  -8.892  1.00  0.00     0.005 C 
ATOM     15  C   UNL     1      24.315  27.996  -9.794  1.00  0.00    -0.001 C 
ATOM     16  C   UNL     1      24.974  30.518  -9.915  1.00  0.00     0.007 C 
ATOM     17  C   UNL     1      26.225  28.776 -11.270  1.00  0.00     0.012 C 
ATOM     18  C   UNL     1      23.009  28.642  -9.238  1.00  0.00     0.004 C 
ATOM     19  C   UNL     1      23.695  30.669 -10.738  1.00  0.00     0.005 C 
ATOM     20  C   UNL     1      22.522  29.839 -10.142  1.00  0.00     0.003 C 
ATOM     21  C   UNL     1      21.901  27.607  -8.902  1.00  0.00     0.085 C 
ATOM     22  C   UNL     1      21.360  29.519 -11.174  1.00  0.00    -0.000 C 
ATOM     23  C   UNL     1      20.530  28.146  -9.165  1.00  0.00     0.159 C 
ATOM     24  C   UNL     1      20.276  28.672 -10.504  1.00  0.00     0.005 C 
ATOM     25  C   UNL     1      21.816  28.723 -12.439  1.00  0.00     0.020 C 
ATOM     26  C   UNL     1      20.732  30.878 -11.602  1.00  0.00     0.017 C 
ATOM     27  O   UNL     1      19.612  28.060  -8.302  1.00  0.00    -0.295 OA
ATOM     28  C   UNL     1      19.299  28.102 -11.227  1.00  0.00     0.055 C 
ATOM     29  C   UNL     1      20.643  28.470 -13.412  1.00  0.00     0.081 C 
ATOM     30  C   UNL     1      19.376  28.076 -12.697  1.00  0.00     0.156 C 
ATOM     31  O   UNL     1      18.379  27.696 -13.365  1.00  0.00    -0.295 OA
ENDBRANCH   9  11
ENDBRANCH   8   9
ENDBRANCH   1   8
TORSDOF 6
ENDMDL
MODEL 7
REMARK VINA RESULT:    -6.049      3.905      9.476
REMARK INTER + INTRA:          -8.806
REMARK INTER:                  -7.729
REMARK INTRA:                  -1.077
REMARK UNBOUND:                -0.635
REMARK SMILES CC[C@@H](CC[C@@H](C)[C@@H]1CC[C@H]2[C@@H]3CC(=O)C4=CC(=O)CC[C@]4(C)[C@@H]3CC[C@]21C)C(C)C
REMARK SMILES IDX 4 1 3 2 2 3 1 4 29 5 30 6 31 7 5 8 6 9 7 10 8 11 9 12 27 13
REMARK SMILES IDX 10 14 11 15 26 16 28 17 12 18 25 19 24 20 13 21 22 22 14 23
REMARK SMILES IDX 16 24 21 25 23 26 15 27 17 28 20 29 18 30 19 31
REMARK H PARENT
REMARK Flexibility Score: inf
ROOT
ATOM      1  C   UNL     1      21.738  25.529 -22.470  1.00  0.00     0.004 C 
ENDROOT
BRANCH   1   2
ATOM      2  C   UNL     1      22.335  25.124 -23.856  1.00  0.00    -0.009 C 
BRANCH   2   3
ATOM      3  C   UNL     1      21.389  25.444 -25.050  1.00  0.00     0.000 C 
ATOM      4  C   UNL     1      20.119  26.174 -24.604  1.00  0.00     0.004 C 
ENDBRANCH   2   3
BRANCH   2   5
ATOM      5  C   UNL     1      22.828  23.632 -23.901  1.00  0.00    -0.014 C 
ATOM      6  C   UNL     1      22.118  22.816 -24.999  1.00  0.00     0.007 C 
ATOM      7  C   UNL     1      24.357  23.469 -24.014  1.00  0.00     0.007 C 
ENDBRANCH   2   5
ENDBRANCH   1   2
BRANCH   1   8
ATOM      8  C   UNL     1      22.694  26.187 -21.445  1.00  0.00     0.004 C 
BRANCH   8   9
ATOM      9  C   UNL     1      22.794  27.752 -21.305  1.00  0.00    -0.011 C 
ATOM     10  C   UNL     1      22.442  28.556 -22.576  1.00  0.00     0.008 C 
BRANCH   9  11
ATOM     11  C   UNL     1      22.062  28.208 -19.992  1.00  0.00    -0.002 C 
ATOM     12  C   UNL     1      20.991  29.281 -20.153  1.00  0.00     0.005 C 
ATOM     13  C   UNL     1      22.881  28.645 -18.744  1.00  0.00    -0.026 C 
ATOM     14  C   UNL     1      20.590  29.634 -18.729  1.00  0.00     0.005 C 
ATOM     15  C   UNL     1      21.772  29.243 -17.806  1.00  0.00    -0.001 C 
ATOM     16  C   UNL     1      23.619  27.424 -18.106  1.00  0.00     0.007 C 
ATOM     17  C   UNL     1      23.917  29.757 -19.058  1.00  0.00     0.012 C 
ATOM     18  C   UNL     1      21.359  28.251 -16.676  1.00  0.00     0.004 C 
ATOM     19  C   UNL     1      23.906  27.670 -16.625  1.00  0.00     0.005 C 
ATOM     20  C   UNL     1      22.597  27.820 -15.799  1.00  0.00     0.003 C 
ATOM     21  C   UNL     1      20.132  28.727 -15.852  1.00  0.00     0.085 C 
ATOM     22  C   UNL     1      22.782  28.575 -14.416  1.00  0.00    -0.000 C 
ATOM     23  C   UNL     1      20.224  28.316 -14.417  1.00  0.00     0.159 C 
ATOM     24  C   UNL     1      21.436  28.703 -13.699  1.00  0.00     0.005 C 
ATOM     25  C   UNL     1      23.348  30.026 -14.540  1.00  0.00     0.020 C 
ATOM     26  C   UNL     1      23.731  27.709 -13.537  1.00  0.00     0.017 C 
ATOM     27  O   UNL     1      19.259  27.749 -13.830  1.00  0.00    -0.295 OA
ATOM     28  C   UNL     1      21.301  29.483 -12.616  1.00  0.00     0.055 C 
ATOM     29  C   UNL     1      23.529  30.692 -13.157  1.00  0.00     0.081 C 
ATOM     30  C   UNL     1      22.373  30.417 -12.231  1.00  0.00     0.156 C 
ATOM     31  O   UNL     1      22.309  31.015 -11.124  1.00  0.00    -0.295 OA
ENDBRANCH   9  11
ENDBRANCH   8   9
ENDBRANCH   1   8
TORSDOF 6
ENDMDL
MODEL 8
REMARK VINA RESULT:    -5.590      9.281     12.939
REMARK INTER + INTRA:          -8.185
REMARK INTER:                  -7.552
REMARK INTRA:                  -0.634
REMARK UNBOUND:                -0.635
REMARK SMILES CC[C@@H](CC[C@@H](C)[C@@H]1CC[C@H]2[C@@H]3CC(=O)C4=CC(=O)CC[C@]4(C)[C@@H]3CC[C@]21C)C(C)C
REMARK SMILES IDX 4 1 3 2 2 3 1 4 29 5 30 6 31 7 5 8 6 9 7 10 8 11 9 12 27 13
REMARK SMILES IDX 10 14 11 15 26 16 28 17 12 18 25 19 24 20 13 21 22 22 14 23
REMARK SMILES IDX 16 24 21 25 23 26 15 27 17 28 20 29 18 30 19 31
REMARK H PARENT
REMARK Flexibility Score: inf
ROOT
ATOM      1  C   UNL     1      30.730  30.326 -10.603  1.00  0.00     0.004 C 
ENDROOT
BRANCH   1   2
ATOM      2  C   UNL     1      32.179  30.910 -10.604  1.00  0.00    -0.009 C 
BRANCH   2   3
ATOM      3  C   UNL     1      33.221  29.968 -11.276  1.00  0.00     0.000 C 
ATOM      4  C   UNL     1      33.686  30.497 -12.636  1.00  0.00     0.004 C 
ENDBRANCH   2   3
BRANCH   2   5
ATOM      5  C   UNL     1      32.658  31.368  -9.179  1.00  0.00    -0.014 C 
ATOM      6  C   UNL     1      33.890  30.579  -8.696  1.00  0.00     0.007 C 
ATOM      7  C   UNL     1      32.905  32.884  -9.046  1.00  0.00     0.007 C 
ENDBRANCH   2   5
ENDBRANCH   1   2
BRANCH   1   8
ATOM      8  C   UNL     1      30.085  30.018  -9.229  1.00  0.00     0.004 C 
BRANCH   8   9
ATOM      9  C   UNL     1      29.037  28.855  -9.057  1.00  0.00    -0.011 C 
ATOM     10  C   UNL     1      29.298  27.896  -7.875  1.00  0.00     0.008 C 
BRANCH   9  11
ATOM     11  C   UNL     1      27.583  29.444  -9.143  1.00  0.00    -0.002 C 
ATOM     12  C   UNL     1      27.085  30.195  -7.913  1.00  0.00     0.005 C 
ATOM     13  C   UNL     1      26.391  28.541  -9.570  1.00  0.00    -0.026 C 
ATOM     14  C   UNL     1      25.624  30.491  -8.215  1.00  0.00     0.005 C 
ATOM     15  C   UNL     1      25.150  29.455  -9.266  1.00  0.00    -0.001 C 
ATOM     16  C   UNL     1      26.500  28.152 -11.080  1.00  0.00     0.007 C 
ATOM     17  C   UNL     1      26.274  27.248  -8.719  1.00  0.00     0.012 C 
ATOM     18  C   UNL     1      24.576  30.117 -10.556  1.00  0.00     0.004 C 
ATOM     19  C   UNL     1      25.126  27.813 -11.658  1.00  0.00     0.005 C 
ATOM     20  C   UNL     1      24.169  29.038 -11.631  1.00  0.00     0.003 C 
ATOM     21  C   UNL     1      23.477  31.177 -10.271  1.00  0.00     0.085 C 
ATOM     22  C   UNL     1      22.628  28.664 -11.709  1.00  0.00    -0.000 C 
ATOM     23  C   UNL     1      22.427  31.199 -11.336  1.00  0.00     0.159 C 
ATOM     24  C   UNL     1      21.771  29.929 -11.640  1.00  0.00     0.005 C 
ATOM     25  C   UNL     1      22.127  27.735 -10.557  1.00  0.00     0.020 C 
ATOM     26  C   UNL     1      22.387  27.978 -13.086  1.00  0.00     0.017 C 
ATOM     27  O   UNL     1      22.059  32.280 -11.877  1.00  0.00    -0.295 OA
ATOM     28  C   UNL     1      20.442  29.856 -11.477  1.00  0.00     0.055 C 
ATOM     29  C   UNL     1      20.630  27.387 -10.710  1.00  0.00     0.081 C 
ATOM     30  C   UNL     1      19.802  28.577 -11.124  1.00  0.00     0.156 C 
ATOM     31  O   UNL     1      18.546  28.483 -11.145  1.00  0.00    -0.295 OA
ENDBRANCH   9  11
ENDBRANCH   8   9
ENDBRANCH   1   8
TORSDOF 6
ENDMDL
