MODEL 1
REMARK VINA RESULT:    -4.858      0.000      0.000
REMARK INTER + INTRA:          -5.733
REMARK INTER:                  -5.567
REMARK INTRA:                  -0.165
REMARK UNBOUND:                -0.165
REMARK SMILES COc1ccc(C(C)=O)c(O)c1
REMARK SMILES IDX 6 1 10 2 12 3 3 4 4 5 5 6 7 7 8 8 9 9 11 10 2 12 1 13
REMARK H PARENT 11 11
REMARK Flexibility Score: inf
ROOT
ATOM      1  C   UNL     1      79.759 -21.033  44.039  1.00  0.00     0.059 A 
ATOM      2  C   UNL     1      79.655 -20.018  45.019  1.00  0.00     0.130 A 
ATOM      3  C   UNL     1      80.017 -18.699  44.703  1.00  0.00     0.093 A 
ATOM      4  C   UNL     1      80.501 -18.375  43.422  1.00  0.00     0.122 A 
ATOM      5  C   UNL     1      80.619 -19.384  42.465  1.00  0.00     0.047 A 
ATOM      6  C   UNL     1      80.256 -20.698  42.768  1.00  0.00     0.019 A 
ENDROOT
BRANCH   1   7
ATOM      7  C   UNL     1      79.375 -22.445  44.308  1.00  0.00     0.163 C 
ATOM      8  C   UNL     1      77.955 -22.920  44.237  1.00  0.00     0.093 C 
ATOM      9  O   UNL     1      80.268 -23.282  44.606  1.00  0.00    -0.294 OA
ENDBRANCH   1   7
BRANCH   2  10
ATOM     10  O   UNL     1      79.217 -20.311  46.310  1.00  0.00    -0.507 OA
ATOM     11  H   UNL     1      79.430 -21.193  46.760  1.00  0.00     0.293 HD
ENDBRANCH   2  10
BRANCH   4  12
ATOM     12  O   UNL     1      80.874 -17.071  43.066  1.00  0.00    -0.497 OA
ATOM     13  C   UNL     1      80.247 -16.304  42.044  1.00  0.00     0.278 C 
ENDBRANCH   4  12
TORSDOF 3
ENDMDL
MODEL 2
REMARK VINA RESULT:    -4.753      2.172      4.540
REMARK INTER + INTRA:          -5.612
REMARK INTER:                  -5.296
REMARK INTRA:                  -0.317
REMARK UNBOUND:                -0.165
REMARK SMILES COc1ccc(C(C)=O)c(O)c1
REMARK SMILES IDX 6 1 10 2 12 3 3 4 4 5 5 6 7 7 8 8 9 9 11 10 2 12 1 13
REMARK H PARENT 11 11
REMARK Flexibility Score: inf
ROOT
ATOM      1  C   UNL     1      81.509 -19.317  41.649  1.00  0.00     0.059 A 
ATOM      2  C   UNL     1      81.268 -18.019  42.157  1.00  0.00     0.130 A 
ATOM      3  C   UNL     1      80.612 -17.857  43.388  1.00  0.00     0.093 A 
ATOM      4  C   UNL     1      80.174 -18.976  44.119  1.00  0.00     0.122 A 
ATOM      5  C   UNL     1      80.397 -20.255  43.605  1.00  0.00     0.047 A 
ATOM      6  C   UNL     1      81.054 -20.426  42.385  1.00  0.00     0.019 A 
ENDROOT
BRANCH   1   7
ATOM      7  C   UNL     1      82.213 -19.554  40.361  1.00  0.00     0.163 C 
ATOM      8  C   UNL     1      83.045 -20.776  40.111  1.00  0.00     0.093 C 
ATOM      9  O   UNL     1      82.115 -18.702  39.438  1.00  0.00    -0.294 OA
ENDBRANCH   1   7
BRANCH   2  10
ATOM     10  O   UNL     1      81.653 -16.887  41.439  1.00  0.00    -0.507 OA
ATOM     11  H   UNL     1      81.989 -16.050  41.900  1.00  0.00     0.293 HD
ENDBRANCH   2  10
BRANCH   4  12
ATOM     12  O   UNL     1      79.514 -18.859  45.351  1.00  0.00    -0.497 OA
ATOM     13  C   UNL     1      79.272 -19.942  46.242  1.00  0.00     0.278 C 
ENDBRANCH   4  12
TORSDOF 3
ENDMDL
MODEL 3
REMARK VINA RESULT:    -4.647      1.709      2.761
REMARK INTER + INTRA:          -5.491
REMARK INTER:                  -5.248
REMARK INTRA:                  -0.243
REMARK UNBOUND:                -0.165
REMARK SMILES COc1ccc(C(C)=O)c(O)c1
REMARK SMILES IDX 6 1 10 2 12 3 3 4 4 5 5 6 7 7 8 8 9 9 11 10 2 12 1 13
REMARK H PARENT 11 11
REMARK Flexibility Score: inf
ROOT
ATOM      1  C   UNL     1      80.266 -19.839  43.788  1.00  0.00     0.059 A 
ATOM      2  C   UNL     1      80.868 -20.508  42.697  1.00  0.00     0.130 A 
ATOM      3  C   UNL     1      81.496 -19.770  41.681  1.00  0.00     0.093 A 
ATOM      4  C   UNL     1      81.520 -18.364  41.726  1.00  0.00     0.122 A 
ATOM      5  C   UNL     1      80.908 -17.708  42.795  1.00  0.00     0.047 A 
ATOM      6  C   UNL     1      80.286 -18.433  43.814  1.00  0.00     0.019 A 
ENDROOT
BRANCH   1   7
ATOM      7  C   UNL     1      79.602 -20.565  44.903  1.00  0.00     0.163 C 
ATOM      8  C   UNL     1      79.302 -19.915  46.221  1.00  0.00     0.093 C 
ATOM      9  O   UNL     1      79.274 -21.772  44.746  1.00  0.00    -0.294 OA
ENDBRANCH   1   7
BRANCH   2  10
ATOM     10  O   UNL     1      80.829 -21.899  42.600  1.00  0.00    -0.507 OA
ATOM     11  H   UNL     1      80.799 -22.372  41.705  1.00  0.00     0.293 HD
ENDBRANCH   2  10
BRANCH   4  12
ATOM     12  O   UNL     1      82.135 -17.590  40.732  1.00  0.00    -0.497 OA
ATOM     13  C   UNL     1      83.013 -16.499  40.988  1.00  0.00     0.278 C 
ENDBRANCH   4  12
TORSDOF 3
ENDMDL
MODEL 4
REMARK VINA RESULT:    -4.553      1.393      5.125
REMARK INTER + INTRA:          -5.384
REMARK INTER:                  -5.087
REMARK INTRA:                  -0.297
REMARK UNBOUND:                -0.165
REMARK SMILES COc1ccc(C(C)=O)c(O)c1
REMARK SMILES IDX 6 1 10 2 12 3 3 4 4 5 5 6 7 7 8 8 9 9 11 10 2 12 1 13
REMARK H PARENT 11 11
REMARK Flexibility Score: inf
ROOT
ATOM      1  C   UNL     1      80.723 -18.415  42.848  1.00  0.00     0.059 A 
ATOM      2  C   UNL     1      80.984 -19.620  42.155  1.00  0.00     0.130 A 
ATOM      3  C   UNL     1      80.655 -20.853  42.741  1.00  0.00     0.093 A 
ATOM      4  C   UNL     1      80.079 -20.906  44.023  1.00  0.00     0.122 A 
ATOM      5  C   UNL     1      79.839 -19.715  44.711  1.00  0.00     0.047 A 
ATOM      6  C   UNL     1      80.158 -18.484  44.134  1.00  0.00     0.019 A 
ENDROOT
BRANCH   1   7
ATOM      7  C   UNL     1      81.033 -17.079  42.274  1.00  0.00     0.163 C 
ATOM      8  C   UNL     1      81.284 -15.874  43.129  1.00  0.00     0.093 C 
ATOM      9  O   UNL     1      81.089 -16.943  41.022  1.00  0.00    -0.294 OA
ENDBRANCH   1   7
BRANCH   2  10
ATOM     10  O   UNL     1      81.591 -19.606  40.899  1.00  0.00    -0.507 OA
ATOM     11  H   UNL     1      81.165 -20.050  40.094  1.00  0.00     0.293 HD
ENDBRANCH   2  10
BRANCH   4  12
ATOM     12  O   UNL     1      79.735 -22.115  44.645  1.00  0.00    -0.497 OA
ATOM     13  C   UNL     1      78.646 -22.943  44.251  1.00  0.00     0.278 C 
ENDBRANCH   4  12
TORSDOF 3
ENDMDL
MODEL 5
REMARK VINA RESULT:    -4.468     17.549     17.981
REMARK INTER + INTRA:          -5.287
REMARK INTER:                  -4.994
REMARK INTRA:                  -0.292
REMARK UNBOUND:                -0.165
REMARK SMILES COc1ccc(C(C)=O)c(O)c1
REMARK SMILES IDX 6 1 10 2 12 3 3 4 4 5 5 6 7 7 8 8 9 9 11 10 2 12 1 13
REMARK H PARENT 11 11
REMARK Flexibility Score: inf
ROOT
ATOM      1  C   UNL     1      64.084 -14.956  37.911  1.00  0.00     0.059 A 
ATOM      2  C   UNL     1      63.721 -14.587  39.227  1.00  0.00     0.130 A 
ATOM      3  C   UNL     1      63.778 -13.240  39.619  1.00  0.00     0.093 A 
ATOM      4  C   UNL     1      64.209 -12.249  38.719  1.00  0.00     0.122 A 
ATOM      5  C   UNL     1      64.584 -12.621  37.426  1.00  0.00     0.047 A 
ATOM      6  C   UNL     1      64.526 -13.957  37.025  1.00  0.00     0.019 A 
ENDROOT
BRANCH   1   7
ATOM      7  C   UNL     1      64.028 -16.363  37.431  1.00  0.00     0.163 C 
ATOM      8  C   UNL     1      63.867 -16.713  35.982  1.00  0.00     0.093 C 
ATOM      9  O   UNL     1      64.119 -17.304  38.265  1.00  0.00    -0.294 OA
ENDBRANCH   1   7
BRANCH   2  10
ATOM     10  O   UNL     1      63.326 -15.548  40.157  1.00  0.00    -0.507 OA
ATOM     11  H   UNL     1      63.444 -16.540  39.984  1.00  0.00     0.293 HD
ENDBRANCH   2  10
BRANCH   4  12
ATOM     12  O   UNL     1      64.282 -10.893  39.070  1.00  0.00    -0.497 OA
ATOM     13  C   UNL     1      63.237  -9.949  38.859  1.00  0.00     0.278 C 
ENDBRANCH   4  12
TORSDOF 3
ENDMDL
MODEL 6
REMARK VINA RESULT:    -4.419     17.250     18.094
REMARK INTER + INTRA:          -5.230
REMARK INTER:                  -4.895
REMARK INTRA:                  -0.335
REMARK UNBOUND:                -0.165
REMARK SMILES COc1ccc(C(C)=O)c(O)c1
REMARK SMILES IDX 6 1 10 2 12 3 3 4 4 5 5 6 7 7 8 8 9 9 11 10 2 12 1 13
REMARK H PARENT 11 11
REMARK Flexibility Score: inf
ROOT
ATOM      1  C   UNL     1      63.877 -15.140  37.688  1.00  0.00     0.059 A 
ATOM      2  C   UNL     1      64.580 -13.993  38.126  1.00  0.00     0.130 A 
ATOM      3  C   UNL     1      64.763 -12.907  37.255  1.00  0.00     0.093 A 
ATOM      4  C   UNL     1      64.267 -12.951  35.939  1.00  0.00     0.122 A 
ATOM      5  C   UNL     1      63.589 -14.093  35.506  1.00  0.00     0.047 A 
ATOM      6  C   UNL     1      63.397 -15.176  36.367  1.00  0.00     0.019 A 
ENDROOT
BRANCH   1   7
ATOM      7  C   UNL     1      63.636 -16.314  38.569  1.00  0.00     0.163 C 
ATOM      8  C   UNL     1      63.830 -17.725  38.100  1.00  0.00     0.093 C 
ATOM      9  O   UNL     1      63.254 -16.128  39.756  1.00  0.00    -0.294 OA
ENDBRANCH   1   7
BRANCH   2  10
ATOM     10  O   UNL     1      65.120 -13.931  39.410  1.00  0.00    -0.507 OA
ATOM     11  H   UNL     1      64.818 -13.239  40.085  1.00  0.00     0.293 HD
ENDBRANCH   2  10
BRANCH   4  12
ATOM     12  O   UNL     1      64.428 -11.890  35.037  1.00  0.00    -0.497 OA
ATOM     13  C   UNL     1      65.466 -11.808  34.066  1.00  0.00     0.278 C 
ENDBRANCH   4  12
TORSDOF 3
ENDMDL
MODEL 7
REMARK VINA RESULT:    -4.362     16.812     18.371
REMARK INTER + INTRA:          -5.164
REMARK INTER:                  -4.840
REMARK INTRA:                  -0.324
REMARK UNBOUND:                -0.165
REMARK SMILES COc1ccc(C(C)=O)c(O)c1
REMARK SMILES IDX 6 1 10 2 12 3 3 4 4 5 5 6 7 7 8 8 9 9 11 10 2 12 1 13
REMARK H PARENT 11 11
REMARK Flexibility Score: inf
ROOT
ATOM      1  C   UNL     1      65.629 -13.383  33.941  1.00  0.00     0.059 A 
ATOM      2  C   UNL     1      66.262 -12.140  33.711  1.00  0.00     0.130 A 
ATOM      3  C   UNL     1      67.652 -12.086  33.518  1.00  0.00     0.093 A 
ATOM      4  C   UNL     1      68.429 -13.257  33.568  1.00  0.00     0.122 A 
ATOM      5  C   UNL     1      67.801 -14.480  33.813  1.00  0.00     0.047 A 
ATOM      6  C   UNL     1      66.419 -14.545  34.000  1.00  0.00     0.019 A 
ENDROOT
BRANCH   1   7
ATOM      7  C   UNL     1      64.159 -13.508  34.135  1.00  0.00     0.163 C 
ATOM      8  C   UNL     1      63.554 -14.500  35.082  1.00  0.00     0.093 C 
ATOM      9  O   UNL     1      63.384 -12.757  33.483  1.00  0.00    -0.294 OA
ENDBRANCH   1   7
BRANCH   2  10
ATOM     10  O   UNL     1      65.528 -10.955  33.695  1.00  0.00    -0.507 OA
ATOM     11  H   UNL     1      64.719 -10.818  34.290  1.00  0.00     0.293 HD
ENDBRANCH   2  10
BRANCH   4  12
ATOM     12  O   UNL     1      69.819 -13.247  33.382  1.00  0.00    -0.497 OA
ATOM     13  C   UNL     1      70.477 -13.688  32.199  1.00  0.00     0.278 C 
ENDBRANCH   4  12
TORSDOF 3
ENDMDL
MODEL 8
REMARK VINA RESULT:    -4.342     17.517     18.579
REMARK INTER + INTRA:          -5.142
REMARK INTER:                  -4.810
REMARK INTRA:                  -0.332
REMARK UNBOUND:                -0.165
REMARK SMILES COc1ccc(C(C)=O)c(O)c1
REMARK SMILES IDX 6 1 10 2 12 3 3 4 4 5 5 6 7 7 8 8 9 9 11 10 2 12 1 13
REMARK H PARENT 11 11
REMARK Flexibility Score: inf
ROOT
ATOM      1  C   UNL     1      64.319 -12.644  37.726  1.00  0.00     0.059 A 
ATOM      2  C   UNL     1      64.511 -14.004  38.064  1.00  0.00     0.130 A 
ATOM      3  C   UNL     1      64.458 -14.989  37.065  1.00  0.00     0.093 A 
ATOM      4  C   UNL     1      64.200 -14.641  35.727  1.00  0.00     0.122 A 
ATOM      5  C   UNL     1      63.993 -13.299  35.402  1.00  0.00     0.047 A 
ATOM      6  C   UNL     1      64.049 -12.311  36.387  1.00  0.00     0.019 A 
ENDROOT
BRANCH   1   7
ATOM      7  C   UNL     1      64.380 -11.553  38.735  1.00  0.00     0.163 C 
ATOM      8  C   UNL     1      63.275 -10.556  38.911  1.00  0.00     0.093 C 
ATOM      9  O   UNL     1      65.395 -11.453  39.477  1.00  0.00    -0.294 OA
ENDBRANCH   1   7
BRANCH   2  10
ATOM     10  O   UNL     1      64.729 -14.389  39.387  1.00  0.00    -0.507 OA
ATOM     11  H   UNL     1      63.970 -14.671  39.994  1.00  0.00     0.293 HD
ENDBRANCH   2  10
BRANCH   4  12
ATOM     12  O   UNL     1      64.138 -15.594  34.700  1.00  0.00    -0.497 OA
ATOM     13  C   UNL     1      65.176 -16.519  34.396  1.00  0.00     0.278 C 
ENDBRANCH   4  12
TORSDOF 3
ENDMDL
MODEL 9
REMARK VINA RESULT:    -4.316     16.600     17.530
REMARK INTER + INTRA:          -5.112
REMARK INTER:                  -4.768
REMARK INTRA:                  -0.344
REMARK UNBOUND:                -0.165
REMARK SMILES COc1ccc(C(C)=O)c(O)c1
REMARK SMILES IDX 6 1 10 2 12 3 3 4 4 5 5 6 7 7 8 8 9 9 11 10 2 12 1 13
REMARK H PARENT 11 11
REMARK Flexibility Score: inf
ROOT
ATOM      1  C   UNL     1      66.824 -13.408  34.279  1.00  0.00     0.059 A 
ATOM      2  C   UNL     1      68.114 -12.826  34.301  1.00  0.00     0.130 A 
ATOM      3  C   UNL     1      69.131 -13.344  33.483  1.00  0.00     0.093 A 
ATOM      4  C   UNL     1      68.887 -14.450  32.649  1.00  0.00     0.122 A 
ATOM      5  C   UNL     1      67.618 -15.032  32.645  1.00  0.00     0.047 A 
ATOM      6  C   UNL     1      66.598 -14.521  33.451  1.00  0.00     0.019 A 
ENDROOT
BRANCH   1   7
ATOM      7  C   UNL     1      65.702 -12.894  35.109  1.00  0.00     0.163 C 
ATOM      8  C   UNL     1      64.378 -12.508  34.521  1.00  0.00     0.093 C 
ATOM      9  O   UNL     1      65.858 -12.775  36.354  1.00  0.00    -0.294 OA
ENDBRANCH   1   7
BRANCH   2  10
ATOM     10  O   UNL     1      68.401 -11.753  35.144  1.00  0.00    -0.507 OA
ATOM     11  H   UNL     1      68.244 -10.794  34.861  1.00  0.00     0.293 HD
ENDBRANCH   2  10
BRANCH   4  12
ATOM     12  O   UNL     1      69.874 -14.999  31.818  1.00  0.00    -0.497 OA
ATOM     13  C   UNL     1      69.755 -16.243  31.137  1.00  0.00     0.278 C 
ENDBRANCH   4  12
TORSDOF 3
ENDMDL
