MODEL 1
REMARK VINA RESULT:    -3.772      0.000      0.000
REMARK INTER + INTRA:          -6.277
REMARK INTER:                  -5.757
REMARK INTRA:                  -0.520
REMARK UNBOUND:                -0.520
REMARK SMILES O=C([O-])CCCCCCCCC(=O)[O-]
REMARK SMILES IDX 7 1 6 2 5 3 4 4 2 5 1 6 3 7 8 8 9 9 10 10 11 11 12 12 13 13
REMARK SMILES IDX 14 14
REMARK H PARENT
REMARK Flexibility Score: inf
ROOT
ATOM      1  C   UNL     1      -6.851 -66.257  -9.179  1.00  0.00     0.000 C 
ENDROOT
BRANCH   1   2
ATOM      2  C   UNL     1      -5.556 -66.961  -8.719  1.00  0.00     0.000 C 
BRANCH   2   3
ATOM      3  C   UNL     1      -4.943 -66.303  -7.470  1.00  0.00     0.006 C 
BRANCH   3   4
ATOM      4  C   UNL     1      -4.555 -67.336  -6.403  1.00  0.00     0.053 C 
BRANCH   4   5
ATOM      5  C   UNL     1      -3.446 -66.837  -5.528  1.00  0.00     0.041 C 
ATOM      6  O   UNL     1      -2.502 -66.166  -6.021  1.00  0.00    -0.550 OA
ATOM      7  O   UNL     1      -3.442 -67.140  -4.173  1.00  0.00    -0.550 OA
ENDBRANCH   4   5
ENDBRANCH   3   4
ENDBRANCH   2   3
ENDBRANCH   1   2
BRANCH   1   8
ATOM      8  C   UNL     1      -7.212 -65.015  -8.342  1.00  0.00     0.000 C 
BRANCH   8   9
ATOM      9  C   UNL     1      -8.707 -64.874  -7.997  1.00  0.00     0.000 C 
BRANCH   9  10
ATOM     10  C   UNL     1      -9.002 -64.116  -6.690  1.00  0.00     0.006 C 
BRANCH  10  11
ATOM     11  C   UNL     1      -8.384 -62.713  -6.660  1.00  0.00     0.053 C 
BRANCH  11  12
ATOM     12  C   UNL     1      -7.497 -62.558  -5.465  1.00  0.00     0.041 C 
ATOM     13  O   UNL     1      -7.666 -61.594  -4.673  1.00  0.00    -0.550 OA
ATOM     14  O   UNL     1      -6.516 -63.505  -5.199  1.00  0.00    -0.550 OA
ENDBRANCH  11  12
ENDBRANCH  10  11
ENDBRANCH   9  10
ENDBRANCH   8   9
ENDBRANCH   1   8
TORSDOF 9
ENDMDL
MODEL 2
REMARK VINA RESULT:    -3.733      5.814      7.400
REMARK INTER + INTRA:          -6.218
REMARK INTER:                  -5.840
REMARK INTRA:                  -0.377
REMARK UNBOUND:                -0.520
REMARK SMILES O=C([O-])CCCCCCCCC(=O)[O-]
REMARK SMILES IDX 7 1 6 2 5 3 4 4 2 5 1 6 3 7 8 8 9 9 10 10 11 11 12 12 13 13
REMARK SMILES IDX 14 14
REMARK H PARENT
REMARK Flexibility Score: inf
ROOT
ATOM      1  C   UNL     1      -4.770 -69.868 -12.096  1.00  0.00     0.000 C 
ENDROOT
BRANCH   1   2
ATOM      2  C   UNL     1      -3.959 -70.815 -13.008  1.00  0.00     0.000 C 
BRANCH   2   3
ATOM      3  C   UNL     1      -3.680 -72.174 -12.342  1.00  0.00     0.006 C 
BRANCH   3   4
ATOM      4  C   UNL     1      -4.952 -73.018 -12.193  1.00  0.00     0.053 C 
BRANCH   4   5
ATOM      5  C   UNL     1      -4.658 -74.361 -11.599  1.00  0.00     0.041 C 
ATOM      6  O   UNL     1      -5.542 -75.257 -11.587  1.00  0.00    -0.550 OA
ATOM      7  O   UNL     1      -3.416 -74.612 -11.031  1.00  0.00    -0.550 OA
ENDBRANCH   4   5
ENDBRANCH   3   4
ENDBRANCH   2   3
ENDBRANCH   1   2
BRANCH   1   8
ATOM      8  C   UNL     1      -3.895 -68.985 -11.185  1.00  0.00     0.000 C 
BRANCH   8   9
ATOM      9  C   UNL     1      -3.928 -69.358  -9.690  1.00  0.00     0.000 C 
BRANCH   9  10
ATOM     10  C   UNL     1      -5.015 -68.642  -8.868  1.00  0.00     0.006 C 
BRANCH  10  11
ATOM     11  C   UNL     1      -4.589 -68.373  -7.420  1.00  0.00     0.053 C 
BRANCH  11  12
ATOM     12  C   UNL     1      -4.412 -66.906  -7.192  1.00  0.00     0.041 C 
ATOM     13  O   UNL     1      -3.862 -66.190  -8.070  1.00  0.00    -0.550 OA
ATOM     14  O   UNL     1      -4.896 -66.318  -6.030  1.00  0.00    -0.550 OA
ENDBRANCH  11  12
ENDBRANCH  10  11
ENDBRANCH   9  10
ENDBRANCH   8   9
ENDBRANCH   1   8
TORSDOF 9
ENDMDL
MODEL 3
REMARK VINA RESULT:    -3.692     10.427     11.695
REMARK INTER + INTRA:          -6.154
REMARK INTER:                  -5.505
REMARK INTRA:                  -0.649
REMARK UNBOUND:                -0.520
REMARK SMILES O=C([O-])CCCCCCCCC(=O)[O-]
REMARK SMILES IDX 7 1 6 2 5 3 4 4 2 5 1 6 3 7 8 8 9 9 10 10 11 11 12 12 13 13
REMARK SMILES IDX 14 14
REMARK H PARENT
REMARK Flexibility Score: inf
ROOT
ATOM      1  C   UNL     1     -13.042 -73.213  -9.661  1.00  0.00     0.000 C 
ENDROOT
BRANCH   1   2
ATOM      2  C   UNL     1     -11.620 -73.387  -9.086  1.00  0.00     0.000 C 
BRANCH   2   3
ATOM      3  C   UNL     1     -10.535 -72.838 -10.029  1.00  0.00     0.006 C 
BRANCH   3   4
ATOM      4  C   UNL     1      -9.136 -72.902  -9.401  1.00  0.00     0.053 C 
BRANCH   4   5
ATOM      5  C   UNL     1      -8.699 -71.565  -8.886  1.00  0.00     0.041 C 
ATOM      6  O   UNL     1      -9.419 -70.935  -8.068  1.00  0.00    -0.550 OA
ATOM      7  O   UNL     1      -7.511 -71.002  -9.333  1.00  0.00    -0.550 OA
ENDBRANCH   4   5
ENDBRANCH   3   4
ENDBRANCH   2   3
ENDBRANCH   1   2
BRANCH   1   8
ATOM      8  C   UNL     1     -13.163 -73.605 -11.147  1.00  0.00     0.000 C 
BRANCH   8   9
ATOM      9  C   UNL     1     -13.120 -75.119 -11.426  1.00  0.00     0.000 C 
BRANCH   9  10
ATOM     10  C   UNL     1     -14.238 -75.934 -10.749  1.00  0.00     0.006 C 
BRANCH  10  11
ATOM     11  C   UNL     1     -13.699 -77.024  -9.814  1.00  0.00     0.053 C 
BRANCH  11  12
ATOM     12  C   UNL     1     -13.766 -76.570  -8.390  1.00  0.00     0.041 C 
ATOM     13  O   UNL     1     -14.881 -76.343  -7.850  1.00  0.00    -0.550 OA
ATOM     14  O   UNL     1     -12.601 -76.444  -7.644  1.00  0.00    -0.550 OA
ENDBRANCH  11  12
ENDBRANCH  10  11
ENDBRANCH   9  10
ENDBRANCH   8   9
ENDBRANCH   1   8
TORSDOF 9
ENDMDL
MODEL 4
REMARK VINA RESULT:    -3.662      1.178      5.282
REMARK INTER + INTRA:          -6.109
REMARK INTER:                  -5.431
REMARK INTRA:                  -0.679
REMARK UNBOUND:                -0.520
REMARK SMILES O=C([O-])CCCCCCCCC(=O)[O-]
REMARK SMILES IDX 7 1 6 2 5 3 4 4 2 5 1 6 3 7 8 8 9 9 10 10 11 11 12 12 13 13
REMARK SMILES IDX 14 14
REMARK H PARENT
REMARK Flexibility Score: inf
ROOT
ATOM      1  C   UNL     1      -8.112 -64.888  -8.863  1.00  0.00     0.000 C 
ENDROOT
BRANCH   1   2
ATOM      2  C   UNL     1      -8.595 -64.685  -7.411  1.00  0.00     0.000 C 
BRANCH   2   3
ATOM      3  C   UNL     1      -9.102 -63.254  -7.156  1.00  0.00     0.006 C 
BRANCH   3   4
ATOM      4  C   UNL     1      -8.186 -62.195  -7.784  1.00  0.00     0.053 C 
BRANCH   4   5
ATOM      5  C   UNL     1      -6.934 -62.003  -6.984  1.00  0.00     0.041 C 
ATOM      6  O   UNL     1      -7.000 -61.762  -5.751  1.00  0.00    -0.550 OA
ATOM      7  O   UNL     1      -5.695 -62.061  -7.609  1.00  0.00    -0.550 OA
ENDBRANCH   4   5
ENDBRANCH   3   4
ENDBRANCH   2   3
ENDBRANCH   1   2
BRANCH   1   8
ATOM      8  C   UNL     1      -6.757 -65.614  -8.970  1.00  0.00     0.000 C 
BRANCH   8   9
ATOM      9  C   UNL     1      -5.899 -65.582  -7.691  1.00  0.00     0.000 C 
BRANCH   9  10
ATOM     10  C   UNL     1      -4.761 -66.619  -7.648  1.00  0.00     0.006 C 
BRANCH  10  11
ATOM     11  C   UNL     1      -4.635 -67.311  -6.287  1.00  0.00     0.053 C 
BRANCH  11  12
ATOM     12  C   UNL     1      -3.386 -66.872  -5.590  1.00  0.00     0.041 C 
ATOM     13  O   UNL     1      -3.081 -67.358  -4.470  1.00  0.00    -0.550 OA
ATOM     14  O   UNL     1      -2.533 -65.961  -6.201  1.00  0.00    -0.550 OA
ENDBRANCH  11  12
ENDBRANCH  10  11
ENDBRANCH   9  10
ENDBRANCH   8   9
ENDBRANCH   1   8
TORSDOF 9
ENDMDL
MODEL 5
REMARK VINA RESULT:    -3.583      0.950      5.051
REMARK INTER + INTRA:          -5.989
REMARK INTER:                  -5.335
REMARK INTRA:                  -0.653
REMARK UNBOUND:                -0.520
REMARK SMILES O=C([O-])CCCCCCCCC(=O)[O-]
REMARK SMILES IDX 7 1 6 2 5 3 4 4 2 5 1 6 3 7 8 8 9 9 10 10 11 11 12 12 13 13
REMARK SMILES IDX 14 14
REMARK H PARENT
REMARK Flexibility Score: inf
ROOT
ATOM      1  C   UNL     1      -8.599 -64.545  -8.333  1.00  0.00     0.000 C 
ENDROOT
BRANCH   1   2
ATOM      2  C   UNL     1      -8.871 -64.194  -6.854  1.00  0.00     0.000 C 
BRANCH   2   3
ATOM      3  C   UNL     1      -8.554 -62.722  -6.533  1.00  0.00     0.006 C 
BRANCH   3   4
ATOM      4  C   UNL     1      -7.177 -62.556  -5.876  1.00  0.00     0.053 C 
BRANCH   4   5
ATOM      5  C   UNL     1      -7.295 -62.260  -4.412  1.00  0.00     0.041 C 
ATOM      6  O   UNL     1      -7.835 -61.192  -4.023  1.00  0.00    -0.550 OA
ATOM      7  O   UNL     1      -6.780 -63.151  -3.480  1.00  0.00    -0.550 OA
ENDBRANCH   4   5
ENDBRANCH   3   4
ENDBRANCH   2   3
ENDBRANCH   1   2
BRANCH   1   8
ATOM      8  C   UNL     1      -7.494 -65.600  -8.527  1.00  0.00     0.000 C 
BRANCH   8   9
ATOM      9  C   UNL     1      -6.066 -65.113  -8.215  1.00  0.00     0.000 C 
BRANCH   9  10
ATOM     10  C   UNL     1      -5.175 -66.137  -7.489  1.00  0.00     0.006 C 
BRANCH  10  11
ATOM     11  C   UNL     1      -4.788 -65.694  -6.073  1.00  0.00     0.053 C 
BRANCH  11  12
ATOM     12  C   UNL     1      -3.414 -66.177  -5.731  1.00  0.00     0.041 C 
ATOM     13  O   UNL     1      -2.404 -65.626  -6.242  1.00  0.00    -0.550 OA
ATOM     14  O   UNL     1      -3.247 -67.204  -4.811  1.00  0.00    -0.550 OA
ENDBRANCH  11  12
ENDBRANCH  10  11
ENDBRANCH   9  10
ENDBRANCH   8   9
ENDBRANCH   1   8
TORSDOF 9
ENDMDL
MODEL 6
REMARK VINA RESULT:    -3.565      5.430      7.518
REMARK INTER + INTRA:          -5.961
REMARK INTER:                  -5.081
REMARK INTRA:                  -0.880
REMARK UNBOUND:                -0.520
REMARK SMILES O=C([O-])CCCCCCCCC(=O)[O-]
REMARK SMILES IDX 7 1 6 2 5 3 4 4 2 5 1 6 3 7 8 8 9 9 10 10 11 11 12 12 13 13
REMARK SMILES IDX 14 14
REMARK H PARENT
REMARK Flexibility Score: inf
ROOT
ATOM      1  C   UNL     1      -4.312 -64.236  -1.103  1.00  0.00     0.000 C 
ENDROOT
BRANCH   1   2
ATOM      2  C   UNL     1      -5.328 -65.006  -1.974  1.00  0.00     0.000 C 
BRANCH   2   3
ATOM      3  C   UNL     1      -5.962 -64.119  -3.060  1.00  0.00     0.006 C 
BRANCH   3   4
ATOM      4  C   UNL     1      -5.796 -62.624  -2.756  1.00  0.00     0.053 C 
BRANCH   4   5
ATOM      5  C   UNL     1      -7.110 -61.905  -2.788  1.00  0.00     0.041 C 
ATOM      6  O   UNL     1      -7.440 -61.234  -3.800  1.00  0.00    -0.550 OA
ATOM      7  O   UNL     1      -7.955 -61.952  -1.687  1.00  0.00    -0.550 OA
ENDBRANCH   4   5
ENDBRANCH   3   4
ENDBRANCH   2   3
ENDBRANCH   1   2
BRANCH   1   8
ATOM      8  C   UNL     1      -4.577 -64.354   0.410  1.00  0.00     0.000 C 
BRANCH   8   9
ATOM      9  C   UNL     1      -5.854 -63.647   0.904  1.00  0.00     0.000 C 
BRANCH   9  10
ATOM     10  C   UNL     1      -6.965 -64.590   1.403  1.00  0.00     0.006 C 
BRANCH  10  11
ATOM     11  C   UNL     1      -8.156 -64.670   0.441  1.00  0.00     0.053 C 
BRANCH  11  12
ATOM     12  C   UNL     1      -9.402 -64.183   1.110  1.00  0.00     0.041 C 
ATOM     13  O   UNL     1     -10.063 -63.238   0.605  1.00  0.00    -0.550 OA
ATOM     14  O   UNL     1      -9.860 -64.804   2.266  1.00  0.00    -0.550 OA
ENDBRANCH  11  12
ENDBRANCH  10  11
ENDBRANCH   9  10
ENDBRANCH   8   9
ENDBRANCH   1   8
TORSDOF 9
ENDMDL
MODEL 7
REMARK VINA RESULT:    -3.548      8.050      9.168
REMARK INTER + INTRA:          -5.935
REMARK INTER:                  -5.555
REMARK INTRA:                  -0.380
REMARK UNBOUND:                -0.520
REMARK SMILES O=C([O-])CCCCCCCCC(=O)[O-]
REMARK SMILES IDX 7 1 6 2 5 3 4 4 2 5 1 6 3 7 8 8 9 9 10 10 11 11 12 12 13 13
REMARK SMILES IDX 14 14
REMARK H PARENT
REMARK Flexibility Score: inf
ROOT
ATOM      1  C   UNL     1      -5.575 -70.181 -10.914  1.00  0.00     0.000 C 
ENDROOT
BRANCH   1   2
ATOM      2  C   UNL     1      -4.787 -70.594 -12.176  1.00  0.00     0.000 C 
BRANCH   2   3
ATOM      3  C   UNL     1      -4.158 -71.992 -12.043  1.00  0.00     0.006 C 
BRANCH   3   4
ATOM      4  C   UNL     1      -5.209 -73.108 -12.102  1.00  0.00     0.053 C 
BRANCH   4   5
ATOM      5  C   UNL     1      -4.667 -74.406 -11.586  1.00  0.00     0.041 C 
ATOM      6  O   UNL     1      -3.503 -74.462 -11.110  1.00  0.00    -0.550 OA
ATOM      7  O   UNL     1      -5.438 -75.559 -11.659  1.00  0.00    -0.550 OA
ENDBRANCH   4   5
ENDBRANCH   3   4
ENDBRANCH   2   3
ENDBRANCH   1   2
BRANCH   1   8
ATOM      8  C   UNL     1      -7.093 -70.053 -11.146  1.00  0.00     0.000 C 
BRANCH   8   9
ATOM      9  C   UNL     1      -7.972 -70.461  -9.948  1.00  0.00     0.000 C 
BRANCH   9  10
ATOM     10  C   UNL     1      -9.276 -71.189 -10.320  1.00  0.00     0.006 C 
BRANCH  10  11
ATOM     11  C   UNL     1      -9.748 -72.162  -9.233  1.00  0.00     0.053 C 
BRANCH  11  12
ATOM     12  C   UNL     1     -10.927 -72.949  -9.712  1.00  0.00     0.041 C 
ATOM     13  O   UNL     1     -12.006 -72.931  -9.063  1.00  0.00    -0.550 OA
ATOM     14  O   UNL     1     -10.849 -73.664 -10.901  1.00  0.00    -0.550 OA
ENDBRANCH  11  12
ENDBRANCH  10  11
ENDBRANCH   9  10
ENDBRANCH   8   9
ENDBRANCH   1   8
TORSDOF 9
ENDMDL
MODEL 8
REMARK VINA RESULT:    -3.543      4.474      7.512
REMARK INTER + INTRA:          -5.928
REMARK INTER:                  -5.511
REMARK INTRA:                  -0.417
REMARK UNBOUND:                -0.520
REMARK SMILES O=C([O-])CCCCCCCCC(=O)[O-]
REMARK SMILES IDX 7 1 6 2 5 3 4 4 2 5 1 6 3 7 8 8 9 9 10 10 11 11 12 12 13 13
REMARK SMILES IDX 14 14
REMARK H PARENT
REMARK Flexibility Score: inf
ROOT
ATOM      1  C   UNL     1      -5.733 -63.647  -1.983  1.00  0.00     0.000 C 
ENDROOT
BRANCH   1   2
ATOM      2  C   UNL     1      -6.773 -63.251  -0.912  1.00  0.00     0.000 C 
BRANCH   2   3
ATOM      3  C   UNL     1      -8.167 -63.834  -1.203  1.00  0.00     0.006 C 
BRANCH   3   4
ATOM      4  C   UNL     1      -8.645 -64.775  -0.090  1.00  0.00     0.053 C 
BRANCH   4   5
ATOM      5  C   UNL     1      -9.485 -64.054   0.920  1.00  0.00     0.041 C 
ATOM      6  O   UNL     1      -9.952 -62.915   0.658  1.00  0.00    -0.550 OA
ATOM      7  O   UNL     1      -9.726 -64.629   2.161  1.00  0.00    -0.550 OA
ENDBRANCH   4   5
ENDBRANCH   3   4
ENDBRANCH   2   3
ENDBRANCH   1   2
BRANCH   1   8
ATOM      8  C   UNL     1      -5.079 -65.020  -1.734  1.00  0.00     0.000 C 
BRANCH   8   9
ATOM      9  C   UNL     1      -4.616 -65.761  -3.003  1.00  0.00     0.000 C 
BRANCH   9  10
ATOM     10  C   UNL     1      -4.353 -64.857  -4.221  1.00  0.00     0.006 C 
BRANCH  10  11
ATOM     11  C   UNL     1      -4.619 -65.562  -5.556  1.00  0.00     0.053 C 
BRANCH  11  12
ATOM     12  C   UNL     1      -3.943 -66.896  -5.586  1.00  0.00     0.041 C 
ATOM     13  O   UNL     1      -2.686 -66.968  -5.578  1.00  0.00    -0.550 OA
ATOM     14  O   UNL     1      -4.700 -68.061  -5.574  1.00  0.00    -0.550 OA
ENDBRANCH  11  12
ENDBRANCH  10  11
ENDBRANCH   9  10
ENDBRANCH   8   9
ENDBRANCH   1   8
TORSDOF 9
ENDMDL
MODEL 9
REMARK VINA RESULT:    -3.487      8.026      9.495
REMARK INTER + INTRA:          -5.842
REMARK INTER:                  -5.069
REMARK INTRA:                  -0.774
REMARK UNBOUND:                -0.520
REMARK SMILES O=C([O-])CCCCCCCCC(=O)[O-]
REMARK SMILES IDX 7 1 6 2 5 3 4 4 2 5 1 6 3 7 8 8 9 9 10 10 11 11 12 12 13 13
REMARK SMILES IDX 14 14
REMARK H PARENT
REMARK Flexibility Score: inf
ROOT
ATOM      1  C   UNL     1      -6.800 -64.960   4.485  1.00  0.00     0.000 C 
ENDROOT
BRANCH   1   2
ATOM      2  C   UNL     1      -6.284 -66.355   4.069  1.00  0.00     0.000 C 
BRANCH   2   3
ATOM      3  C   UNL     1      -4.781 -66.349   3.737  1.00  0.00     0.006 C 
BRANCH   3   4
ATOM      4  C   UNL     1      -4.517 -66.055   2.255  1.00  0.00     0.053 C 
BRANCH   4   5
ATOM      5  C   UNL     1      -3.734 -64.791   2.073  1.00  0.00     0.041 C 
ATOM      6  O   UNL     1      -3.116 -64.283   3.045  1.00  0.00    -0.550 OA
ATOM      7  O   UNL     1      -3.711 -64.159   0.837  1.00  0.00    -0.550 OA
ENDBRANCH   4   5
ENDBRANCH   3   4
ENDBRANCH   2   3
ENDBRANCH   1   2
BRANCH   1   8
ATOM      8  C   UNL     1      -8.178 -64.607   3.891  1.00  0.00     0.000 C 
BRANCH   8   9
ATOM      9  C   UNL     1      -8.914 -65.778   3.213  1.00  0.00     0.000 C 
BRANCH   9  10
ATOM     10  C   UNL     1      -8.981 -65.700   1.676  1.00  0.00     0.006 C 
BRANCH  10  11
ATOM     11  C   UNL     1      -8.103 -64.584   1.097  1.00  0.00     0.053 C 
BRANCH  11  12
ATOM     12  C   UNL     1      -8.952 -63.525   0.467  1.00  0.00     0.041 C 
ATOM     13  O   UNL     1      -9.157 -63.535  -0.775  1.00  0.00    -0.550 OA
ATOM     14  O   UNL     1      -9.557 -62.556   1.258  1.00  0.00    -0.550 OA
ENDBRANCH  11  12
ENDBRANCH  10  11
ENDBRANCH   9  10
ENDBRANCH   8   9
ENDBRANCH   1   8
TORSDOF 9
ENDMDL
