MODEL 1
REMARK VINA RESULT:    -6.955      0.000      0.000
REMARK INTER + INTRA:         -10.605
REMARK INTER:                  -9.598
REMARK INTRA:                  -1.007
REMARK UNBOUND:                -1.007
REMARK SMILES O=C([O-])[C@H]1O[C@H](Oc2cc3oc(-c4ccccc4)cc(=O)c3c(O)c2O)[C@@H](O)[C@H](O)[C@@H]1O
REMARK SMILES IDX 7 1 6 2 4 3 31 4 5 5 29 6 27 7 2 8 1 9 3 10 32 11 30 13
REMARK SMILES IDX 28 15 8 17 25 18 9 19 23 20 10 21 22 22 11 23 20 24 12 25
REMARK SMILES IDX 19 26 21 27 26 28 24 30 13 32 14 33 18 34 15 35 17 36 16 37
REMARK H PARENT 32 12 30 14 28 16 26 29 24 31
REMARK Flexibility Score: inf
ROOT
ATOM      1  O   UNL     1      42.312  -8.436  39.960  1.00  0.00    -0.458 OA
ENDROOT
BRANCH   1   2
ATOM      2  C   UNL     1      41.530  -8.375  41.160  1.00  0.00     0.339 C 
ATOM      3  C   UNL     1      42.158  -6.150  41.568  1.00  0.00     0.199 C 
ATOM      4  C   UNL     1      40.731  -5.606  41.345  1.00  0.00     0.180 C 
ATOM      5  O   UNL     1      42.119  -7.471  42.083  1.00  0.00    -0.328 OA
ATOM      6  C   UNL     1      39.957  -6.534  40.390  1.00  0.00     0.181 C 
ATOM      7  C   UNL     1      40.058  -7.991  40.869  1.00  0.00     0.214 C 
BRANCH   3   8
ATOM      8  C   UNL     1      42.905  -5.285  42.540  1.00  0.00     0.073 C 
ATOM      9  O   UNL     1      42.377  -4.239  43.000  1.00  0.00    -0.547 OA
ATOM     10  O   UNL     1      44.176  -5.652  42.961  1.00  0.00    -0.547 OA
ENDBRANCH   3   8
BRANCH   4  11
ATOM     11  O   UNL     1      40.792  -4.305  40.821  1.00  0.00    -0.387 OA
ATOM     12  H   UNL     1      41.595  -3.876  41.219  1.00  0.00     0.211 HD
ENDBRANCH   4  11
BRANCH   6  13
ATOM     13  O   UNL     1      40.470  -6.437  39.084  1.00  0.00    -0.387 OA
ATOM     14  H   UNL     1      39.900  -5.790  38.594  1.00  0.00     0.211 HD
ENDBRANCH   6  13
BRANCH   7  15
ATOM     15  O   UNL     1      39.288  -8.146  42.034  1.00  0.00    -0.384 OA
ATOM     16  H   UNL     1      38.716  -8.945  41.896  1.00  0.00     0.211 HD
ENDBRANCH   7  15
ENDBRANCH   1   2
BRANCH   1  17
ATOM     17  C   UNL     1      43.581  -9.022  39.819  1.00  0.00     0.172 A 
ATOM     18  C   UNL     1      44.667  -8.174  39.561  1.00  0.00     0.201 A 
ATOM     19  C   UNL     1      43.788 -10.406  39.932  1.00  0.00     0.098 A 
ATOM     20  C   UNL     1      45.972  -8.708  39.410  1.00  0.00     0.176 A 
ATOM     21  C   UNL     1      45.063 -10.948  39.777  1.00  0.00     0.146 A 
ATOM     22  C   UNL     1      46.168 -10.107  39.515  1.00  0.00     0.111 A 
ATOM     23  O   UNL     1      45.221 -12.263  39.883  1.00  0.00    -0.456 OA
ATOM     24  C   UNL     1      47.431 -10.722  39.368  1.00  0.00     0.197 A 
ATOM     25  C   UNL     1      46.398 -12.871  39.758  1.00  0.00     0.138 A 
ATOM     26  C   UNL     1      47.543 -12.106  39.489  1.00  0.00     0.100 A 
ATOM     27  O   UNL     1      48.469 -10.047  39.124  1.00  0.00    -0.289 OA
BRANCH  18  28
ATOM     28  O   UNL     1      44.400  -6.805  39.459  1.00  0.00    -0.502 OA
ATOM     29  H   UNL     1      44.466  -6.270  38.606  1.00  0.00     0.293 HD
ENDBRANCH  18  28
BRANCH  20  30
ATOM     30  O   UNL     1      47.074  -7.883  39.158  1.00  0.00    -0.504 OA
ATOM     31  H   UNL     1      47.871  -7.784  39.771  1.00  0.00     0.293 HD
ENDBRANCH  20  30
BRANCH  25  32
ATOM     32  C   UNL     1      46.458 -14.348  39.891  1.00  0.00     0.017 A 
ATOM     33  C   UNL     1      46.675 -15.138  38.747  1.00  0.00     0.012 A 
ATOM     34  C   UNL     1      46.277 -14.985  41.134  1.00  0.00     0.012 A 
ATOM     35  C   UNL     1      46.731 -16.531  38.850  1.00  0.00     0.001 A 
ATOM     36  C   UNL     1      46.330 -16.379  41.229  1.00  0.00     0.001 A 
ATOM     37  C   UNL     1      46.560 -17.151  40.089  1.00  0.00     0.000 A 
ENDBRANCH  25  32
ENDBRANCH   1  17
TORSDOF 9
ENDMDL
MODEL 2
REMARK VINA RESULT:    -6.714      2.067      2.443
REMARK INTER + INTRA:         -10.272
REMARK INTER:                  -9.147
REMARK INTRA:                  -1.125
REMARK UNBOUND:                -1.007
REMARK SMILES O=C([O-])[C@H]1O[C@H](Oc2cc3oc(-c4ccccc4)cc(=O)c3c(O)c2O)[C@@H](O)[C@H](O)[C@@H]1O
REMARK SMILES IDX 7 1 6 2 4 3 31 4 5 5 29 6 27 7 2 8 1 9 3 10 32 11 30 13
REMARK SMILES IDX 28 15 8 17 25 18 9 19 23 20 10 21 22 22 11 23 20 24 12 25
REMARK SMILES IDX 19 26 21 27 26 28 24 30 13 32 14 33 18 34 15 35 17 36 16 37
REMARK H PARENT 32 12 30 14 28 16 26 29 24 31
REMARK Flexibility Score: inf
ROOT
ATOM      1  O   UNL     1      42.631  -8.784  40.521  1.00  0.00    -0.458 OA
ENDROOT
BRANCH   1   2
ATOM      2  C   UNL     1      41.740  -8.601  41.629  1.00  0.00     0.339 C 
ATOM      3  C   UNL     1      42.353  -6.349  41.874  1.00  0.00     0.199 C 
ATOM      4  C   UNL     1      40.961  -5.825  41.463  1.00  0.00     0.180 C 
ATOM      5  O   UNL     1      42.250  -7.612  42.511  1.00  0.00    -0.328 OA
ATOM      6  C   UNL     1      40.269  -6.842  40.534  1.00  0.00     0.181 C 
ATOM      7  C   UNL     1      40.306  -8.244  41.163  1.00  0.00     0.214 C 
BRANCH   3   8
ATOM      8  C   UNL     1      43.016  -5.394  42.823  1.00  0.00     0.073 C 
ATOM      9  O   UNL     1      42.454  -4.310  43.134  1.00  0.00    -0.547 OA
ATOM     10  O   UNL     1      44.243  -5.715  43.387  1.00  0.00    -0.547 OA
ENDBRANCH   3   8
BRANCH   4  11
ATOM     11  O   UNL     1      41.088  -4.583  40.821  1.00  0.00    -0.387 OA
ATOM     12  H   UNL     1      41.983  -4.228  41.063  1.00  0.00     0.211 HD
ENDBRANCH   4  11
BRANCH   6  13
ATOM     13  O   UNL     1      40.905  -6.877  39.281  1.00  0.00    -0.387 OA
ATOM     14  H   UNL     1      41.767  -7.353  39.404  1.00  0.00     0.211 HD
ENDBRANCH   6  13
BRANCH   7  15
ATOM     15  O   UNL     1      39.428  -8.280  42.259  1.00  0.00    -0.384 OA
ATOM     16  H   UNL     1      39.978  -8.140  43.073  1.00  0.00     0.211 HD
ENDBRANCH   7  15
ENDBRANCH   1   2
BRANCH   1  17
ATOM     17  C   UNL     1      44.020  -8.980  40.590  1.00  0.00     0.172 A 
ATOM     18  C   UNL     1      44.844  -8.075  39.908  1.00  0.00     0.201 A 
ATOM     19  C   UNL     1      44.595 -10.037  41.315  1.00  0.00     0.098 A 
ATOM     20  C   UNL     1      46.254  -8.223  39.942  1.00  0.00     0.176 A 
ATOM     21  C   UNL     1      45.979 -10.202  41.352  1.00  0.00     0.146 A 
ATOM     22  C   UNL     1      46.823  -9.298  40.668  1.00  0.00     0.111 A 
ATOM     23  O   UNL     1      46.489 -11.218  42.040  1.00  0.00    -0.456 OA
ATOM     24  C   UNL     1      48.215  -9.524  40.744  1.00  0.00     0.197 A 
ATOM     25  C   UNL     1      47.795 -11.452  42.139  1.00  0.00     0.138 A 
ATOM     26  C   UNL     1      48.699 -10.605  41.482  1.00  0.00     0.100 A 
ATOM     27  O   UNL     1      49.039  -8.772  40.157  1.00  0.00    -0.289 OA
BRANCH  18  28
ATOM     28  O   UNL     1      44.215  -7.044  39.204  1.00  0.00    -0.502 OA
ATOM     29  H   UNL     1      43.299  -6.677  39.418  1.00  0.00     0.293 HD
ENDBRANCH  18  28
BRANCH  20  30
ATOM     30  O   UNL     1      47.098  -7.329  39.275  1.00  0.00    -0.504 OA
ATOM     31  H   UNL     1      47.712  -7.577  38.512  1.00  0.00     0.293 HD
ENDBRANCH  20  30
BRANCH  25  32
ATOM     32  C   UNL     1      48.254 -12.619  42.933  1.00  0.00     0.017 A 
ATOM     33  C   UNL     1      47.483 -13.796  42.943  1.00  0.00     0.012 A 
ATOM     34  C   UNL     1      49.434 -12.572  43.702  1.00  0.00     0.012 A 
ATOM     35  C   UNL     1      47.895 -14.905  43.687  1.00  0.00     0.001 A 
ATOM     36  C   UNL     1      49.838 -13.683  44.447  1.00  0.00     0.001 A 
ATOM     37  C   UNL     1      49.071 -14.850  44.436  1.00  0.00     0.000 A 
ENDBRANCH  25  32
ENDBRANCH   1  17
TORSDOF 9
ENDMDL
MODEL 3
REMARK VINA RESULT:    -6.143      2.691      4.935
REMARK INTER + INTRA:          -9.484
REMARK INTER:                  -8.433
REMARK INTRA:                  -1.051
REMARK UNBOUND:                -1.007
REMARK SMILES O=C([O-])[C@H]1O[C@H](Oc2cc3oc(-c4ccccc4)cc(=O)c3c(O)c2O)[C@@H](O)[C@H](O)[C@@H]1O
REMARK SMILES IDX 7 1 6 2 4 3 31 4 5 5 29 6 27 7 2 8 1 9 3 10 32 11 30 13
REMARK SMILES IDX 28 15 8 17 25 18 9 19 23 20 10 21 22 22 11 23 20 24 12 25
REMARK SMILES IDX 19 26 21 27 26 28 24 30 13 32 14 33 18 34 15 35 17 36 16 37
REMARK H PARENT 32 12 30 14 28 16 26 29 24 31
REMARK Flexibility Score: inf
ROOT
ATOM      1  O   UNL     1      39.096  -8.109  40.724  1.00  0.00    -0.458 OA
ENDROOT
BRANCH   1   2
ATOM      2  C   UNL     1      38.277  -8.192  41.897  1.00  0.00     0.339 C 
ATOM      3  C   UNL     1      36.303  -7.949  40.649  1.00  0.00     0.199 C 
ATOM      4  C   UNL     1      35.817  -9.381  40.959  1.00  0.00     0.180 C 
ATOM      5  O   UNL     1      37.086  -7.439  41.717  1.00  0.00    -0.328 OA
ATOM      6  C   UNL     1      37.025 -10.299  41.228  1.00  0.00     0.181 C 
ATOM      7  C   UNL     1      37.954  -9.660  42.272  1.00  0.00     0.214 C 
BRANCH   3   8
ATOM      8  C   UNL     1      35.135  -7.031  40.439  1.00  0.00     0.073 C 
ATOM      9  O   UNL     1      34.648  -6.387  41.406  1.00  0.00    -0.547 OA
ATOM     10  O   UNL     1      34.602  -6.864  39.168  1.00  0.00    -0.547 OA
ENDBRANCH   3   8
BRANCH   4  11
ATOM     11  O   UNL     1      35.059  -9.871  39.884  1.00  0.00    -0.387 OA
ATOM     12  H   UNL     1      34.977  -9.127  39.231  1.00  0.00     0.211 HD
ENDBRANCH   4  11
BRANCH   6  13
ATOM     13  O   UNL     1      37.744 -10.529  40.042  1.00  0.00    -0.387 OA
ATOM     14  H   UNL     1      37.296 -10.010  39.325  1.00  0.00     0.211 HD
ENDBRANCH   6  13
BRANCH   7  15
ATOM     15  O   UNL     1      37.332  -9.703  43.530  1.00  0.00    -0.384 OA
ATOM     16  H   UNL     1      36.406  -9.369  43.404  1.00  0.00     0.211 HD
ENDBRANCH   7  15
ENDBRANCH   1   2
BRANCH   1  17
ATOM     17  C   UNL     1      40.496  -7.987  40.690  1.00  0.00     0.172 A 
ATOM     18  C   UNL     1      41.042  -6.699  40.776  1.00  0.00     0.201 A 
ATOM     19  C   UNL     1      41.346  -9.100  40.579  1.00  0.00     0.098 A 
ATOM     20  C   UNL     1      42.448  -6.514  40.748  1.00  0.00     0.176 A 
ATOM     21  C   UNL     1      42.729  -8.934  40.541  1.00  0.00     0.146 A 
ATOM     22  C   UNL     1      43.296  -7.643  40.625  1.00  0.00     0.111 A 
ATOM     23  O   UNL     1      43.503 -10.009  40.427  1.00  0.00    -0.456 OA
ATOM     24  C   UNL     1      44.704  -7.546  40.578  1.00  0.00     0.197 A 
ATOM     25  C   UNL     1      44.832  -9.952  40.389  1.00  0.00     0.138 A 
ATOM     26  C   UNL     1      45.471  -8.705  40.459  1.00  0.00     0.100 A 
ATOM     27  O   UNL     1      45.292  -6.432  40.638  1.00  0.00    -0.289 OA
BRANCH  18  28
ATOM     28  O   UNL     1      40.147  -5.630  40.885  1.00  0.00    -0.502 OA
ATOM     29  H   UNL     1      39.670  -5.200  40.107  1.00  0.00     0.293 HD
ENDBRANCH  18  28
BRANCH  20  30
ATOM     30  O   UNL     1      43.019  -5.240  40.839  1.00  0.00    -0.504 OA
ATOM     31  H   UNL     1      43.927  -4.989  40.475  1.00  0.00     0.293 HD
ENDBRANCH  20  30
BRANCH  25  32
ATOM     32  C   UNL     1      45.598 -11.216  40.256  1.00  0.00     0.017 A 
ATOM     33  C   UNL     1      45.235 -12.145  39.263  1.00  0.00     0.012 A 
ATOM     34  C   UNL     1      46.669 -11.525  41.118  1.00  0.00     0.012 A 
ATOM     35  C   UNL     1      45.940 -13.343  39.124  1.00  0.00     0.001 A 
ATOM     36  C   UNL     1      47.367 -12.727  40.976  1.00  0.00     0.001 A 
ATOM     37  C   UNL     1      47.006 -13.634  39.977  1.00  0.00     0.000 A 
ENDBRANCH  25  32
ENDBRANCH   1  17
TORSDOF 9
ENDMDL
MODEL 4
REMARK VINA RESULT:    -6.140     10.420     14.294
REMARK INTER + INTRA:          -9.480
REMARK INTER:                  -8.141
REMARK INTRA:                  -1.340
REMARK UNBOUND:                -1.007
REMARK SMILES O=C([O-])[C@H]1O[C@H](Oc2cc3oc(-c4ccccc4)cc(=O)c3c(O)c2O)[C@@H](O)[C@H](O)[C@@H]1O
REMARK SMILES IDX 7 1 6 2 4 3 31 4 5 5 29 6 27 7 2 8 1 9 3 10 32 11 30 13
REMARK SMILES IDX 28 15 8 17 25 18 9 19 23 20 10 21 22 22 11 23 20 24 12 25
REMARK SMILES IDX 19 26 21 27 26 28 24 30 13 32 14 33 18 34 15 35 17 36 16 37
REMARK H PARENT 32 12 30 14 28 16 26 29 24 31
REMARK Flexibility Score: inf
ROOT
ATOM      1  O   UNL     1      34.300 -12.458  34.129  1.00  0.00    -0.458 OA
ENDROOT
BRANCH   1   2
ATOM      2  C   UNL     1      35.714 -12.683  34.066  1.00  0.00     0.339 C 
ATOM      3  C   UNL     1      35.430 -14.785  33.059  1.00  0.00     0.199 C 
ATOM      4  C   UNL     1      36.065 -14.339  31.725  1.00  0.00     0.180 C 
ATOM      5  O   UNL     1      35.994 -14.073  34.149  1.00  0.00    -0.328 OA
ATOM      6  C   UNL     1      35.875 -12.822  31.533  1.00  0.00     0.181 C 
ATOM      7  C   UNL     1      36.339 -12.067  32.789  1.00  0.00     0.214 C 
BRANCH   3   8
ATOM      8  C   UNL     1      35.656 -16.251  33.285  1.00  0.00     0.073 C 
ATOM      9  O   UNL     1      35.203 -16.816  34.316  1.00  0.00    -0.547 OA
ATOM     10  O   UNL     1      36.345 -17.001  32.341  1.00  0.00    -0.547 OA
ENDBRANCH   3   8
BRANCH   4  11
ATOM     11  O   UNL     1      35.483 -15.044  30.659  1.00  0.00    -0.387 OA
ATOM     12  H   UNL     1      34.507 -15.078  30.841  1.00  0.00     0.211 HD
ENDBRANCH   4  11
BRANCH   6  13
ATOM     13  O   UNL     1      34.524 -12.522  31.283  1.00  0.00    -0.387 OA
ATOM     14  H   UNL     1      34.334 -12.795  30.348  1.00  0.00     0.211 HD
ENDBRANCH   6  13
BRANCH   7  15
ATOM     15  O   UNL     1      37.741 -12.127  32.870  1.00  0.00    -0.384 OA
ATOM     16  H   UNL     1      37.959 -12.771  33.593  1.00  0.00     0.211 HD
ENDBRANCH   7  15
ENDBRANCH   1   2
BRANCH   1  17
ATOM     17  C   UNL     1      33.660 -11.282  34.552  1.00  0.00     0.172 A 
ATOM     18  C   UNL     1      32.663 -10.746  33.725  1.00  0.00     0.201 A 
ATOM     19  C   UNL     1      33.981 -10.644  35.762  1.00  0.00     0.098 A 
ATOM     20  C   UNL     1      31.982  -9.560  34.101  1.00  0.00     0.176 A 
ATOM     21  C   UNL     1      33.327  -9.473  36.142  1.00  0.00     0.146 A 
ATOM     22  C   UNL     1      32.321  -8.918  35.318  1.00  0.00     0.111 A 
ATOM     23  O   UNL     1      33.662  -8.891  37.288  1.00  0.00    -0.456 OA
ATOM     24  C   UNL     1      31.700  -7.730  35.762  1.00  0.00     0.197 A 
ATOM     25  C   UNL     1      33.090  -7.778  37.738  1.00  0.00     0.138 A 
ATOM     26  C   UNL     1      32.088  -7.161  36.974  1.00  0.00     0.100 A 
ATOM     27  O   UNL     1      30.799  -7.164  35.085  1.00  0.00    -0.289 OA
BRANCH  18  28
ATOM     28  O   UNL     1      32.387 -11.424  32.534  1.00  0.00    -0.502 OA
ATOM     29  H   UNL     1      32.527 -12.413  32.391  1.00  0.00     0.293 HD
ENDBRANCH  18  28
BRANCH  20  30
ATOM     30  O   UNL     1      30.979  -9.008  33.297  1.00  0.00    -0.504 OA
ATOM     31  H   UNL     1      30.980  -9.019  32.287  1.00  0.00     0.293 HD
ENDBRANCH  20  30
BRANCH  25  32
ATOM     32  C   UNL     1      33.545  -7.212  39.032  1.00  0.00     0.017 A 
ATOM     33  C   UNL     1      32.599  -6.685  39.930  1.00  0.00     0.012 A 
ATOM     34  C   UNL     1      34.911  -7.163  39.378  1.00  0.00     0.012 A 
ATOM     35  C   UNL     1      33.006  -6.144  41.152  1.00  0.00     0.001 A 
ATOM     36  C   UNL     1      35.312  -6.616  40.600  1.00  0.00     0.001 A 
ATOM     37  C   UNL     1      34.361  -6.111  41.488  1.00  0.00     0.000 A 
ENDBRANCH  25  32
ENDBRANCH   1  17
TORSDOF 9
ENDMDL
MODEL 5
REMARK VINA RESULT:    -6.070     10.152     14.189
REMARK INTER + INTRA:          -9.384
REMARK INTER:                  -8.054
REMARK INTRA:                  -1.330
REMARK UNBOUND:                -1.007
REMARK SMILES O=C([O-])[C@H]1O[C@H](Oc2cc3oc(-c4ccccc4)cc(=O)c3c(O)c2O)[C@@H](O)[C@H](O)[C@@H]1O
REMARK SMILES IDX 7 1 6 2 4 3 31 4 5 5 29 6 27 7 2 8 1 9 3 10 32 11 30 13
REMARK SMILES IDX 28 15 8 17 25 18 9 19 23 20 10 21 22 22 11 23 20 24 12 25
REMARK SMILES IDX 19 26 21 27 26 28 24 30 13 32 14 33 18 34 15 35 17 36 16 37
REMARK H PARENT 32 12 30 14 28 16 26 29 24 31
REMARK Flexibility Score: inf
ROOT
ATOM      1  O   UNL     1      34.935 -12.443  34.895  1.00  0.00    -0.458 OA
ENDROOT
BRANCH   1   2
ATOM      2  C   UNL     1      34.367 -13.758  34.931  1.00  0.00     0.339 C 
ATOM      3  C   UNL     1      35.093 -14.234  32.750  1.00  0.00     0.199 C 
ATOM      4  C   UNL     1      36.086 -15.320  33.215  1.00  0.00     0.180 C 
ATOM      5  O   UNL     1      33.979 -14.162  33.626  1.00  0.00    -0.328 OA
ATOM      6  C   UNL     1      36.552 -15.026  34.654  1.00  0.00     0.181 C 
ATOM      7  C   UNL     1      35.337 -14.787  35.565  1.00  0.00     0.214 C 
BRANCH   3   8
ATOM      8  C   UNL     1      34.588 -14.538  31.370  1.00  0.00     0.073 C 
ATOM      9  O   UNL     1      34.745 -15.684  30.871  1.00  0.00    -0.547 OA
ATOM     10  O   UNL     1      33.918 -13.562  30.645  1.00  0.00    -0.547 OA
ENDBRANCH   3   8
BRANCH   4  11
ATOM     11  O   UNL     1      37.186 -15.365  32.343  1.00  0.00    -0.387 OA
ATOM     12  H   UNL     1      37.784 -16.085  32.677  1.00  0.00     0.211 HD
ENDBRANCH   4  11
BRANCH   6  13
ATOM     13  O   UNL     1      37.385 -13.894  34.681  1.00  0.00    -0.387 OA
ATOM     14  H   UNL     1      37.153 -13.343  33.890  1.00  0.00     0.211 HD
ENDBRANCH   6  13
BRANCH   7  15
ATOM     15  O   UNL     1      34.669 -16.006  35.770  1.00  0.00    -0.384 OA
ATOM     16  H   UNL     1      34.387 -16.021  36.721  1.00  0.00     0.211 HD
ENDBRANCH   7  15
ENDBRANCH   1   2
BRANCH   1  17
ATOM     17  C   UNL     1      34.260 -11.235  35.138  1.00  0.00     0.172 A 
ATOM     18  C   UNL     1      33.494 -10.693  34.097  1.00  0.00     0.201 A 
ATOM     19  C   UNL     1      34.327 -10.571  36.374  1.00  0.00     0.098 A 
ATOM     20  C   UNL     1      32.790  -9.476  34.285  1.00  0.00     0.176 A 
ATOM     21  C   UNL     1      33.649  -9.370  36.572  1.00  0.00     0.146 A 
ATOM     22  C   UNL     1      32.873  -8.809  35.532  1.00  0.00     0.111 A 
ATOM     23  O   UNL     1      33.741  -8.765  37.752  1.00  0.00    -0.456 OA
ATOM     24  C   UNL     1      32.213  -7.589  35.799  1.00  0.00     0.197 A 
ATOM     25  C   UNL     1      33.125  -7.621  38.037  1.00  0.00     0.138 A 
ATOM     26  C   UNL     1      32.342  -6.996  37.055  1.00  0.00     0.100 A 
ATOM     27  O   UNL     1      31.507  -7.016  34.926  1.00  0.00    -0.289 OA
BRANCH  18  28
ATOM     28  O   UNL     1      33.465 -11.397  32.890  1.00  0.00    -0.502 OA
ATOM     29  H   UNL     1      33.770 -11.028  32.002  1.00  0.00     0.293 HD
ENDBRANCH  18  28
BRANCH  20  30
ATOM     30  O   UNL     1      32.013  -8.917  33.265  1.00  0.00    -0.504 OA
ATOM     31  H   UNL     1      31.089  -9.234  33.005  1.00  0.00     0.293 HD
ENDBRANCH  20  30
BRANCH  25  32
ATOM     32  C   UNL     1      33.301  -7.031  39.387  1.00  0.00     0.017 A 
ATOM     33  C   UNL     1      34.581  -7.005  39.970  1.00  0.00     0.012 A 
ATOM     34  C   UNL     1      32.210  -6.516  40.117  1.00  0.00     0.012 A 
ATOM     35  C   UNL     1      34.768  -6.458  41.243  1.00  0.00     0.001 A 
ATOM     36  C   UNL     1      32.404  -5.974  41.390  1.00  0.00     0.001 A 
ATOM     37  C   UNL     1      33.682  -5.942  41.952  1.00  0.00     0.000 A 
ENDBRANCH  25  32
ENDBRANCH   1  17
TORSDOF 9
ENDMDL
MODEL 6
REMARK VINA RESULT:    -6.007      9.746     11.992
REMARK INTER + INTRA:          -9.296
REMARK INTER:                  -7.894
REMARK INTRA:                  -1.402
REMARK UNBOUND:                -1.007
REMARK SMILES O=C([O-])[C@H]1O[C@H](Oc2cc3oc(-c4ccccc4)cc(=O)c3c(O)c2O)[C@@H](O)[C@H](O)[C@@H]1O
REMARK SMILES IDX 7 1 6 2 4 3 31 4 5 5 29 6 27 7 2 8 1 9 3 10 32 11 30 13
REMARK SMILES IDX 28 15 8 17 25 18 9 19 23 20 10 21 22 22 11 23 20 24 12 25
REMARK SMILES IDX 19 26 21 27 26 28 24 30 13 32 14 33 18 34 15 35 17 36 16 37
REMARK H PARENT 32 12 30 14 28 16 26 29 24 31
REMARK Flexibility Score: inf
ROOT
ATOM      1  O   UNL     1      35.621 -14.152  34.050  1.00  0.00    -0.458 OA
ENDROOT
BRANCH   1   2
ATOM      2  C   UNL     1      36.633 -14.230  33.039  1.00  0.00     0.339 C 
ATOM      3  C   UNL     1      35.218 -15.404  31.579  1.00  0.00     0.199 C 
ATOM      4  C   UNL     1      35.156 -14.249  30.557  1.00  0.00     0.180 C 
ATOM      5  O   UNL     1      36.462 -15.406  32.262  1.00  0.00    -0.328 OA
ATOM      6  C   UNL     1      35.381 -12.902  31.270  1.00  0.00     0.181 C 
ATOM      7  C   UNL     1      36.647 -12.968  32.139  1.00  0.00     0.214 C 
BRANCH   3   8
ATOM      8  C   UNL     1      35.056 -16.726  30.889  1.00  0.00     0.073 C 
ATOM      9  O   UNL     1      33.925 -17.096  30.475  1.00  0.00    -0.547 OA
ATOM     10  O   UNL     1      36.161 -17.539  30.677  1.00  0.00    -0.547 OA
ENDBRANCH   3   8
BRANCH   4  11
ATOM     11  O   UNL     1      33.913 -14.255  29.904  1.00  0.00    -0.387 OA
ATOM     12  H   UNL     1      33.487 -13.380  30.096  1.00  0.00     0.211 HD
ENDBRANCH   4  11
BRANCH   6  13
ATOM     13  O   UNL     1      34.277 -12.582  32.080  1.00  0.00    -0.387 OA
ATOM     14  H   UNL     1      33.875 -11.754  31.710  1.00  0.00     0.211 HD
ENDBRANCH   6  13
BRANCH   7  15
ATOM     15  O   UNL     1      37.777 -12.992  31.305  1.00  0.00    -0.384 OA
ATOM     16  H   UNL     1      38.115 -12.060  31.252  1.00  0.00     0.211 HD
ENDBRANCH   7  15
ENDBRANCH   1   2
BRANCH   1  17
ATOM     17  C   UNL     1      35.800 -13.742  35.382  1.00  0.00     0.172 A 
ATOM     18  C   UNL     1      35.265 -12.503  35.762  1.00  0.00     0.201 A 
ATOM     19  C   UNL     1      36.483 -14.527  36.325  1.00  0.00     0.098 A 
ATOM     20  C   UNL     1      35.414 -12.037  37.093  1.00  0.00     0.176 A 
ATOM     21  C   UNL     1      36.646 -14.079  37.635  1.00  0.00     0.146 A 
ATOM     22  C   UNL     1      36.114 -12.832  38.035  1.00  0.00     0.111 A 
ATOM     23  O   UNL     1      37.305 -14.843  38.500  1.00  0.00    -0.456 OA
ATOM     24  C   UNL     1      36.317 -12.438  39.375  1.00  0.00     0.197 A 
ATOM     25  C   UNL     1      37.505 -14.505  39.771  1.00  0.00     0.138 A 
ATOM     26  C   UNL     1      37.015 -13.278  40.243  1.00  0.00     0.100 A 
ATOM     27  O   UNL     1      35.884 -11.337  39.813  1.00  0.00    -0.289 OA
BRANCH  18  28
ATOM     28  O   UNL     1      34.596 -11.767  34.780  1.00  0.00    -0.502 OA
ATOM     29  H   UNL     1      33.827 -12.114  34.226  1.00  0.00     0.293 HD
ENDBRANCH  18  28
BRANCH  20  30
ATOM     30  O   UNL     1      34.885 -10.808  37.500  1.00  0.00    -0.504 OA
ATOM     31  H   UNL     1      35.429 -10.040  37.867  1.00  0.00     0.293 HD
ENDBRANCH  20  30
BRANCH  25  32
ATOM     32  C   UNL     1      38.258 -15.435  40.648  1.00  0.00     0.017 A 
ATOM     33  C   UNL     1      38.355 -16.794  40.298  1.00  0.00     0.012 A 
ATOM     34  C   UNL     1      38.861 -14.996  41.844  1.00  0.00     0.012 A 
ATOM     35  C   UNL     1      39.056 -17.687  41.112  1.00  0.00     0.001 A 
ATOM     36  C   UNL     1      39.558 -15.896  42.656  1.00  0.00     0.001 A 
ATOM     37  C   UNL     1      39.659 -17.239  42.289  1.00  0.00     0.000 A 
ENDBRANCH  25  32
ENDBRANCH   1  17
TORSDOF 9
ENDMDL
MODEL 7
REMARK VINA RESULT:    -5.948      4.397      8.091
REMARK INTER + INTRA:          -9.215
REMARK INTER:                  -7.931
REMARK INTRA:                  -1.284
REMARK UNBOUND:                -1.007
REMARK SMILES O=C([O-])[C@H]1O[C@H](Oc2cc3oc(-c4ccccc4)cc(=O)c3c(O)c2O)[C@@H](O)[C@H](O)[C@@H]1O
REMARK SMILES IDX 7 1 6 2 4 3 31 4 5 5 29 6 27 7 2 8 1 9 3 10 32 11 30 13
REMARK SMILES IDX 28 15 8 17 25 18 9 19 23 20 10 21 22 22 11 23 20 24 12 25
REMARK SMILES IDX 19 26 21 27 26 28 24 30 13 32 14 33 18 34 15 35 17 36 16 37
REMARK H PARENT 32 12 30 14 28 16 26 29 24 31
REMARK Flexibility Score: inf
ROOT
ATOM      1  O   UNL     1      36.371  -8.041  40.699  1.00  0.00    -0.458 OA
ENDROOT
BRANCH   1   2
ATOM      2  C   UNL     1      35.687  -6.783  40.646  1.00  0.00     0.339 C 
ATOM      3  C   UNL     1      34.303  -7.502  38.892  1.00  0.00     0.199 C 
ATOM      4  C   UNL     1      33.025  -7.460  39.756  1.00  0.00     0.180 C 
ATOM      5  O   UNL     1      35.236  -6.525  39.325  1.00  0.00    -0.328 OA
ATOM      6  C   UNL     1      33.384  -7.678  41.239  1.00  0.00     0.181 C 
ATOM      7  C   UNL     1      34.513  -6.722  41.655  1.00  0.00     0.214 C 
BRANCH   3   8
ATOM      8  C   UNL     1      33.973  -7.236  37.453  1.00  0.00     0.073 C 
ATOM      9  O   UNL     1      34.701  -7.700  36.535  1.00  0.00    -0.547 OA
ATOM     10  O   UNL     1      32.845  -6.498  37.123  1.00  0.00    -0.547 OA
ENDBRANCH   3   8
BRANCH   4  11
ATOM     11  O   UNL     1      32.122  -8.444  39.322  1.00  0.00    -0.387 OA
ATOM     12  H   UNL     1      31.211  -8.064  39.434  1.00  0.00     0.211 HD
ENDBRANCH   4  11
BRANCH   6  13
ATOM     13  O   UNL     1      33.793  -9.005  41.457  1.00  0.00    -0.387 OA
ATOM     14  H   UNL     1      34.588  -8.971  42.049  1.00  0.00     0.211 HD
ENDBRANCH   6  13
BRANCH   7  15
ATOM     15  O   UNL     1      34.008  -5.413  41.718  1.00  0.00    -0.384 OA
ATOM     16  H   UNL     1      33.146  -5.461  42.208  1.00  0.00     0.211 HD
ENDBRANCH   7  15
ENDBRANCH   1   2
BRANCH   1  17
ATOM     17  C   UNL     1      37.594  -8.300  41.340  1.00  0.00     0.172 A 
ATOM     18  C   UNL     1      37.554  -8.872  42.619  1.00  0.00     0.201 A 
ATOM     19  C   UNL     1      38.833  -8.013  40.742  1.00  0.00     0.098 A 
ATOM     20  C   UNL     1      38.757  -9.157  43.314  1.00  0.00     0.176 A 
ATOM     21  C   UNL     1      40.024  -8.279  41.415  1.00  0.00     0.146 A 
ATOM     22  C   UNL     1      40.001  -8.853  42.707  1.00  0.00     0.111 A 
ATOM     23  O   UNL     1      41.177  -7.986  40.824  1.00  0.00    -0.456 OA
ATOM     24  C   UNL     1      41.243  -9.095  43.333  1.00  0.00     0.197 A 
ATOM     25  C   UNL     1      42.363  -8.209  41.383  1.00  0.00     0.138 A 
ATOM     26  C   UNL     1      42.425  -8.770  42.667  1.00  0.00     0.100 A 
ATOM     27  O   UNL     1      41.314  -9.596  44.487  1.00  0.00    -0.289 OA
BRANCH  18  28
ATOM     28  O   UNL     1      36.294  -9.136  43.162  1.00  0.00    -0.502 OA
ATOM     29  H   UNL     1      36.075  -9.930  43.745  1.00  0.00     0.293 HD
ENDBRANCH  18  28
BRANCH  20  30
ATOM     30  O   UNL     1      38.745  -9.733  44.589  1.00  0.00    -0.504 OA
ATOM     31  H   UNL     1      37.986  -9.651  45.250  1.00  0.00     0.293 HD
ENDBRANCH  20  30
BRANCH  25  32
ATOM     32  C   UNL     1      43.589  -7.840  40.632  1.00  0.00     0.017 A 
ATOM     33  C   UNL     1      44.444  -8.852  40.160  1.00  0.00     0.012 A 
ATOM     34  C   UNL     1      43.936  -6.494  40.401  1.00  0.00     0.012 A 
ATOM     35  C   UNL     1      45.605  -8.527  39.454  1.00  0.00     0.001 A 
ATOM     36  C   UNL     1      45.101  -6.174  39.698  1.00  0.00     0.001 A 
ATOM     37  C   UNL     1      45.933  -7.190  39.222  1.00  0.00     0.000 A 
ENDBRANCH  25  32
ENDBRANCH   1  17
TORSDOF 9
ENDMDL
MODEL 8
REMARK VINA RESULT:    -5.929      3.627      8.553
REMARK INTER + INTRA:          -9.188
REMARK INTER:                  -7.849
REMARK INTRA:                  -1.340
REMARK UNBOUND:                -1.007
REMARK SMILES O=C([O-])[C@H]1O[C@H](Oc2cc3oc(-c4ccccc4)cc(=O)c3c(O)c2O)[C@@H](O)[C@H](O)[C@@H]1O
REMARK SMILES IDX 7 1 6 2 4 3 31 4 5 5 29 6 27 7 2 8 1 9 3 10 32 11 30 13
REMARK SMILES IDX 28 15 8 17 25 18 9 19 23 20 10 21 22 22 11 23 20 24 12 25
REMARK SMILES IDX 19 26 21 27 26 28 24 30 13 32 14 33 18 34 15 35 17 36 16 37
REMARK H PARENT 32 12 30 14 28 16 26 29 24 31
REMARK Flexibility Score: inf
ROOT
ATOM      1  O   UNL     1      44.691  -9.137  40.858  1.00  0.00    -0.458 OA
ENDROOT
BRANCH   1   2
ATOM      2  C   UNL     1      45.725  -8.145  40.860  1.00  0.00     0.339 C 
ATOM      3  C   UNL     1      47.389  -9.746  41.287  1.00  0.00     0.199 C 
ATOM      4  C   UNL     1      48.060  -9.556  39.911  1.00  0.00     0.180 C 
ATOM      5  O   UNL     1      46.782  -8.540  41.723  1.00  0.00    -0.328 OA
ATOM      6  C   UNL     1      47.021  -9.074  38.881  1.00  0.00     0.181 C 
ATOM      7  C   UNL     1      46.253  -7.861  39.431  1.00  0.00     0.214 C 
BRANCH   3   8
ATOM      8  C   UNL     1      48.401 -10.162  42.314  1.00  0.00     0.073 C 
ATOM      9  O   UNL     1      48.033 -10.524  43.463  1.00  0.00    -0.547 OA
ATOM     10  O   UNL     1      49.751 -10.179  41.991  1.00  0.00    -0.547 OA
ENDBRANCH   3   8
BRANCH   4  11
ATOM     11  O   UNL     1      48.641 -10.764  39.492  1.00  0.00    -0.387 OA
ATOM     12  H   UNL     1      48.985 -11.212  40.309  1.00  0.00     0.211 HD
ENDBRANCH   4  11
BRANCH   6  13
ATOM     13  O   UNL     1      46.112 -10.103  38.578  1.00  0.00    -0.387 OA
ATOM     14  H   UNL     1      45.267  -9.669  38.289  1.00  0.00     0.211 HD
ENDBRANCH   6  13
BRANCH   7  15
ATOM     15  O   UNL     1      47.108  -6.747  39.453  1.00  0.00    -0.384 OA
ATOM     16  H   UNL     1      47.148  -6.398  38.525  1.00  0.00     0.211 HD
ENDBRANCH   7  15
ENDBRANCH   1   2
BRANCH   1  17
ATOM     17  C   UNL     1      43.526  -9.129  41.644  1.00  0.00     0.172 A 
ATOM     18  C   UNL     1      43.629  -9.568  42.971  1.00  0.00     0.201 A 
ATOM     19  C   UNL     1      42.285  -8.697  41.145  1.00  0.00     0.098 A 
ATOM     20  C   UNL     1      42.486  -9.582  43.812  1.00  0.00     0.176 A 
ATOM     21  C   UNL     1      41.151  -8.713  41.956  1.00  0.00     0.146 A 
ATOM     22  C   UNL     1      41.238  -9.154  43.296  1.00  0.00     0.111 A 
ATOM     23  O   UNL     1      39.992  -8.306  41.449  1.00  0.00    -0.456 OA
ATOM     24  C   UNL     1      40.051  -9.147  44.060  1.00  0.00     0.197 A 
ATOM     25  C   UNL     1      38.859  -8.278  42.146  1.00  0.00     0.138 A 
ATOM     26  C   UNL     1      38.860  -8.708  43.481  1.00  0.00     0.100 A 
ATOM     27  O   UNL     1      40.036  -9.532  45.261  1.00  0.00    -0.289 OA
BRANCH  18  28
ATOM     28  O   UNL     1      44.888  -9.986  43.411  1.00  0.00    -0.502 OA
ATOM     29  H   UNL     1      45.090 -10.899  43.791  1.00  0.00     0.293 HD
ENDBRANCH  18  28
BRANCH  20  30
ATOM     30  O   UNL     1      42.563 -10.009  45.141  1.00  0.00    -0.504 OA
ATOM     31  H   UNL     1      42.372  -9.427  45.945  1.00  0.00     0.293 HD
ENDBRANCH  20  30
BRANCH  25  32
ATOM     32  C   UNL     1      37.620  -7.807  41.478  1.00  0.00     0.017 A 
ATOM     33  C   UNL     1      37.715  -6.944  40.371  1.00  0.00     0.012 A 
ATOM     34  C   UNL     1      36.343  -8.181  41.941  1.00  0.00     0.012 A 
ATOM     35  C   UNL     1      36.562  -6.485  39.730  1.00  0.00     0.001 A 
ATOM     36  C   UNL     1      35.193  -7.715  41.298  1.00  0.00     0.001 A 
ATOM     37  C   UNL     1      35.302  -6.871  40.192  1.00  0.00     0.000 A 
ENDBRANCH  25  32
ENDBRANCH   1  17
TORSDOF 9
ENDMDL
MODEL 9
REMARK VINA RESULT:    -5.903      9.859     11.722
REMARK INTER + INTRA:          -9.154
REMARK INTER:                  -8.078
REMARK INTRA:                  -1.076
REMARK UNBOUND:                -1.007
REMARK SMILES O=C([O-])[C@H]1O[C@H](Oc2cc3oc(-c4ccccc4)cc(=O)c3c(O)c2O)[C@@H](O)[C@H](O)[C@@H]1O
REMARK SMILES IDX 7 1 6 2 4 3 31 4 5 5 29 6 27 7 2 8 1 9 3 10 32 11 30 13
REMARK SMILES IDX 28 15 8 17 25 18 9 19 23 20 10 21 22 22 11 23 20 24 12 25
REMARK SMILES IDX 19 26 21 27 26 28 24 30 13 32 14 33 18 34 15 35 17 36 16 37
REMARK H PARENT 32 12 30 14 28 16 26 29 24 31
REMARK Flexibility Score: inf
ROOT
ATOM      1  O   UNL     1      33.475  -9.498  36.703  1.00  0.00    -0.458 OA
ENDROOT
BRANCH   1   2
ATOM      2  C   UNL     1      34.000  -8.171  36.832  1.00  0.00     0.339 C 
ATOM      3  C   UNL     1      31.904  -7.200  36.417  1.00  0.00     0.199 C 
ATOM      4  C   UNL     1      31.781  -6.626  37.844  1.00  0.00     0.180 C 
ATOM      5  O   UNL     1      33.263  -7.271  36.018  1.00  0.00    -0.328 OA
ATOM      6  C   UNL     1      32.587  -7.491  38.831  1.00  0.00     0.181 C 
ATOM      7  C   UNL     1      34.017  -7.698  38.307  1.00  0.00     0.214 C 
BRANCH   3   8
ATOM      8  C   UNL     1      31.168  -6.335  35.437  1.00  0.00     0.073 C 
ATOM      9  O   UNL     1      30.785  -6.805  34.333  1.00  0.00    -0.547 OA
ATOM     10  O   UNL     1      30.879  -5.015  35.755  1.00  0.00    -0.547 OA
ENDBRANCH   3   8
BRANCH   4  11
ATOM     11  O   UNL     1      30.430  -6.579  38.225  1.00  0.00    -0.387 OA
ATOM     12  H   UNL     1      30.275  -7.359  38.820  1.00  0.00     0.211 HD
ENDBRANCH   4  11
BRANCH   6  13
ATOM     13  O   UNL     1      31.970  -8.742  39.009  1.00  0.00    -0.387 OA
ATOM     14  H   UNL     1      31.633  -8.770  39.941  1.00  0.00     0.211 HD
ENDBRANCH   6  13
BRANCH   7  15
ATOM     15  O   UNL     1      34.725  -6.489  38.411  1.00  0.00    -0.384 OA
ATOM     16  H   UNL     1      34.752  -6.094  37.501  1.00  0.00     0.211 HD
ENDBRANCH   7  15
ENDBRANCH   1   2
BRANCH   1  17
ATOM     17  C   UNL     1      34.210 -10.663  36.426  1.00  0.00     0.172 A 
ATOM     18  C   UNL     1      34.743 -11.374  37.510  1.00  0.00     0.201 A 
ATOM     19  C   UNL     1      34.415 -11.129  35.116  1.00  0.00     0.098 A 
ATOM     20  C   UNL     1      35.493 -12.558  37.291  1.00  0.00     0.176 A 
ATOM     21  C   UNL     1      35.157 -12.286  34.884  1.00  0.00     0.146 A 
ATOM     22  C   UNL     1      35.703 -13.014  35.966  1.00  0.00     0.111 A 
ATOM     23  O   UNL     1      35.339 -12.694  33.632  1.00  0.00    -0.456 OA
ATOM     24  C   UNL     1      36.445 -14.175  35.659  1.00  0.00     0.197 A 
ATOM     25  C   UNL     1      36.025 -13.788  33.312  1.00  0.00     0.138 A 
ATOM     26  C   UNL     1      36.605 -14.560  34.328  1.00  0.00     0.100 A 
ATOM     27  O   UNL     1      36.974 -14.878  36.563  1.00  0.00    -0.289 OA
BRANCH  18  28
ATOM     28  O   UNL     1      34.506 -10.862  38.789  1.00  0.00    -0.502 OA
ATOM     29  H   UNL     1      33.641 -10.967  39.298  1.00  0.00     0.293 HD
ENDBRANCH  18  28
BRANCH  20  30
ATOM     30  O   UNL     1      36.030 -13.289  38.355  1.00  0.00    -0.504 OA
ATOM     31  H   UNL     1      36.126 -14.295  38.373  1.00  0.00     0.293 HD
ENDBRANCH  20  30
BRANCH  25  32
ATOM     32  C   UNL     1      36.168 -14.148  31.879  1.00  0.00     0.017 A 
ATOM     33  C   UNL     1      35.478 -13.404  30.905  1.00  0.00     0.012 A 
ATOM     34  C   UNL     1      36.962 -15.237  31.467  1.00  0.00     0.012 A 
ATOM     35  C   UNL     1      35.595 -13.728  29.551  1.00  0.00     0.001 A 
ATOM     36  C   UNL     1      37.072 -15.559  30.111  1.00  0.00     0.001 A 
ATOM     37  C   UNL     1      36.392 -14.803  29.154  1.00  0.00     0.000 A 
ENDBRANCH  25  32
ENDBRANCH   1  17
TORSDOF 9
ENDMDL
