MODEL 1
REMARK VINA RESULT:    -3.191      0.000      0.000
REMARK INTER + INTRA:          -5.819
REMARK INTER:                  -4.870
REMARK INTRA:                  -0.949
REMARK UNBOUND:                -0.949
REMARK SMILES CCCCCCCCCCC(=O)[O-]
REMARK SMILES IDX 7 1 8 2 9 3 10 4 11 5 12 6 13 7 6 8 5 9 4 10 3 11 2 12 1 13
REMARK H PARENT
REMARK Flexibility Score: inf
ROOT
ATOM      1  C   UNL     1      58.330  34.817  16.218  1.00  0.00     0.000 C 
ENDROOT
BRANCH   1   2
ATOM      2  C   UNL     1      57.411  34.199  15.152  1.00  0.00     0.000 C 
BRANCH   2   3
ATOM      3  C   UNL     1      56.539  35.246  14.444  1.00  0.00     0.006 C 
BRANCH   3   4
ATOM      4  C   UNL     1      56.503  35.054  12.922  1.00  0.00     0.053 C 
BRANCH   4   5
ATOM      5  C   UNL     1      55.890  36.247  12.260  1.00  0.00     0.041 C 
ATOM      6  O   UNL     1      56.481  36.817  11.305  1.00  0.00    -0.550 OA
ATOM      7  O   UNL     1      54.688  36.763  12.729  1.00  0.00    -0.550 OA
ENDBRANCH   4   5
ENDBRANCH   3   4
ENDBRANCH   2   3
ENDBRANCH   1   2
BRANCH   1   8
ATOM      8  C   UNL     1      59.745  34.233  16.129  1.00  0.00     0.000 C 
BRANCH   8   9
ATOM      9  C   UNL     1      59.979  33.559  14.771  1.00  0.00    -0.000 C 
BRANCH   9  10
ATOM     10  C   UNL     1      60.788  34.468  13.838  1.00  0.00    -0.000 C 
BRANCH  10  11
ATOM     11  C   UNL     1      60.349  34.285  12.377  1.00  0.00    -0.000 C 
BRANCH  11  12
ATOM     12  C   UNL     1      59.911  32.844  12.069  1.00  0.00    -0.003 C 
ATOM     13  C   UNL     1      58.634  32.780  11.232  1.00  0.00     0.004 C 
ENDBRANCH  11  12
ENDBRANCH  10  11
ENDBRANCH   9  10
ENDBRANCH   8   9
ENDBRANCH   1   8
TORSDOF 9
ENDMDL
MODEL 2
REMARK VINA RESULT:    -3.165     13.644     15.827
REMARK INTER + INTRA:          -5.779
REMARK INTER:                  -5.267
REMARK INTRA:                  -0.512
REMARK UNBOUND:                -0.949
REMARK SMILES CCCCCCCCCCC(=O)[O-]
REMARK SMILES IDX 7 1 8 2 9 3 10 4 11 5 12 6 13 7 6 8 5 9 4 10 3 11 2 12 1 13
REMARK H PARENT
REMARK Flexibility Score: inf
ROOT
ATOM      1  C   UNL     1      50.001  48.752  13.733  1.00  0.00     0.000 C 
ENDROOT
BRANCH   1   2
ATOM      2  C   UNL     1      49.748  50.125  13.091  1.00  0.00     0.000 C 
BRANCH   2   3
ATOM      3  C   UNL     1      50.951  50.629  12.280  1.00  0.00     0.006 C 
BRANCH   3   4
ATOM      4  C   UNL     1      50.555  51.125  10.883  1.00  0.00     0.053 C 
BRANCH   4   5
ATOM      5  C   UNL     1      50.926  50.112   9.845  1.00  0.00     0.041 C 
ATOM      6  O   UNL     1      52.087  49.623   9.823  1.00  0.00    -0.550 OA
ATOM      7  O   UNL     1      50.007  49.745   8.870  1.00  0.00    -0.550 OA
ENDBRANCH   4   5
ENDBRANCH   3   4
ENDBRANCH   2   3
ENDBRANCH   1   2
BRANCH   1   8
ATOM      8  C   UNL     1      51.394  48.225  13.371  1.00  0.00     0.000 C 
BRANCH   8   9
ATOM      9  C   UNL     1      51.763  47.008  14.227  1.00  0.00    -0.000 C 
BRANCH   9  10
ATOM     10  C   UNL     1      50.780  45.853  13.995  1.00  0.00    -0.000 C 
BRANCH  10  11
ATOM     11  C   UNL     1      50.222  45.331  15.328  1.00  0.00    -0.000 C 
BRANCH  11  12
ATOM     12  C   UNL     1      48.842  44.674  15.173  1.00  0.00    -0.003 C 
ATOM     13  C   UNL     1      48.764  43.298  15.834  1.00  0.00     0.004 C 
ENDBRANCH  11  12
ENDBRANCH  10  11
ENDBRANCH   9  10
ENDBRANCH   8   9
ENDBRANCH   1   8
TORSDOF 9
ENDMDL
MODEL 3
REMARK VINA RESULT:    -3.141      1.013      3.092
REMARK INTER + INTRA:          -5.742
REMARK INTER:                  -4.528
REMARK INTRA:                  -1.213
REMARK UNBOUND:                -0.949
REMARK SMILES CCCCCCCCCCC(=O)[O-]
REMARK SMILES IDX 7 1 8 2 9 3 10 4 11 5 12 6 13 7 6 8 5 9 4 10 3 11 2 12 1 13
REMARK H PARENT
REMARK Flexibility Score: inf
ROOT
ATOM      1  C   UNL     1      59.693  33.187  11.879  1.00  0.00     0.000 C 
ENDROOT
BRANCH   1   2
ATOM      2  C   UNL     1      58.193  33.195  12.211  1.00  0.00     0.000 C 
BRANCH   2   3
ATOM      3  C   UNL     1      57.603  34.612  12.252  1.00  0.00     0.006 C 
BRANCH   3   4
ATOM      4  C   UNL     1      56.342  34.702  13.122  1.00  0.00     0.053 C 
BRANCH   4   5
ATOM      5  C   UNL     1      55.774  36.086  13.074  1.00  0.00     0.041 C 
ATOM      6  O   UNL     1      55.346  36.559  11.988  1.00  0.00    -0.550 OA
ATOM      7  O   UNL     1      55.762  36.873  14.219  1.00  0.00    -0.550 OA
ENDBRANCH   4   5
ENDBRANCH   3   4
ENDBRANCH   2   3
ENDBRANCH   1   2
BRANCH   1   8
ATOM      8  C   UNL     1      60.393  34.418  12.470  1.00  0.00     0.000 C 
BRANCH   8   9
ATOM      9  C   UNL     1      61.250  34.035  13.682  1.00  0.00    -0.000 C 
BRANCH   9  10
ATOM     10  C   UNL     1      60.518  34.348  14.994  1.00  0.00    -0.000 C 
BRANCH  10  11
ATOM     11  C   UNL     1      59.857  33.086  15.568  1.00  0.00    -0.000 C 
BRANCH  11  12
ATOM     12  C   UNL     1      58.394  33.320  15.976  1.00  0.00    -0.003 C 
ATOM     13  C   UNL     1      58.106  34.777  16.337  1.00  0.00     0.004 C 
ENDBRANCH  11  12
ENDBRANCH  10  11
ENDBRANCH   9  10
ENDBRANCH   8   9
ENDBRANCH   1   8
TORSDOF 9
ENDMDL
MODEL 4
REMARK VINA RESULT:    -3.129     13.489     14.503
REMARK INTER + INTRA:          -5.725
REMARK INTER:                  -5.244
REMARK INTRA:                  -0.481
REMARK UNBOUND:                -0.949
REMARK SMILES CCCCCCCCCCC(=O)[O-]
REMARK SMILES IDX 7 1 8 2 9 3 10 4 11 5 12 6 13 7 6 8 5 9 4 10 3 11 2 12 1 13
REMARK H PARENT
REMARK Flexibility Score: inf
ROOT
ATOM      1  C   UNL     1      50.081  45.062  14.537  1.00  0.00     0.000 C 
ENDROOT
BRANCH   1   2
ATOM      2  C   UNL     1      49.744  46.496  14.974  1.00  0.00     0.000 C 
BRANCH   2   3
ATOM      3  C   UNL     1      50.715  47.535  14.393  1.00  0.00     0.006 C 
BRANCH   3   4
ATOM      4  C   UNL     1      51.664  46.937  13.347  1.00  0.00     0.053 C 
BRANCH   4   5
ATOM      5  C   UNL     1      52.436  48.021  12.663  1.00  0.00     0.041 C 
ATOM      6  O   UNL     1      53.633  48.246  12.983  1.00  0.00    -0.550 OA
ATOM      7  O   UNL     1      51.820  48.817  11.705  1.00  0.00    -0.550 OA
ENDBRANCH   4   5
ENDBRANCH   3   4
ENDBRANCH   2   3
ENDBRANCH   1   2
BRANCH   1   8
ATOM      8  C   UNL     1      49.069  44.062  15.109  1.00  0.00     0.000 C 
BRANCH   8   9
ATOM      9  C   UNL     1      47.757  44.759  15.485  1.00  0.00    -0.000 C 
BRANCH   9  10
ATOM     10  C   UNL     1      46.563  44.101  14.782  1.00  0.00    -0.000 C 
BRANCH  10  11
ATOM     11  C   UNL     1      46.838  42.614  14.510  1.00  0.00    -0.000 C 
BRANCH  11  12
ATOM     12  C   UNL     1      45.784  41.693  15.146  1.00  0.00    -0.003 C 
ATOM     13  C   UNL     1      46.221  40.229  15.178  1.00  0.00     0.004 C 
ENDBRANCH  11  12
ENDBRANCH  10  11
ENDBRANCH   9  10
ENDBRANCH   8   9
ENDBRANCH   1   8
TORSDOF 9
ENDMDL
MODEL 5
REMARK VINA RESULT:    -3.107      2.588      5.353
REMARK INTER + INTRA:          -5.691
REMARK INTER:                  -4.469
REMARK INTRA:                  -1.222
REMARK UNBOUND:                -0.949
REMARK SMILES CCCCCCCCCCC(=O)[O-]
REMARK SMILES IDX 7 1 8 2 9 3 10 4 11 5 12 6 13 7 6 8 5 9 4 10 3 11 2 12 1 13
REMARK H PARENT
REMARK Flexibility Score: inf
ROOT
ATOM      1  C   UNL     1      56.293  34.065  12.657  1.00  0.00     0.000 C 
ENDROOT
BRANCH   1   2
ATOM      2  C   UNL     1      56.859  33.601  14.008  1.00  0.00     0.000 C 
BRANCH   2   3
ATOM      3  C   UNL     1      58.157  34.329  14.387  1.00  0.00     0.006 C 
BRANCH   3   4
ATOM      4  C   UNL     1      59.401  33.449  14.212  1.00  0.00     0.053 C 
BRANCH   4   5
ATOM      5  C   UNL     1      60.155  33.851  12.983  1.00  0.00     0.041 C 
ATOM      6  O   UNL     1      61.071  34.712  13.054  1.00  0.00    -0.550 OA
ATOM      7  O   UNL     1      59.814  33.311  11.749  1.00  0.00    -0.550 OA
ENDBRANCH   4   5
ENDBRANCH   3   4
ENDBRANCH   2   3
ENDBRANCH   1   2
BRANCH   1   8
ATOM      8  C   UNL     1      56.920  35.398  12.228  1.00  0.00     0.000 C 
BRANCH   8   9
ATOM      9  C   UNL     1      55.839  36.442  11.923  1.00  0.00    -0.000 C 
BRANCH   9  10
ATOM     10  C   UNL     1      54.519  36.087  12.619  1.00  0.00    -0.000 C 
BRANCH  10  11
ATOM     11  C   UNL     1      54.229  37.058  13.773  1.00  0.00    -0.000 C 
BRANCH  11  12
ATOM     12  C   UNL     1      54.629  36.485  15.142  1.00  0.00    -0.003 C 
ATOM     13  C   UNL     1      55.926  37.088  15.680  1.00  0.00     0.004 C 
ENDBRANCH  11  12
ENDBRANCH  10  11
ENDBRANCH   9  10
ENDBRANCH   8   9
ENDBRANCH   1   8
TORSDOF 9
ENDMDL
MODEL 6
REMARK VINA RESULT:    -3.107     11.047     12.269
REMARK INTER + INTRA:          -5.690
REMARK INTER:                  -4.584
REMARK INTRA:                  -1.106
REMARK UNBOUND:                -0.949
REMARK SMILES CCCCCCCCCCC(=O)[O-]
REMARK SMILES IDX 7 1 8 2 9 3 10 4 11 5 12 6 13 7 6 8 5 9 4 10 3 11 2 12 1 13
REMARK H PARENT
REMARK Flexibility Score: inf
ROOT
ATOM      1  C   UNL     1      63.639  43.783  15.099  1.00  0.00     0.000 C 
ENDROOT
BRANCH   1   2
ATOM      2  C   UNL     1      65.075  44.278  15.328  1.00  0.00     0.000 C 
BRANCH   2   3
ATOM      3  C   UNL     1      65.125  45.653  16.011  1.00  0.00     0.006 C 
BRANCH   3   4
ATOM      4  C   UNL     1      63.784  46.047  16.644  1.00  0.00     0.053 C 
BRANCH   4   5
ATOM      5  C   UNL     1      63.758  47.513  16.942  1.00  0.00     0.041 C 
ATOM      6  O   UNL     1      63.159  47.942  17.964  1.00  0.00    -0.550 OA
ATOM      7  O   UNL     1      64.351  48.412  16.065  1.00  0.00    -0.550 OA
ENDBRANCH   4   5
ENDBRANCH   3   4
ENDBRANCH   2   3
ENDBRANCH   1   2
BRANCH   1   8
ATOM      8  C   UNL     1      63.613  42.269  14.855  1.00  0.00     0.000 C 
BRANCH   8   9
ATOM      9  C   UNL     1      64.613  41.547  15.766  1.00  0.00    -0.000 C 
BRANCH   9  10
ATOM     10  C   UNL     1      63.889  40.625  16.756  1.00  0.00    -0.000 C 
BRANCH  10  11
ATOM     11  C   UNL     1      64.333  40.912  18.198  1.00  0.00    -0.000 C 
BRANCH  11  12
ATOM     12  C   UNL     1      64.384  42.416  18.511  1.00  0.00    -0.003 C 
ATOM     13  C   UNL     1      62.999  43.016  18.754  1.00  0.00     0.004 C 
ENDBRANCH  11  12
ENDBRANCH  10  11
ENDBRANCH   9  10
ENDBRANCH   8   9
ENDBRANCH   1   8
TORSDOF 9
ENDMDL
MODEL 7
REMARK VINA RESULT:    -3.091     10.161     11.557
REMARK INTER + INTRA:          -5.667
REMARK INTER:                  -4.625
REMARK INTRA:                  -1.042
REMARK UNBOUND:                -0.949
REMARK SMILES CCCCCCCCCCC(=O)[O-]
REMARK SMILES IDX 7 1 8 2 9 3 10 4 11 5 12 6 13 7 6 8 5 9 4 10 3 11 2 12 1 13
REMARK H PARENT
REMARK Flexibility Score: inf
ROOT
ATOM      1  C   UNL     1      64.620  41.828  15.843  1.00  0.00     0.000 C 
ENDROOT
BRANCH   1   2
ATOM      2  C   UNL     1      63.923  40.575  16.395  1.00  0.00     0.000 C 
BRANCH   2   3
ATOM      3  C   UNL     1      63.736  40.626  17.919  1.00  0.00     0.006 C 
BRANCH   3   4
ATOM      4  C   UNL     1      64.581  41.721  18.582  1.00  0.00     0.053 C 
BRANCH   4   5
ATOM      5  C   UNL     1      63.737  42.545  19.504  1.00  0.00     0.041 C 
ATOM      6  O   UNL     1      64.258  43.463  20.190  1.00  0.00    -0.550 OA
ATOM      7  O   UNL     1      62.384  42.266  19.644  1.00  0.00    -0.550 OA
ENDBRANCH   4   5
ENDBRANCH   3   4
ENDBRANCH   2   3
ENDBRANCH   1   2
BRANCH   1   8
ATOM      8  C   UNL     1      63.723  42.556  14.834  1.00  0.00     0.000 C 
BRANCH   8   9
ATOM      9  C   UNL     1      63.919  44.074  14.918  1.00  0.00    -0.000 C 
BRANCH   9  10
ATOM     10  C   UNL     1      64.280  44.505  16.345  1.00  0.00    -0.000 C 
BRANCH  10  11
ATOM     11  C   UNL     1      63.151  45.338  16.969  1.00  0.00    -0.000 C 
BRANCH  11  12
ATOM     12  C   UNL     1      61.813  44.583  17.009  1.00  0.00    -0.003 C 
ATOM     13  C   UNL     1      60.821  45.190  18.001  1.00  0.00     0.004 C 
ENDBRANCH  11  12
ENDBRANCH  10  11
ENDBRANCH   9  10
ENDBRANCH   8   9
ENDBRANCH   1   8
TORSDOF 9
ENDMDL
MODEL 8
REMARK VINA RESULT:    -3.064      1.831      3.275
REMARK INTER + INTRA:          -5.625
REMARK INTER:                  -4.881
REMARK INTRA:                  -0.744
REMARK UNBOUND:                -0.949
REMARK SMILES CCCCCCCCCCC(=O)[O-]
REMARK SMILES IDX 7 1 8 2 9 3 10 4 11 5 12 6 13 7 6 8 5 9 4 10 3 11 2 12 1 13
REMARK H PARENT
REMARK Flexibility Score: inf
ROOT
ATOM      1  C   UNL     1      55.961  34.027  12.976  1.00  0.00     0.000 C 
ENDROOT
BRANCH   1   2
ATOM      2  C   UNL     1      56.479  35.414  12.564  1.00  0.00     0.000 C 
BRANCH   2   3
ATOM      3  C   UNL     1      55.345  36.388  12.209  1.00  0.00     0.006 C 
BRANCH   3   4
ATOM      4  C   UNL     1      54.082  36.154  13.048  1.00  0.00     0.053 C 
BRANCH   4   5
ATOM      5  C   UNL     1      53.999  37.156  14.156  1.00  0.00     0.041 C 
ATOM      6  O   UNL     1      53.068  38.004  14.177  1.00  0.00    -0.550 OA
ATOM      7  O   UNL     1      54.979  37.189  15.140  1.00  0.00    -0.550 OA
ENDBRANCH   4   5
ENDBRANCH   3   4
ENDBRANCH   2   3
ENDBRANCH   1   2
BRANCH   1   8
ATOM      8  C   UNL     1      57.013  32.945  12.708  1.00  0.00     0.000 C 
BRANCH   8   9
ATOM      9  C   UNL     1      58.071  33.440  11.715  1.00  0.00    -0.000 C 
BRANCH   9  10
ATOM     10  C   UNL     1      59.483  33.061  12.180  1.00  0.00    -0.000 C 
BRANCH  10  11
ATOM     11  C   UNL     1      60.382  34.303  12.272  1.00  0.00    -0.000 C 
BRANCH  11  12
ATOM     12  C   UNL     1      61.079  34.428  13.637  1.00  0.00    -0.003 C 
ATOM     13  C   UNL     1      60.142  34.133  14.808  1.00  0.00     0.004 C 
ENDBRANCH  11  12
ENDBRANCH  10  11
ENDBRANCH   9  10
ENDBRANCH   8   9
ENDBRANCH   1   8
TORSDOF 9
ENDMDL
MODEL 9
REMARK VINA RESULT:    -2.987      3.400      5.541
REMARK INTER + INTRA:          -5.508
REMARK INTER:                  -4.633
REMARK INTRA:                  -0.874
REMARK UNBOUND:                -0.949
REMARK SMILES CCCCCCCCCCC(=O)[O-]
REMARK SMILES IDX 7 1 8 2 9 3 10 4 11 5 12 6 13 7 6 8 5 9 4 10 3 11 2 12 1 13
REMARK H PARENT
REMARK Flexibility Score: inf
ROOT
ATOM      1  C   UNL     1      59.494  33.056  12.066  1.00  0.00     0.000 C 
ENDROOT
BRANCH   1   2
ATOM      2  C   UNL     1      60.302  34.350  12.242  1.00  0.00     0.000 C 
BRANCH   2   3
ATOM      3  C   UNL     1      61.268  34.286  13.435  1.00  0.00     0.006 C 
BRANCH   3   4
ATOM      4  C   UNL     1      60.543  34.342  14.786  1.00  0.00     0.053 C 
BRANCH   4   5
ATOM      5  C   UNL     1      61.026  33.246  15.683  1.00  0.00     0.041 C 
ATOM      6  O   UNL     1      61.276  33.481  16.894  1.00  0.00    -0.550 OA
ATOM      7  O   UNL     1      61.249  31.974  15.170  1.00  0.00    -0.550 OA
ENDBRANCH   4   5
ENDBRANCH   3   4
ENDBRANCH   2   3
ENDBRANCH   1   2
BRANCH   1   8
ATOM      8  C   UNL     1      57.999  33.359  11.903  1.00  0.00     0.000 C 
BRANCH   8   9
ATOM      9  C   UNL     1      57.304  33.451  13.266  1.00  0.00    -0.000 C 
BRANCH   9  10
ATOM     10  C   UNL     1      56.848  34.887  13.555  1.00  0.00    -0.000 C 
BRANCH  10  11
ATOM     11  C   UNL     1      56.675  35.681  12.251  1.00  0.00    -0.000 C 
BRANCH  11  12
ATOM     12  C   UNL     1      55.338  36.435  12.192  1.00  0.00    -0.003 C 
ATOM     13  C   UNL     1      54.664  36.554  13.559  1.00  0.00     0.004 C 
ENDBRANCH  11  12
ENDBRANCH  10  11
ENDBRANCH   9  10
ENDBRANCH   8   9
ENDBRANCH   1   8
TORSDOF 9
ENDMDL
