MODEL 1
REMARK VINA RESULT:    -3.893      0.000      0.000
REMARK INTER + INTRA:         -15.129
REMARK INTER:                  -9.811
REMARK INTRA:                  -5.318
REMARK UNBOUND:                -5.318
REMARK SMILES CCCCCCCCCCCCCCCCCCCCCCCCCCCC(=O)[O-]
REMARK SMILES IDX 15 1 16 2 17 3 18 4 19 5 20 6 21 7 22 8 23 9 24 10 25 11
REMARK SMILES IDX 26 12 27 13 28 14 29 15 30 16 14 17 13 18 12 19 11 20 10 21
REMARK SMILES IDX 9 22 8 23 7 24 6 25 5 26 4 27 3 28 2 29 1 30
REMARK H PARENT
REMARK Flexibility Score: inf
ROOT
ATOM      1  C   UNL     1      -8.710  17.004  -1.983  1.00  0.00     0.000 C 
ENDROOT
BRANCH   1   2
ATOM      2  C   UNL     1      -9.994  16.916  -1.128  1.00  0.00     0.000 C 
BRANCH   2   3
ATOM      3  C   UNL     1      -9.830  16.091   0.164  1.00  0.00     0.000 C 
BRANCH   3   4
ATOM      4  C   UNL     1     -10.857  14.961   0.348  1.00  0.00     0.000 C 
BRANCH   4   5
ATOM      5  C   UNL     1     -11.679  14.691  -0.925  1.00  0.00     0.000 C 
BRANCH   5   6
ATOM      6  C   UNL     1     -11.492  13.264  -1.459  1.00  0.00     0.000 C 
BRANCH   6   7
ATOM      7  C   UNL     1     -11.792  13.146  -2.965  1.00  0.00     0.000 C 
BRANCH   7   8
ATOM      8  C   UNL     1     -11.167  11.895  -3.607  1.00  0.00     0.000 C 
BRANCH   8   9
ATOM      9  C   UNL     1     -10.684  12.084  -5.056  1.00  0.00     0.000 C 
BRANCH   9  10
ATOM     10  C   UNL     1     -10.641  13.561  -5.486  1.00  0.00     0.000 C 
BRANCH  10  11
ATOM     11  C   UNL     1      -9.940  13.758  -6.839  1.00  0.00     0.000 C 
BRANCH  11  12
ATOM     12  C   UNL     1      -8.675  14.628  -6.727  1.00  0.00     0.006 C 
BRANCH  12  13
ATOM     13  C   UNL     1      -7.456  13.966  -7.381  1.00  0.00     0.053 C 
BRANCH  13  14
ATOM     14  C   UNL     1      -6.689  13.121  -6.409  1.00  0.00     0.041 C 
ATOM     15  O   UNL     1      -7.248  12.146  -5.839  1.00  0.00    -0.550 OA
ATOM     16  O   UNL     1      -5.356  13.405  -6.140  1.00  0.00    -0.550 OA
ENDBRANCH  13  14
ENDBRANCH  12  13
ENDBRANCH  11  12
ENDBRANCH  10  11
ENDBRANCH   9  10
ENDBRANCH   8   9
ENDBRANCH   7   8
ENDBRANCH   6   7
ENDBRANCH   5   6
ENDBRANCH   4   5
ENDBRANCH   3   4
ENDBRANCH   2   3
ENDBRANCH   1   2
BRANCH   1  17
ATOM     17  C   UNL     1      -8.769  16.102  -3.231  1.00  0.00     0.000 C 
BRANCH  17  18
ATOM     18  C   UNL     1      -7.649  15.051  -3.259  1.00  0.00     0.000 C 
BRANCH  18  19
ATOM     19  C   UNL     1      -8.111  13.675  -2.751  1.00  0.00     0.000 C 
BRANCH  19  20
ATOM     20  C   UNL     1      -7.166  13.101  -1.683  1.00  0.00     0.000 C 
BRANCH  20  21
ATOM     21  C   UNL     1      -7.840  12.983  -0.304  1.00  0.00     0.000 C 
BRANCH  21  22
ATOM     22  C   UNL     1      -7.061  13.728   0.793  1.00  0.00    -0.000 C 
BRANCH  22  23
ATOM     23  C   UNL     1      -6.308  14.953   0.246  1.00  0.00    -0.000 C 
BRANCH  23  24
ATOM     24  C   UNL     1      -5.758  15.856   1.361  1.00  0.00    -0.000 C 
BRANCH  24  25
ATOM     25  C   UNL     1      -6.503  17.198   1.456  1.00  0.00    -0.000 C 
BRANCH  25  26
ATOM     26  C   UNL     1      -6.528  17.756   2.898  1.00  0.00    -0.000 C 
BRANCH  26  27
ATOM     27  C   UNL     1      -7.352  16.898   3.875  1.00  0.00    -0.000 C 
BRANCH  27  28
ATOM     28  C   UNL     1      -8.871  16.914   3.624  1.00  0.00    -0.000 C 
BRANCH  28  29
ATOM     29  C   UNL     1      -9.437  18.320   3.322  1.00  0.00    -0.003 C 
ATOM     30  C   UNL     1     -10.930  18.308   2.997  1.00  0.00     0.004 C 
ENDBRANCH  28  29
ENDBRANCH  27  28
ENDBRANCH  26  27
ENDBRANCH  25  26
ENDBRANCH  24  25
ENDBRANCH  23  24
ENDBRANCH  22  23
ENDBRANCH  21  22
ENDBRANCH  20  21
ENDBRANCH  19  20
ENDBRANCH  18  19
ENDBRANCH  17  18
ENDBRANCH   1  17
TORSDOF 26
ENDMDL
MODEL 2
REMARK VINA RESULT:    -3.752      3.386      8.315
REMARK INTER + INTRA:         -14.772
REMARK INTER:                  -9.701
REMARK INTRA:                  -5.071
REMARK UNBOUND:                -5.318
REMARK SMILES CCCCCCCCCCCCCCCCCCCCCCCCCCCC(=O)[O-]
REMARK SMILES IDX 15 1 16 2 17 3 18 4 19 5 20 6 21 7 22 8 23 9 24 10 25 11
REMARK SMILES IDX 26 12 27 13 28 14 29 15 30 16 14 17 13 18 12 19 11 20 10 21
REMARK SMILES IDX 9 22 8 23 7 24 6 25 5 26 4 27 3 28 2 29 1 30
REMARK H PARENT
REMARK Flexibility Score: inf
ROOT
ATOM      1  C   UNL     1      -9.897  16.890  -0.980  1.00  0.00     0.000 C 
ENDROOT
BRANCH   1   2
ATOM      2  C   UNL     1      -8.651  17.091  -1.872  1.00  0.00     0.000 C 
BRANCH   2   3
ATOM      3  C   UNL     1      -8.787  16.486  -3.282  1.00  0.00     0.000 C 
BRANCH   3   4
ATOM      4  C   UNL     1      -7.757  15.396  -3.623  1.00  0.00     0.000 C 
BRANCH   4   5
ATOM      5  C   UNL     1      -6.825  15.068  -2.444  1.00  0.00     0.000 C 
BRANCH   5   6
ATOM      6  C   UNL     1      -7.157  13.723  -1.783  1.00  0.00     0.000 C 
BRANCH   6   7
ATOM      7  C   UNL     1      -6.239  13.402  -0.589  1.00  0.00     0.000 C 
BRANCH   7   8
ATOM      8  C   UNL     1      -7.010  13.211   0.729  1.00  0.00     0.000 C 
BRANCH   8   9
ATOM      9  C   UNL     1      -6.768  14.305   1.784  1.00  0.00     0.000 C 
BRANCH   9  10
ATOM     10  C   UNL     1      -5.951  15.491   1.241  1.00  0.00     0.000 C 
BRANCH  10  11
ATOM     11  C   UNL     1      -6.291  16.811   1.950  1.00  0.00     0.000 C 
BRANCH  11  12
ATOM     12  C   UNL     1      -7.131  16.598   3.222  1.00  0.00     0.006 C 
BRANCH  12  13
ATOM     13  C   UNL     1      -6.460  17.193   4.467  1.00  0.00     0.053 C 
BRANCH  13  14
ATOM     14  C   UNL     1      -6.743  18.658   4.609  1.00  0.00     0.041 C 
ATOM     15  O   UNL     1      -6.075  19.357   5.417  1.00  0.00    -0.550 OA
ATOM     16  O   UNL     1      -7.738  19.252   3.842  1.00  0.00    -0.550 OA
ENDBRANCH  13  14
ENDBRANCH  12  13
ENDBRANCH  11  12
ENDBRANCH  10  11
ENDBRANCH   9  10
ENDBRANCH   8   9
ENDBRANCH   7   8
ENDBRANCH   6   7
ENDBRANCH   5   6
ENDBRANCH   4   5
ENDBRANCH   3   4
ENDBRANCH   2   3
ENDBRANCH   1   2
BRANCH   1  17
ATOM     17  C   UNL     1      -9.657  15.867   0.147  1.00  0.00     0.000 C 
BRANCH  17  18
ATOM     18  C   UNL     1     -10.472  14.577  -0.037  1.00  0.00     0.000 C 
BRANCH  18  19
ATOM     19  C   UNL     1     -11.113  14.473  -1.432  1.00  0.00     0.000 C 
BRANCH  19  20
ATOM     20  C   UNL     1     -10.946  13.075  -2.047  1.00  0.00     0.000 C 
BRANCH  20  21
ATOM     21  C   UNL     1     -10.535  13.130  -3.529  1.00  0.00     0.000 C 
BRANCH  21  22
ATOM     22  C   UNL     1      -9.526  12.030  -3.898  1.00  0.00    -0.000 C 
BRANCH  22  23
ATOM     23  C   UNL     1      -9.718  11.518  -5.336  1.00  0.00    -0.000 C 
BRANCH  23  24
ATOM     24  C   UNL     1      -8.385  11.288  -6.066  1.00  0.00    -0.000 C 
BRANCH  24  25
ATOM     25  C   UNL     1      -7.167  11.656  -5.202  1.00  0.00    -0.000 C 
BRANCH  25  26
ATOM     26  C   UNL     1      -6.477  12.953  -5.682  1.00  0.00    -0.000 C 
BRANCH  26  27
ATOM     27  C   UNL     1      -6.809  13.324  -7.138  1.00  0.00    -0.000 C 
BRANCH  27  28
ATOM     28  C   UNL     1      -7.526  14.676  -7.311  1.00  0.00    -0.000 C 
BRANCH  28  29
ATOM     29  C   UNL     1      -8.794  14.599  -8.190  1.00  0.00    -0.003 C 
ATOM     30  C   UNL     1     -10.087  14.572  -7.376  1.00  0.00     0.004 C 
ENDBRANCH  28  29
ENDBRANCH  27  28
ENDBRANCH  26  27
ENDBRANCH  25  26
ENDBRANCH  24  25
ENDBRANCH  23  24
ENDBRANCH  22  23
ENDBRANCH  21  22
ENDBRANCH  20  21
ENDBRANCH  19  20
ENDBRANCH  18  19
ENDBRANCH  17  18
ENDBRANCH   1  17
TORSDOF 26
ENDMDL
MODEL 3
REMARK VINA RESULT:    -3.732      1.313      2.293
REMARK INTER + INTRA:         -14.723
REMARK INTER:                  -9.192
REMARK INTRA:                  -5.531
REMARK UNBOUND:                -5.318
REMARK SMILES CCCCCCCCCCCCCCCCCCCCCCCCCCCC(=O)[O-]
REMARK SMILES IDX 15 1 16 2 17 3 18 4 19 5 20 6 21 7 22 8 23 9 24 10 25 11
REMARK SMILES IDX 26 12 27 13 28 14 29 15 30 16 14 17 13 18 12 19 11 20 10 21
REMARK SMILES IDX 9 22 8 23 7 24 6 25 5 26 4 27 3 28 2 29 1 30
REMARK H PARENT
REMARK Flexibility Score: inf
ROOT
ATOM      1  C   UNL     1      -8.740  16.922  -2.310  1.00  0.00     0.000 C 
ENDROOT
BRANCH   1   2
ATOM      2  C   UNL     1     -10.017  16.817  -1.447  1.00  0.00     0.000 C 
BRANCH   2   3
ATOM      3  C   UNL     1      -9.746  16.769   0.069  1.00  0.00     0.000 C 
BRANCH   3   4
ATOM      4  C   UNL     1     -10.398  15.588   0.808  1.00  0.00     0.000 C 
BRANCH   4   5
ATOM      5  C   UNL     1     -11.151  14.636  -0.138  1.00  0.00     0.000 C 
BRANCH   5   6
ATOM      6  C   UNL     1     -10.486  13.256  -0.241  1.00  0.00     0.000 C 
BRANCH   6   7
ATOM      7  C   UNL     1     -10.616  12.635  -1.644  1.00  0.00     0.000 C 
BRANCH   7   8
ATOM      8  C   UNL     1     -11.377  13.535  -2.633  1.00  0.00     0.000 C 
BRANCH   8   9
ATOM      9  C   UNL     1     -11.439  13.003  -4.076  1.00  0.00     0.000 C 
BRANCH   9  10
ATOM     10  C   UNL     1     -10.062  12.582  -4.620  1.00  0.00     0.000 C 
BRANCH  10  11
ATOM     11  C   UNL     1      -9.954  12.756  -6.143  1.00  0.00     0.000 C 
BRANCH  11  12
ATOM     12  C   UNL     1     -10.024  14.232  -6.574  1.00  0.00     0.006 C 
BRANCH  12  13
ATOM     13  C   UNL     1      -8.988  14.572  -7.653  1.00  0.00     0.053 C 
BRANCH  13  14
ATOM     14  C   UNL     1      -7.598  14.627  -7.097  1.00  0.00     0.041 C 
ATOM     15  O   UNL     1      -7.097  15.731  -6.753  1.00  0.00    -0.550 OA
ATOM     16  O   UNL     1      -6.860  13.459  -6.949  1.00  0.00    -0.550 OA
ENDBRANCH  13  14
ENDBRANCH  12  13
ENDBRANCH  11  12
ENDBRANCH  10  11
ENDBRANCH   9  10
ENDBRANCH   8   9
ENDBRANCH   7   8
ENDBRANCH   6   7
ENDBRANCH   5   6
ENDBRANCH   4   5
ENDBRANCH   3   4
ENDBRANCH   2   3
ENDBRANCH   1   2
BRANCH   1  17
ATOM     17  C   UNL     1      -8.631  15.784  -3.342  1.00  0.00     0.000 C 
BRANCH  17  18
ATOM     18  C   UNL     1      -7.241  15.129  -3.362  1.00  0.00     0.000 C 
BRANCH  18  19
ATOM     19  C   UNL     1      -7.274  13.652  -2.935  1.00  0.00     0.000 C 
BRANCH  19  20
ATOM     20  C   UNL     1      -7.090  13.479  -1.419  1.00  0.00     0.000 C 
BRANCH  20  21
ATOM     21  C   UNL     1      -6.158  14.545  -0.815  1.00  0.00     0.000 C 
BRANCH  21  22
ATOM     22  C   UNL     1      -6.766  15.215   0.429  1.00  0.00    -0.000 C 
BRANCH  22  23
ATOM     23  C   UNL     1      -5.785  16.188   1.107  1.00  0.00    -0.000 C 
BRANCH  23  24
ATOM     24  C   UNL     1      -6.501  17.317   1.865  1.00  0.00    -0.000 C 
BRANCH  24  25
ATOM     25  C   UNL     1      -6.773  16.961   3.336  1.00  0.00    -0.000 C 
BRANCH  25  26
ATOM     26  C   UNL     1      -8.247  16.564   3.583  1.00  0.00    -0.000 C 
BRANCH  26  27
ATOM     27  C   UNL     1      -8.407  15.274   4.406  1.00  0.00    -0.000 C 
BRANCH  27  28
ATOM     28  C   UNL     1      -7.650  14.055   3.847  1.00  0.00    -0.000 C 
BRANCH  28  29
ATOM     29  C   UNL     1      -8.500  13.173   2.905  1.00  0.00    -0.003 C 
ATOM     30  C   UNL     1      -7.706  12.029   2.277  1.00  0.00     0.004 C 
ENDBRANCH  28  29
ENDBRANCH  27  28
ENDBRANCH  26  27
ENDBRANCH  25  26
ENDBRANCH  24  25
ENDBRANCH  23  24
ENDBRANCH  22  23
ENDBRANCH  21  22
ENDBRANCH  20  21
ENDBRANCH  19  20
ENDBRANCH  18  19
ENDBRANCH  17  18
ENDBRANCH   1  17
TORSDOF 26
ENDMDL
MODEL 4
REMARK VINA RESULT:    -3.726      1.362      4.211
REMARK INTER + INTRA:         -14.708
REMARK INTER:                  -9.662
REMARK INTRA:                  -5.046
REMARK UNBOUND:                -5.318
REMARK SMILES CCCCCCCCCCCCCCCCCCCCCCCCCCCC(=O)[O-]
REMARK SMILES IDX 15 1 16 2 17 3 18 4 19 5 20 6 21 7 22 8 23 9 24 10 25 11
REMARK SMILES IDX 26 12 27 13 28 14 29 15 30 16 14 17 13 18 12 19 11 20 10 21
REMARK SMILES IDX 9 22 8 23 7 24 6 25 5 26 4 27 3 28 2 29 1 30
REMARK H PARENT
REMARK Flexibility Score: inf
ROOT
ATOM      1  C   UNL     1      -6.255  14.906  -1.270  1.00  0.00     0.000 C 
ENDROOT
BRANCH   1   2
ATOM      2  C   UNL     1      -7.034  14.417  -2.511  1.00  0.00     0.000 C 
BRANCH   2   3
ATOM      3  C   UNL     1      -7.713  13.046  -2.324  1.00  0.00     0.000 C 
BRANCH   3   4
ATOM      4  C   UNL     1      -7.423  12.021  -3.432  1.00  0.00     0.000 C 
BRANCH   4   5
ATOM      5  C   UNL     1      -8.613  11.823  -4.387  1.00  0.00     0.000 C 
BRANCH   5   6
ATOM      6  C   UNL     1      -9.928  11.548  -3.645  1.00  0.00     0.000 C 
BRANCH   6   7
ATOM      7  C   UNL     1     -11.080  12.457  -4.113  1.00  0.00     0.000 C 
BRANCH   7   8
ATOM      8  C   UNL     1     -10.645  13.478  -5.181  1.00  0.00     0.000 C 
BRANCH   8   9
ATOM      9  C   UNL     1     -11.508  13.488  -6.455  1.00  0.00     0.000 C 
BRANCH   9  10
ATOM     10  C   UNL     1     -10.675  13.609  -7.743  1.00  0.00     0.000 C 
BRANCH  10  11
ATOM     11  C   UNL     1      -9.546  12.568  -7.812  1.00  0.00     0.000 C 
BRANCH  11  12
ATOM     12  C   UNL     1      -8.211  13.176  -8.276  1.00  0.00     0.006 C 
BRANCH  12  13
ATOM     13  C   UNL     1      -8.085  14.658  -7.897  1.00  0.00     0.053 C 
BRANCH  13  14
ATOM     14  C   UNL     1      -7.448  14.840  -6.554  1.00  0.00     0.041 C 
ATOM     15  O   UNL     1      -6.438  14.158  -6.233  1.00  0.00    -0.550 OA
ATOM     16  O   UNL     1      -7.964  15.771  -5.659  1.00  0.00    -0.550 OA
ENDBRANCH  13  14
ENDBRANCH  12  13
ENDBRANCH  11  12
ENDBRANCH  10  11
ENDBRANCH   9  10
ENDBRANCH   8   9
ENDBRANCH   7   8
ENDBRANCH   6   7
ENDBRANCH   5   6
ENDBRANCH   4   5
ENDBRANCH   3   4
ENDBRANCH   2   3
ENDBRANCH   1   2
BRANCH   1  17
ATOM     17  C   UNL     1      -6.521  14.038  -0.025  1.00  0.00     0.000 C 
BRANCH  17  18
ATOM     18  C   UNL     1      -6.500  14.847   1.280  1.00  0.00     0.000 C 
BRANCH  18  19
ATOM     19  C   UNL     1      -5.655  16.128   1.172  1.00  0.00     0.000 C 
BRANCH  19  20
ATOM     20  C   UNL     1      -6.335  17.333   1.842  1.00  0.00     0.000 C 
BRANCH  20  21
ATOM     21  C   UNL     1      -6.832  17.013   3.263  1.00  0.00     0.000 C 
BRANCH  21  22
ATOM     22  C   UNL     1      -8.332  17.302   3.436  1.00  0.00    -0.000 C 
BRANCH  22  23
ATOM     23  C   UNL     1      -9.175  16.015   3.478  1.00  0.00    -0.000 C 
BRANCH  23  24
ATOM     24  C   UNL     1      -9.976  15.790   2.186  1.00  0.00    -0.000 C 
BRANCH  24  25
ATOM     25  C   UNL     1      -9.972  17.022   1.266  1.00  0.00    -0.000 C 
BRANCH  25  26
ATOM     26  C   UNL     1      -9.234  16.758  -0.067  1.00  0.00    -0.000 C 
BRANCH  26  27
ATOM     27  C   UNL     1     -10.160  16.773  -1.296  1.00  0.00    -0.000 C 
BRANCH  27  28
ATOM     28  C   UNL     1     -10.477  15.385  -1.881  1.00  0.00    -0.000 C 
BRANCH  28  29
ATOM     29  C   UNL     1     -11.503  14.580  -1.053  1.00  0.00    -0.003 C 
ATOM     30  C   UNL     1     -10.916  13.306  -0.446  1.00  0.00     0.004 C 
ENDBRANCH  28  29
ENDBRANCH  27  28
ENDBRANCH  26  27
ENDBRANCH  25  26
ENDBRANCH  24  25
ENDBRANCH  23  24
ENDBRANCH  22  23
ENDBRANCH  21  22
ENDBRANCH  20  21
ENDBRANCH  19  20
ENDBRANCH  18  19
ENDBRANCH  17  18
ENDBRANCH   1  17
TORSDOF 26
ENDMDL
MODEL 5
REMARK VINA RESULT:    -3.718      3.282      6.875
REMARK INTER + INTRA:         -14.686
REMARK INTER:                 -10.054
REMARK INTRA:                  -4.632
REMARK UNBOUND:                -5.318
REMARK SMILES CCCCCCCCCCCCCCCCCCCCCCCCCCCC(=O)[O-]
REMARK SMILES IDX 15 1 16 2 17 3 18 4 19 5 20 6 21 7 22 8 23 9 24 10 25 11
REMARK SMILES IDX 26 12 27 13 28 14 29 15 30 16 14 17 13 18 12 19 11 20 10 21
REMARK SMILES IDX 9 22 8 23 7 24 6 25 5 26 4 27 3 28 2 29 1 30
REMARK H PARENT
REMARK Flexibility Score: inf
ROOT
ATOM      1  C   UNL     1     -11.078  13.198  -6.059  1.00  0.00     0.000 C 
ENDROOT
BRANCH   1   2
ATOM      2  C   UNL     1     -10.148  11.988  -5.816  1.00  0.00     0.000 C 
BRANCH   2   3
ATOM      3  C   UNL     1      -9.594  11.903  -4.380  1.00  0.00     0.000 C 
BRANCH   3   4
ATOM      4  C   UNL     1     -10.264  12.848  -3.369  1.00  0.00     0.000 C 
BRANCH   4   5
ATOM      5  C   UNL     1      -9.734  12.659  -1.936  1.00  0.00     0.000 C 
BRANCH   5   6
ATOM      6  C   UNL     1      -8.462  11.802  -1.884  1.00  0.00     0.000 C 
BRANCH   6   7
ATOM      7  C   UNL     1      -7.713  11.926  -0.544  1.00  0.00     0.000 C 
BRANCH   7   8
ATOM      8  C   UNL     1      -6.503  12.875  -0.616  1.00  0.00     0.000 C 
BRANCH   8   9
ATOM      9  C   UNL     1      -6.252  13.700   0.658  1.00  0.00     0.000 C 
BRANCH   9  10
ATOM     10  C   UNL     1      -6.208  15.215   0.393  1.00  0.00     0.000 C 
BRANCH  10  11
ATOM     11  C   UNL     1      -5.795  16.017   1.637  1.00  0.00     0.000 C 
BRANCH  11  12
ATOM     12  C   UNL     1      -6.674  17.262   1.854  1.00  0.00     0.006 C 
BRANCH  12  13
ATOM     13  C   UNL     1      -6.551  17.819   3.279  1.00  0.00     0.053 C 
BRANCH  13  14
ATOM     14  C   UNL     1      -7.674  18.752   3.614  1.00  0.00     0.041 C 
ATOM     15  O   UNL     1      -8.869  18.397   3.433  1.00  0.00    -0.550 OA
ATOM     16  O   UNL     1      -7.400  20.012   4.134  1.00  0.00    -0.550 OA
ENDBRANCH  13  14
ENDBRANCH  12  13
ENDBRANCH  11  12
ENDBRANCH  10  11
ENDBRANCH   9  10
ENDBRANCH   8   9
ENDBRANCH   7   8
ENDBRANCH   6   7
ENDBRANCH   5   6
ENDBRANCH   4   5
ENDBRANCH   3   4
ENDBRANCH   2   3
ENDBRANCH   1   2
BRANCH   1  17
ATOM     17  C   UNL     1     -11.055  13.675  -7.523  1.00  0.00     0.000 C 
BRANCH  17  18
ATOM     18  C   UNL     1      -9.992  14.754  -7.781  1.00  0.00     0.000 C 
BRANCH  18  19
ATOM     19  C   UNL     1      -8.732  14.196  -8.463  1.00  0.00     0.000 C 
BRANCH  19  20
ATOM     20  C   UNL     1      -7.585  13.960  -7.467  1.00  0.00     0.000 C 
BRANCH  20  21
ATOM     21  C   UNL     1      -7.247  15.221  -6.651  1.00  0.00     0.000 C 
BRANCH  21  22
ATOM     22  C   UNL     1      -7.982  15.257  -5.301  1.00  0.00    -0.000 C 
BRANCH  22  23
ATOM     23  C   UNL     1      -7.131  14.680  -4.156  1.00  0.00    -0.000 C 
BRANCH  23  24
ATOM     24  C   UNL     1      -7.389  15.383  -2.814  1.00  0.00    -0.000 C 
BRANCH  24  25
ATOM     25  C   UNL     1      -8.733  16.130  -2.787  1.00  0.00    -0.000 C 
BRANCH  25  26
ATOM     26  C   UNL     1      -8.800  17.179  -1.654  1.00  0.00    -0.000 C 
BRANCH  26  27
ATOM     27  C   UNL     1      -9.899  16.892  -0.615  1.00  0.00    -0.000 C 
BRANCH  27  28
ATOM     28  C   UNL     1      -9.740  15.559   0.139  1.00  0.00    -0.000 C 
BRANCH  28  29
ATOM     29  C   UNL     1     -10.072  15.653   1.646  1.00  0.00    -0.003 C 
ATOM     30  C   UNL     1      -9.312  14.633   2.492  1.00  0.00     0.004 C 
ENDBRANCH  28  29
ENDBRANCH  27  28
ENDBRANCH  26  27
ENDBRANCH  25  26
ENDBRANCH  24  25
ENDBRANCH  23  24
ENDBRANCH  22  23
ENDBRANCH  21  22
ENDBRANCH  20  21
ENDBRANCH  19  20
ENDBRANCH  18  19
ENDBRANCH  17  18
ENDBRANCH   1  17
TORSDOF 26
ENDMDL
MODEL 6
REMARK VINA RESULT:    -3.688      3.260      7.888
REMARK INTER + INTRA:         -14.610
REMARK INTER:                  -9.322
REMARK INTRA:                  -5.288
REMARK UNBOUND:                -5.318
REMARK SMILES CCCCCCCCCCCCCCCCCCCCCCCCCCCC(=O)[O-]
REMARK SMILES IDX 15 1 16 2 17 3 18 4 19 5 20 6 21 7 22 8 23 9 24 10 25 11
REMARK SMILES IDX 26 12 27 13 28 14 29 15 30 16 14 17 13 18 12 19 11 20 10 21
REMARK SMILES IDX 9 22 8 23 7 24 6 25 5 26 4 27 3 28 2 29 1 30
REMARK H PARENT
REMARK Flexibility Score: inf
ROOT
ATOM      1  C   UNL     1      -8.737  16.758  -2.570  1.00  0.00     0.000 C 
ENDROOT
BRANCH   1   2
ATOM      2  C   UNL     1      -9.660  16.537  -1.350  1.00  0.00     0.000 C 
BRANCH   2   3
ATOM      3  C   UNL     1     -10.851  15.599  -1.628  1.00  0.00     0.000 C 
BRANCH   3   4
ATOM      4  C   UNL     1     -11.152  14.585  -0.512  1.00  0.00     0.000 C 
BRANCH   4   5
ATOM      5  C   UNL     1      -9.953  14.357   0.425  1.00  0.00     0.000 C 
BRANCH   5   6
ATOM      6  C   UNL     1      -9.249  13.017   0.171  1.00  0.00     0.000 C 
BRANCH   6   7
ATOM      7  C   UNL     1      -8.016  12.810   1.070  1.00  0.00     0.000 C 
BRANCH   7   8
ATOM      8  C   UNL     1      -6.727  13.400   0.469  1.00  0.00     0.000 C 
BRANCH   8   9
ATOM      9  C   UNL     1      -6.133  14.585   1.252  1.00  0.00     0.000 C 
BRANCH   9  10
ATOM     10  C   UNL     1      -6.242  15.920   0.494  1.00  0.00     0.000 C 
BRANCH  10  11
ATOM     11  C   UNL     1      -7.116  16.945   1.233  1.00  0.00     0.000 C 
BRANCH  11  12
ATOM     12  C   UNL     1      -7.668  16.400   2.562  1.00  0.00     0.006 C 
BRANCH  12  13
ATOM     13  C   UNL     1      -8.258  17.508   3.444  1.00  0.00     0.053 C 
BRANCH  13  14
ATOM     14  C   UNL     1      -7.201  18.435   3.960  1.00  0.00     0.041 C 
ATOM     15  O   UNL     1      -6.186  17.975   4.548  1.00  0.00    -0.550 OA
ATOM     16  O   UNL     1      -7.331  19.808   3.782  1.00  0.00    -0.550 OA
ENDBRANCH  13  14
ENDBRANCH  12  13
ENDBRANCH  11  12
ENDBRANCH  10  11
ENDBRANCH   9  10
ENDBRANCH   8   9
ENDBRANCH   7   8
ENDBRANCH   6   7
ENDBRANCH   5   6
ENDBRANCH   4   5
ENDBRANCH   3   4
ENDBRANCH   2   3
ENDBRANCH   1   2
BRANCH   1  17
ATOM     17  C   UNL     1      -8.613  15.500  -3.451  1.00  0.00     0.000 C 
BRANCH  17  18
ATOM     18  C   UNL     1      -7.497  14.554  -2.983  1.00  0.00     0.000 C 
BRANCH  18  19
ATOM     19  C   UNL     1      -7.847  13.071  -3.197  1.00  0.00     0.000 C 
BRANCH  19  20
ATOM     20  C   UNL     1      -7.020  12.434  -4.325  1.00  0.00     0.000 C 
BRANCH  20  21
ATOM     21  C   UNL     1      -7.898  11.698  -5.353  1.00  0.00     0.000 C 
BRANCH  21  22
ATOM     22  C   UNL     1      -7.680  12.217  -6.784  1.00  0.00    -0.000 C 
BRANCH  22  23
ATOM     23  C   UNL     1      -6.883  13.533  -6.815  1.00  0.00    -0.000 C 
BRANCH  23  24
ATOM     24  C   UNL     1      -7.733  14.730  -7.269  1.00  0.00    -0.000 C 
BRANCH  24  25
ATOM     25  C   UNL     1      -8.947  14.306  -8.113  1.00  0.00    -0.000 C 
BRANCH  25  26
ATOM     26  C   UNL     1     -10.282  14.814  -7.521  1.00  0.00    -0.000 C 
BRANCH  26  27
ATOM     27  C   UNL     1     -11.414  13.774  -7.576  1.00  0.00    -0.000 C 
BRANCH  27  28
ATOM     28  C   UNL     1     -11.416  12.760  -6.418  1.00  0.00    -0.000 C 
BRANCH  28  29
ATOM     29  C   UNL     1     -10.994  13.365  -5.060  1.00  0.00    -0.003 C 
ATOM     30  C   UNL     1     -11.510  12.568  -3.863  1.00  0.00     0.004 C 
ENDBRANCH  28  29
ENDBRANCH  27  28
ENDBRANCH  26  27
ENDBRANCH  25  26
ENDBRANCH  24  25
ENDBRANCH  23  24
ENDBRANCH  22  23
ENDBRANCH  21  22
ENDBRANCH  20  21
ENDBRANCH  19  20
ENDBRANCH  18  19
ENDBRANCH  17  18
ENDBRANCH   1  17
TORSDOF 26
ENDMDL
MODEL 7
REMARK VINA RESULT:    -3.680      1.051      2.053
REMARK INTER + INTRA:         -14.592
REMARK INTER:                  -9.940
REMARK INTRA:                  -4.652
REMARK UNBOUND:                -5.318
REMARK SMILES CCCCCCCCCCCCCCCCCCCCCCCCCCCC(=O)[O-]
REMARK SMILES IDX 15 1 16 2 17 3 18 4 19 5 20 6 21 7 22 8 23 9 24 10 25 11
REMARK SMILES IDX 26 12 27 13 28 14 29 15 30 16 14 17 13 18 12 19 11 20 10 21
REMARK SMILES IDX 9 22 8 23 7 24 6 25 5 26 4 27 3 28 2 29 1 30
REMARK H PARENT
REMARK Flexibility Score: inf
ROOT
ATOM      1  C   UNL     1      -9.041  17.021  -1.958  1.00  0.00     0.000 C 
ENDROOT
BRANCH   1   2
ATOM      2  C   UNL     1     -10.183  16.445  -1.091  1.00  0.00     0.000 C 
BRANCH   2   3
ATOM      3  C   UNL     1     -11.024  15.366  -1.798  1.00  0.00     0.000 C 
BRANCH   3   4
ATOM      4  C   UNL     1     -11.003  13.982  -1.127  1.00  0.00     0.000 C 
BRANCH   4   5
ATOM      5  C   UNL     1     -10.873  12.831  -2.139  1.00  0.00     0.000 C 
BRANCH   5   6
ATOM      6  C   UNL     1     -10.884  13.318  -3.595  1.00  0.00     0.000 C 
BRANCH   6   7
ATOM      7  C   UNL     1     -10.146  12.363  -4.550  1.00  0.00     0.000 C 
BRANCH   7   8
ATOM      8  C   UNL     1     -10.829  12.237  -5.923  1.00  0.00     0.000 C 
BRANCH   8   9
ATOM      9  C   UNL     1     -11.303  13.568  -6.534  1.00  0.00     0.000 C 
BRANCH   9  10
ATOM     10  C   UNL     1     -10.248  14.220  -7.445  1.00  0.00     0.000 C 
BRANCH  10  11
ATOM     11  C   UNL     1      -9.157  14.953  -6.650  1.00  0.00     0.000 C 
BRANCH  11  12
ATOM     12  C   UNL     1      -7.747  14.697  -7.210  1.00  0.00     0.006 C 
BRANCH  12  13
ATOM     13  C   UNL     1      -7.387  13.206  -7.217  1.00  0.00     0.053 C 
BRANCH  13  14
ATOM     14  C   UNL     1      -6.286  12.891  -6.251  1.00  0.00     0.041 C 
ATOM     15  O   UNL     1      -5.757  13.811  -5.571  1.00  0.00    -0.550 OA
ATOM     16  O   UNL     1      -5.850  11.581  -6.095  1.00  0.00    -0.550 OA
ENDBRANCH  13  14
ENDBRANCH  12  13
ENDBRANCH  11  12
ENDBRANCH  10  11
ENDBRANCH   9  10
ENDBRANCH   8   9
ENDBRANCH   7   8
ENDBRANCH   6   7
ENDBRANCH   5   6
ENDBRANCH   4   5
ENDBRANCH   3   4
ENDBRANCH   2   3
ENDBRANCH   1   2
BRANCH   1  17
ATOM     17  C   UNL     1      -8.611  16.058  -3.081  1.00  0.00     0.000 C 
BRANCH  17  18
ATOM     18  C   UNL     1      -7.272  15.363  -2.789  1.00  0.00     0.000 C 
BRANCH  18  19
ATOM     19  C   UNL     1      -7.450  13.971  -2.158  1.00  0.00     0.000 C 
BRANCH  19  20
ATOM     20  C   UNL     1      -7.115  13.964  -0.658  1.00  0.00     0.000 C 
BRANCH  20  21
ATOM     21  C   UNL     1      -6.367  15.235  -0.217  1.00  0.00     0.000 C 
BRANCH  21  22
ATOM     22  C   UNL     1      -7.101  15.984   0.907  1.00  0.00    -0.000 C 
BRANCH  22  23
ATOM     23  C   UNL     1      -6.151  16.420   2.037  1.00  0.00    -0.000 C 
BRANCH  23  24
ATOM     24  C   UNL     1      -6.511  17.798   2.614  1.00  0.00    -0.000 C 
BRANCH  24  25
ATOM     25  C   UNL     1      -7.573  17.715   3.723  1.00  0.00    -0.000 C 
BRANCH  25  26
ATOM     26  C   UNL     1      -8.832  18.552   3.396  1.00  0.00    -0.000 C 
BRANCH  26  27
ATOM     27  C   UNL     1     -10.056  17.700   3.019  1.00  0.00    -0.000 C 
BRANCH  27  28
ATOM     28  C   UNL     1     -10.008  16.245   3.521  1.00  0.00    -0.000 C 
BRANCH  28  29
ATOM     29  C   UNL     1     -10.398  15.203   2.448  1.00  0.00    -0.003 C 
ATOM     30  C   UNL     1     -11.909  15.083   2.252  1.00  0.00     0.004 C 
ENDBRANCH  28  29
ENDBRANCH  27  28
ENDBRANCH  26  27
ENDBRANCH  25  26
ENDBRANCH  24  25
ENDBRANCH  23  24
ENDBRANCH  22  23
ENDBRANCH  21  22
ENDBRANCH  20  21
ENDBRANCH  19  20
ENDBRANCH  18  19
ENDBRANCH  17  18
ENDBRANCH   1  17
TORSDOF 26
ENDMDL
MODEL 8
REMARK VINA RESULT:    -3.645      3.141      7.850
REMARK INTER + INTRA:         -14.502
REMARK INTER:                  -9.126
REMARK INTRA:                  -5.376
REMARK UNBOUND:                -5.318
REMARK SMILES CCCCCCCCCCCCCCCCCCCCCCCCCCCC(=O)[O-]
REMARK SMILES IDX 15 1 16 2 17 3 18 4 19 5 20 6 21 7 22 8 23 9 24 10 25 11
REMARK SMILES IDX 26 12 27 13 28 14 29 15 30 16 14 17 13 18 12 19 11 20 10 21
REMARK SMILES IDX 9 22 8 23 7 24 6 25 5 26 4 27 3 28 2 29 1 30
REMARK H PARENT
REMARK Flexibility Score: inf
ROOT
ATOM      1  C   UNL     1      -7.786  15.965  -1.924  1.00  0.00     0.000 C 
ENDROOT
BRANCH   1   2
ATOM      2  C   UNL     1      -6.613  15.005  -2.223  1.00  0.00     0.000 C 
BRANCH   2   3
ATOM      3  C   UNL     1      -6.170  14.161  -1.012  1.00  0.00     0.000 C 
BRANCH   3   4
ATOM      4  C   UNL     1      -7.228  13.176  -0.486  1.00  0.00     0.000 C 
BRANCH   4   5
ATOM      5  C   UNL     1      -7.617  12.110  -1.526  1.00  0.00     0.000 C 
BRANCH   5   6
ATOM      6  C   UNL     1      -9.074  12.240  -1.990  1.00  0.00     0.000 C 
BRANCH   6   7
ATOM      7  C   UNL     1     -10.022  12.691  -0.863  1.00  0.00     0.000 C 
BRANCH   7   8
ATOM      8  C   UNL     1     -11.136  13.633  -1.353  1.00  0.00     0.000 C 
BRANCH   8   9
ATOM      9  C   UNL     1     -11.147  15.021  -0.689  1.00  0.00     0.000 C 
BRANCH   9  10
ATOM     10  C   UNL     1     -10.325  15.072   0.610  1.00  0.00     0.000 C 
BRANCH  10  11
ATOM     11  C   UNL     1      -9.959  16.508   1.018  1.00  0.00     0.000 C 
BRANCH  11  12
ATOM     12  C   UNL     1      -8.532  16.615   1.584  1.00  0.00     0.006 C 
BRANCH  12  13
ATOM     13  C   UNL     1      -8.495  17.349   2.930  1.00  0.00     0.053 C 
BRANCH  13  14
ATOM     14  C   UNL     1      -7.150  17.950   3.203  1.00  0.00     0.041 C 
ATOM     15  O   UNL     1      -6.300  18.048   2.278  1.00  0.00    -0.550 OA
ATOM     16  O   UNL     1      -6.838  18.410   4.477  1.00  0.00    -0.550 OA
ENDBRANCH  13  14
ENDBRANCH  12  13
ENDBRANCH  11  12
ENDBRANCH  10  11
ENDBRANCH   9  10
ENDBRANCH   8   9
ENDBRANCH   7   8
ENDBRANCH   6   7
ENDBRANCH   5   6
ENDBRANCH   4   5
ENDBRANCH   3   4
ENDBRANCH   2   3
ENDBRANCH   1   2
BRANCH   1  17
ATOM     17  C   UNL     1      -8.733  16.132  -3.127  1.00  0.00     0.000 C 
BRANCH  17  18
ATOM     18  C   UNL     1      -8.460  15.114  -4.245  1.00  0.00     0.000 C 
BRANCH  18  19
ATOM     19  C   UNL     1      -8.340  15.772  -5.631  1.00  0.00     0.000 C 
BRANCH  19  20
ATOM     20  C   UNL     1      -7.272  15.096  -6.506  1.00  0.00     0.000 C 
BRANCH  20  21
ATOM     21  C   UNL     1      -6.197  14.379  -5.672  1.00  0.00     0.000 C 
BRANCH  21  22
ATOM     22  C   UNL     1      -6.055  12.895  -6.052  1.00  0.00    -0.000 C 
BRANCH  22  23
ATOM     23  C   UNL     1      -6.930  11.981  -5.176  1.00  0.00    -0.000 C 
BRANCH  23  24
ATOM     24  C   UNL     1      -7.958  11.185  -5.995  1.00  0.00    -0.000 C 
BRANCH  24  25
ATOM     25  C   UNL     1      -7.819  11.420  -7.508  1.00  0.00    -0.000 C 
BRANCH  25  26
ATOM     26  C   UNL     1      -8.984  12.258  -8.083  1.00  0.00    -0.000 C 
BRANCH  26  27
ATOM     27  C   UNL     1     -10.348  11.548  -8.006  1.00  0.00    -0.000 C 
BRANCH  27  28
ATOM     28  C   UNL     1     -11.515  12.443  -7.552  1.00  0.00    -0.000 C 
BRANCH  28  29
ATOM     29  C   UNL     1     -11.125  13.474  -6.469  1.00  0.00    -0.003 C 
ATOM     30  C   UNL     1     -11.163  12.899  -5.054  1.00  0.00     0.004 C 
ENDBRANCH  28  29
ENDBRANCH  27  28
ENDBRANCH  26  27
ENDBRANCH  25  26
ENDBRANCH  24  25
ENDBRANCH  23  24
ENDBRANCH  22  23
ENDBRANCH  21  22
ENDBRANCH  20  21
ENDBRANCH  19  20
ENDBRANCH  18  19
ENDBRANCH  17  18
ENDBRANCH   1  17
TORSDOF 26
ENDMDL
MODEL 9
REMARK VINA RESULT:    -3.638      1.905      4.777
REMARK INTER + INTRA:         -14.484
REMARK INTER:                  -9.749
REMARK INTRA:                  -4.736
REMARK UNBOUND:                -5.318
REMARK SMILES CCCCCCCCCCCCCCCCCCCCCCCCCCCC(=O)[O-]
REMARK SMILES IDX 15 1 16 2 17 3 18 4 19 5 20 6 21 7 22 8 23 9 24 10 25 11
REMARK SMILES IDX 26 12 27 13 28 14 29 15 30 16 14 17 13 18 12 19 11 20 10 21
REMARK SMILES IDX 9 22 8 23 7 24 6 25 5 26 4 27 3 28 2 29 1 30
REMARK H PARENT
REMARK Flexibility Score: inf
ROOT
ATOM      1  C   UNL     1      -7.227  15.008  -5.135  1.00  0.00     0.000 C 
ENDROOT
BRANCH   1   2
ATOM      2  C   UNL     1      -7.247  15.027  -6.680  1.00  0.00     0.000 C 
BRANCH   2   3
ATOM      3  C   UNL     1      -7.455  13.641  -7.320  1.00  0.00     0.000 C 
BRANCH   3   4
ATOM      4  C   UNL     1      -8.664  13.538  -8.266  1.00  0.00     0.000 C 
BRANCH   4   5
ATOM      5  C   UNL     1      -9.655  14.703  -8.095  1.00  0.00     0.000 C 
BRANCH   5   6
ATOM      6  C   UNL     1     -10.981  14.263  -7.460  1.00  0.00     0.000 C 
BRANCH   6   7
ATOM      7  C   UNL     1     -11.150  12.732  -7.430  1.00  0.00     0.000 C 
BRANCH   7   8
ATOM      8  C   UNL     1     -11.215  12.161  -6.002  1.00  0.00     0.000 C 
BRANCH   8   9
ATOM      9  C   UNL     1     -10.862  13.163  -4.889  1.00  0.00     0.000 C 
BRANCH   9  10
ATOM     10  C   UNL     1     -10.082  12.520  -3.728  1.00  0.00     0.000 C 
BRANCH  10  11
ATOM     11  C   UNL     1      -8.723  11.959  -4.174  1.00  0.00     0.000 C 
BRANCH  11  12
ATOM     12  C   UNL     1      -7.710  11.879  -3.018  1.00  0.00     0.006 C 
BRANCH  12  13
ATOM     13  C   UNL     1      -8.330  12.282  -1.674  1.00  0.00     0.053 C 
BRANCH  13  14
ATOM     14  C   UNL     1      -7.315  12.875  -0.745  1.00  0.00     0.041 C 
ATOM     15  O   UNL     1      -7.425  12.714   0.499  1.00  0.00    -0.550 OA
ATOM     16  O   UNL     1      -6.242  13.598  -1.255  1.00  0.00    -0.550 OA
ENDBRANCH  13  14
ENDBRANCH  12  13
ENDBRANCH  11  12
ENDBRANCH  10  11
ENDBRANCH   9  10
ENDBRANCH   8   9
ENDBRANCH   7   8
ENDBRANCH   6   7
ENDBRANCH   5   6
ENDBRANCH   4   5
ENDBRANCH   3   4
ENDBRANCH   2   3
ENDBRANCH   1   2
BRANCH   1  17
ATOM     17  C   UNL     1      -8.400  15.794  -4.520  1.00  0.00     0.000 C 
BRANCH  17  18
ATOM     18  C   UNL     1      -8.380  15.789  -2.984  1.00  0.00     0.000 C 
BRANCH  18  19
ATOM     19  C   UNL     1      -8.882  17.111  -2.378  1.00  0.00     0.000 C 
BRANCH  19  20
ATOM     20  C   UNL     1      -9.773  16.887  -1.146  1.00  0.00     0.000 C 
BRANCH  20  21
ATOM     21  C   UNL     1     -10.763  15.725  -1.341  1.00  0.00     0.000 C 
BRANCH  21  22
ATOM     22  C   UNL     1     -10.604  14.635  -0.268  1.00  0.00    -0.000 C 
BRANCH  22  23
ATOM     23  C   UNL     1     -10.955  15.146   1.141  1.00  0.00    -0.000 C 
BRANCH  23  24
ATOM     24  C   UNL     1      -9.806  14.957   2.143  1.00  0.00    -0.000 C 
BRANCH  24  25
ATOM     25  C   UNL     1      -9.709  16.110   3.156  1.00  0.00    -0.000 C 
BRANCH  25  26
ATOM     26  C   UNL     1      -9.118  17.394   2.530  1.00  0.00    -0.000 C 
BRANCH  26  27
ATOM     27  C   UNL     1      -8.038  18.061   3.399  1.00  0.00    -0.000 C 
BRANCH  27  28
ATOM     28  C   UNL     1      -6.601  17.917   2.867  1.00  0.00    -0.000 C 
BRANCH  28  29
ATOM     29  C   UNL     1      -6.517  17.248   1.477  1.00  0.00    -0.003 C 
ATOM     30  C   UNL     1      -5.967  15.823   1.530  1.00  0.00     0.004 C 
ENDBRANCH  28  29
ENDBRANCH  27  28
ENDBRANCH  26  27
ENDBRANCH  25  26
ENDBRANCH  24  25
ENDBRANCH  23  24
ENDBRANCH  22  23
ENDBRANCH  21  22
ENDBRANCH  20  21
ENDBRANCH  19  20
ENDBRANCH  18  19
ENDBRANCH  17  18
ENDBRANCH   1  17
TORSDOF 26
ENDMDL
