MODEL 1
REMARK VINA RESULT:    -3.713      0.000      0.000
REMARK INTER + INTRA:          -5.507
REMARK INTER:                  -5.233
REMARK INTRA:                  -0.274
REMARK UNBOUND:                -0.274
REMARK SMILES CCCCCCCCC(=O)[O-]
REMARK SMILES IDX 6 1 7 2 8 3 9 4 10 5 11 6 5 7 4 8 3 9 2 10 1 11
REMARK H PARENT
REMARK Flexibility Score: inf
ROOT
ATOM      1  C   UNL     1     -18.723  20.367  43.304  1.00  0.00     0.000 C 
ENDROOT
BRANCH   1   2
ATOM      2  C   UNL     1     -17.575  19.375  43.062  1.00  0.00     0.006 C 
BRANCH   2   3
ATOM      3  C   UNL     1     -17.442  19.048  41.572  1.00  0.00     0.053 C 
BRANCH   3   4
ATOM      4  C   UNL     1     -16.963  17.643  41.384  1.00  0.00     0.041 C 
ATOM      5  O   UNL     1     -16.767  17.190  40.227  1.00  0.00    -0.550 OA
ATOM      6  O   UNL     1     -16.782  16.817  42.487  1.00  0.00    -0.550 OA
ENDBRANCH   3   4
ENDBRANCH   2   3
ENDBRANCH   1   2
BRANCH   1   7
ATOM      7  C   UNL     1     -19.235  21.015  42.006  1.00  0.00     0.000 C 
BRANCH   7   8
ATOM      8  C   UNL     1     -20.747  20.858  41.756  1.00  0.00    -0.000 C 
BRANCH   8   9
ATOM      9  C   UNL     1     -21.437  22.155  41.283  1.00  0.00    -0.000 C 
BRANCH   9  10
ATOM     10  C   UNL     1     -22.308  21.933  40.037  1.00  0.00    -0.003 C 
ATOM     11  C   UNL     1     -21.520  22.203  38.759  1.00  0.00     0.004 C 
ENDBRANCH   9  10
ENDBRANCH   8   9
ENDBRANCH   7   8
ENDBRANCH   1   7
TORSDOF 7
ENDMDL
MODEL 2
REMARK VINA RESULT:    -3.675      2.020      2.775
REMARK INTER + INTRA:          -5.453
REMARK INTER:                  -5.235
REMARK INTRA:                  -0.218
REMARK UNBOUND:                -0.274
REMARK SMILES CCCCCCCCC(=O)[O-]
REMARK SMILES IDX 6 1 7 2 8 3 9 4 10 5 11 6 5 7 4 8 3 9 2 10 1 11
REMARK H PARENT
REMARK Flexibility Score: inf
ROOT
ATOM      1  C   UNL     1     -20.352  20.436  42.059  1.00  0.00     0.000 C 
ENDROOT
BRANCH   1   2
ATOM      2  C   UNL     1     -18.911  20.728  41.612  1.00  0.00     0.006 C 
BRANCH   2   3
ATOM      3  C   UNL     1     -17.941  19.690  42.182  1.00  0.00     0.053 C 
BRANCH   3   4
ATOM      4  C   UNL     1     -17.556  20.046  43.584  1.00  0.00     0.041 C 
ATOM      5  O   UNL     1     -17.493  21.253  43.936  1.00  0.00    -0.550 OA
ATOM      6  O   UNL     1     -17.218  19.046  44.487  1.00  0.00    -0.550 OA
ENDBRANCH   3   4
ENDBRANCH   2   3
ENDBRANCH   1   2
BRANCH   1   7
ATOM      7  C   UNL     1     -21.354  21.495  41.570  1.00  0.00     0.000 C 
BRANCH   7   8
ATOM      8  C   UNL     1     -21.419  21.668  40.041  1.00  0.00    -0.000 C 
BRANCH   8   9
ATOM      9  C   UNL     1     -22.780  22.192  39.531  1.00  0.00    -0.000 C 
BRANCH   9  10
ATOM     10  C   UNL     1     -23.485  21.185  38.610  1.00  0.00    -0.003 C 
ATOM     11  C   UNL     1     -22.749  21.045  37.281  1.00  0.00     0.004 C 
ENDBRANCH   9  10
ENDBRANCH   8   9
ENDBRANCH   7   8
ENDBRANCH   1   7
TORSDOF 7
ENDMDL
MODEL 3
REMARK VINA RESULT:    -3.555      2.256      3.206
REMARK INTER + INTRA:          -5.284
REMARK INTER:                  -4.776
REMARK INTRA:                  -0.507
REMARK UNBOUND:                -0.274
REMARK SMILES CCCCCCCCC(=O)[O-]
REMARK SMILES IDX 6 1 7 2 8 3 9 4 10 5 11 6 5 7 4 8 3 9 2 10 1 11
REMARK H PARENT
REMARK Flexibility Score: inf
ROOT
ATOM      1  C   UNL     1     -20.548  20.604  41.917  1.00  0.00     0.000 C 
ENDROOT
BRANCH   1   2
ATOM      2  C   UNL     1     -19.065  20.818  41.574  1.00  0.00     0.006 C 
BRANCH   2   3
ATOM      3  C   UNL     1     -18.217  19.642  42.066  1.00  0.00     0.053 C 
BRANCH   3   4
ATOM      4  C   UNL     1     -17.636  19.942  43.412  1.00  0.00     0.041 C 
ATOM      5  O   UNL     1     -17.282  19.004  44.173  1.00  0.00    -0.550 OA
ATOM      6  O   UNL     1     -17.533  21.258  43.846  1.00  0.00    -0.550 OA
ENDBRANCH   3   4
ENDBRANCH   2   3
ENDBRANCH   1   2
BRANCH   1   7
ATOM      7  C   UNL     1     -21.476  21.591  41.187  1.00  0.00     0.000 C 
BRANCH   7   8
ATOM      8  C   UNL     1     -20.873  22.237  39.926  1.00  0.00    -0.000 C 
BRANCH   8   9
ATOM      9  C   UNL     1     -20.939  23.779  39.924  1.00  0.00    -0.000 C 
BRANCH   9  10
ATOM     10  C   UNL     1     -19.811  24.413  40.752  1.00  0.00    -0.003 C 
ATOM     11  C   UNL     1     -20.336  24.949  42.080  1.00  0.00     0.004 C 
ENDBRANCH   9  10
ENDBRANCH   8   9
ENDBRANCH   7   8
ENDBRANCH   1   7
TORSDOF 7
ENDMDL
MODEL 4
REMARK VINA RESULT:    -3.553     16.709     17.938
REMARK INTER + INTRA:          -5.281
REMARK INTER:                  -4.793
REMARK INTRA:                  -0.488
REMARK UNBOUND:                -0.274
REMARK SMILES CCCCCCCCC(=O)[O-]
REMARK SMILES IDX 6 1 7 2 8 3 9 4 10 5 11 6 5 7 4 8 3 9 2 10 1 11
REMARK H PARENT
REMARK Flexibility Score: inf
ROOT
ATOM      1  C   UNL     1      -7.938  30.513  47.014  1.00  0.00     0.000 C 
ENDROOT
BRANCH   1   2
ATOM      2  C   UNL     1      -7.170  31.838  46.892  1.00  0.00     0.006 C 
BRANCH   2   3
ATOM      3  C   UNL     1      -5.825  31.758  47.618  1.00  0.00     0.053 C 
BRANCH   3   4
ATOM      4  C   UNL     1      -5.537  33.041  48.332  1.00  0.00     0.041 C 
ATOM      5  O   UNL     1      -4.417  33.601  48.201  1.00  0.00    -0.550 OA
ATOM      6  O   UNL     1      -6.487  33.592  49.183  1.00  0.00    -0.550 OA
ENDBRANCH   3   4
ENDBRANCH   2   3
ENDBRANCH   1   2
BRANCH   1   7
ATOM      7  C   UNL     1      -8.366  29.945  45.650  1.00  0.00     0.000 C 
BRANCH   7   8
ATOM      8  C   UNL     1      -7.379  28.939  45.027  1.00  0.00    -0.000 C 
BRANCH   8   9
ATOM      9  C   UNL     1      -7.675  27.469  45.394  1.00  0.00    -0.000 C 
BRANCH   9  10
ATOM     10  C   UNL     1      -6.508  26.808  46.141  1.00  0.00    -0.003 C 
ATOM     11  C   UNL     1      -5.412  27.821  46.458  1.00  0.00     0.004 C 
ENDBRANCH   9  10
ENDBRANCH   8   9
ENDBRANCH   7   8
ENDBRANCH   1   7
TORSDOF 7
ENDMDL
MODEL 5
REMARK VINA RESULT:    -3.542     17.014     18.128
REMARK INTER + INTRA:          -5.265
REMARK INTER:                  -4.840
REMARK INTRA:                  -0.425
REMARK UNBOUND:                -0.274
REMARK SMILES CCCCCCCCC(=O)[O-]
REMARK SMILES IDX 6 1 7 2 8 3 9 4 10 5 11 6 5 7 4 8 3 9 2 10 1 11
REMARK H PARENT
REMARK Flexibility Score: inf
ROOT
ATOM      1  C   UNL     1      -6.501  30.319  47.246  1.00  0.00     0.000 C 
ENDROOT
BRANCH   1   2
ATOM      2  C   UNL     1      -5.631  31.558  47.509  1.00  0.00     0.006 C 
BRANCH   2   3
ATOM      3  C   UNL     1      -6.483  32.723  48.020  1.00  0.00     0.053 C 
BRANCH   3   4
ATOM      4  C   UNL     1      -5.715  33.539  49.012  1.00  0.00     0.041 C 
ATOM      5  O   UNL     1      -4.528  33.881  48.768  1.00  0.00    -0.550 OA
ATOM      6  O   UNL     1      -6.293  33.877  50.230  1.00  0.00    -0.550 OA
ENDBRANCH   3   4
ENDBRANCH   2   3
ENDBRANCH   1   2
BRANCH   1   7
ATOM      7  C   UNL     1      -7.957  30.675  46.903  1.00  0.00     0.000 C 
BRANCH   7   8
ATOM      8  C   UNL     1      -8.587  29.821  45.786  1.00  0.00    -0.000 C 
BRANCH   8   9
ATOM      9  C   UNL     1      -7.554  29.079  44.912  1.00  0.00    -0.000 C 
BRANCH   9  10
ATOM     10  C   UNL     1      -7.814  27.567  44.857  1.00  0.00    -0.003 C 
ATOM     11  C   UNL     1      -6.986  26.827  45.902  1.00  0.00     0.004 C 
ENDBRANCH   9  10
ENDBRANCH   8   9
ENDBRANCH   7   8
ENDBRANCH   1   7
TORSDOF 7
ENDMDL
MODEL 6
REMARK VINA RESULT:    -3.510      2.483      3.993
REMARK INTER + INTRA:          -5.220
REMARK INTER:                  -5.001
REMARK INTRA:                  -0.219
REMARK UNBOUND:                -0.274
REMARK SMILES CCCCCCCCC(=O)[O-]
REMARK SMILES IDX 6 1 7 2 8 3 9 4 10 5 11 6 5 7 4 8 3 9 2 10 1 11
REMARK H PARENT
REMARK Flexibility Score: inf
ROOT
ATOM      1  C   UNL     1     -21.713  22.247  40.960  1.00  0.00     0.000 C 
ENDROOT
BRANCH   1   2
ATOM      2  C   UNL     1     -20.501  21.303  40.918  1.00  0.00     0.006 C 
BRANCH   2   3
ATOM      3  C   UNL     1     -19.301  21.924  41.637  1.00  0.00     0.053 C 
BRANCH   3   4
ATOM      4  C   UNL     1     -18.375  20.856  42.130  1.00  0.00     0.041 C 
ATOM      5  O   UNL     1     -18.437  19.693  41.652  1.00  0.00    -0.550 OA
ATOM      6  O   UNL     1     -17.479  21.133  43.155  1.00  0.00    -0.550 OA
ENDBRANCH   3   4
ENDBRANCH   2   3
ENDBRANCH   1   2
BRANCH   1   7
ATOM      7  C   UNL     1     -22.653  22.064  39.757  1.00  0.00     0.000 C 
BRANCH   7   8
ATOM      8  C   UNL     1     -21.948  21.720  38.430  1.00  0.00    -0.000 C 
BRANCH   8   9
ATOM      9  C   UNL     1     -22.854  20.989  37.416  1.00  0.00    -0.000 C 
BRANCH   9  10
ATOM     10  C   UNL     1     -22.521  21.360  35.963  1.00  0.00    -0.003 C 
ATOM     11  C   UNL     1     -23.786  21.456  35.116  1.00  0.00     0.004 C 
ENDBRANCH   9  10
ENDBRANCH   8   9
ENDBRANCH   7   8
ENDBRANCH   1   7
TORSDOF 7
ENDMDL
MODEL 7
REMARK VINA RESULT:    -3.509     16.690     17.801
REMARK INTER + INTRA:          -5.219
REMARK INTER:                  -4.823
REMARK INTRA:                  -0.396
REMARK UNBOUND:                -0.274
REMARK SMILES CCCCCCCCC(=O)[O-]
REMARK SMILES IDX 6 1 7 2 8 3 9 4 10 5 11 6 5 7 4 8 3 9 2 10 1 11
REMARK H PARENT
REMARK Flexibility Score: inf
ROOT
ATOM      1  C   UNL     1      -7.870  30.313  46.729  1.00  0.00     0.000 C 
ENDROOT
BRANCH   1   2
ATOM      2  C   UNL     1      -6.984  29.657  45.659  1.00  0.00     0.006 C 
BRANCH   2   3
ATOM      3  C   UNL     1      -7.147  28.135  45.674  1.00  0.00     0.053 C 
BRANCH   3   4
ATOM      4  C   UNL     1      -5.971  27.488  46.338  1.00  0.00     0.041 C 
ATOM      5  O   UNL     1      -5.933  26.238  46.481  1.00  0.00    -0.550 OA
ATOM      6  O   UNL     1      -4.942  28.272  46.844  1.00  0.00    -0.550 OA
ENDBRANCH   3   4
ENDBRANCH   2   3
ENDBRANCH   1   2
BRANCH   1   7
ATOM      7  C   UNL     1      -7.306  31.653  47.231  1.00  0.00     0.000 C 
BRANCH   7   8
ATOM      8  C   UNL     1      -5.771  31.777  47.161  1.00  0.00    -0.000 C 
BRANCH   8   9
ATOM      9  C   UNL     1      -5.197  32.900  48.051  1.00  0.00    -0.000 C 
BRANCH   9  10
ATOM     10  C   UNL     1      -6.298  33.754  48.697  1.00  0.00    -0.003 C 
ATOM     11  C   UNL     1      -6.099  33.859  50.206  1.00  0.00     0.004 C 
ENDBRANCH   9  10
ENDBRANCH   8   9
ENDBRANCH   7   8
ENDBRANCH   1   7
TORSDOF 7
ENDMDL
MODEL 8
REMARK VINA RESULT:    -3.483     17.497     18.743
REMARK INTER + INTRA:          -5.182
REMARK INTER:                  -4.798
REMARK INTRA:                  -0.384
REMARK UNBOUND:                -0.274
REMARK SMILES CCCCCCCCC(=O)[O-]
REMARK SMILES IDX 6 1 7 2 8 3 9 4 10 5 11 6 5 7 4 8 3 9 2 10 1 11
REMARK H PARENT
REMARK Flexibility Score: inf
ROOT
ATOM      1  C   UNL     1      -7.577  31.860  46.518  1.00  0.00     0.000 C 
ENDROOT
BRANCH   1   2
ATOM      2  C   UNL     1      -6.398  32.696  47.040  1.00  0.00     0.006 C 
BRANCH   2   3
ATOM      3  C   UNL     1      -6.779  33.433  48.326  1.00  0.00     0.053 C 
BRANCH   3   4
ATOM      4  C   UNL     1      -5.583  33.594  49.212  1.00  0.00     0.041 C 
ATOM      5  O   UNL     1      -4.426  33.611  48.718  1.00  0.00    -0.550 OA
ATOM      6  O   UNL     1      -5.746  33.673  50.590  1.00  0.00    -0.550 OA
ENDBRANCH   3   4
ENDBRANCH   2   3
ENDBRANCH   1   2
BRANCH   1   7
ATOM      7  C   UNL     1      -7.464  30.372  46.891  1.00  0.00     0.000 C 
BRANCH   7   8
ATOM      8  C   UNL     1      -6.052  29.912  47.302  1.00  0.00    -0.000 C 
BRANCH   8   9
ATOM      9  C   UNL     1      -5.571  28.645  46.564  1.00  0.00    -0.000 C 
BRANCH   9  10
ATOM     10  C   UNL     1      -6.702  27.961  45.781  1.00  0.00    -0.003 C 
ATOM     11  C   UNL     1      -6.842  26.496  46.182  1.00  0.00     0.004 C 
ENDBRANCH   9  10
ENDBRANCH   8   9
ENDBRANCH   7   8
ENDBRANCH   1   7
TORSDOF 7
ENDMDL
MODEL 9
REMARK VINA RESULT:    -3.483     18.315     19.515
REMARK INTER + INTRA:          -5.182
REMARK INTER:                  -4.756
REMARK INTRA:                  -0.426
REMARK UNBOUND:                -0.274
REMARK SMILES CCCCCCCCC(=O)[O-]
REMARK SMILES IDX 6 1 7 2 8 3 9 4 10 5 11 6 5 7 4 8 3 9 2 10 1 11
REMARK H PARENT
REMARK Flexibility Score: inf
ROOT
ATOM      1  C   UNL     1      -5.359  32.222  47.474  1.00  0.00     0.000 C 
ENDROOT
BRANCH   1   2
ATOM      2  C   UNL     1      -5.059  33.391  48.425  1.00  0.00     0.006 C 
BRANCH   2   3
ATOM      3  C   UNL     1      -6.327  34.198  48.715  1.00  0.00     0.053 C 
BRANCH   3   4
ATOM      4  C   UNL     1      -6.572  34.278  50.189  1.00  0.00     0.041 C 
ATOM      5  O   UNL     1      -7.522  34.972  50.637  1.00  0.00    -0.550 OA
ATOM      6  O   UNL     1      -5.720  33.625  51.071  1.00  0.00    -0.550 OA
ENDBRANCH   3   4
ENDBRANCH   2   3
ENDBRANCH   1   2
BRANCH   1   7
ATOM      7  C   UNL     1      -6.862  32.052  47.195  1.00  0.00     0.000 C 
BRANCH   7   8
ATOM      8  C   UNL     1      -7.368  30.597  47.228  1.00  0.00    -0.000 C 
BRANCH   8   9
ATOM      9  C   UNL     1      -6.989  29.779  45.975  1.00  0.00    -0.000 C 
BRANCH   9  10
ATOM     10  C   UNL     1      -6.292  28.457  46.330  1.00  0.00    -0.003 C 
ATOM     11  C   UNL     1      -4.806  28.674  46.599  1.00  0.00     0.004 C 
ENDBRANCH   9  10
ENDBRANCH   8   9
ENDBRANCH   7   8
ENDBRANCH   1   7
TORSDOF 7
ENDMDL
