MODEL 1
REMARK VINA RESULT:    -5.339      0.000      0.000
REMARK INTER + INTRA:          -6.665
REMARK INTER:                  -6.587
REMARK INTRA:                  -0.078
REMARK UNBOUND:                -0.078
REMARK SMILES Oc1cc(O)c2cc(O)c(-c3cc(O)c(O)c(O)c3)[o+]c2c1
REMARK SMILES IDX 10 1 20 2 21 3 22 4 2 5 3 6 4 7 6 8 7 9 8 10 11 11 12 12
REMARK SMILES IDX 13 13 19 14 15 15 17 16 14 17 16 19 18 21 9 23 1 25 5 27
REMARK H PARENT 14 18 16 20 18 22 9 24 1 26 5 28
REMARK Flexibility Score: inf
ROOT
ATOM      1  C   UNL     1     -22.564 -21.238  -6.618  1.00  0.00     0.402 A 
ATOM      2  O   UNL     1     -22.108 -19.990  -6.685  1.00  0.00    -0.202 OA
ATOM      3  C   UNL     1     -22.758 -18.947  -6.178  1.00  0.00     0.368 A 
ATOM      4  C   UNL     1     -22.195 -17.673  -6.296  1.00  0.00     0.162 A 
ATOM      5  C   UNL     1     -22.856 -16.559  -5.770  1.00  0.00     0.128 A 
ATOM      6  C   UNL     1     -24.083 -16.721  -5.123  1.00  0.00     0.093 A 
ATOM      7  C   UNL     1     -24.668 -17.987  -4.992  1.00  0.00     0.136 A 
ATOM      8  C   UNL     1     -24.002 -19.120  -5.527  1.00  0.00     0.125 A 
ATOM      9  C   UNL     1     -24.519 -20.424  -5.453  1.00  0.00     0.078 A 
ATOM     10  C   UNL     1     -23.807 -21.492  -6.009  1.00  0.00     0.223 A 
ENDROOT
BRANCH   1  11
ATOM     11  C   UNL     1     -21.742 -22.317  -7.211  1.00  0.00     0.091 A 
ATOM     12  C   UNL     1     -22.283 -23.221  -8.141  1.00  0.00     0.068 A 
ATOM     13  C   UNL     1     -21.494 -24.250  -8.674  1.00  0.00     0.162 A 
ATOM     14  C   UNL     1     -20.411 -22.478  -6.797  1.00  0.00     0.068 A 
ATOM     15  C   UNL     1     -20.160 -24.390  -8.273  1.00  0.00     0.200 A 
ATOM     16  C   UNL     1     -19.617 -23.503  -7.329  1.00  0.00     0.162 A 
BRANCH  13  17
ATOM     17  O   UNL     1     -22.032 -25.141  -9.601  1.00  0.00    -0.504 OA
ATOM     18  H   UNL     1     -22.767 -25.791  -9.347  1.00  0.00     0.293 HD
ENDBRANCH  13  17
BRANCH  15  19
ATOM     19  O   UNL     1     -19.388 -25.418  -8.818  1.00  0.00    -0.502 OA
ATOM     20  H   UNL     1     -18.752 -25.969  -8.256  1.00  0.00     0.293 HD
ENDBRANCH  15  19
BRANCH  16  21
ATOM     21  O   UNL     1     -18.291 -23.644  -6.920  1.00  0.00    -0.504 OA
ATOM     22  H   UNL     1     -17.909 -23.098  -6.157  1.00  0.00     0.293 HD
ENDBRANCH  16  21
ENDBRANCH   1  11
BRANCH  10  23
ATOM     23  O   UNL     1     -24.343 -22.779  -5.981  1.00  0.00    -0.500 OA
ATOM     24  H   UNL     1     -24.979 -23.107  -6.698  1.00  0.00     0.294 HD
ENDBRANCH  10  23
BRANCH   5  25
ATOM     25  O   UNL     1     -22.301 -15.286  -5.884  1.00  0.00    -0.507 OA
ATOM     26  H   UNL     1     -21.921 -14.950  -6.761  1.00  0.00     0.293 HD
ENDBRANCH   5  25
BRANCH   7  27
ATOM     27  O   UNL     1     -25.896 -18.062  -4.328  1.00  0.00    -0.507 OA
ATOM     28  H   UNL     1     -26.610 -17.349  -4.368  1.00  0.00     0.293 HD
ENDBRANCH   7  27
TORSDOF 7
ENDMDL
MODEL 2
REMARK VINA RESULT:    -5.206      1.745      6.860
REMARK INTER + INTRA:          -6.501
REMARK INTER:                  -6.176
REMARK INTRA:                  -0.325
REMARK UNBOUND:                -0.078
REMARK SMILES Oc1cc(O)c2cc(O)c(-c3cc(O)c(O)c(O)c3)[o+]c2c1
REMARK SMILES IDX 10 1 20 2 21 3 22 4 2 5 3 6 4 7 6 8 7 9 8 10 11 11 12 12
REMARK SMILES IDX 13 13 19 14 15 15 17 16 14 17 16 19 18 21 9 23 1 25 5 27
REMARK H PARENT 14 18 16 20 18 22 9 24 1 26 5 28
REMARK Flexibility Score: inf
ROOT
ATOM      1  C   UNL     1     -22.825 -20.493  -6.060  1.00  0.00     0.402 A 
ATOM      2  O   UNL     1     -22.021 -20.918  -7.032  1.00  0.00    -0.202 OA
ATOM      3  C   UNL     1     -21.429 -22.108  -7.022  1.00  0.00     0.368 A 
ATOM      4  C   UNL     1     -20.605 -22.465  -8.091  1.00  0.00     0.162 A 
ATOM      5  C   UNL     1     -19.972 -23.712  -8.108  1.00  0.00     0.128 A 
ATOM      6  C   UNL     1     -20.167 -24.604  -7.051  1.00  0.00     0.093 A 
ATOM      7  C   UNL     1     -20.989 -24.270  -5.968  1.00  0.00     0.136 A 
ATOM      8  C   UNL     1     -21.631 -23.004  -5.945  1.00  0.00     0.125 A 
ATOM      9  C   UNL     1     -22.461 -22.579  -4.895  1.00  0.00     0.078 A 
ATOM     10  C   UNL     1     -23.056 -21.314  -4.941  1.00  0.00     0.223 A 
ENDROOT
BRANCH   1  11
ATOM     11  C   UNL     1     -23.433 -19.149  -6.191  1.00  0.00     0.091 A 
ATOM     12  C   UNL     1     -24.800 -18.990  -6.476  1.00  0.00     0.068 A 
ATOM     13  C   UNL     1     -25.351 -17.709  -6.618  1.00  0.00     0.162 A 
ATOM     14  C   UNL     1     -22.620 -18.010  -6.084  1.00  0.00     0.068 A 
ATOM     15  C   UNL     1     -24.538 -16.577  -6.488  1.00  0.00     0.200 A 
ATOM     16  C   UNL     1     -23.167 -16.728  -6.223  1.00  0.00     0.162 A 
BRANCH  13  17
ATOM     17  O   UNL     1     -26.709 -17.554  -6.895  1.00  0.00    -0.504 OA
ATOM     18  H   UNL     1     -27.071 -17.641  -7.837  1.00  0.00     0.293 HD
ENDBRANCH  13  17
BRANCH  15  19
ATOM     19  O   UNL     1     -25.106 -15.310  -6.628  1.00  0.00    -0.502 OA
ATOM     20  H   UNL     1     -25.810 -14.961  -5.991  1.00  0.00     0.293 HD
ENDBRANCH  15  19
BRANCH  16  21
ATOM     21  O   UNL     1     -22.351 -15.603  -6.101  1.00  0.00    -0.504 OA
ATOM     22  H   UNL     1     -21.816 -15.247  -6.883  1.00  0.00     0.293 HD
ENDBRANCH  16  21
ENDBRANCH   1  11
BRANCH  10  23
ATOM     23  O   UNL     1     -23.840 -20.872  -3.875  1.00  0.00    -0.500 OA
ATOM     24  H   UNL     1     -23.440 -20.675  -2.965  1.00  0.00     0.294 HD
ENDBRANCH  10  23
BRANCH   5  25
ATOM     25  O   UNL     1     -19.148 -24.075  -9.171  1.00  0.00    -0.507 OA
ATOM     26  H   UNL     1     -18.933 -25.045  -9.368  1.00  0.00     0.293 HD
ENDBRANCH   5  25
BRANCH   7  27
ATOM     27  O   UNL     1     -21.133 -25.220  -4.953  1.00  0.00    -0.507 OA
ATOM     28  H   UNL     1     -21.937 -25.822  -4.846  1.00  0.00     0.293 HD
ENDBRANCH   7  27
TORSDOF 7
ENDMDL
MODEL 3
REMARK VINA RESULT:    -5.178      1.634      1.775
REMARK INTER + INTRA:          -6.466
REMARK INTER:                  -6.109
REMARK INTRA:                  -0.357
REMARK UNBOUND:                -0.078
REMARK SMILES Oc1cc(O)c2cc(O)c(-c3cc(O)c(O)c(O)c3)[o+]c2c1
REMARK SMILES IDX 10 1 20 2 21 3 22 4 2 5 3 6 4 7 6 8 7 9 8 10 11 11 12 12
REMARK SMILES IDX 13 13 19 14 15 15 17 16 14 17 16 19 18 21 9 23 1 25 5 27
REMARK H PARENT 14 18 16 20 18 22 9 24 1 26 5 28
REMARK Flexibility Score: inf
ROOT
ATOM      1  C   UNL     1     -22.933 -20.606  -6.111  1.00  0.00     0.402 A 
ATOM      2  O   UNL     1     -22.365 -19.537  -5.558  1.00  0.00    -0.202 OA
ATOM      3  C   UNL     1     -23.019 -18.405  -5.318  1.00  0.00     0.368 A 
ATOM      4  C   UNL     1     -22.337 -17.338  -4.729  1.00  0.00     0.162 A 
ATOM      5  C   UNL     1     -23.002 -16.136  -4.463  1.00  0.00     0.128 A 
ATOM      6  C   UNL     1     -24.354 -16.004  -4.786  1.00  0.00     0.093 A 
ATOM      7  C   UNL     1     -25.061 -17.060  -5.377  1.00  0.00     0.136 A 
ATOM      8  C   UNL     1     -24.389 -18.280  -5.651  1.00  0.00     0.125 A 
ATOM      9  C   UNL     1     -25.013 -19.386  -6.251  1.00  0.00     0.078 A 
ATOM     10  C   UNL     1     -24.285 -20.554  -6.495  1.00  0.00     0.223 A 
ENDROOT
BRANCH   1  11
ATOM     11  C   UNL     1     -22.100 -21.813  -6.318  1.00  0.00     0.091 A 
ATOM     12  C   UNL     1     -21.518 -22.095  -7.566  1.00  0.00     0.068 A 
ATOM     13  C   UNL     1     -20.752 -23.254  -7.747  1.00  0.00     0.162 A 
ATOM     14  C   UNL     1     -21.932 -22.725  -5.264  1.00  0.00     0.068 A 
ATOM     15  C   UNL     1     -20.570 -24.148  -6.685  1.00  0.00     0.200 A 
ATOM     16  C   UNL     1     -21.165 -23.885  -5.440  1.00  0.00     0.162 A 
BRANCH  13  17
ATOM     17  O   UNL     1     -20.171 -23.528  -8.985  1.00  0.00    -0.504 OA
ATOM     18  H   UNL     1     -19.166 -23.522  -9.111  1.00  0.00     0.293 HD
ENDBRANCH  13  17
BRANCH  15  19
ATOM     19  O   UNL     1     -19.801 -25.295  -6.883  1.00  0.00    -0.502 OA
ATOM     20  H   UNL     1     -20.214 -26.185  -7.132  1.00  0.00     0.293 HD
ENDBRANCH  15  19
BRANCH  16  21
ATOM     21  O   UNL     1     -20.994 -24.776  -4.381  1.00  0.00    -0.504 OA
ATOM     22  H   UNL     1     -21.610 -25.569  -4.249  1.00  0.00     0.293 HD
ENDBRANCH  16  21
ENDBRANCH   1  11
BRANCH  10  23
ATOM     23  O   UNL     1     -24.891 -21.634  -7.137  1.00  0.00    -0.500 OA
ATOM     24  H   UNL     1     -24.489 -22.055  -7.967  1.00  0.00     0.294 HD
ENDBRANCH  10  23
BRANCH   5  25
ATOM     25  O   UNL     1     -22.327 -15.068  -3.878  1.00  0.00    -0.507 OA
ATOM     26  H   UNL     1     -21.467 -15.203  -3.360  1.00  0.00     0.293 HD
ENDBRANCH   5  25
BRANCH   7  27
ATOM     27  O   UNL     1     -26.412 -16.848  -5.666  1.00  0.00    -0.507 OA
ATOM     28  H   UNL     1     -27.159 -16.937  -4.993  1.00  0.00     0.293 HD
ENDBRANCH   7  27
TORSDOF 7
ENDMDL
MODEL 4
REMARK VINA RESULT:    -5.166      1.647      2.059
REMARK INTER + INTRA:          -6.452
REMARK INTER:                  -6.097
REMARK INTRA:                  -0.355
REMARK UNBOUND:                -0.078
REMARK SMILES Oc1cc(O)c2cc(O)c(-c3cc(O)c(O)c(O)c3)[o+]c2c1
REMARK SMILES IDX 10 1 20 2 21 3 22 4 2 5 3 6 4 7 6 8 7 9 8 10 11 11 12 12
REMARK SMILES IDX 13 13 19 14 15 15 17 16 14 17 16 19 18 21 9 23 1 25 5 27
REMARK H PARENT 14 18 16 20 18 22 9 24 1 26 5 28
REMARK Flexibility Score: inf
ROOT
ATOM      1  C   UNL     1     -23.013 -20.613  -6.107  1.00  0.00     0.402 A 
ATOM      2  O   UNL     1     -22.435 -19.552  -5.548  1.00  0.00    -0.202 OA
ATOM      3  C   UNL     1     -23.073 -18.409  -5.318  1.00  0.00     0.368 A 
ATOM      4  C   UNL     1     -22.380 -17.352  -4.723  1.00  0.00     0.162 A 
ATOM      5  C   UNL     1     -23.028 -16.139  -4.468  1.00  0.00     0.128 A 
ATOM      6  C   UNL     1     -24.373 -15.985  -4.808  1.00  0.00     0.093 A 
ATOM      7  C   UNL     1     -25.090 -17.030  -5.406  1.00  0.00     0.136 A 
ATOM      8  C   UNL     1     -24.436 -18.262  -5.669  1.00  0.00     0.125 A 
ATOM      9  C   UNL     1     -25.071 -19.358  -6.276  1.00  0.00     0.078 A 
ATOM     10  C   UNL     1     -24.359 -20.539  -6.509  1.00  0.00     0.223 A 
ENDROOT
BRANCH   1  11
ATOM     11  C   UNL     1     -22.198 -21.833  -6.301  1.00  0.00     0.091 A 
ATOM     12  C   UNL     1     -21.965 -22.733  -5.247  1.00  0.00     0.068 A 
ATOM     13  C   UNL     1     -21.172 -23.871  -5.446  1.00  0.00     0.162 A 
ATOM     14  C   UNL     1     -21.598 -22.072  -7.548  1.00  0.00     0.068 A 
ATOM     15  C   UNL     1     -20.596 -24.114  -6.698  1.00  0.00     0.200 A 
ATOM     16  C   UNL     1     -20.806 -23.210  -7.752  1.00  0.00     0.162 A 
BRANCH  13  17
ATOM     17  O   UNL     1     -20.948 -24.765  -4.400  1.00  0.00    -0.504 OA
ATOM     18  H   UNL     1     -20.629 -24.449  -3.492  1.00  0.00     0.293 HD
ENDBRANCH  13  17
BRANCH  15  19
ATOM     19  O   UNL     1     -19.812 -25.255  -6.879  1.00  0.00    -0.502 OA
ATOM     20  H   UNL     1     -18.818 -25.262  -6.691  1.00  0.00     0.293 HD
ENDBRANCH  15  19
BRANCH  16  21
ATOM     21  O   UNL     1     -20.227 -23.443  -8.999  1.00  0.00    -0.504 OA
ATOM     22  H   UNL     1     -20.744 -23.882  -9.752  1.00  0.00     0.293 HD
ENDBRANCH  16  21
ENDBRANCH   1  11
BRANCH  10  23
ATOM     23  O   UNL     1     -24.975 -21.610  -7.157  1.00  0.00    -0.500 OA
ATOM     24  H   UNL     1     -24.535 -22.520  -7.217  1.00  0.00     0.294 HD
ENDBRANCH  10  23
BRANCH   5  25
ATOM     25  O   UNL     1     -22.343 -15.081  -3.875  1.00  0.00    -0.507 OA
ATOM     26  H   UNL     1     -21.530 -15.236  -3.291  1.00  0.00     0.293 HD
ENDBRANCH   5  25
BRANCH   7  27
ATOM     27  O   UNL     1     -26.433 -16.795  -5.713  1.00  0.00    -0.507 OA
ATOM     28  H   UNL     1     -26.794 -16.693  -6.650  1.00  0.00     0.293 HD
ENDBRANCH   7  27
TORSDOF 7
ENDMDL
MODEL 5
REMARK VINA RESULT:    -5.161      1.782      7.076
REMARK INTER + INTRA:          -6.445
REMARK INTER:                  -6.140
REMARK INTRA:                  -0.305
REMARK UNBOUND:                -0.078
REMARK SMILES Oc1cc(O)c2cc(O)c(-c3cc(O)c(O)c(O)c3)[o+]c2c1
REMARK SMILES IDX 10 1 20 2 21 3 22 4 2 5 3 6 4 7 6 8 7 9 8 10 11 11 12 12
REMARK SMILES IDX 13 13 19 14 15 15 17 16 14 17 16 19 18 21 9 23 1 25 5 27
REMARK H PARENT 14 18 16 20 18 22 9 24 1 26 5 28
REMARK Flexibility Score: inf
ROOT
ATOM      1  C   UNL     1     -22.873 -20.540  -6.079  1.00  0.00     0.402 A 
ATOM      2  O   UNL     1     -22.095 -21.028  -7.043  1.00  0.00    -0.202 OA
ATOM      3  C   UNL     1     -21.549 -22.239  -6.998  1.00  0.00     0.368 A 
ATOM      4  C   UNL     1     -20.749 -22.663  -8.062  1.00  0.00     0.162 A 
ATOM      5  C   UNL     1     -20.165 -23.934  -8.042  1.00  0.00     0.128 A 
ATOM      6  C   UNL     1     -20.384 -24.782  -6.954  1.00  0.00     0.093 A 
ATOM      7  C   UNL     1     -21.182 -24.379  -5.875  1.00  0.00     0.136 A 
ATOM      8  C   UNL     1     -21.775 -23.090  -5.890  1.00  0.00     0.125 A 
ATOM      9  C   UNL     1     -22.578 -22.598  -4.848  1.00  0.00     0.078 A 
ATOM     10  C   UNL     1     -23.124 -21.314  -4.932  1.00  0.00     0.223 A 
ENDROOT
BRANCH   1  11
ATOM     11  C   UNL     1     -23.430 -19.179  -6.250  1.00  0.00     0.091 A 
ATOM     12  C   UNL     1     -22.626 -18.035  -6.108  1.00  0.00     0.068 A 
ATOM     13  C   UNL     1     -23.178 -16.756  -6.251  1.00  0.00     0.162 A 
ATOM     14  C   UNL     1     -24.802 -19.023  -6.505  1.00  0.00     0.068 A 
ATOM     15  C   UNL     1     -24.543 -16.608  -6.528  1.00  0.00     0.200 A 
ATOM     16  C   UNL     1     -25.359 -17.745  -6.651  1.00  0.00     0.162 A 
BRANCH  13  17
ATOM     17  O   UNL     1     -22.376 -15.623  -6.116  1.00  0.00    -0.504 OA
ATOM     18  H   UNL     1     -22.182 -15.014  -6.902  1.00  0.00     0.293 HD
ENDBRANCH  13  17
BRANCH  15  19
ATOM     19  O   UNL     1     -25.075 -15.325  -6.672  1.00  0.00    -0.502 OA
ATOM     20  H   UNL     1     -25.904 -15.144  -7.224  1.00  0.00     0.293 HD
ENDBRANCH  15  19
BRANCH  16  21
ATOM     21  O   UNL     1     -26.720 -17.602  -6.918  1.00  0.00    -0.504 OA
ATOM     22  H   UNL     1     -27.228 -16.766  -6.657  1.00  0.00     0.293 HD
ENDBRANCH  16  21
ENDBRANCH   1  11
BRANCH  10  23
ATOM     23  O   UNL     1     -23.881 -20.806  -3.875  1.00  0.00    -0.500 OA
ATOM     24  H   UNL     1     -23.913 -21.267  -2.973  1.00  0.00     0.294 HD
ENDBRANCH  10  23
BRANCH   5  25
ATOM     25  O   UNL     1     -19.366 -24.363  -9.099  1.00  0.00    -0.507 OA
ATOM     26  H   UNL     1     -18.389 -24.595  -8.964  1.00  0.00     0.293 HD
ENDBRANCH   5  25
BRANCH   7  27
ATOM     27  O   UNL     1     -21.353 -25.289  -4.827  1.00  0.00    -0.507 OA
ATOM     28  H   UNL     1     -21.785 -25.064  -3.943  1.00  0.00     0.293 HD
ENDBRANCH   7  27
TORSDOF 7
ENDMDL
MODEL 6
REMARK VINA RESULT:    -4.649      5.186      8.783
REMARK INTER + INTRA:          -5.814
REMARK INTER:                  -5.556
REMARK INTRA:                  -0.258
REMARK UNBOUND:                -0.078
REMARK SMILES Oc1cc(O)c2cc(O)c(-c3cc(O)c(O)c(O)c3)[o+]c2c1
REMARK SMILES IDX 10 1 20 2 21 3 22 4 2 5 3 6 4 7 6 8 7 9 8 10 11 11 12 12
REMARK SMILES IDX 13 13 19 14 15 15 17 16 14 17 16 19 18 21 9 23 1 25 5 27
REMARK H PARENT 14 18 16 20 18 22 9 24 1 26 5 28
REMARK Flexibility Score: inf
ROOT
ATOM      1  C   UNL     1     -25.734 -15.250  -7.444  1.00  0.00     0.402 A 
ATOM      2  O   UNL     1     -24.515 -15.393  -6.931  1.00  0.00    -0.202 OA
ATOM      3  C   UNL     1     -24.204 -16.325  -6.036  1.00  0.00     0.368 A 
ATOM      4  C   UNL     1     -22.893 -16.399  -5.559  1.00  0.00     0.162 A 
ATOM      5  C   UNL     1     -22.538 -17.371  -4.619  1.00  0.00     0.128 A 
ATOM      6  C   UNL     1     -23.498 -18.273  -4.156  1.00  0.00     0.093 A 
ATOM      7  C   UNL     1     -24.819 -18.221  -4.619  1.00  0.00     0.136 A 
ATOM      8  C   UNL     1     -25.184 -17.234  -5.571  1.00  0.00     0.125 A 
ATOM      9  C   UNL     1     -26.486 -17.098  -6.081  1.00  0.00     0.078 A 
ATOM     10  C   UNL     1     -26.772 -16.097  -7.014  1.00  0.00     0.223 A 
ENDROOT
BRANCH   1  11
ATOM     11  C   UNL     1     -25.953 -14.179  -8.442  1.00  0.00     0.091 A 
ATOM     12  C   UNL     1     -26.302 -14.478  -9.771  1.00  0.00     0.068 A 
ATOM     13  C   UNL     1     -26.482 -13.450 -10.706  1.00  0.00     0.162 A 
ATOM     14  C   UNL     1     -25.755 -12.840  -8.073  1.00  0.00     0.068 A 
ATOM     15  C   UNL     1     -26.304 -12.115 -10.325  1.00  0.00     0.200 A 
ATOM     16  C   UNL     1     -25.936 -11.808  -9.004  1.00  0.00     0.162 A 
BRANCH  13  17
ATOM     17  O   UNL     1     -26.834 -13.749 -12.022  1.00  0.00    -0.504 OA
ATOM     18  H   UNL     1     -27.764 -14.072 -12.262  1.00  0.00     0.293 HD
ENDBRANCH  13  17
BRANCH  15  19
ATOM     19  O   UNL     1     -26.493 -11.104 -11.269  1.00  0.00    -0.502 OA
ATOM     20  H   UNL     1     -25.745 -10.481 -11.548  1.00  0.00     0.293 HD
ENDBRANCH  15  19
BRANCH  16  21
ATOM     21  O   UNL     1     -25.750 -10.480  -8.621  1.00  0.00    -0.504 OA
ATOM     22  H   UNL     1     -26.290 -10.062  -7.873  1.00  0.00     0.293 HD
ENDBRANCH  16  21
ENDBRANCH   1  11
BRANCH  10  23
ATOM     23  O   UNL     1     -28.076 -15.931  -7.483  1.00  0.00    -0.500 OA
ATOM     24  H   UNL     1     -28.580 -15.061  -7.356  1.00  0.00     0.294 HD
ENDBRANCH  10  23
BRANCH   5  25
ATOM     25  O   UNL     1     -21.233 -17.449  -4.138  1.00  0.00    -0.507 OA
ATOM     26  H   UNL     1     -20.734 -18.330  -4.099  1.00  0.00     0.293 HD
ENDBRANCH   5  25
BRANCH   7  27
ATOM     27  O   UNL     1     -25.717 -19.162  -4.108  1.00  0.00    -0.507 OA
ATOM     28  H   UNL     1     -25.445 -20.001  -3.616  1.00  0.00     0.293 HD
ENDBRANCH   7  27
TORSDOF 7
ENDMDL
MODEL 7
REMARK VINA RESULT:    -4.488     10.931     13.522
REMARK INTER + INTRA:          -5.615
REMARK INTER:                  -5.330
REMARK INTRA:                  -0.285
REMARK UNBOUND:                -0.078
REMARK SMILES Oc1cc(O)c2cc(O)c(-c3cc(O)c(O)c(O)c3)[o+]c2c1
REMARK SMILES IDX 10 1 20 2 21 3 22 4 2 5 3 6 4 7 6 8 7 9 8 10 11 11 12 12
REMARK SMILES IDX 13 13 19 14 15 15 17 16 14 17 16 19 18 21 9 23 1 25 5 27
REMARK H PARENT 14 18 16 20 18 22 9 24 1 26 5 28
REMARK Flexibility Score: inf
ROOT
ATOM      1  C   UNL     1     -19.762 -27.913 -16.808  1.00  0.00     0.402 A 
ATOM      2  O   UNL     1     -19.383 -27.408 -15.637  1.00  0.00    -0.202 OA
ATOM      3  C   UNL     1     -18.125 -27.425 -15.207  1.00  0.00     0.368 A 
ATOM      4  C   UNL     1     -17.824 -26.865 -13.963  1.00  0.00     0.162 A 
ATOM      5  C   UNL     1     -16.509 -26.868 -13.488  1.00  0.00     0.128 A 
ATOM      6  C   UNL     1     -15.492 -27.431 -14.262  1.00  0.00     0.093 A 
ATOM      7  C   UNL     1     -15.768 -27.999 -15.512  1.00  0.00     0.136 A 
ATOM      8  C   UNL     1     -17.102 -28.001 -15.997  1.00  0.00     0.125 A 
ATOM      9  C   UNL     1     -17.473 -28.558 -17.232  1.00  0.00     0.078 A 
ATOM     10  C   UNL     1     -18.809 -28.527 -17.641  1.00  0.00     0.223 A 
ENDROOT
BRANCH   1  11
ATOM     11  C   UNL     1     -21.193 -27.824 -17.179  1.00  0.00     0.091 A 
ATOM     12  C   UNL     1     -21.623 -27.021 -18.249  1.00  0.00     0.068 A 
ATOM     13  C   UNL     1     -22.984 -26.932 -18.569  1.00  0.00     0.162 A 
ATOM     14  C   UNL     1     -22.148 -28.511 -16.413  1.00  0.00     0.068 A 
ATOM     15  C   UNL     1     -23.929 -27.638 -17.815  1.00  0.00     0.200 A 
ATOM     16  C   UNL     1     -23.511 -28.427 -16.731  1.00  0.00     0.162 A 
BRANCH  13  17
ATOM     17  O   UNL     1     -23.406 -26.139 -19.635  1.00  0.00    -0.504 OA
ATOM     18  H   UNL     1     -24.100 -25.411 -19.512  1.00  0.00     0.293 HD
ENDBRANCH  13  17
BRANCH  15  19
ATOM     19  O   UNL     1     -25.280 -27.541 -18.152  1.00  0.00    -0.502 OA
ATOM     20  H   UNL     1     -25.651 -27.926 -19.012  1.00  0.00     0.293 HD
ENDBRANCH  15  19
BRANCH  16  21
ATOM     21  O   UNL     1     -24.450 -29.125 -15.972  1.00  0.00    -0.504 OA
ATOM     22  H   UNL     1     -25.005 -28.666 -15.260  1.00  0.00     0.293 HD
ENDBRANCH  16  21
ENDBRANCH   1  11
BRANCH  10  23
ATOM     23  O   UNL     1     -19.186 -29.125 -18.844  1.00  0.00    -0.500 OA
ATOM     24  H   UNL     1     -20.078 -29.594 -18.949  1.00  0.00     0.294 HD
ENDBRANCH  10  23
BRANCH   5  25
ATOM     25  O   UNL     1     -16.202 -26.312 -12.248  1.00  0.00    -0.507 OA
ATOM     26  H   UNL     1     -16.927 -26.036 -11.597  1.00  0.00     0.293 HD
ENDBRANCH   5  25
BRANCH   7  27
ATOM     27  O   UNL     1     -14.693 -28.539 -16.224  1.00  0.00    -0.507 OA
ATOM     28  H   UNL     1     -13.854 -28.030 -16.463  1.00  0.00     0.293 HD
ENDBRANCH   7  27
TORSDOF 7
ENDMDL
MODEL 8
REMARK VINA RESULT:    -4.334      4.009      6.788
REMARK INTER + INTRA:          -5.426
REMARK INTER:                  -5.042
REMARK INTRA:                  -0.384
REMARK UNBOUND:                -0.078
REMARK SMILES Oc1cc(O)c2cc(O)c(-c3cc(O)c(O)c(O)c3)[o+]c2c1
REMARK SMILES IDX 10 1 20 2 21 3 22 4 2 5 3 6 4 7 6 8 7 9 8 10 11 11 12 12
REMARK SMILES IDX 13 13 19 14 15 15 17 16 14 17 16 19 18 21 9 23 1 25 5 27
REMARK H PARENT 14 18 16 20 18 22 9 24 1 26 5 28
REMARK Flexibility Score: inf
ROOT
ATOM      1  C   UNL     1     -25.189 -15.682  -6.245  1.00  0.00     0.402 A 
ATOM      2  O   UNL     1     -24.959 -15.023  -7.378  1.00  0.00    -0.202 OA
ATOM      3  C   UNL     1     -25.697 -13.996  -7.789  1.00  0.00     0.368 A 
ATOM      4  C   UNL     1     -25.375 -13.366  -8.993  1.00  0.00     0.162 A 
ATOM      5  C   UNL     1     -26.133 -12.282  -9.447  1.00  0.00     0.128 A 
ATOM      6  C   UNL     1     -27.216 -11.827  -8.692  1.00  0.00     0.093 A 
ATOM      7  C   UNL     1     -27.560 -12.443  -7.481  1.00  0.00     0.136 A 
ATOM      8  C   UNL     1     -26.795 -13.544  -7.018  1.00  0.00     0.125 A 
ATOM      9  C   UNL     1     -27.073 -14.230  -5.824  1.00  0.00     0.078 A 
ATOM     10  C   UNL     1     -26.277 -15.311  -5.435  1.00  0.00     0.223 A 
ENDROOT
BRANCH   1  11
ATOM     11  C   UNL     1     -24.288 -16.803  -5.892  1.00  0.00     0.091 A 
ATOM     12  C   UNL     1     -23.190 -16.617  -5.035  1.00  0.00     0.068 A 
ATOM     13  C   UNL     1     -22.337 -17.686  -4.731  1.00  0.00     0.162 A 
ATOM     14  C   UNL     1     -24.500 -18.065  -6.467  1.00  0.00     0.068 A 
ATOM     15  C   UNL     1     -22.567 -18.949  -5.291  1.00  0.00     0.200 A 
ATOM     16  C   UNL     1     -23.651 -19.138  -6.165  1.00  0.00     0.162 A 
BRANCH  13  17
ATOM     17  O   UNL     1     -21.252 -17.500  -3.875  1.00  0.00    -0.504 OA
ATOM     18  H   UNL     1     -21.190 -16.693  -3.265  1.00  0.00     0.293 HD
ENDBRANCH  13  17
BRANCH  15  19
ATOM     19  O   UNL     1     -21.710 -20.003  -4.974  1.00  0.00    -0.502 OA
ATOM     20  H   UNL     1     -20.991 -19.919  -4.266  1.00  0.00     0.293 HD
ENDBRANCH  15  19
BRANCH  16  21
ATOM     21  O   UNL     1     -23.880 -20.392  -6.732  1.00  0.00    -0.504 OA
ATOM     22  H   UNL     1     -23.487 -20.649  -7.629  1.00  0.00     0.293 HD
ENDBRANCH  16  21
ENDBRANCH   1  11
BRANCH  10  23
ATOM     23  O   UNL     1     -26.584 -16.023  -4.275  1.00  0.00    -0.500 OA
ATOM     24  H   UNL     1     -27.494 -15.957  -3.834  1.00  0.00     0.294 HD
ENDBRANCH  10  23
BRANCH   5  25
ATOM     25  O   UNL     1     -25.817 -11.649 -10.647  1.00  0.00    -0.507 OA
ATOM     26  H   UNL     1     -26.435 -10.963 -11.063  1.00  0.00     0.293 HD
ENDBRANCH   5  25
BRANCH   7  27
ATOM     27  O   UNL     1     -28.656 -11.925  -6.785  1.00  0.00    -0.507 OA
ATOM     28  H   UNL     1     -29.215 -11.145  -7.101  1.00  0.00     0.293 HD
ENDBRANCH   7  27
TORSDOF 7
ENDMDL
