MODEL 1
REMARK VINA RESULT:    -1.186      0.000      0.000
REMARK INTER + INTRA:          -1.186
REMARK INTER:                  -1.186
REMARK INTRA:                   0.000
REMARK UNBOUND:                 0.000
REMARK SMILES CC1(C)O[C@]2(C)CC[C@H]1CC2
REMARK SMILES IDX 1 1 2 2 9 3 10 4 11 5 5 6 4 7 7 8 8 9 6 10 3 11
REMARK H PARENT
REMARK Flexibility Score: inf
ROOT
ATOM      1  C   UNL     1     -10.613  26.113 -11.051  1.00  0.00     0.042 C 
ATOM      2  C   UNL     1     -11.742  25.468 -11.885  1.00  0.00     0.066 C 
ATOM      3  C   UNL     1     -11.818  26.122 -13.319  1.00  0.00     0.021 C 
ATOM      4  C   UNL     1     -10.493  25.831 -14.062  1.00  0.00     0.009 C 
ATOM      5  C   UNL     1     -10.199  24.312 -14.000  1.00  0.00     0.035 C 
ATOM      6  C   UNL     1     -11.374  23.576 -13.295  1.00  0.00     0.066 C 
ATOM      7  O   UNL     1     -11.493  24.056 -11.955  1.00  0.00    -0.369 OA
ATOM      8  C   UNL     1     -12.693  23.875 -14.065  1.00  0.00     0.035 C 
ATOM      9  C   UNL     1     -12.928  25.404 -14.125  1.00  0.00     0.009 C 
ATOM     10  C   UNL     1     -11.111  22.066 -13.257  1.00  0.00     0.042 C 
ATOM     11  C   UNL     1     -13.062  25.685 -11.114  1.00  0.00     0.042 C 
ENDROOT
TORSDOF 0
ENDMDL
MODEL 2
REMARK VINA RESULT:     1.520     25.358     26.578
REMARK INTER + INTRA:           1.520
REMARK INTER:                   1.520
REMARK INTRA:                   0.000
REMARK UNBOUND:                 0.000
REMARK SMILES CC1(C)O[C@]2(C)CC[C@H]1CC2
REMARK SMILES IDX 1 1 2 2 9 3 10 4 11 5 5 6 4 7 7 8 8 9 6 10 3 11
REMARK H PARENT
REMARK Flexibility Score: inf
ROOT
ATOM      1  C   UNL     1     -20.848  10.085   3.798  1.00  0.00     0.042 C 
ATOM      2  C   UNL     1     -21.639   9.397   4.932  1.00  0.00     0.066 C 
ATOM      3  C   UNL     1     -23.082   8.991   4.439  1.00  0.00     0.021 C 
ATOM      4  C   UNL     1     -22.937   7.952   3.301  1.00  0.00     0.009 C 
ATOM      5  C   UNL     1     -22.012   6.805   3.775  1.00  0.00     0.035 C 
ATOM      6  C   UNL     1     -21.611   7.031   5.261  1.00  0.00     0.066 C 
ATOM      7  O   UNL     1     -20.886   8.256   5.371  1.00  0.00    -0.369 OA
ATOM      8  C   UNL     1     -22.903   7.122   6.125  1.00  0.00     0.035 C 
ATOM      9  C   UNL     1     -23.807   8.261   5.595  1.00  0.00     0.009 C 
ATOM     10  C   UNL     1     -20.721   5.884   5.753  1.00  0.00     0.042 C 
ATOM     11  C   UNL     1     -21.724  10.397   6.105  1.00  0.00     0.042 C 
ENDROOT
TORSDOF 0
ENDMDL
