MODEL 1
REMARK VINA RESULT:    -3.850      0.000      0.000
REMARK INTER + INTRA:          -3.850
REMARK INTER:                  -3.850
REMARK INTRA:                   0.000
REMARK UNBOUND:                 0.000
REMARK SMILES CC1=CC(=O)[C@H]2C[C@@H]1C2(C)C
REMARK SMILES IDX 1 1 2 2 3 3 4 4 5 5 6 6 7 7 8 8 9 9 10 10 11 11
REMARK H PARENT
REMARK Flexibility Score: inf
ROOT
ATOM      1  C   UNL     1      29.123  30.833  26.780  1.00  0.00     0.040 C 
ATOM      2  C   UNL     1      28.554  29.546  26.273  1.00  0.00    -0.066 C 
ATOM      3  C   UNL     1      29.125  28.348  26.582  1.00  0.00     0.047 C 
ATOM      4  C   UNL     1      28.480  27.133  25.988  1.00  0.00     0.159 C 
ATOM      5  O   UNL     1      28.937  25.973  26.168  1.00  0.00    -0.295 OA
ATOM      6  C   UNL     1      27.230  27.400  25.149  1.00  0.00     0.067 C 
ATOM      7  C   UNL     1      26.408  28.392  26.001  1.00  0.00     0.021 C 
ATOM      8  C   UNL     1      27.287  29.508  25.394  1.00  0.00     0.022 C 
ATOM      9  C   UNL     1      27.531  28.574  24.174  1.00  0.00    -0.019 C 
ATOM     10  C   UNL     1      28.922  28.619  23.479  1.00  0.00     0.012 C 
ATOM     11  C   UNL     1      26.439  28.729  23.084  1.00  0.00     0.012 C 
ENDROOT
TORSDOF 0
ENDMDL
MODEL 2
REMARK VINA RESULT:    -3.845     12.269     13.461
REMARK INTER + INTRA:          -3.845
REMARK INTER:                  -3.845
REMARK INTRA:                   0.000
REMARK UNBOUND:                 0.000
REMARK SMILES CC1=CC(=O)[C@H]2C[C@@H]1C2(C)C
REMARK SMILES IDX 1 1 2 2 3 3 4 4 5 5 6 6 7 7 8 8 9 9 10 10 11 11
REMARK H PARENT
REMARK Flexibility Score: inf
ROOT
ATOM      1  C   UNL     1      28.382  38.881  17.211  1.00  0.00     0.040 C 
ATOM      2  C   UNL     1      27.912  39.362  18.547  1.00  0.00    -0.066 C 
ATOM      3  C   UNL     1      26.661  39.075  19.004  1.00  0.00     0.047 C 
ATOM      4  C   UNL     1      26.299  39.641  20.344  1.00  0.00     0.159 C 
ATOM      5  O   UNL     1      25.160  39.479  20.857  1.00  0.00    -0.295 OA
ATOM      6  C   UNL     1      27.408  40.428  21.043  1.00  0.00     0.067 C 
ATOM      7  C   UNL     1      28.663  39.545  20.874  1.00  0.00     0.021 C 
ATOM      8  C   UNL     1      28.822  40.189  19.479  1.00  0.00     0.022 C 
ATOM      9  C   UNL     1      28.034  41.417  20.018  1.00  0.00    -0.019 C 
ATOM     10  C   UNL     1      27.085  42.168  19.042  1.00  0.00     0.012 C 
ATOM     11  C   UNL     1      28.958  42.461  20.696  1.00  0.00     0.012 C 
ENDROOT
TORSDOF 0
ENDMDL
MODEL 3
REMARK VINA RESULT:    -3.708     10.797     11.749
REMARK INTER + INTRA:          -3.708
REMARK INTER:                  -3.708
REMARK INTRA:                   0.000
REMARK UNBOUND:                 0.000
REMARK SMILES CC1=CC(=O)[C@H]2C[C@@H]1C2(C)C
REMARK SMILES IDX 1 1 2 2 3 3 4 4 5 5 6 6 7 7 8 8 9 9 10 10 11 11
REMARK H PARENT
REMARK Flexibility Score: inf
ROOT
ATOM      1  C   UNL     1      29.125  36.511  20.027  1.00  0.00     0.040 C 
ATOM      2  C   UNL     1      27.983  37.451  20.254  1.00  0.00    -0.066 C 
ATOM      3  C   UNL     1      26.744  36.994  20.589  1.00  0.00     0.047 C 
ATOM      4  C   UNL     1      25.678  38.032  20.759  1.00  0.00     0.159 C 
ATOM      5  O   UNL     1      24.485  37.733  21.030  1.00  0.00    -0.295 OA
ATOM      6  C   UNL     1      26.139  39.479  20.581  1.00  0.00     0.067 C 
ATOM      7  C   UNL     1      27.452  39.559  21.388  1.00  0.00     0.021 C 
ATOM      8  C   UNL     1      28.154  38.980  20.140  1.00  0.00     0.022 C 
ATOM      9  C   UNL     1      26.995  39.569  19.285  1.00  0.00    -0.019 C 
ATOM     10  C   UNL     1      26.527  38.773  18.033  1.00  0.00     0.012 C 
ATOM     11  C   UNL     1      27.263  41.034  18.856  1.00  0.00     0.012 C 
ENDROOT
TORSDOF 0
ENDMDL
MODEL 4
REMARK VINA RESULT:    -3.658     11.370     12.299
REMARK INTER + INTRA:          -3.658
REMARK INTER:                  -3.658
REMARK INTRA:                   0.000
REMARK UNBOUND:                 0.000
REMARK SMILES CC1=CC(=O)[C@H]2C[C@@H]1C2(C)C
REMARK SMILES IDX 1 1 2 2 3 3 4 4 5 5 6 6 7 7 8 8 9 9 10 10 11 11
REMARK H PARENT
REMARK Flexibility Score: inf
ROOT
ATOM      1  C   UNL     1      29.103  40.724  21.927  1.00  0.00     0.040 C 
ATOM      2  C   UNL     1      28.223  40.053  20.920  1.00  0.00    -0.066 C 
ATOM      3  C   UNL     1      27.118  39.352  21.299  1.00  0.00     0.047 C 
ATOM      4  C   UNL     1      26.337  38.699  20.200  1.00  0.00     0.159 C 
ATOM      5  O   UNL     1      25.319  37.993  20.426  1.00  0.00    -0.295 OA
ATOM      6  C   UNL     1      26.862  38.951  18.786  1.00  0.00     0.067 C 
ATOM      7  C   UNL     1      27.150  40.468  18.755  1.00  0.00     0.021 C 
ATOM      8  C   UNL     1      28.511  40.135  19.406  1.00  0.00     0.022 C 
ATOM      9  C   UNL     1      28.399  38.715  18.780  1.00  0.00    -0.019 C 
ATOM     10  C   UNL     1      28.965  37.509  19.584  1.00  0.00     0.012 C 
ATOM     11  C   UNL     1      28.980  38.656  17.344  1.00  0.00     0.012 C 
ENDROOT
TORSDOF 0
ENDMDL
MODEL 5
REMARK VINA RESULT:    -3.657      2.107      3.069
REMARK INTER + INTRA:          -3.657
REMARK INTER:                  -3.657
REMARK INTRA:                   0.000
REMARK UNBOUND:                 0.000
REMARK SMILES CC1=CC(=O)[C@H]2C[C@@H]1C2(C)C
REMARK SMILES IDX 1 1 2 2 3 3 4 4 5 5 6 6 7 7 8 8 9 9 10 10 11 11
REMARK H PARENT
REMARK Flexibility Score: inf
ROOT
ATOM      1  C   UNL     1      28.305  32.685  24.211  1.00  0.00     0.040 C 
ATOM      2  C   UNL     1      28.375  31.194  24.120  1.00  0.00    -0.066 C 
ATOM      3  C   UNL     1      28.798  30.572  22.984  1.00  0.00     0.047 C 
ATOM      4  C   UNL     1      28.793  29.074  23.007  1.00  0.00     0.159 C 
ATOM      5  O   UNL     1      29.125  28.384  22.007  1.00  0.00    -0.295 OA
ATOM      6  C   UNL     1      28.357  28.441  24.330  1.00  0.00     0.067 C 
ATOM      7  C   UNL     1      29.124  29.243  25.403  1.00  0.00     0.021 C 
ATOM      8  C   UNL     1      27.991  30.288  25.308  1.00  0.00     0.022 C 
ATOM      9  C   UNL     1      27.057  29.147  24.811  1.00  0.00    -0.019 C 
ATOM     10  C   UNL     1      25.971  29.495  23.753  1.00  0.00     0.012 C 
ATOM     11  C   UNL     1      26.374  28.391  25.978  1.00  0.00     0.012 C 
ENDROOT
TORSDOF 0
ENDMDL
MODEL 6
REMARK VINA RESULT:    -3.656     12.499     13.551
REMARK INTER + INTRA:          -3.656
REMARK INTER:                  -3.656
REMARK INTRA:                   0.000
REMARK UNBOUND:                 0.000
REMARK SMILES CC1=CC(=O)[C@H]2C[C@@H]1C2(C)C
REMARK SMILES IDX 1 1 2 2 3 3 4 4 5 5 6 6 7 7 8 8 9 9 10 10 11 11
REMARK H PARENT
REMARK Flexibility Score: inf
ROOT
ATOM      1  C   UNL     1      28.765  41.181  22.862  1.00  0.00     0.040 C 
ATOM      2  C   UNL     1      28.255  41.061  21.461  1.00  0.00    -0.066 C 
ATOM      3  C   UNL     1      27.860  42.157  20.754  1.00  0.00     0.047 C 
ATOM      4  C   UNL     1      27.339  41.902  19.372  1.00  0.00     0.159 C 
ATOM      5  O   UNL     1      26.907  42.828  18.635  1.00  0.00    -0.295 OA
ATOM      6  C   UNL     1      27.368  40.441  18.921  1.00  0.00     0.067 C 
ATOM      7  C   UNL     1      28.769  39.945  19.339  1.00  0.00     0.021 C 
ATOM      8  C   UNL     1      28.168  39.699  20.741  1.00  0.00     0.022 C 
ATOM      9  C   UNL     1      26.777  39.561  20.059  1.00  0.00    -0.019 C 
ATOM     10  C   UNL     1      25.527  40.083  20.824  1.00  0.00     0.012 C 
ATOM     11  C   UNL     1      26.490  38.111  19.593  1.00  0.00     0.012 C 
ENDROOT
TORSDOF 0
ENDMDL
MODEL 7
REMARK VINA RESULT:    -3.645     11.158     12.189
REMARK INTER + INTRA:          -3.645
REMARK INTER:                  -3.645
REMARK INTRA:                   0.000
REMARK UNBOUND:                 0.000
REMARK SMILES CC1=CC(=O)[C@H]2C[C@@H]1C2(C)C
REMARK SMILES IDX 1 1 2 2 3 3 4 4 5 5 6 6 7 7 8 8 9 9 10 10 11 11
REMARK H PARENT
REMARK Flexibility Score: inf
ROOT
ATOM      1  C   UNL     1      28.376  38.874  17.038  1.00  0.00     0.040 C 
ATOM      2  C   UNL     1      27.992  39.117  18.463  1.00  0.00    -0.066 C 
ATOM      3  C   UNL     1      28.872  39.656  19.352  1.00  0.00     0.047 C 
ATOM      4  C   UNL     1      28.379  39.821  20.757  1.00  0.00     0.159 C 
ATOM      5  O   UNL     1      29.110  40.271  21.678  1.00  0.00    -0.295 OA
ATOM      6  C   UNL     1      26.927  39.403  20.994  1.00  0.00     0.067 C 
ATOM      7  C   UNL     1      26.157  40.027  19.810  1.00  0.00     0.021 C 
ATOM      8  C   UNL     1      26.581  38.787  18.992  1.00  0.00     0.022 C 
ATOM      9  C   UNL     1      26.699  38.012  20.336  1.00  0.00    -0.019 C 
ATOM     10  C   UNL     1      27.818  36.939  20.470  1.00  0.00     0.012 C 
ATOM     11  C   UNL     1      25.356  37.369  20.767  1.00  0.00     0.012 C 
ENDROOT
TORSDOF 0
ENDMDL
MODEL 8
REMARK VINA RESULT:    -3.548     10.992     12.026
REMARK INTER + INTRA:          -3.548
REMARK INTER:                  -3.548
REMARK INTRA:                   0.000
REMARK UNBOUND:                 0.000
REMARK SMILES CC1=CC(=O)[C@H]2C[C@@H]1C2(C)C
REMARK SMILES IDX 1 1 2 2 3 3 4 4 5 5 6 6 7 7 8 8 9 9 10 10 11 11
REMARK H PARENT
REMARK Flexibility Score: inf
ROOT
ATOM      1  C   UNL     1      28.002  35.918  20.939  1.00  0.00     0.040 C 
ATOM      2  C   UNL     1      27.825  37.117  20.063  1.00  0.00    -0.066 C 
ATOM      3  C   UNL     1      28.618  37.323  18.975  1.00  0.00     0.047 C 
ATOM      4  C   UNL     1      28.362  38.577  18.195  1.00  0.00     0.159 C 
ATOM      5  O   UNL     1      29.053  38.899  17.193  1.00  0.00    -0.295 OA
ATOM      6  C   UNL     1      27.204  39.438  18.703  1.00  0.00     0.067 C 
ATOM      7  C   UNL     1      26.067  38.427  18.963  1.00  0.00     0.021 C 
ATOM      8  C   UNL     1      26.728  38.168  20.335  1.00  0.00     0.022 C 
ATOM      9  C   UNL     1      27.343  39.594  20.244  1.00  0.00    -0.019 C 
ATOM     10  C   UNL     1      28.762  39.823  20.839  1.00  0.00     0.012 C 
ATOM     11  C   UNL     1      26.397  40.682  20.814  1.00  0.00     0.012 C 
ENDROOT
TORSDOF 0
ENDMDL
