MODEL 1
REMARK VINA RESULT:    -5.194      0.000      0.000
REMARK INTER + INTRA:          -9.085
REMARK INTER:                  -8.230
REMARK INTRA:                  -0.855
REMARK UNBOUND:                -0.855
REMARK SMILES CCCCCCCCCCCC(=O)[O-]
REMARK SMILES IDX 7 1 8 2 9 3 10 4 11 5 12 6 13 7 14 8 6 9 5 10 4 11 3 12 2 13
REMARK SMILES IDX 1 14
REMARK H PARENT
REMARK Flexibility Score: inf
ROOT
ATOM      1  C   UNL     1      46.914 -45.771 165.675  1.00  0.00     0.000 C 
ENDROOT
BRANCH   1   2
ATOM      2  C   UNL     1      45.525 -46.063 165.090  1.00  0.00     0.000 C 
BRANCH   2   3
ATOM      3  C   UNL     1      45.526 -46.151 163.554  1.00  0.00     0.000 C 
BRANCH   3   4
ATOM      4  C   UNL     1      44.444 -47.067 162.948  1.00  0.00     0.006 C 
BRANCH   4   5
ATOM      5  C   UNL     1      45.006 -48.262 162.155  1.00  0.00     0.053 C 
BRANCH   5   6
ATOM      6  C   UNL     1      45.830 -49.178 163.008  1.00  0.00     0.041 C 
ATOM      7  O   UNL     1      46.967 -49.554 162.621  1.00  0.00    -0.550 OA
ATOM      8  O   UNL     1      45.360 -49.586 164.250  1.00  0.00    -0.550 OA
ENDBRANCH   5   6
ENDBRANCH   4   5
ENDBRANCH   3   4
ENDBRANCH   2   3
ENDBRANCH   1   2
BRANCH   1   9
ATOM      9  C   UNL     1      48.021 -46.274 164.735  1.00  0.00     0.000 C 
BRANCH   9  10
ATOM     10  C   UNL     1      48.543 -47.667 165.123  1.00  0.00    -0.000 C 
BRANCH  10  11
ATOM     11  C   UNL     1      50.079 -47.751 165.098  1.00  0.00    -0.000 C 
BRANCH  11  12
ATOM     12  C   UNL     1      50.745 -46.365 165.121  1.00  0.00    -0.000 C 
BRANCH  12  13
ATOM     13  C   UNL     1      52.058 -46.352 165.919  1.00  0.00    -0.003 C 
ATOM     14  C   UNL     1      52.766 -47.701 165.831  1.00  0.00     0.004 C 
ENDBRANCH  12  13
ENDBRANCH  11  12
ENDBRANCH  10  11
ENDBRANCH   9  10
ENDBRANCH   1   9
TORSDOF 10
ENDMDL
MODEL 2
REMARK VINA RESULT:    -5.080      2.650      5.887
REMARK INTER + INTRA:          -8.905
REMARK INTER:                  -7.719
REMARK INTRA:                  -1.186
REMARK UNBOUND:                -0.855
REMARK SMILES CCCCCCCCCCCC(=O)[O-]
REMARK SMILES IDX 7 1 8 2 9 3 10 4 11 5 12 6 13 7 14 8 6 9 5 10 4 11 3 12 2 13
REMARK SMILES IDX 1 14
REMARK H PARENT
REMARK Flexibility Score: inf
ROOT
ATOM      1  C   UNL     1      44.723 -47.134 162.641  1.00  0.00     0.000 C 
ENDROOT
BRANCH   1   2
ATOM      2  C   UNL     1      45.718 -46.114 163.213  1.00  0.00     0.000 C 
BRANCH   2   3
ATOM      3  C   UNL     1      45.585 -45.932 164.735  1.00  0.00     0.000 C 
BRANCH   3   4
ATOM      4  C   UNL     1      46.917 -45.880 165.509  1.00  0.00     0.006 C 
BRANCH   4   5
ATOM      5  C   UNL     1      48.007 -46.809 164.944  1.00  0.00     0.053 C 
BRANCH   5   6
ATOM      6  C   UNL     1      49.263 -46.070 164.591  1.00  0.00     0.041 C 
ATOM      7  O   UNL     1      49.203 -44.983 163.959  1.00  0.00    -0.550 OA
ATOM      8  O   UNL     1      50.498 -46.560 164.996  1.00  0.00    -0.550 OA
ENDBRANCH   5   6
ENDBRANCH   4   5
ENDBRANCH   3   4
ENDBRANCH   2   3
ENDBRANCH   1   2
BRANCH   1   9
ATOM      9  C   UNL     1      45.401 -48.495 162.420  1.00  0.00     0.000 C 
BRANCH   9  10
ATOM     10  C   UNL     1      45.505 -49.324 163.711  1.00  0.00    -0.000 C 
BRANCH  10  11
ATOM     11  C   UNL     1      44.134 -49.590 164.355  1.00  0.00    -0.000 C 
BRANCH  11  12
ATOM     12  C   UNL     1      43.906 -48.752 165.623  1.00  0.00    -0.000 C 
BRANCH  12  13
ATOM     13  C   UNL     1      42.485 -48.174 165.704  1.00  0.00    -0.003 C 
ATOM     14  C   UNL     1      41.677 -48.527 164.459  1.00  0.00     0.004 C 
ENDBRANCH  12  13
ENDBRANCH  11  12
ENDBRANCH  10  11
ENDBRANCH   9  10
ENDBRANCH   1   9
TORSDOF 10
ENDMDL
MODEL 3
REMARK VINA RESULT:    -5.074      4.210      8.167
REMARK INTER + INTRA:          -8.895
REMARK INTER:                  -7.920
REMARK INTRA:                  -0.974
REMARK UNBOUND:                -0.855
REMARK SMILES CCCCCCCCCCCC(=O)[O-]
REMARK SMILES IDX 7 1 8 2 9 3 10 4 11 5 12 6 13 7 14 8 6 9 5 10 4 11 3 12 2 13
REMARK SMILES IDX 1 14
REMARK H PARENT
REMARK Flexibility Score: inf
ROOT
ATOM      1  C   UNL     1      41.819 -48.379 165.051  1.00  0.00     0.000 C 
ENDROOT
BRANCH   1   2
ATOM      2  C   UNL     1      43.259 -48.155 165.536  1.00  0.00     0.000 C 
BRANCH   2   3
ATOM      3  C   UNL     1      44.266 -49.130 164.903  1.00  0.00     0.000 C 
BRANCH   3   4
ATOM      4  C   UNL     1      45.386 -48.469 164.074  1.00  0.00     0.006 C 
BRANCH   4   5
ATOM      5  C   UNL     1      45.293 -48.745 162.562  1.00  0.00     0.053 C 
BRANCH   5   6
ATOM      6  C   UNL     1      44.545 -47.672 161.829  1.00  0.00     0.041 C 
ATOM      7  O   UNL     1      44.239 -47.827 160.618  1.00  0.00    -0.550 OA
ATOM      8  O   UNL     1      44.151 -46.518 162.494  1.00  0.00    -0.550 OA
ENDBRANCH   5   6
ENDBRANCH   4   5
ENDBRANCH   3   4
ENDBRANCH   2   3
ENDBRANCH   1   2
BRANCH   1   9
ATOM      9  C   UNL     1      41.790 -49.343 163.854  1.00  0.00     0.000 C 
BRANCH   9  10
ATOM     10  C   UNL     1      40.588 -49.102 162.926  1.00  0.00    -0.000 C 
BRANCH  10  11
ATOM     11  C   UNL     1      40.711 -47.794 162.127  1.00  0.00    -0.000 C 
BRANCH  11  12
ATOM     12  C   UNL     1      39.379 -47.362 161.492  1.00  0.00    -0.000 C 
BRANCH  12  13
ATOM     13  C   UNL     1      38.247 -48.369 161.747  1.00  0.00    -0.003 C 
ATOM     14  C   UNL     1      37.227 -48.346 160.613  1.00  0.00     0.004 C 
ENDBRANCH  12  13
ENDBRANCH  11  12
ENDBRANCH  10  11
ENDBRANCH   9  10
ENDBRANCH   1   9
TORSDOF 10
ENDMDL
MODEL 4
REMARK VINA RESULT:    -5.028      2.888      5.987
REMARK INTER + INTRA:          -8.821
REMARK INTER:                  -7.807
REMARK INTRA:                  -1.014
REMARK UNBOUND:                -0.855
REMARK SMILES CCCCCCCCCCCC(=O)[O-]
REMARK SMILES IDX 7 1 8 2 9 3 10 4 11 5 12 6 13 7 14 8 6 9 5 10 4 11 3 12 2 13
REMARK SMILES IDX 1 14
REMARK H PARENT
REMARK Flexibility Score: inf
ROOT
ATOM      1  C   UNL     1      46.906 -45.794 165.697  1.00  0.00     0.000 C 
ENDROOT
BRANCH   1   2
ATOM      2  C   UNL     1      47.912 -46.248 164.629  1.00  0.00     0.000 C 
BRANCH   2   3
ATOM      3  C   UNL     1      48.554 -47.609 164.947  1.00  0.00     0.000 C 
BRANCH   3   4
ATOM      4  C   UNL     1      50.084 -47.586 165.136  1.00  0.00     0.006 C 
BRANCH   4   5
ATOM      5  C   UNL     1      50.697 -46.173 165.109  1.00  0.00     0.053 C 
BRANCH   5   6
ATOM      6  C   UNL     1      52.126 -46.161 165.560  1.00  0.00     0.041 C 
ATOM      7  O   UNL     1      52.647 -47.198 166.048  1.00  0.00    -0.550 OA
ATOM      8  O   UNL     1      52.897 -45.015 165.405  1.00  0.00    -0.550 OA
ENDBRANCH   5   6
ENDBRANCH   4   5
ENDBRANCH   3   4
ENDBRANCH   2   3
ENDBRANCH   1   2
BRANCH   1   9
ATOM      9  C   UNL     1      45.475 -45.792 165.137  1.00  0.00     0.000 C 
BRANCH   9  10
ATOM     10  C   UNL     1      45.427 -46.099 163.631  1.00  0.00    -0.000 C 
BRANCH  10  11
ATOM     11  C   UNL     1      44.490 -47.272 163.297  1.00  0.00    -0.000 C 
BRANCH  11  12
ATOM     12  C   UNL     1      45.149 -48.309 162.373  1.00  0.00    -0.000 C 
BRANCH  12  13
ATOM     13  C   UNL     1      45.763 -49.486 163.147  1.00  0.00    -0.003 C 
ATOM     14  C   UNL     1      45.288 -49.496 164.597  1.00  0.00     0.004 C 
ENDBRANCH  12  13
ENDBRANCH  11  12
ENDBRANCH  10  11
ENDBRANCH   9  10
ENDBRANCH   1   9
TORSDOF 10
ENDMDL
MODEL 5
REMARK VINA RESULT:    -5.025      5.716      7.429
REMARK INTER + INTRA:          -8.817
REMARK INTER:                  -7.842
REMARK INTRA:                  -0.975
REMARK UNBOUND:                -0.855
REMARK SMILES CCCCCCCCCCCC(=O)[O-]
REMARK SMILES IDX 7 1 8 2 9 3 10 4 11 5 12 6 13 7 14 8 6 9 5 10 4 11 3 12 2 13
REMARK SMILES IDX 1 14
REMARK H PARENT
REMARK Flexibility Score: inf
ROOT
ATOM      1  C   UNL     1      41.753 -49.429 163.890  1.00  0.00     0.000 C 
ENDROOT
BRANCH   1   2
ATOM      2  C   UNL     1      40.497 -49.031 163.100  1.00  0.00     0.000 C 
BRANCH   2   3
ATOM      3  C   UNL     1      40.658 -47.700 162.346  1.00  0.00     0.000 C 
BRANCH   3   4
ATOM      4  C   UNL     1      39.462 -47.300 161.458  1.00  0.00     0.006 C 
BRANCH   4   5
ATOM      5  C   UNL     1      38.307 -48.318 161.465  1.00  0.00     0.053 C 
BRANCH   5   6
ATOM      6  C   UNL     1      37.135 -47.861 160.651  1.00  0.00     0.041 C 
ATOM      7  O   UNL     1      37.061 -46.666 160.262  1.00  0.00    -0.550 OA
ATOM      8  O   UNL     1      36.143 -48.763 160.288  1.00  0.00    -0.550 OA
ENDBRANCH   5   6
ENDBRANCH   4   5
ENDBRANCH   3   4
ENDBRANCH   2   3
ENDBRANCH   1   2
BRANCH   1   9
ATOM      9  C   UNL     1      42.257 -48.255 164.744  1.00  0.00     0.000 C 
BRANCH   9  10
ATOM     10  C   UNL     1      43.787 -48.247 164.899  1.00  0.00    -0.000 C 
BRANCH  10  11
ATOM     11  C   UNL     1      44.458 -49.439 164.196  1.00  0.00    -0.000 C 
BRANCH  11  12
ATOM     12  C   UNL     1      45.413 -49.000 163.074  1.00  0.00    -0.000 C 
BRANCH  12  13
ATOM     13  C   UNL     1      44.977 -47.688 162.404  1.00  0.00    -0.003 C 
ATOM     14  C   UNL     1      44.172 -47.961 161.136  1.00  0.00     0.004 C 
ENDBRANCH  12  13
ENDBRANCH  11  12
ENDBRANCH  10  11
ENDBRANCH   9  10
ENDBRANCH   1   9
TORSDOF 10
ENDMDL
MODEL 6
REMARK VINA RESULT:    -5.003      6.385     10.701
REMARK INTER + INTRA:          -8.783
REMARK INTER:                  -8.130
REMARK INTRA:                  -0.653
REMARK UNBOUND:                -0.855
REMARK SMILES CCCCCCCCCCCC(=O)[O-]
REMARK SMILES IDX 7 1 8 2 9 3 10 4 11 5 12 6 13 7 14 8 6 9 5 10 4 11 3 12 2 13
REMARK SMILES IDX 1 14
REMARK H PARENT
REMARK Flexibility Score: inf
ROOT
ATOM      1  C   UNL     1      39.056 -48.489 162.141  1.00  0.00     0.000 C 
ENDROOT
BRANCH   1   2
ATOM      2  C   UNL     1      39.400 -47.190 161.398  1.00  0.00     0.000 C 
BRANCH   2   3
ATOM      3  C   UNL     1      40.885 -46.805 161.516  1.00  0.00     0.000 C 
BRANCH   3   4
ATOM      4  C   UNL     1      41.779 -47.846 162.219  1.00  0.00     0.006 C 
BRANCH   4   5
ATOM      5  C   UNL     1      43.210 -47.355 162.503  1.00  0.00     0.053 C 
BRANCH   5   6
ATOM      6  C   UNL     1      44.223 -47.982 161.593  1.00  0.00     0.041 C 
ATOM      7  O   UNL     1      45.270 -48.495 162.067  1.00  0.00    -0.550 OA
ATOM      8  O   UNL     1      43.991 -48.038 160.225  1.00  0.00    -0.550 OA
ENDBRANCH   5   6
ENDBRANCH   4   5
ENDBRANCH   3   4
ENDBRANCH   2   3
ENDBRANCH   1   2
BRANCH   1   9
ATOM      9  C   UNL     1      37.608 -48.917 161.853  1.00  0.00     0.000 C 
BRANCH   9  10
ATOM     10  C   UNL     1      36.985 -48.151 160.675  1.00  0.00    -0.000 C 
BRANCH  10  11
ATOM     11  C   UNL     1      35.546 -47.691 160.964  1.00  0.00    -0.000 C 
BRANCH  11  12
ATOM     12  C   UNL     1      35.150 -46.446 160.152  1.00  0.00    -0.000 C 
BRANCH  12  13
ATOM     13  C   UNL     1      36.350 -45.788 159.454  1.00  0.00    -0.003 C 
ATOM     14  C   UNL     1      36.026 -44.354 159.044  1.00  0.00     0.004 C 
ENDBRANCH  12  13
ENDBRANCH  11  12
ENDBRANCH  10  11
ENDBRANCH   9  10
ENDBRANCH   1   9
TORSDOF 10
ENDMDL
MODEL 7
REMARK VINA RESULT:    -4.954      4.334      8.074
REMARK INTER + INTRA:          -8.704
REMARK INTER:                  -7.860
REMARK INTRA:                  -0.844
REMARK UNBOUND:                -0.855
REMARK SMILES CCCCCCCCCCCC(=O)[O-]
REMARK SMILES IDX 7 1 8 2 9 3 10 4 11 5 12 6 13 7 14 8 6 9 5 10 4 11 3 12 2 13
REMARK SMILES IDX 1 14
REMARK H PARENT
REMARK Flexibility Score: inf
ROOT
ATOM      1  C   UNL     1      44.232 -47.999 160.626  1.00  0.00     0.000 C 
ENDROOT
BRANCH   1   2
ATOM      2  C   UNL     1      44.851 -47.663 161.990  1.00  0.00     0.000 C 
BRANCH   2   3
ATOM      3  C   UNL     1      45.768 -48.776 162.526  1.00  0.00     0.000 C 
BRANCH   3   4
ATOM      4  C   UNL     1      45.506 -49.196 163.986  1.00  0.00     0.006 C 
BRANCH   4   5
ATOM      5  C   UNL     1      44.015 -49.243 164.368  1.00  0.00     0.053 C 
BRANCH   5   6
ATOM      6  C   UNL     1      43.623 -48.124 165.285  1.00  0.00     0.041 C 
ATOM      7  O   UNL     1      44.417 -47.170 165.497  1.00  0.00    -0.550 OA
ATOM      8  O   UNL     1      42.365 -48.112 165.873  1.00  0.00    -0.550 OA
ENDBRANCH   5   6
ENDBRANCH   4   5
ENDBRANCH   3   4
ENDBRANCH   2   3
ENDBRANCH   1   2
BRANCH   1   9
ATOM      9  C   UNL     1      42.698 -47.991 160.704  1.00  0.00     0.000 C 
BRANCH   9  10
ATOM     10  C   UNL     1      42.170 -47.294 161.969  1.00  0.00    -0.000 C 
BRANCH  10  11
ATOM     11  C   UNL     1      40.877 -47.935 162.501  1.00  0.00    -0.000 C 
BRANCH  11  12
ATOM     12  C   UNL     1      39.659 -47.626 161.616  1.00  0.00    -0.000 C 
BRANCH  12  13
ATOM     13  C   UNL     1      38.508 -48.622 161.821  1.00  0.00    -0.003 C 
ATOM     14  C   UNL     1      37.291 -48.235 160.984  1.00  0.00     0.004 C 
ENDBRANCH  12  13
ENDBRANCH  11  12
ENDBRANCH  10  11
ENDBRANCH   9  10
ENDBRANCH   1   9
TORSDOF 10
ENDMDL
MODEL 8
REMARK VINA RESULT:    -4.921      3.373      6.330
REMARK INTER + INTRA:          -8.652
REMARK INTER:                  -7.753
REMARK INTRA:                  -0.899
REMARK UNBOUND:                -0.855
REMARK SMILES CCCCCCCCCCCC(=O)[O-]
REMARK SMILES IDX 7 1 8 2 9 3 10 4 11 5 12 6 13 7 14 8 6 9 5 10 4 11 3 12 2 13
REMARK SMILES IDX 1 14
REMARK H PARENT
REMARK Flexibility Score: inf
ROOT
ATOM      1  C   UNL     1      47.786 -48.782 164.618  1.00  0.00     0.000 C 
ENDROOT
BRANCH   1   2
ATOM      2  C   UNL     1      49.179 -48.171 164.403  1.00  0.00     0.000 C 
BRANCH   2   3
ATOM      3  C   UNL     1      49.251 -46.685 164.796  1.00  0.00     0.000 C 
BRANCH   3   4
ATOM      4  C   UNL     1      50.673 -46.133 165.019  1.00  0.00     0.006 C 
BRANCH   4   5
ATOM      5  C   UNL     1      51.674 -47.176 165.549  1.00  0.00     0.053 C 
BRANCH   5   6
ATOM      6  C   UNL     1      52.923 -46.547 166.089  1.00  0.00     0.041 C 
ATOM      7  O   UNL     1      53.619 -47.152 166.946  1.00  0.00    -0.550 OA
ATOM      8  O   UNL     1      53.342 -45.309 165.618  1.00  0.00    -0.550 OA
ENDBRANCH   5   6
ENDBRANCH   4   5
ENDBRANCH   3   4
ENDBRANCH   2   3
ENDBRANCH   1   2
BRANCH   1   9
ATOM      9  C   UNL     1      47.142 -49.159 163.275  1.00  0.00     0.000 C 
BRANCH   9  10
ATOM     10  C   UNL     1      45.613 -48.991 163.281  1.00  0.00    -0.000 C 
BRANCH  10  11
ATOM     11  C   UNL     1      45.148 -47.789 162.442  1.00  0.00    -0.000 C 
BRANCH  11  12
ATOM     12  C   UNL     1      45.318 -46.452 163.182  1.00  0.00    -0.000 C 
BRANCH  12  13
ATOM     13  C   UNL     1      44.844 -46.518 164.642  1.00  0.00    -0.003 C 
ATOM     14  C   UNL     1      45.800 -45.765 165.564  1.00  0.00     0.004 C 
ENDBRANCH  12  13
ENDBRANCH  11  12
ENDBRANCH  10  11
ENDBRANCH   9  10
ENDBRANCH   1   9
TORSDOF 10
ENDMDL
MODEL 9
REMARK VINA RESULT:    -4.869      1.671      2.823
REMARK INTER + INTRA:          -8.569
REMARK INTER:                  -7.924
REMARK INTRA:                  -0.645
REMARK UNBOUND:                -0.855
REMARK SMILES CCCCCCCCCCCC(=O)[O-]
REMARK SMILES IDX 7 1 8 2 9 3 10 4 11 5 12 6 13 7 14 8 6 9 5 10 4 11 3 12 2 13
REMARK SMILES IDX 1 14
REMARK H PARENT
REMARK Flexibility Score: inf
ROOT
ATOM      1  C   UNL     1      49.272 -46.310 164.667  1.00  0.00     0.000 C 
ENDROOT
BRANCH   1   2
ATOM      2  C   UNL     1      48.785 -47.765 164.740  1.00  0.00     0.000 C 
BRANCH   2   3
ATOM      3  C   UNL     1      47.320 -47.931 164.302  1.00  0.00     0.000 C 
BRANCH   3   4
ATOM      4  C   UNL     1      46.414 -46.711 164.564  1.00  0.00     0.006 C 
BRANCH   4   5
ATOM      5  C   UNL     1      45.569 -46.285 163.349  1.00  0.00     0.053 C 
BRANCH   5   6
ATOM      6  C   UNL     1      44.656 -47.376 162.875  1.00  0.00     0.041 C 
ATOM      7  O   UNL     1      44.848 -47.924 161.759  1.00  0.00    -0.550 OA
ATOM      8  O   UNL     1      43.616 -47.815 163.684  1.00  0.00    -0.550 OA
ENDBRANCH   5   6
ENDBRANCH   4   5
ENDBRANCH   3   4
ENDBRANCH   2   3
ENDBRANCH   1   2
BRANCH   1   9
ATOM      9  C   UNL     1      50.738 -46.200 165.113  1.00  0.00     0.000 C 
BRANCH   9  10
ATOM     10  C   UNL     1      51.334 -47.553 165.536  1.00  0.00    -0.000 C 
BRANCH  10  11
ATOM     11  C   UNL     1      52.809 -47.443 165.958  1.00  0.00    -0.000 C 
BRANCH  11  12
ATOM     12  C   UNL     1      53.185 -46.027 166.422  1.00  0.00    -0.000 C 
BRANCH  12  13
ATOM     13  C   UNL     1      54.291 -45.395 165.563  1.00  0.00    -0.003 C 
ATOM     14  C   UNL     1      53.854 -44.037 165.019  1.00  0.00     0.004 C 
ENDBRANCH  12  13
ENDBRANCH  11  12
ENDBRANCH  10  11
ENDBRANCH   9  10
ENDBRANCH   1   9
TORSDOF 10
ENDMDL
