MODEL 1
REMARK VINA RESULT:    -4.488      0.000      0.000
REMARK INTER + INTRA:         -10.920
REMARK INTER:                  -8.423
REMARK INTRA:                  -2.497
REMARK UNBOUND:                -2.497
REMARK SMILES CCCCCC=CCC=CCCCCCCCC(=O)OC
REMARK SMILES IDX 11 1 10 2 9 3 8 4 7 5 6 6 5 7 4 8 3 9 2 10 1 11 12 12 13 13
REMARK SMILES IDX 14 14 15 15 16 16 17 17 18 18 19 19 20 20 21 21
REMARK H PARENT
REMARK Flexibility Score: inf
ROOT
ATOM      1  C   UNL     1     -16.764 -21.258  11.486  1.00  0.00     0.027 C 
ENDROOT
BRANCH   1   2
ATOM      2  C   UNL     1     -15.270 -21.428  11.425  1.00  0.00    -0.031 C 
ATOM      3  C   UNL     1     -14.600 -22.112  12.367  1.00  0.00    -0.027 C 
BRANCH   3   4
ATOM      4  C   UNL     1     -13.100 -22.210  12.341  1.00  0.00     0.054 C 
BRANCH   4   5
ATOM      5  C   UNL     1     -12.513 -21.849  13.680  1.00  0.00    -0.027 C 
ATOM      6  C   UNL     1     -11.314 -21.254  13.784  1.00  0.00    -0.031 C 
BRANCH   6   7
ATOM      7  C   UNL     1     -10.734 -20.888  15.122  1.00  0.00     0.027 C 
BRANCH   7   8
ATOM      8  C   UNL     1     -11.845 -20.569  16.133  1.00  0.00     0.004 C 
BRANCH   8   9
ATOM      9  C   UNL     1     -11.725 -19.153  16.727  1.00  0.00     0.000 C 
BRANCH   9  10
ATOM     10  C   UNL     1     -10.797 -18.203  15.946  1.00  0.00    -0.003 C 
ATOM     11  C   UNL     1     -10.269 -17.045  16.793  1.00  0.00     0.004 C 
ENDBRANCH   9  10
ENDBRANCH   8   9
ENDBRANCH   7   8
ENDBRANCH   6   7
ENDBRANCH   4   5
ENDBRANCH   3   4
ENDBRANCH   1   2
BRANCH   1  12
ATOM     12  C   UNL     1     -17.253 -21.093  12.932  1.00  0.00     0.004 C 
BRANCH  12  13
ATOM     13  C   UNL     1     -17.165 -19.653  13.477  1.00  0.00     0.000 C 
BRANCH  13  14
ATOM     14  C   UNL     1     -16.552 -19.523  14.882  1.00  0.00     0.000 C 
BRANCH  14  15
ATOM     15  C   UNL     1     -15.478 -18.432  14.971  1.00  0.00     0.001 C 
BRANCH  15  16
ATOM     16  C   UNL     1     -14.318 -18.726  14.006  1.00  0.00     0.012 C 
BRANCH  16  17
ATOM     17  C   UNL     1     -13.655 -17.446  13.483  1.00  0.00     0.123 C 
BRANCH  17  18
ATOM     18  C   UNL     1     -14.665 -16.399  13.121  1.00  0.00     0.305 C 
ATOM     19  O   UNL     1     -14.648 -15.279  13.704  1.00  0.00    -0.252 OA
BRANCH  18  20
ATOM     20  O   UNL     1     -15.625 -16.683  12.143  1.00  0.00    -0.469 OA
ATOM     21  C   UNL     1     -16.852 -15.970  12.044  1.00  0.00     0.282 C 
ENDBRANCH  18  20
ENDBRANCH  17  18
ENDBRANCH  16  17
ENDBRANCH  15  16
ENDBRANCH  14  15
ENDBRANCH  13  14
ENDBRANCH  12  13
ENDBRANCH   1  12
TORSDOF 15
ENDMDL
MODEL 2
REMARK VINA RESULT:    -4.462      0.975      1.319
REMARK INTER + INTRA:         -10.872
REMARK INTER:                  -8.646
REMARK INTRA:                  -2.226
REMARK UNBOUND:                -2.497
REMARK SMILES CCCCCC=CCC=CCCCCCCCC(=O)OC
REMARK SMILES IDX 11 1 10 2 9 3 8 4 7 5 6 6 5 7 4 8 3 9 2 10 1 11 12 12 13 13
REMARK SMILES IDX 14 14 15 15 16 16 17 17 18 18 19 19 20 20 21 21
REMARK H PARENT
REMARK Flexibility Score: inf
ROOT
ATOM      1  C   UNL     1     -16.892 -21.347  12.065  1.00  0.00     0.027 C 
ENDROOT
BRANCH   1   2
ATOM      2  C   UNL     1     -15.644 -22.079  12.480  1.00  0.00    -0.031 C 
ATOM      3  C   UNL     1     -14.422 -21.626  12.157  1.00  0.00    -0.027 C 
BRANCH   3   4
ATOM      4  C   UNL     1     -13.183 -22.403  12.507  1.00  0.00     0.054 C 
BRANCH   4   5
ATOM      5  C   UNL     1     -12.529 -21.846  13.743  1.00  0.00    -0.027 C 
ATOM      6  C   UNL     1     -11.273 -21.371  13.719  1.00  0.00    -0.031 C 
BRANCH   6   7
ATOM      7  C   UNL     1     -10.624 -20.808  14.953  1.00  0.00     0.027 C 
BRANCH   7   8
ATOM      8  C   UNL     1     -11.657 -20.608  16.072  1.00  0.00     0.004 C 
BRANCH   8   9
ATOM      9  C   UNL     1     -11.841 -19.128  16.457  1.00  0.00     0.000 C 
BRANCH   9  10
ATOM     10  C   UNL     1     -10.571 -18.266  16.333  1.00  0.00    -0.003 C 
ATOM     11  C   UNL     1     -10.703 -17.139  15.308  1.00  0.00     0.004 C 
ENDBRANCH   9  10
ENDBRANCH   8   9
ENDBRANCH   7   8
ENDBRANCH   6   7
ENDBRANCH   4   5
ENDBRANCH   3   4
ENDBRANCH   1   2
BRANCH   1  12
ATOM     12  C   UNL     1     -16.954 -19.944  12.685  1.00  0.00     0.004 C 
BRANCH  12  13
ATOM     13  C   UNL     1     -17.018 -19.929  14.227  1.00  0.00     0.000 C 
BRANCH  13  14
ATOM     14  C   UNL     1     -16.096 -18.902  14.908  1.00  0.00     0.000 C 
BRANCH  14  15
ATOM     15  C   UNL     1     -14.683 -18.877  14.311  1.00  0.00     0.001 C 
BRANCH  15  16
ATOM     16  C   UNL     1     -14.435 -17.566  13.547  1.00  0.00     0.012 C 
BRANCH  16  17
ATOM     17  C   UNL     1     -15.506 -16.508  13.840  1.00  0.00     0.123 C 
BRANCH  17  18
ATOM     18  C   UNL     1     -16.135 -15.985  12.585  1.00  0.00     0.305 C 
ATOM     19  O   UNL     1     -17.290 -16.374  12.250  1.00  0.00    -0.252 OA
BRANCH  18  20
ATOM     20  O   UNL     1     -15.428 -15.076  11.791  1.00  0.00    -0.469 OA
ATOM     21  C   UNL     1     -15.362 -15.185  10.374  1.00  0.00     0.282 C 
ENDBRANCH  18  20
ENDBRANCH  17  18
ENDBRANCH  16  17
ENDBRANCH  15  16
ENDBRANCH  14  15
ENDBRANCH  13  14
ENDBRANCH  12  13
ENDBRANCH   1  12
TORSDOF 15
ENDMDL
MODEL 3
REMARK VINA RESULT:    -4.072      2.126      5.092
REMARK INTER + INTRA:         -10.139
REMARK INTER:                  -8.404
REMARK INTRA:                  -1.735
REMARK UNBOUND:                -2.497
REMARK SMILES CCCCCC=CCC=CCCCCCCCC(=O)OC
REMARK SMILES IDX 11 1 10 2 9 3 8 4 7 5 6 6 5 7 4 8 3 9 2 10 1 11 12 12 13 13
REMARK SMILES IDX 14 14 15 15 16 16 17 17 18 18 19 19 20 20 21 21
REMARK H PARENT
REMARK Flexibility Score: inf
ROOT
ATOM      1  C   UNL     1     -13.377 -21.971  10.534  1.00  0.00     0.027 C 
ENDROOT
BRANCH   1   2
ATOM      2  C   UNL     1     -14.763 -22.191  11.078  1.00  0.00    -0.031 C 
ATOM      3  C   UNL     1     -15.757 -21.317  10.848  1.00  0.00    -0.027 C 
BRANCH   3   4
ATOM      4  C   UNL     1     -17.118 -21.504  11.459  1.00  0.00     0.054 C 
BRANCH   4   5
ATOM      5  C   UNL     1     -17.114 -21.109  12.913  1.00  0.00    -0.027 C 
ATOM      6  C   UNL     1     -16.693 -19.898  13.310  1.00  0.00    -0.031 C 
BRANCH   6   7
ATOM      7  C   UNL     1     -16.696 -19.503  14.760  1.00  0.00     0.027 C 
BRANCH   7   8
ATOM      8  C   UNL     1     -15.425 -18.718  15.117  1.00  0.00     0.004 C 
BRANCH   8   9
ATOM      9  C   UNL     1     -14.914 -17.848  13.954  1.00  0.00     0.000 C 
BRANCH   9  10
ATOM     10  C   UNL     1     -15.703 -16.544  13.729  1.00  0.00    -0.003 C 
ATOM     11  C   UNL     1     -15.033 -15.599  12.730  1.00  0.00     0.004 C 
ENDBRANCH   9  10
ENDBRANCH   8   9
ENDBRANCH   7   8
ENDBRANCH   6   7
ENDBRANCH   4   5
ENDBRANCH   3   4
ENDBRANCH   1   2
BRANCH   1  12
ATOM     12  C   UNL     1     -12.335 -21.910  11.660  1.00  0.00     0.004 C 
BRANCH  12  13
ATOM     13  C   UNL     1     -12.921 -22.043  13.081  1.00  0.00     0.000 C 
BRANCH  13  14
ATOM     14  C   UNL     1     -12.582 -20.886  14.037  1.00  0.00     0.000 C 
BRANCH  14  15
ATOM     15  C   UNL     1     -11.289 -21.121  14.828  1.00  0.00     0.001 C 
BRANCH  15  16
ATOM     16  C   UNL     1     -11.431 -20.616  16.273  1.00  0.00     0.012 C 
BRANCH  16  17
ATOM     17  C   UNL     1     -11.863 -19.146  16.337  1.00  0.00     0.123 C 
BRANCH  17  18
ATOM     18  C   UNL     1     -10.688 -18.219  16.418  1.00  0.00     0.305 C 
ATOM     19  O   UNL     1     -10.759 -17.171  17.119  1.00  0.00    -0.252 OA
BRANCH  18  20
ATOM     20  O   UNL     1      -9.524 -18.525  15.704  1.00  0.00    -0.469 OA
ATOM     21  C   UNL     1      -9.096 -17.771  14.577  1.00  0.00     0.282 C 
ENDBRANCH  18  20
ENDBRANCH  17  18
ENDBRANCH  16  17
ENDBRANCH  15  16
ENDBRANCH  14  15
ENDBRANCH  13  14
ENDBRANCH  12  13
ENDBRANCH   1  12
TORSDOF 15
ENDMDL
MODEL 4
REMARK VINA RESULT:    -3.966      1.620      2.152
REMARK INTER + INTRA:          -9.942
REMARK INTER:                  -7.485
REMARK INTRA:                  -2.456
REMARK UNBOUND:                -2.497
REMARK SMILES CCCCCC=CCC=CCCCCCCCC(=O)OC
REMARK SMILES IDX 11 1 10 2 9 3 8 4 7 5 6 6 5 7 4 8 3 9 2 10 1 11 12 12 13 13
REMARK SMILES IDX 14 14 15 15 16 16 17 17 18 18 19 19 20 20 21 21
REMARK H PARENT
REMARK Flexibility Score: inf
ROOT
ATOM      1  C   UNL     1     -17.121 -20.613  11.954  1.00  0.00     0.027 C 
ENDROOT
BRANCH   1   2
ATOM      2  C   UNL     1     -16.193 -21.655  12.518  1.00  0.00    -0.031 C 
ATOM      3  C   UNL     1     -14.886 -21.674  12.213  1.00  0.00    -0.027 C 
BRANCH   3   4
ATOM      4  C   UNL     1     -13.981 -22.764  12.718  1.00  0.00     0.054 C 
BRANCH   4   5
ATOM      5  C   UNL     1     -12.693 -22.192  13.249  1.00  0.00    -0.027 C 
ATOM      6  C   UNL     1     -12.619 -20.931  13.701  1.00  0.00    -0.031 C 
BRANCH   6   7
ATOM      7  C   UNL     1     -11.333 -20.364  14.237  1.00  0.00     0.027 C 
BRANCH   7   8
ATOM      8  C   UNL     1     -11.280 -20.477  15.767  1.00  0.00     0.004 C 
BRANCH   8   9
ATOM      9  C   UNL     1     -11.855 -19.237  16.477  1.00  0.00     0.000 C 
BRANCH   9  10
ATOM     10  C   UNL     1     -10.813 -18.161  16.840  1.00  0.00    -0.003 C 
ATOM     11  C   UNL     1     -10.684 -17.065  15.782  1.00  0.00     0.004 C 
ENDBRANCH   9  10
ENDBRANCH   8   9
ENDBRANCH   7   8
ENDBRANCH   6   7
ENDBRANCH   4   5
ENDBRANCH   3   4
ENDBRANCH   1   2
BRANCH   1  12
ATOM     12  C   UNL     1     -17.352 -19.468  12.950  1.00  0.00     0.004 C 
BRANCH  12  13
ATOM     13  C   UNL     1     -16.990 -19.809  14.411  1.00  0.00     0.000 C 
BRANCH  13  14
ATOM     14  C   UNL     1     -15.875 -18.945  15.024  1.00  0.00     0.000 C 
BRANCH  14  15
ATOM     15  C   UNL     1     -15.498 -17.742  14.150  1.00  0.00     0.001 C 
BRANCH  15  16
ATOM     16  C   UNL     1     -14.014 -17.797  13.752  1.00  0.00     0.012 C 
BRANCH  16  17
ATOM     17  C   UNL     1     -13.749 -17.144  12.390  1.00  0.00     0.123 C 
BRANCH  17  18
ATOM     18  C   UNL     1     -13.769 -18.146  11.276  1.00  0.00     0.305 C 
ATOM     19  O   UNL     1     -14.835 -18.350  10.629  1.00  0.00    -0.252 OA
BRANCH  18  20
ATOM     20  O   UNL     1     -12.600 -18.853  10.970  1.00  0.00    -0.469 OA
ATOM     21  C   UNL     1     -12.285 -19.278   9.649  1.00  0.00     0.282 C 
ENDBRANCH  18  20
ENDBRANCH  17  18
ENDBRANCH  16  17
ENDBRANCH  15  16
ENDBRANCH  14  15
ENDBRANCH  13  14
ENDBRANCH  12  13
ENDBRANCH   1  12
TORSDOF 15
ENDMDL
MODEL 5
REMARK VINA RESULT:    -3.950      2.349      5.141
REMARK INTER + INTRA:          -9.911
REMARK INTER:                  -7.491
REMARK INTRA:                  -2.420
REMARK UNBOUND:                -2.497
REMARK SMILES CCCCCC=CCC=CCCCCCCCC(=O)OC
REMARK SMILES IDX 11 1 10 2 9 3 8 4 7 5 6 6 5 7 4 8 3 9 2 10 1 11 12 12 13 13
REMARK SMILES IDX 14 14 15 15 16 16 17 17 18 18 19 19 20 20 21 21
REMARK H PARENT
REMARK Flexibility Score: inf
ROOT
ATOM      1  C   UNL     1     -14.373 -22.470  11.051  1.00  0.00     0.027 C 
ENDROOT
BRANCH   1   2
ATOM      2  C   UNL     1     -15.239 -22.112  12.229  1.00  0.00    -0.031 C 
ATOM      3  C   UNL     1     -16.196 -21.174  12.140  1.00  0.00    -0.027 C 
BRANCH   3   4
ATOM      4  C   UNL     1     -17.004 -20.767  13.341  1.00  0.00     0.054 C 
BRANCH   4   5
ATOM      5  C   UNL     1     -17.000 -19.271  13.510  1.00  0.00    -0.027 C 
ATOM      6  C   UNL     1     -16.556 -18.456  12.541  1.00  0.00    -0.031 C 
BRANCH   6   7
ATOM      7  C   UNL     1     -16.559 -16.962  12.709  1.00  0.00     0.027 C 
BRANCH   7   8
ATOM      8  C   UNL     1     -15.515 -16.525  13.748  1.00  0.00     0.004 C 
BRANCH   8   9
ATOM      9  C   UNL     1     -14.075 -16.574  13.204  1.00  0.00     0.000 C 
BRANCH   9  10
ATOM     10  C   UNL     1     -13.441 -15.196  12.932  1.00  0.00    -0.003 C 
ATOM     11  C   UNL     1     -14.001 -14.087  13.823  1.00  0.00     0.004 C 
ENDBRANCH   9  10
ENDBRANCH   8   9
ENDBRANCH   7   8
ENDBRANCH   6   7
ENDBRANCH   4   5
ENDBRANCH   3   4
ENDBRANCH   1   2
BRANCH   1  12
ATOM     12  C   UNL     1     -12.948 -22.833  11.491  1.00  0.00     0.004 C 
BRANCH  12  13
ATOM     13  C   UNL     1     -12.521 -22.222  12.842  1.00  0.00     0.000 C 
BRANCH  13  14
ATOM     14  C   UNL     1     -11.557 -21.027  12.740  1.00  0.00     0.000 C 
BRANCH  14  15
ATOM     15  C   UNL     1     -12.182 -19.710  13.219  1.00  0.00     0.001 C 
BRANCH  15  16
ATOM     16  C   UNL     1     -13.301 -19.974  14.240  1.00  0.00     0.012 C 
BRANCH  16  17
ATOM     17  C   UNL     1     -13.078 -19.224  15.558  1.00  0.00     0.123 C 
BRANCH  17  18
ATOM     18  C   UNL     1     -11.864 -19.720  16.286  1.00  0.00     0.305 C 
ATOM     19  O   UNL     1     -11.862 -20.877  16.794  1.00  0.00    -0.252 OA
BRANCH  18  20
ATOM     20  O   UNL     1     -10.746 -18.886  16.400  1.00  0.00    -0.469 OA
ATOM     21  C   UNL     1     -10.731 -17.554  15.903  1.00  0.00     0.282 C 
ENDBRANCH  18  20
ENDBRANCH  17  18
ENDBRANCH  16  17
ENDBRANCH  15  16
ENDBRANCH  14  15
ENDBRANCH  13  14
ENDBRANCH  12  13
ENDBRANCH   1  12
TORSDOF 15
ENDMDL
MODEL 6
REMARK VINA RESULT:    -3.918      1.889      5.004
REMARK INTER + INTRA:          -9.851
REMARK INTER:                  -7.421
REMARK INTRA:                  -2.429
REMARK UNBOUND:                -2.497
REMARK SMILES CCCCCC=CCC=CCCCCCCCC(=O)OC
REMARK SMILES IDX 11 1 10 2 9 3 8 4 7 5 6 6 5 7 4 8 3 9 2 10 1 11 12 12 13 13
REMARK SMILES IDX 14 14 15 15 16 16 17 17 18 18 19 19 20 20 21 21
REMARK H PARENT
REMARK Flexibility Score: inf
ROOT
ATOM      1  C   UNL     1     -13.485 -22.499  11.812  1.00  0.00     0.027 C 
ENDROOT
BRANCH   1   2
ATOM      2  C   UNL     1     -14.735 -22.326  12.633  1.00  0.00    -0.031 C 
ATOM      3  C   UNL     1     -15.784 -21.621  12.179  1.00  0.00    -0.027 C 
BRANCH   3   4
ATOM      4  C   UNL     1     -16.997 -21.387  13.036  1.00  0.00     0.054 C 
BRANCH   4   5
ATOM      5  C   UNL     1     -16.946 -20.028  13.683  1.00  0.00    -0.027 C 
ATOM      6  C   UNL     1     -15.804 -19.532  14.186  1.00  0.00    -0.031 C 
BRANCH   6   7
ATOM      7  C   UNL     1     -15.754 -18.172  14.825  1.00  0.00     0.027 C 
BRANCH   7   8
ATOM      8  C   UNL     1     -15.176 -17.132  13.854  1.00  0.00     0.004 C 
BRANCH   8   9
ATOM      9  C   UNL     1     -14.097 -17.716  12.924  1.00  0.00     0.000 C 
BRANCH   9  10
ATOM     10  C   UNL     1     -14.405 -17.590  11.420  1.00  0.00    -0.003 C 
ATOM     11  C   UNL     1     -14.090 -18.861  10.631  1.00  0.00     0.004 C 
ENDBRANCH   9  10
ENDBRANCH   8   9
ENDBRANCH   7   8
ENDBRANCH   6   7
ENDBRANCH   4   5
ENDBRANCH   3   4
ENDBRANCH   1   2
BRANCH   1  12
ATOM     12  C   UNL     1     -12.230 -22.124  12.613  1.00  0.00     0.004 C 
BRANCH  12  13
ATOM     13  C   UNL     1     -12.362 -20.827  13.438  1.00  0.00     0.000 C 
BRANCH  13  14
ATOM     14  C   UNL     1     -11.859 -20.923  14.889  1.00  0.00     0.000 C 
BRANCH  14  15
ATOM     15  C   UNL     1     -12.459 -19.847  15.804  1.00  0.00     0.001 C 
BRANCH  15  16
ATOM     16  C   UNL     1     -11.359 -19.146  16.618  1.00  0.00     0.012 C 
BRANCH  16  17
ATOM     17  C   UNL     1     -10.266 -18.546  15.725  1.00  0.00     0.123 C 
BRANCH  17  18
ATOM     18  C   UNL     1     -10.455 -17.073  15.521  1.00  0.00     0.305 C 
ATOM     19  O   UNL     1     -11.094 -16.653  14.515  1.00  0.00    -0.252 OA
BRANCH  18  20
ATOM     20  O   UNL     1      -9.910 -16.177  16.447  1.00  0.00    -0.469 OA
ATOM     21  C   UNL     1     -10.536 -14.944  16.780  1.00  0.00     0.282 C 
ENDBRANCH  18  20
ENDBRANCH  17  18
ENDBRANCH  16  17
ENDBRANCH  15  16
ENDBRANCH  14  15
ENDBRANCH  13  14
ENDBRANCH  12  13
ENDBRANCH   1  12
TORSDOF 15
ENDMDL
MODEL 7
REMARK VINA RESULT:    -3.871      1.438      2.042
REMARK INTER + INTRA:          -9.762
REMARK INTER:                  -7.536
REMARK INTRA:                  -2.227
REMARK UNBOUND:                -2.497
REMARK SMILES CCCCCC=CCC=CCCCCCCCC(=O)OC
REMARK SMILES IDX 11 1 10 2 9 3 8 4 7 5 6 6 5 7 4 8 3 9 2 10 1 11 12 12 13 13
REMARK SMILES IDX 14 14 15 15 16 16 17 17 18 18 19 19 20 20 21 21
REMARK H PARENT
REMARK Flexibility Score: inf
ROOT
ATOM      1  C   UNL     1     -17.088 -20.831  11.552  1.00  0.00     0.027 C 
ENDROOT
BRANCH   1   2
ATOM      2  C   UNL     1     -15.654 -21.272  11.432  1.00  0.00    -0.031 C 
ATOM      3  C   UNL     1     -15.105 -22.128  12.308  1.00  0.00    -0.027 C 
BRANCH   3   4
ATOM      4  C   UNL     1     -13.651 -22.502  12.228  1.00  0.00     0.054 C 
BRANCH   4   5
ATOM      5  C   UNL     1     -12.805 -21.554  13.036  1.00  0.00    -0.027 C 
ATOM      6  C   UNL     1     -11.533 -21.288  12.702  1.00  0.00    -0.031 C 
BRANCH   6   7
ATOM      7  C   UNL     1     -10.693 -20.337  13.507  1.00  0.00     0.027 C 
BRANCH   7   8
ATOM      8  C   UNL     1     -11.418 -18.997  13.703  1.00  0.00     0.004 C 
BRANCH   8   9
ATOM      9  C   UNL     1     -11.961 -18.816  15.133  1.00  0.00     0.000 C 
BRANCH   9  10
ATOM     10  C   UNL     1     -11.210 -19.616  16.215  1.00  0.00    -0.003 C 
ATOM     11  C   UNL     1     -12.060 -20.716  16.850  1.00  0.00     0.004 C 
ENDBRANCH   9  10
ENDBRANCH   8   9
ENDBRANCH   7   8
ENDBRANCH   6   7
ENDBRANCH   4   5
ENDBRANCH   3   4
ENDBRANCH   1   2
BRANCH   1  12
ATOM     12  C   UNL     1     -17.205 -19.489  12.289  1.00  0.00     0.004 C 
BRANCH  12  13
ATOM     13  C   UNL     1     -17.060 -19.588  13.822  1.00  0.00     0.000 C 
BRANCH  13  14
ATOM     14  C   UNL     1     -15.746 -19.024  14.390  1.00  0.00     0.000 C 
BRANCH  14  15
ATOM     15  C   UNL     1     -15.110 -17.959  13.487  1.00  0.00     0.001 C 
BRANCH  15  16
ATOM     16  C   UNL     1     -15.555 -16.548  13.908  1.00  0.00     0.012 C 
BRANCH  16  17
ATOM     17  C   UNL     1     -15.495 -15.547  12.748  1.00  0.00     0.123 C 
BRANCH  17  18
ATOM     18  C   UNL     1     -16.533 -15.835  11.706  1.00  0.00     0.305 C 
ATOM     19  O   UNL     1     -17.750 -15.919  12.034  1.00  0.00    -0.252 OA
BRANCH  18  20
ATOM     20  O   UNL     1     -16.137 -16.018  10.376  1.00  0.00    -0.469 OA
ATOM     21  C   UNL     1     -14.817 -16.407  10.017  1.00  0.00     0.282 C 
ENDBRANCH  18  20
ENDBRANCH  17  18
ENDBRANCH  16  17
ENDBRANCH  15  16
ENDBRANCH  14  15
ENDBRANCH  13  14
ENDBRANCH  12  13
ENDBRANCH   1  12
TORSDOF 15
ENDMDL
MODEL 8
REMARK VINA RESULT:    -3.863      2.330      5.792
REMARK INTER + INTRA:          -9.748
REMARK INTER:                  -7.899
REMARK INTRA:                  -1.849
REMARK UNBOUND:                -2.497
REMARK SMILES CCCCCC=CCC=CCCCCCCCC(=O)OC
REMARK SMILES IDX 11 1 10 2 9 3 8 4 7 5 6 6 5 7 4 8 3 9 2 10 1 11 12 12 13 13
REMARK SMILES IDX 14 14 15 15 16 16 17 17 18 18 19 19 20 20 21 21
REMARK H PARENT
REMARK Flexibility Score: inf
ROOT
ATOM      1  C   UNL     1     -12.361 -13.237  13.696  1.00  0.00     0.027 C 
ENDROOT
BRANCH   1   2
ATOM      2  C   UNL     1     -11.173 -13.804  14.426  1.00  0.00    -0.031 C 
ATOM      3  C   UNL     1     -11.275 -14.275  15.679  1.00  0.00    -0.027 C 
BRANCH   3   4
ATOM      4  C   UNL     1     -10.068 -14.767  16.429  1.00  0.00     0.054 C 
BRANCH   4   5
ATOM      5  C   UNL     1     -10.290 -16.162  16.951  1.00  0.00    -0.027 C 
ATOM      6  C   UNL     1     -10.634 -17.170  16.135  1.00  0.00    -0.031 C 
BRANCH   6   7
ATOM      7  C   UNL     1     -10.849 -18.564  16.658  1.00  0.00     0.027 C 
BRANCH   7   8
ATOM      8  C   UNL     1     -12.188 -19.133  16.166  1.00  0.00     0.004 C 
BRANCH   8   9
ATOM      9  C   UNL     1     -12.026 -20.447  15.380  1.00  0.00     0.000 C 
BRANCH   9  10
ATOM     10  C   UNL     1     -12.220 -20.316  13.858  1.00  0.00    -0.003 C 
ATOM     11  C   UNL     1     -13.146 -21.383  13.273  1.00  0.00     0.004 C 
ENDBRANCH   9  10
ENDBRANCH   8   9
ENDBRANCH   7   8
ENDBRANCH   6   7
ENDBRANCH   4   5
ENDBRANCH   3   4
ENDBRANCH   1   2
BRANCH   1  12
ATOM     12  C   UNL     1     -13.664 -13.930  14.120  1.00  0.00     0.004 C 
BRANCH  12  13
ATOM     13  C   UNL     1     -14.162 -15.011  13.137  1.00  0.00     0.000 C 
BRANCH  13  14
ATOM     14  C   UNL     1     -13.731 -16.448  13.477  1.00  0.00     0.000 C 
BRANCH  14  15
ATOM     15  C   UNL     1     -14.901 -17.336  13.920  1.00  0.00     0.001 C 
BRANCH  15  16
ATOM     16  C   UNL     1     -15.254 -18.362  12.831  1.00  0.00     0.012 C 
BRANCH  16  17
ATOM     17  C   UNL     1     -16.740 -18.740  12.844  1.00  0.00     0.123 C 
BRANCH  17  18
ATOM     18  C   UNL     1     -17.002 -19.952  13.686  1.00  0.00     0.305 C 
ATOM     19  O   UNL     1     -17.238 -19.824  14.920  1.00  0.00    -0.252 OA
BRANCH  18  20
ATOM     20  O   UNL     1     -16.972 -21.219  13.091  1.00  0.00    -0.469 OA
ATOM     21  C   UNL     1     -17.117 -21.410  11.689  1.00  0.00     0.282 C 
ENDBRANCH  18  20
ENDBRANCH  17  18
ENDBRANCH  16  17
ENDBRANCH  15  16
ENDBRANCH  14  15
ENDBRANCH  13  14
ENDBRANCH  12  13
ENDBRANCH   1  12
TORSDOF 15
ENDMDL
MODEL 9
REMARK VINA RESULT:    -3.822      1.365      2.791
REMARK INTER + INTRA:          -9.671
REMARK INTER:                  -8.078
REMARK INTRA:                  -1.593
REMARK UNBOUND:                -2.497
REMARK SMILES CCCCCC=CCC=CCCCCCCCC(=O)OC
REMARK SMILES IDX 11 1 10 2 9 3 8 4 7 5 6 6 5 7 4 8 3 9 2 10 1 11 12 12 13 13
REMARK SMILES IDX 14 14 15 15 16 16 17 17 18 18 19 19 20 20 21 21
REMARK H PARENT
REMARK Flexibility Score: inf
ROOT
ATOM      1  C   UNL     1     -13.624 -22.124  11.732  1.00  0.00     0.027 C 
ENDROOT
BRANCH   1   2
ATOM      2  C   UNL     1     -13.282 -22.081  13.197  1.00  0.00    -0.031 C 
ATOM      3  C   UNL     1     -12.453 -21.151  13.699  1.00  0.00    -0.027 C 
BRANCH   3   4
ATOM      4  C   UNL     1     -12.054 -21.162  15.149  1.00  0.00     0.054 C 
BRANCH   4   5
ATOM      5  C   UNL     1     -12.051 -19.767  15.718  1.00  0.00    -0.027 C 
ATOM      6  C   UNL     1     -10.919 -19.184  16.141  1.00  0.00    -0.031 C 
BRANCH   6   7
ATOM      7  C   UNL     1     -10.918 -17.789  16.702  1.00  0.00     0.027 C 
BRANCH   7   8
ATOM      8  C   UNL     1      -9.496 -17.353  17.084  1.00  0.00     0.004 C 
BRANCH   8   9
ATOM      9  C   UNL     1      -9.135 -15.956  16.548  1.00  0.00     0.000 C 
BRANCH   9  10
ATOM     10  C   UNL     1     -10.297 -14.945  16.546  1.00  0.00    -0.003 C 
ATOM     11  C   UNL     1      -9.845 -13.504  16.788  1.00  0.00     0.004 C 
ENDBRANCH   9  10
ENDBRANCH   8   9
ENDBRANCH   7   8
ENDBRANCH   6   7
ENDBRANCH   4   5
ENDBRANCH   3   4
ENDBRANCH   1   2
BRANCH   1  12
ATOM     12  C   UNL     1     -15.046 -21.608  11.472  1.00  0.00     0.004 C 
BRANCH  12  13
ATOM     13  C   UNL     1     -16.001 -21.728  12.678  1.00  0.00     0.000 C 
BRANCH  13  14
ATOM     14  C   UNL     1     -17.006 -20.573  12.832  1.00  0.00     0.000 C 
BRANCH  14  15
ATOM     15  C   UNL     1     -16.976 -19.933  14.226  1.00  0.00     0.001 C 
BRANCH  15  16
ATOM     16  C   UNL     1     -15.597 -19.318  14.517  1.00  0.00     0.012 C 
BRANCH  16  17
ATOM     17  C   UNL     1     -15.596 -17.792  14.363  1.00  0.00     0.123 C 
BRANCH  17  18
ATOM     18  C   UNL     1     -14.724 -17.344  13.230  1.00  0.00     0.305 C 
ATOM     19  O   UNL     1     -13.505 -17.674  13.203  1.00  0.00    -0.252 OA
BRANCH  18  20
ATOM     20  O   UNL     1     -15.273 -16.553  12.214  1.00  0.00    -0.469 OA
ATOM     21  C   UNL     1     -16.561 -15.958  12.319  1.00  0.00     0.282 C 
ENDBRANCH  18  20
ENDBRANCH  17  18
ENDBRANCH  16  17
ENDBRANCH  15  16
ENDBRANCH  14  15
ENDBRANCH  13  14
ENDBRANCH  12  13
ENDBRANCH   1  12
TORSDOF 15
ENDMDL
