MODEL 1
REMARK VINA RESULT:    -2.727      0.000      0.000
REMARK INTER + INTRA:          -2.727
REMARK INTER:                  -2.727
REMARK INTRA:                   0.000
REMARK UNBOUND:                 0.000
REMARK SMILES CC(=O)[O-]
REMARK SMILES IDX 1 1 2 2 3 3 4 4
REMARK H PARENT
REMARK Flexibility Score: inf
ROOT
ATOM      1  C   UNL     1      15.162  34.365  13.772  1.00  0.00     0.063 C 
ATOM      2  C   UNL     1      13.675  34.265  13.792  1.00  0.00     0.038 C 
ATOM      3  O   UNL     1      12.973  35.308  13.845  1.00  0.00    -0.550 OA
ATOM      4  O   UNL     1      13.059  33.023  13.697  1.00  0.00    -0.550 OA
ENDROOT
TORSDOF 0
ENDMDL
MODEL 2
REMARK VINA RESULT:    -2.719      1.797      2.263
REMARK INTER + INTRA:          -2.719
REMARK INTER:                  -2.719
REMARK INTRA:                   0.000
REMARK UNBOUND:                 0.000
REMARK SMILES CC(=O)[O-]
REMARK SMILES IDX 1 1 2 2 3 3 4 4
REMARK H PARENT
REMARK Flexibility Score: inf
ROOT
ATOM      1  C   UNL     1      13.352  33.563  13.467  1.00  0.00     0.063 C 
ATOM      2  C   UNL     1      14.181  34.791  13.301  1.00  0.00     0.038 C 
ATOM      3  O   UNL     1      15.363  34.818  13.731  1.00  0.00    -0.550 OA
ATOM      4  O   UNL     1      13.668  35.890  12.624  1.00  0.00    -0.550 OA
ENDROOT
TORSDOF 0
ENDMDL
MODEL 3
REMARK VINA RESULT:    -2.571      2.054      2.213
REMARK INTER + INTRA:          -2.571
REMARK INTER:                  -2.571
REMARK INTRA:                   0.000
REMARK UNBOUND:                 0.000
REMARK SMILES CC(=O)[O-]
REMARK SMILES IDX 1 1 2 2 3 3 4 4
REMARK H PARENT
REMARK Flexibility Score: inf
ROOT
ATOM      1  C   UNL     1      13.470  34.137  13.733  1.00  0.00     0.063 C 
ATOM      2  C   UNL     1      13.287  32.744  13.235  1.00  0.00     0.038 C 
ATOM      3  O   UNL     1      13.822  32.383  12.154  1.00  0.00    -0.550 OA
ATOM      4  O   UNL     1      12.570  31.824  13.990  1.00  0.00    -0.550 OA
ENDROOT
TORSDOF 0
ENDMDL
MODEL 4
REMARK VINA RESULT:    -2.521      1.787      2.077
REMARK INTER + INTRA:          -2.521
REMARK INTER:                  -2.521
REMARK INTRA:                   0.000
REMARK UNBOUND:                 0.000
REMARK SMILES CC(=O)[O-]
REMARK SMILES IDX 1 1 2 2 3 3 4 4
REMARK H PARENT
REMARK Flexibility Score: inf
ROOT
ATOM      1  C   UNL     1      13.489  36.058  12.745  1.00  0.00     0.063 C 
ATOM      2  C   UNL     1      14.045  34.892  13.488  1.00  0.00     0.038 C 
ATOM      3  O   UNL     1      13.272  34.085  14.066  1.00  0.00    -0.550 OA
ATOM      4  O   UNL     1      15.415  34.665  13.501  1.00  0.00    -0.550 OA
ENDROOT
TORSDOF 0
ENDMDL
MODEL 5
REMARK VINA RESULT:    -2.500     11.116     11.632
REMARK INTER + INTRA:          -2.500
REMARK INTER:                  -2.500
REMARK INTRA:                   0.000
REMARK UNBOUND:                 0.000
REMARK SMILES CC(=O)[O-]
REMARK SMILES IDX 1 1 2 2 3 3 4 4
REMARK H PARENT
REMARK Flexibility Score: inf
ROOT
ATOM      1  C   UNL     1       4.830  39.817  13.298  1.00  0.00     0.063 C 
ATOM      2  C   UNL     1       3.436  39.691  12.786  1.00  0.00     0.038 C 
ATOM      3  O   UNL     1       2.804  40.713  12.414  1.00  0.00    -0.550 OA
ATOM      4  O   UNL     1       2.850  38.436  12.667  1.00  0.00    -0.550 OA
ENDROOT
TORSDOF 0
ENDMDL
MODEL 6
REMARK VINA RESULT:    -2.383      1.776      2.438
REMARK INTER + INTRA:          -2.383
REMARK INTER:                  -2.383
REMARK INTRA:                   0.000
REMARK UNBOUND:                 0.000
REMARK SMILES CC(=O)[O-]
REMARK SMILES IDX 1 1 2 2 3 3 4 4
REMARK H PARENT
REMARK Flexibility Score: inf
ROOT
ATOM      1  C   UNL     1      14.214  32.237  12.409  1.00  0.00     0.063 C 
ATOM      2  C   UNL     1      13.219  32.646  13.441  1.00  0.00     0.038 C 
ATOM      3  O   UNL     1      12.419  31.801  13.918  1.00  0.00    -0.550 OA
ATOM      4  O   UNL     1      13.209  33.952  13.918  1.00  0.00    -0.550 OA
ENDROOT
TORSDOF 0
ENDMDL
MODEL 7
REMARK VINA RESULT:    -2.359     11.090     11.699
REMARK INTER + INTRA:          -2.359
REMARK INTER:                  -2.359
REMARK INTRA:                   0.000
REMARK UNBOUND:                 0.000
REMARK SMILES CC(=O)[O-]
REMARK SMILES IDX 1 1 2 2 3 3 4 4
REMARK H PARENT
REMARK Flexibility Score: inf
ROOT
ATOM      1  C   UNL     1       3.114  40.944  12.236  1.00  0.00     0.063 C 
ATOM      2  C   UNL     1       3.596  39.672  12.844  1.00  0.00     0.038 C 
ATOM      3  O   UNL     1       2.930  38.613  12.705  1.00  0.00    -0.550 OA
ATOM      4  O   UNL     1       4.808  39.640  13.522  1.00  0.00    -0.550 OA
ENDROOT
TORSDOF 0
ENDMDL
MODEL 8
REMARK VINA RESULT:    -2.340      1.998      2.443
REMARK INTER + INTRA:          -2.340
REMARK INTER:                  -2.340
REMARK INTRA:                   0.000
REMARK UNBOUND:                 0.000
REMARK SMILES CC(=O)[O-]
REMARK SMILES IDX 1 1 2 2 3 3 4 4
REMARK H PARENT
REMARK Flexibility Score: inf
ROOT
ATOM      1  C   UNL     1      12.465  31.600  13.987  1.00  0.00     0.063 C 
ATOM      2  C   UNL     1      13.212  32.675  13.276  1.00  0.00     0.038 C 
ATOM      3  O   UNL     1      13.246  33.840  13.749  1.00  0.00    -0.550 OA
ATOM      4  O   UNL     1      13.918  32.381  12.116  1.00  0.00    -0.550 OA
ENDROOT
TORSDOF 0
ENDMDL
MODEL 9
REMARK VINA RESULT:    -2.263     15.682     16.167
REMARK INTER + INTRA:          -2.263
REMARK INTER:                  -2.263
REMARK INTRA:                   0.000
REMARK UNBOUND:                 0.000
REMARK SMILES CC(=O)[O-]
REMARK SMILES IDX 1 1 2 2 3 3 4 4
REMARK H PARENT
REMARK Flexibility Score: inf
ROOT
ATOM      1  C   UNL     1       6.702  48.001   9.180  1.00  0.00     0.063 C 
ATOM      2  C   UNL     1       5.370  47.333   9.222  1.00  0.00     0.038 C 
ATOM      3  O   UNL     1       4.456  47.696   8.437  1.00  0.00    -0.550 OA
ATOM      4  O   UNL     1       5.151  46.272  10.092  1.00  0.00    -0.550 OA
ENDROOT
TORSDOF 0
ENDMDL
