MODEL 1
REMARK VINA RESULT:    -4.185      0.000      0.000
REMARK INTER + INTRA:          -5.427
REMARK INTER:                  -5.163
REMARK INTRA:                  -0.264
REMARK UNBOUND:                -0.264
REMARK SMILES CCCCC=CC(C)=O
REMARK SMILES IDX 4 1 3 2 2 3 1 4 5 5 6 6 7 7 9 8 8 9
REMARK H PARENT
REMARK Flexibility Score: inf
ROOT
ATOM      1  C   UNL     1      16.914 -10.022  66.070  1.00  0.00     0.027 C 
ENDROOT
BRANCH   1   2
ATOM      2  C   UNL     1      17.407 -10.695  64.784  1.00  0.00     0.004 C 
BRANCH   2   3
ATOM      3  C   UNL     1      18.047  -9.691  63.814  1.00  0.00    -0.003 C 
ATOM      4  C   UNL     1      19.522  -9.473  64.142  1.00  0.00     0.004 C 
ENDBRANCH   2   3
ENDBRANCH   1   2
BRANCH   1   5
ATOM      5  C   UNL     1      17.652 -10.531  67.276  1.00  0.00    -0.023 C 
ATOM      6  C   UNL     1      18.466  -9.740  67.986  1.00  0.00     0.042 C 
BRANCH   6   7
ATOM      7  C   UNL     1      19.237 -10.210  69.155  1.00  0.00     0.152 C 
ATOM      8  O   UNL     1      19.385  -9.430  70.133  1.00  0.00    -0.295 OA
ATOM      9  C   UNL     1      19.851 -11.576  69.217  1.00  0.00     0.093 C 
ENDBRANCH   6   7
ENDBRANCH   1   5
TORSDOF 4
ENDMDL
MODEL 2
REMARK VINA RESULT:    -4.131      1.372      2.241
REMARK INTER + INTRA:          -5.361
REMARK INTER:                  -5.219
REMARK INTRA:                  -0.142
REMARK UNBOUND:                -0.264
REMARK SMILES CCCCC=CC(C)=O
REMARK SMILES IDX 4 1 3 2 2 3 1 4 5 5 6 6 7 7 9 8 8 9
REMARK H PARENT
REMARK Flexibility Score: inf
ROOT
ATOM      1  C   UNL     1      17.002  -9.996  66.018  1.00  0.00     0.027 C 
ENDROOT
BRANCH   1   2
ATOM      2  C   UNL     1      16.638 -11.122  65.044  1.00  0.00     0.004 C 
BRANCH   2   3
ATOM      3  C   UNL     1      15.248 -10.925  64.423  1.00  0.00    -0.003 C 
ATOM      4  C   UNL     1      14.195 -11.749  65.159  1.00  0.00     0.004 C 
ENDBRANCH   2   3
ENDBRANCH   1   2
BRANCH   1   5
ATOM      5  C   UNL     1      17.723 -10.523  67.227  1.00  0.00    -0.023 C 
ATOM      6  C   UNL     1      18.456  -9.722  68.011  1.00  0.00     0.042 C 
BRANCH   6   7
ATOM      7  C   UNL     1      19.209 -10.206  69.186  1.00  0.00     0.152 C 
ATOM      8  O   UNL     1      19.407  -9.412  70.143  1.00  0.00    -0.295 OA
ATOM      9  C   UNL     1      19.747 -11.602  69.276  1.00  0.00     0.093 C 
ENDBRANCH   6   7
ENDBRANCH   1   5
TORSDOF 4
ENDMDL
MODEL 3
REMARK VINA RESULT:    -3.800      2.776      3.446
REMARK INTER + INTRA:          -4.952
REMARK INTER:                  -4.778
REMARK INTRA:                  -0.174
REMARK UNBOUND:                -0.264
REMARK SMILES CCCCC=CC(C)=O
REMARK SMILES IDX 4 1 3 2 2 3 1 4 5 5 6 6 7 7 9 8 8 9
REMARK H PARENT
REMARK Flexibility Score: inf
ROOT
ATOM      1  C   UNL     1      16.959 -10.501  66.318  1.00  0.00     0.027 C 
ENDROOT
BRANCH   1   2
ATOM      2  C   UNL     1      16.168 -10.704  65.020  1.00  0.00     0.004 C 
BRANCH   2   3
ATOM      3  C   UNL     1      14.940 -11.604  65.225  1.00  0.00    -0.003 C 
ATOM      4  C   UNL     1      13.792 -11.183  64.313  1.00  0.00     0.004 C 
ENDBRANCH   2   3
ENDBRANCH   1   2
BRANCH   1   5
ATOM      5  C   UNL     1      16.735 -11.631  67.283  1.00  0.00    -0.023 C 
ATOM      6  C   UNL     1      17.729 -12.115  68.039  1.00  0.00     0.042 C 
BRANCH   6   7
ATOM      7  C   UNL     1      17.559 -13.247  68.973  1.00  0.00     0.152 C 
ATOM      8  O   UNL     1      16.412 -13.478  69.438  1.00  0.00    -0.295 OA
ATOM      9  C   UNL     1      18.701 -14.125  69.388  1.00  0.00     0.093 C 
ENDBRANCH   6   7
ENDBRANCH   1   5
TORSDOF 4
ENDMDL
MODEL 4
REMARK VINA RESULT:    -3.686      1.476      1.802
REMARK INTER + INTRA:          -4.812
REMARK INTER:                  -4.652
REMARK INTRA:                  -0.160
REMARK UNBOUND:                -0.264
REMARK SMILES CCCCC=CC(C)=O
REMARK SMILES IDX 4 1 3 2 2 3 1 4 5 5 6 6 7 7 9 8 8 9
REMARK H PARENT
REMARK Flexibility Score: inf
ROOT
ATOM      1  C   UNL     1      16.683 -11.485  66.419  1.00  0.00     0.027 C 
ENDROOT
BRANCH   1   2
ATOM      2  C   UNL     1      17.172 -10.082  66.041  1.00  0.00     0.004 C 
BRANCH   2   3
ATOM      3  C   UNL     1      16.690  -9.657  64.647  1.00  0.00    -0.003 C 
ATOM      4  C   UNL     1      17.862  -9.513  63.680  1.00  0.00     0.004 C 
ENDBRANCH   2   3
ENDBRANCH   1   2
BRANCH   1   5
ATOM      5  C   UNL     1      17.249 -11.930  67.738  1.00  0.00    -0.023 C 
ATOM      6  C   UNL     1      18.514 -11.660  68.086  1.00  0.00     0.042 C 
BRANCH   6   7
ATOM      7  C   UNL     1      19.119 -12.110  69.356  1.00  0.00     0.152 C 
ATOM      8  O   UNL     1      20.037 -11.415  69.866  1.00  0.00    -0.295 OA
ATOM      9  C   UNL     1      18.682 -13.362  70.056  1.00  0.00     0.093 C 
ENDBRANCH   6   7
ENDBRANCH   1   5
TORSDOF 4
ENDMDL
MODEL 5
REMARK VINA RESULT:    -3.655     15.046     15.711
REMARK INTER + INTRA:          -4.774
REMARK INTER:                  -4.621
REMARK INTRA:                  -0.153
REMARK UNBOUND:                -0.264
REMARK SMILES CCCCC=CC(C)=O
REMARK SMILES IDX 4 1 3 2 2 3 1 4 5 5 6 6 7 7 9 8 8 9
REMARK H PARENT
REMARK Flexibility Score: inf
ROOT
ATOM      1  C   UNL     1      17.428   4.056  62.867  1.00  0.00     0.027 C 
ENDROOT
BRANCH   1   2
ATOM      2  C   UNL     1      16.448   4.686  61.870  1.00  0.00     0.004 C 
BRANCH   2   3
ATOM      3  C   UNL     1      16.647   4.151  60.445  1.00  0.00    -0.003 C 
ATOM      4  C   UNL     1      15.895   2.839  60.239  1.00  0.00     0.004 C 
ENDBRANCH   2   3
ENDBRANCH   1   2
BRANCH   1   5
ATOM      5  C   UNL     1      18.569   4.982  63.179  1.00  0.00    -0.023 C 
ATOM      6  C   UNL     1      19.832   4.541  63.246  1.00  0.00     0.042 C 
BRANCH   6   7
ATOM      7  C   UNL     1      20.977   5.410  63.585  1.00  0.00     0.152 C 
ATOM      8  O   UNL     1      21.796   5.711  62.676  1.00  0.00    -0.295 OA
ATOM      9  C   UNL     1      21.201   5.942  64.969  1.00  0.00     0.093 C 
ENDBRANCH   6   7
ENDBRANCH   1   5
TORSDOF 4
ENDMDL
MODEL 6
REMARK VINA RESULT:    -3.653     15.647     16.558
REMARK INTER + INTRA:          -4.771
REMARK INTER:                  -4.568
REMARK INTRA:                  -0.203
REMARK UNBOUND:                -0.264
REMARK SMILES CCCCC=CC(C)=O
REMARK SMILES IDX 4 1 3 2 2 3 1 4 5 5 6 6 7 7 9 8 8 9
REMARK H PARENT
REMARK Flexibility Score: inf
ROOT
ATOM      1  C   UNL     1      20.852   4.939  64.104  1.00  0.00     0.027 C 
ENDROOT
BRANCH   1   2
ATOM      2  C   UNL     1      21.808   6.124  64.286  1.00  0.00     0.004 C 
BRANCH   2   3
ATOM      3  C   UNL     1      23.171   5.876  63.624  1.00  0.00    -0.003 C 
ATOM      4  C   UNL     1      23.005   5.382  62.190  1.00  0.00     0.004 C 
ENDBRANCH   2   3
ENDBRANCH   1   2
BRANCH   1   5
ATOM      5  C   UNL     1      19.493   5.392  63.652  1.00  0.00    -0.023 C 
ATOM      6  C   UNL     1      18.708   4.611  62.899  1.00  0.00     0.042 C 
BRANCH   6   7
ATOM      7  C   UNL     1      17.381   5.032  62.403  1.00  0.00     0.152 C 
ATOM      8  O   UNL     1      17.133   4.918  61.174  1.00  0.00    -0.295 OA
ATOM      9  C   UNL     1      16.325   5.592  63.308  1.00  0.00     0.093 C 
ENDBRANCH   6   7
ENDBRANCH   1   5
TORSDOF 4
ENDMDL
MODEL 7
REMARK VINA RESULT:    -3.506      2.836      4.849
REMARK INTER + INTRA:          -4.590
REMARK INTER:                  -4.371
REMARK INTRA:                  -0.219
REMARK UNBOUND:                -0.264
REMARK SMILES CCCCC=CC(C)=O
REMARK SMILES IDX 4 1 3 2 2 3 1 4 5 5 6 6 7 7 9 8 8 9
REMARK H PARENT
REMARK Flexibility Score: inf
ROOT
ATOM      1  C   UNL     1      17.332  -9.918  67.379  1.00  0.00     0.027 C 
ENDROOT
BRANCH   1   2
ATOM      2  C   UNL     1      18.801  -9.567  67.640  1.00  0.00     0.004 C 
BRANCH   2   3
ATOM      3  C   UNL     1      19.242  -9.938  69.064  1.00  0.00    -0.003 C 
ATOM      4  C   UNL     1      19.623 -11.413  69.155  1.00  0.00     0.004 C 
ENDBRANCH   2   3
ENDBRANCH   1   2
BRANCH   1   5
ATOM      5  C   UNL     1      17.115 -10.366  65.961  1.00  0.00    -0.023 C 
ATOM      6  C   UNL     1      17.515 -11.572  65.538  1.00  0.00     0.042 C 
BRANCH   6   7
ATOM      7  C   UNL     1      17.354 -12.037  64.145  1.00  0.00     0.152 C 
ATOM      8  O   UNL     1      17.723 -11.278  63.210  1.00  0.00    -0.295 OA
ATOM      9  C   UNL     1      16.766 -13.374  63.806  1.00  0.00     0.093 C 
ENDBRANCH   6   7
ENDBRANCH   1   5
TORSDOF 4
ENDMDL
MODEL 8
REMARK VINA RESULT:    -3.500     14.563     16.011
REMARK INTER + INTRA:          -4.582
REMARK INTER:                  -4.423
REMARK INTRA:                  -0.160
REMARK UNBOUND:                -0.264
REMARK SMILES CCCCC=CC(C)=O
REMARK SMILES IDX 4 1 3 2 2 3 1 4 5 5 6 6 7 7 9 8 8 9
REMARK H PARENT
REMARK Flexibility Score: inf
ROOT
ATOM      1  C   UNL     1       7.632  -9.024  54.052  1.00  0.00     0.027 C 
ENDROOT
BRANCH   1   2
ATOM      2  C   UNL     1       6.727  -7.801  54.244  1.00  0.00     0.004 C 
BRANCH   2   3
ATOM      3  C   UNL     1       6.650  -7.362  55.713  1.00  0.00    -0.003 C 
ATOM      4  C   UNL     1       5.315  -7.760  56.337  1.00  0.00     0.004 C 
ENDBRANCH   2   3
ENDBRANCH   1   2
BRANCH   1   5
ATOM      5  C   UNL     1       9.041  -8.742  54.495  1.00  0.00    -0.023 C 
ATOM      6  C   UNL     1      10.090  -9.337  53.914  1.00  0.00     0.042 C 
BRANCH   6   7
ATOM      7  C   UNL     1      11.487  -9.116  54.342  1.00  0.00     0.152 C 
ATOM      8  O   UNL     1      12.050  -9.998  55.043  1.00  0.00    -0.295 OA
ATOM      9  C   UNL     1      12.254  -7.880  53.976  1.00  0.00     0.093 C 
ENDBRANCH   6   7
ENDBRANCH   1   5
TORSDOF 4
ENDMDL
MODEL 9
REMARK VINA RESULT:    -3.463      3.529      5.519
REMARK INTER + INTRA:          -4.537
REMARK INTER:                  -4.286
REMARK INTRA:                  -0.251
REMARK UNBOUND:                -0.264
REMARK SMILES CCCCC=CC(C)=O
REMARK SMILES IDX 4 1 3 2 2 3 1 4 5 5 6 6 7 7 9 8 8 9
REMARK H PARENT
REMARK Flexibility Score: inf
ROOT
ATOM      1  C   UNL     1      16.476 -11.408  66.505  1.00  0.00     0.027 C 
ENDROOT
BRANCH   1   2
ATOM      2  C   UNL     1      17.082 -10.000  66.539  1.00  0.00     0.004 C 
BRANCH   2   3
ATOM      3  C   UNL     1      18.161  -9.860  67.622  1.00  0.00    -0.003 C 
ATOM      4  C   UNL     1      19.199 -10.973  67.512  1.00  0.00     0.004 C 
ENDBRANCH   2   3
ENDBRANCH   1   2
BRANCH   1   5
ATOM      5  C   UNL     1      16.020 -11.780  65.122  1.00  0.00    -0.023 C 
ATOM      6  C   UNL     1      16.782 -11.545  64.046  1.00  0.00     0.042 C 
BRANCH   6   7
ATOM      7  C   UNL     1      16.357 -11.861  62.668  1.00  0.00     0.152 C 
ATOM      8  O   UNL     1      16.972 -12.762  62.038  1.00  0.00    -0.295 OA
ATOM      9  C   UNL     1      15.225 -11.147  61.991  1.00  0.00     0.093 C 
ENDBRANCH   6   7
ENDBRANCH   1   5
TORSDOF 4
ENDMDL
