MODEL 1
REMARK VINA RESULT:    -5.694      0.000      0.000
REMARK INTER + INTRA:          -7.222
REMARK INTER:                  -6.526
REMARK INTRA:                  -0.696
REMARK UNBOUND:                -0.696
REMARK SMILES C=C(C)[C@@H]1CC[C@@]2(C(=O)[O-])CC[C@@]3(C)[C@H](CC[C@H]4[C@]5(C)CC[C@@H](O)C(C)(C)[C@H]5CC[C@]43C)[C@@H]12
REMARK SMILES IDX 7 1 6 2 33 3 11 4 5 5 15 6 4 7 12 8 16 9 13 10 17 11 31 12
REMARK SMILES IDX 14 13 18 14 30 15 32 16 19 17 29 18 21 19 20 20 28 21 22 22
REMARK SMILES IDX 25 23 23 24 26 25 27 26 8 27 9 28 10 29 2 30 3 31 1 32 24 33
REMARK H PARENT 24 34
REMARK Flexibility Score: inf
ROOT
ATOM      1  C   UNL     1      -0.368  -1.808  28.084  1.00  0.00     0.014 C 
ATOM      2  C   UNL     1       0.003  -1.915  29.574  1.00  0.00     0.014 C 
ATOM      3  C   UNL     1      -1.421  -0.676  28.054  1.00  0.00     0.012 C 
ATOM      4  C   UNL     1      -0.979  -3.134  27.600  1.00  0.00     0.014 C 
ATOM      5  C   UNL     1      -1.251  -1.569  30.364  1.00  0.00     0.009 C 
ATOM      6  C   UNL     1      -2.428  -0.640  26.830  1.00  0.00     0.000 C 
ATOM      7  C   UNL     1      -2.136  -0.731  29.430  1.00  0.00     0.018 C 
ATOM      8  C   UNL     1      -1.517  -3.003  26.178  1.00  0.00     0.008 C 
ATOM      9  C   UNL     1      -2.093   0.517  25.906  1.00  0.00     0.005 C 
ATOM     10  C   UNL     1      -2.710  -1.990  26.035  1.00  0.00    -0.024 C 
ATOM     11  C   UNL     1      -3.226   0.798  24.927  1.00  0.00     0.005 C 
ATOM     12  C   UNL     1      -3.068  -1.755  24.445  1.00  0.00    -0.024 C 
ATOM     13  C   UNL     1      -3.936  -2.644  26.772  1.00  0.00     0.012 C 
ATOM     14  C   UNL     1      -3.940  -0.438  24.246  1.00  0.00     0.002 C 
ATOM     15  C   UNL     1      -1.789  -1.611  23.507  1.00  0.00     0.008 C 
ATOM     16  C   UNL     1      -3.870  -3.034  23.982  1.00  0.00     0.012 C 
ATOM     17  C   UNL     1      -4.397  -0.111  22.720  1.00  0.00    -0.026 C 
ATOM     18  C   UNL     1      -1.926  -0.660  22.273  1.00  0.00     0.005 C 
ATOM     19  C   UNL     1      -5.764  -0.766  22.356  1.00  0.00     0.010 C 
ATOM     20  C   UNL     1      -4.610   1.438  22.561  1.00  0.00     0.012 C 
ATOM     21  C   UNL     1      -3.353  -0.704  21.703  1.00  0.00     0.003 C 
ATOM     22  C   UNL     1      -6.163  -0.576  20.866  1.00  0.00     0.033 C 
ATOM     23  C   UNL     1      -3.613  -0.429  20.172  1.00  0.00    -0.006 C 
ATOM     24  C   UNL     1      -5.064  -0.951  19.840  1.00  0.00     0.120 C 
ATOM     25  C   UNL     1      -2.617  -1.265  19.314  1.00  0.00     0.014 C 
ATOM     26  C   UNL     1      -3.414   1.052  19.759  1.00  0.00     0.014 C 
ENDROOT
BRANCH   1  27
ATOM     27  C   UNL     1       0.893  -1.501  27.289  1.00  0.00     0.048 C 
ATOM     28  O   UNL     1       1.115  -0.352  26.824  1.00  0.00    -0.550 OA
ATOM     29  O   UNL     1       1.817  -2.513  27.049  1.00  0.00    -0.550 OA
ENDBRANCH   1  27
BRANCH   7  30
ATOM     30  C   UNL     1      -2.443   0.657  29.986  1.00  0.00    -0.077 C 
ATOM     31  C   UNL     1      -1.606   1.840  29.570  1.00  0.00     0.039 C 
ATOM     32  C   UNL     1      -3.448   0.855  30.858  1.00  0.00     0.008 C 
ENDBRANCH   7  30
BRANCH  24  33
ATOM     33  O   UNL     1      -5.470  -0.505  18.568  1.00  0.00    -0.393 OA
ATOM     34  H   UNL     1      -6.366  -0.892  18.387  1.00  0.00     0.210 HD
ENDBRANCH  24  33
TORSDOF 3
ENDMDL
MODEL 2
REMARK VINA RESULT:    -4.530      3.003      7.070
REMARK INTER + INTRA:          -5.888
REMARK INTER:                  -5.372
REMARK INTRA:                  -0.516
REMARK UNBOUND:                -0.696
REMARK SMILES C=C(C)[C@@H]1CC[C@@]2(C(=O)[O-])CC[C@@]3(C)[C@H](CC[C@H]4[C@]5(C)CC[C@@H](O)C(C)(C)[C@H]5CC[C@]43C)[C@@H]12
REMARK SMILES IDX 7 1 6 2 33 3 11 4 5 5 15 6 4 7 12 8 16 9 13 10 17 11 31 12
REMARK SMILES IDX 14 13 18 14 30 15 32 16 19 17 29 18 21 19 20 20 28 21 22 22
REMARK SMILES IDX 25 23 23 24 26 25 27 26 8 27 9 28 10 29 2 30 3 31 1 32 24 33
REMARK H PARENT 24 34
REMARK Flexibility Score: inf
ROOT
ATOM      1  C   UNL     1       1.209  -3.210  23.685  1.00  0.00     0.014 C 
ATOM      2  C   UNL     1       2.147  -3.483  22.496  1.00  0.00     0.014 C 
ATOM      3  C   UNL     1       0.247  -2.127  23.145  1.00  0.00     0.012 C 
ATOM      4  C   UNL     1       2.018  -2.674  24.878  1.00  0.00     0.014 C 
ATOM      5  C   UNL     1       2.295  -2.170  21.743  1.00  0.00     0.009 C 
ATOM      6  C   UNL     1      -0.490  -1.203  24.201  1.00  0.00     0.000 C 
ATOM      7  C   UNL     1       1.064  -1.323  22.099  1.00  0.00     0.018 C 
ATOM      8  C   UNL     1       1.096  -2.228  26.010  1.00  0.00     0.008 C 
ATOM      9  C   UNL     1      -1.963  -1.563  24.279  1.00  0.00     0.005 C 
ATOM     10  C   UNL     1       0.167  -1.017  25.640  1.00  0.00    -0.024 C 
ATOM     11  C   UNL     1      -2.764  -0.489  25.005  1.00  0.00     0.005 C 
ATOM     12  C   UNL     1      -0.934  -0.759  26.837  1.00  0.00    -0.024 C 
ATOM     13  C   UNL     1       1.108   0.235  25.495  1.00  0.00     0.012 C 
ATOM     14  C   UNL     1      -2.142   0.138  26.317  1.00  0.00     0.002 C 
ATOM     15  C   UNL     1      -1.570  -2.092  27.432  1.00  0.00     0.008 C 
ATOM     16  C   UNL     1      -0.154  -0.030  28.000  1.00  0.00     0.012 C 
ATOM     17  C   UNL     1      -3.283   0.502  27.417  1.00  0.00    -0.026 C 
ATOM     18  C   UNL     1      -3.055  -2.009  27.915  1.00  0.00     0.005 C 
ATOM     19  C   UNL     1      -2.967   1.821  28.186  1.00  0.00     0.010 C 
ATOM     20  C   UNL     1      -4.651   0.753  26.684  1.00  0.00     0.012 C 
ATOM     21  C   UNL     1      -3.359  -0.625  28.512  1.00  0.00     0.003 C 
ATOM     22  C   UNL     1      -3.975   2.125  29.330  1.00  0.00     0.033 C 
ATOM     23  C   UNL     1      -4.458  -0.460  29.630  1.00  0.00    -0.006 C 
ATOM     24  C   UNL     1      -4.235   0.948  30.305  1.00  0.00     0.120 C 
ATOM     25  C   UNL     1      -4.245  -1.536  30.737  1.00  0.00     0.014 C 
ATOM     26  C   UNL     1      -5.909  -0.639  29.116  1.00  0.00     0.014 C 
ENDROOT
BRANCH   1  27
ATOM     27  C   UNL     1       0.520  -4.511  24.071  1.00  0.00     0.048 C 
ATOM     28  O   UNL     1      -0.711  -4.552  24.332  1.00  0.00    -0.550 OA
ATOM     29  O   UNL     1       1.266  -5.682  24.161  1.00  0.00    -0.550 OA
ENDBRANCH   1  27
BRANCH   7  30
ATOM     30  C   UNL     1       0.234  -0.937  20.877  1.00  0.00    -0.077 C 
ATOM     31  C   UNL     1       0.612   0.269  20.056  1.00  0.00     0.039 C 
ATOM     32  C   UNL     1      -0.848  -1.650  20.514  1.00  0.00     0.008 C 
ENDBRANCH   7  30
BRANCH  24  33
ATOM     33  O   UNL     1      -5.329   1.283  31.125  1.00  0.00    -0.393 OA
ATOM     34  H   UNL     1      -5.720   2.126  30.776  1.00  0.00     0.210 HD
ENDBRANCH  24  33
TORSDOF 3
ENDMDL
MODEL 3
REMARK VINA RESULT:    -4.423      3.236      7.834
REMARK INTER + INTRA:          -5.766
REMARK INTER:                  -5.307
REMARK INTRA:                  -0.459
REMARK UNBOUND:                -0.696
REMARK SMILES C=C(C)[C@@H]1CC[C@@]2(C(=O)[O-])CC[C@@]3(C)[C@H](CC[C@H]4[C@]5(C)CC[C@@H](O)C(C)(C)[C@H]5CC[C@]43C)[C@@H]12
REMARK SMILES IDX 7 1 6 2 33 3 11 4 5 5 15 6 4 7 12 8 16 9 13 10 17 11 31 12
REMARK SMILES IDX 14 13 18 14 30 15 32 16 19 17 29 18 21 19 20 20 28 21 22 22
REMARK SMILES IDX 25 23 23 24 26 25 27 26 8 27 9 28 10 29 2 30 3 31 1 32 24 33
REMARK H PARENT 24 34
REMARK Flexibility Score: inf
ROOT
ATOM      1  C   UNL     1       1.897  -4.192  22.731  1.00  0.00     0.014 C 
ATOM      2  C   UNL     1       2.419  -4.669  21.364  1.00  0.00     0.014 C 
ATOM      3  C   UNL     1       0.862  -3.105  22.364  1.00  0.00     0.012 C 
ATOM      4  C   UNL     1       3.052  -3.592  23.551  1.00  0.00     0.014 C 
ATOM      5  C   UNL     1       2.384  -3.463  20.437  1.00  0.00     0.009 C 
ATOM      6  C   UNL     1       0.518  -2.015  23.463  1.00  0.00     0.000 C 
ATOM      7  C   UNL     1       1.355  -2.488  21.028  1.00  0.00     0.018 C 
ATOM      8  C   UNL     1       2.535  -2.952  24.837  1.00  0.00     0.008 C 
ATOM      9  C   UNL     1      -0.875  -2.248  24.019  1.00  0.00     0.005 C 
ATOM     10  C   UNL     1       1.587  -1.721  24.605  1.00  0.00    -0.024 C 
ATOM     11  C   UNL     1      -1.374  -1.042  24.804  1.00  0.00     0.005 C 
ATOM     12  C   UNL     1       0.913  -1.246  26.031  1.00  0.00    -0.024 C 
ATOM     13  C   UNL     1       2.490  -0.570  24.027  1.00  0.00     0.012 C 
ATOM     14  C   UNL     1      -0.358  -0.322  25.780  1.00  0.00     0.002 C 
ATOM     15  C   UNL     1       0.435  -2.452  26.955  1.00  0.00     0.008 C 
ATOM     16  C   UNL     1       2.038  -0.455  26.806  1.00  0.00     0.012 C 
ATOM     17  C   UNL     1      -1.096   0.250  27.111  1.00  0.00    -0.026 C 
ATOM     18  C   UNL     1      -0.829  -2.200  27.841  1.00  0.00     0.005 C 
ATOM     19  C   UNL     1      -0.509   1.618  27.575  1.00  0.00     0.010 C 
ATOM     20  C   UNL     1      -2.611   0.523  26.791  1.00  0.00     0.012 C 
ATOM     21  C   UNL     1      -0.882  -0.739  28.316  1.00  0.00     0.003 C 
ATOM     22  C   UNL     1      -1.108   2.125  28.916  1.00  0.00     0.033 C 
ATOM     23  C   UNL     1      -1.582  -0.365  29.679  1.00  0.00    -0.006 C 
ATOM     24  C   UNL     1      -1.108   1.088  30.068  1.00  0.00     0.120 C 
ATOM     25  C   UNL     1      -1.087  -1.325  30.802  1.00  0.00     0.014 C 
ATOM     26  C   UNL     1      -3.127  -0.488  29.645  1.00  0.00     0.014 C 
ENDROOT
BRANCH   1  27
ATOM     27  C   UNL     1       1.307  -5.385  23.470  1.00  0.00     0.048 C 
ATOM     28  O   UNL     1       0.122  -5.374  23.896  1.00  0.00    -0.550 OA
ATOM     29  O   UNL     1       2.094  -6.508  23.700  1.00  0.00    -0.550 OA
ENDBRANCH   1  27
BRANCH   7  30
ATOM     30  C   UNL     1       0.209  -2.178  20.068  1.00  0.00    -0.077 C 
ATOM     31  C   UNL     1       0.196  -2.780  18.687  1.00  0.00     0.039 C 
ATOM     32  C   UNL     1      -0.800  -1.362  20.425  1.00  0.00     0.008 C 
ENDBRANCH   7  30
BRANCH  24  33
ATOM     33  O   UNL     1      -1.887   1.596  31.125  1.00  0.00    -0.393 OA
ATOM     34  H   UNL     1      -1.312   2.207  31.655  1.00  0.00     0.210 HD
ENDBRANCH  24  33
TORSDOF 3
ENDMDL
MODEL 4
REMARK VINA RESULT:    -2.868      1.841      8.088
REMARK INTER + INTRA:          -3.984
REMARK INTER:                  -3.320
REMARK INTRA:                  -0.664
REMARK UNBOUND:                -0.696
REMARK SMILES C=C(C)[C@@H]1CC[C@@]2(C(=O)[O-])CC[C@@]3(C)[C@H](CC[C@H]4[C@]5(C)CC[C@@H](O)C(C)(C)[C@H]5CC[C@]43C)[C@@H]12
REMARK SMILES IDX 7 1 6 2 33 3 11 4 5 5 15 6 4 7 12 8 16 9 13 10 17 11 31 12
REMARK SMILES IDX 14 13 18 14 30 15 32 16 19 17 29 18 21 19 20 20 28 21 22 22
REMARK SMILES IDX 25 23 23 24 26 25 27 26 8 27 9 28 10 29 2 30 3 31 1 32 24 33
REMARK H PARENT 24 34
REMARK Flexibility Score: inf
ROOT
ATOM      1  C   UNL     1      -4.997  -0.089  21.827  1.00  0.00     0.014 C 
ATOM      2  C   UNL     1      -5.489  -0.018  20.371  1.00  0.00     0.014 C 
ATOM      3  C   UNL     1      -3.497  -0.435  21.686  1.00  0.00     0.012 C 
ATOM      4  C   UNL     1      -5.746  -1.203  22.578  1.00  0.00     0.014 C 
ATOM      5  C   UNL     1      -4.672  -1.030  19.582  1.00  0.00     0.009 C 
ATOM      6  C   UNL     1      -2.781  -1.123  22.921  1.00  0.00     0.000 C 
ATOM      7  C   UNL     1      -3.378  -1.259  20.375  1.00  0.00     0.018 C 
ATOM      8  C   UNL     1      -5.158  -1.415  23.971  1.00  0.00     0.008 C 
ATOM      9  C   UNL     1      -1.835  -0.145  23.593  1.00  0.00     0.005 C 
ATOM     10  C   UNL     1      -3.672  -1.926  23.968  1.00  0.00    -0.024 C 
ATOM     11  C   UNL     1      -0.881  -0.854  24.548  1.00  0.00     0.005 C 
ATOM     12  C   UNL     1      -3.063  -1.910  25.498  1.00  0.00    -0.024 C 
ATOM     13  C   UNL     1      -3.711  -3.400  23.420  1.00  0.00     0.012 C 
ATOM     14  C   UNL     1      -1.473  -1.988  25.479  1.00  0.00     0.002 C 
ATOM     15  C   UNL     1      -3.454  -0.615  26.339  1.00  0.00     0.008 C 
ATOM     16  C   UNL     1      -3.677  -3.168  26.228  1.00  0.00     0.012 C 
ATOM     17  C   UNL     1      -0.745  -2.020  26.933  1.00  0.00    -0.026 C 
ATOM     18  C   UNL     1      -2.400  -0.103  27.374  1.00  0.00     0.005 C 
ATOM     19  C   UNL     1      -0.556  -3.472  27.470  1.00  0.00     0.010 C 
ATOM     20  C   UNL     1       0.703  -1.421  26.804  1.00  0.00     0.012 C 
ATOM     21  C   UNL     1      -1.633  -1.280  28.000  1.00  0.00     0.003 C 
ATOM     22  C   UNL     1       0.020  -3.526  28.912  1.00  0.00     0.033 C 
ATOM     23  C   UNL     1      -1.049  -1.167  29.460  1.00  0.00    -0.006 C 
ATOM     24  C   UNL     1      -0.709  -2.629  29.945  1.00  0.00     0.120 C 
ATOM     25  C   UNL     1      -2.141  -0.608  30.420  1.00  0.00     0.014 C 
ATOM     26  C   UNL     1       0.169  -0.214  29.577  1.00  0.00     0.014 C 
ENDROOT
BRANCH   1  27
ATOM     27  C   UNL     1      -5.262   1.252  22.497  1.00  0.00     0.048 C 
ATOM     28  O   UNL     1      -4.352   2.112  22.631  1.00  0.00    -0.550 OA
ATOM     29  O   UNL     1      -6.531   1.533  22.992  1.00  0.00    -0.550 OA
ENDBRANCH   1  27
BRANCH   7  30
ATOM     30  C   UNL     1      -2.122  -0.913  19.579  1.00  0.00    -0.077 C 
ATOM     31  C   UNL     1      -1.362  -1.996  18.858  1.00  0.00     0.039 C 
ATOM     32  C   UNL     1      -1.664   0.351  19.510  1.00  0.00     0.008 C 
ENDBRANCH   7  30
BRANCH  24  33
ATOM     33  O   UNL     1       0.058  -2.593  31.125  1.00  0.00    -0.393 OA
ATOM     34  H   UNL     1      -0.556  -2.388  31.877  1.00  0.00     0.210 HD
ENDBRANCH  24  33
TORSDOF 3
ENDMDL
MODEL 5
REMARK VINA RESULT:    -2.770      2.482      7.825
REMARK INTER + INTRA:          -3.871
REMARK INTER:                  -3.353
REMARK INTRA:                  -0.519
REMARK UNBOUND:                -0.696
REMARK SMILES C=C(C)[C@@H]1CC[C@@]2(C(=O)[O-])CC[C@@]3(C)[C@H](CC[C@H]4[C@]5(C)CC[C@@H](O)C(C)(C)[C@H]5CC[C@]43C)[C@@H]12
REMARK SMILES IDX 7 1 6 2 33 3 11 4 5 5 15 6 4 7 12 8 16 9 13 10 17 11 31 12
REMARK SMILES IDX 14 13 18 14 30 15 32 16 19 17 29 18 21 19 20 20 28 21 22 22
REMARK SMILES IDX 25 23 23 24 26 25 27 26 8 27 9 28 10 29 2 30 3 31 1 32 24 33
REMARK H PARENT 24 34
REMARK Flexibility Score: inf
ROOT
ATOM      1  C   UNL     1      -5.496   0.331  22.807  1.00  0.00     0.014 C 
ATOM      2  C   UNL     1      -6.653   0.674  21.853  1.00  0.00     0.014 C 
ATOM      3  C   UNL     1      -4.379  -0.163  21.859  1.00  0.00     0.012 C 
ATOM      4  C   UNL     1      -5.928  -0.788  23.771  1.00  0.00     0.014 C 
ATOM      5  C   UNL     1      -6.563  -0.297  20.686  1.00  0.00     0.009 C 
ATOM      6  C   UNL     1      -3.260  -1.106  22.467  1.00  0.00     0.000 C 
ATOM      7  C   UNL     1      -5.109  -0.791  20.641  1.00  0.00     0.018 C 
ATOM      8  C   UNL     1      -4.748  -1.272  24.610  1.00  0.00     0.008 C 
ATOM      9  C   UNL     1      -1.946  -0.356  22.585  1.00  0.00     0.005 C 
ATOM     10  C   UNL     1      -3.600  -1.946  23.776  1.00  0.00    -0.024 C 
ATOM     11  C   UNL     1      -0.779  -1.305  22.829  1.00  0.00     0.005 C 
ATOM     12  C   UNL     1      -2.292  -2.229  24.735  1.00  0.00    -0.024 C 
ATOM     13  C   UNL     1      -4.181  -3.307  23.243  1.00  0.00     0.012 C 
ATOM     14  C   UNL     1      -0.989  -2.487  23.858  1.00  0.00     0.002 C 
ATOM     15  C   UNL     1      -1.950  -1.036  25.734  1.00  0.00     0.008 C 
ATOM     16  C   UNL     1      -2.648  -3.501  25.599  1.00  0.00     0.012 C 
ATOM     17  C   UNL     1       0.372  -2.820  24.686  1.00  0.00    -0.026 C 
ATOM     18  C   UNL     1      -0.440  -0.811  26.069  1.00  0.00     0.005 C 
ATOM     19  C   UNL     1       0.550  -4.347  24.944  1.00  0.00     0.010 C 
ATOM     20  C   UNL     1       1.619  -2.381  23.836  1.00  0.00     0.012 C 
ATOM     21  C   UNL     1       0.318  -2.148  26.108  1.00  0.00     0.003 C 
ATOM     22  C   UNL     1       1.774  -4.682  25.842  1.00  0.00     0.033 C 
ATOM     23  C   UNL     1       1.587  -2.323  27.027  1.00  0.00    -0.006 C 
ATOM     24  C   UNL     1       1.863  -3.870  27.159  1.00  0.00     0.120 C 
ATOM     25  C   UNL     1       1.275  -1.789  28.457  1.00  0.00     0.014 C 
ATOM     26  C   UNL     1       2.833  -1.546  26.530  1.00  0.00     0.014 C 
ENDROOT
BRANCH   1  27
ATOM     27  C   UNL     1      -5.130   1.579  23.598  1.00  0.00     0.048 C 
ATOM     28  O   UNL     1      -4.000   2.123  23.481  1.00  0.00    -0.550 OA
ATOM     29  O   UNL     1      -6.050   2.124  24.486  1.00  0.00    -0.550 OA
ENDBRANCH   1  27
BRANCH   7  30
ATOM     30  C   UNL     1      -4.415  -0.479  19.318  1.00  0.00    -0.077 C 
ATOM     31  C   UNL     1      -2.988  -0.909  19.093  1.00  0.00     0.039 C 
ATOM     32  C   UNL     1      -5.049   0.188  18.336  1.00  0.00     0.008 C 
ENDBRANCH   7  30
BRANCH  24  33
ATOM     33  O   UNL     1       3.125  -4.100  27.740  1.00  0.00    -0.393 OA
ATOM     34  H   UNL     1       3.727  -3.365  27.451  1.00  0.00     0.210 HD
ENDBRANCH  24  33
TORSDOF 3
ENDMDL
