MODEL 1
REMARK VINA RESULT:    -2.688      0.000      0.000
REMARK INTER + INTRA:          -3.664
REMARK INTER:                  -3.316
REMARK INTRA:                  -0.348
REMARK UNBOUND:                -0.348
REMARK SMILES CCCCC(=O)CC
REMARK SMILES IDX 4 1 3 2 2 3 1 4 5 5 6 6 7 7 8 8
REMARK H PARENT
REMARK Flexibility Score: inf
ROOT
ATOM      1  C   UNL     1     140.202 148.535 140.201  1.00  0.00     0.075 C 
ENDROOT
BRANCH   1   2
ATOM      2  C   UNL     1     141.008 148.672 138.903  1.00  0.00     0.008 C 
BRANCH   2   3
ATOM      3  C   UNL     1     141.857 147.425 138.615  1.00  0.00    -0.003 C 
ATOM      4  C   UNL     1     143.188 147.482 139.358  1.00  0.00     0.004 C 
ENDBRANCH   2   3
ENDBRANCH   1   2
BRANCH   1   5
ATOM      5  C   UNL     1     140.571 149.597 141.205  1.00  0.00     0.132 C 
ATOM      6  O   UNL     1     140.002 149.626 142.287  1.00  0.00    -0.300 OA
BRANCH   5   7
ATOM      7  C   UNL     1     141.631 150.622 140.901  1.00  0.00     0.072 C 
ATOM      8  C   UNL     1     142.801 150.500 141.872  1.00  0.00     0.012 C 
ENDBRANCH   5   7
ENDBRANCH   1   5
TORSDOF 4
ENDMDL
MODEL 2
REMARK VINA RESULT:    -2.671     15.501     16.891
REMARK INTER + INTRA:          -3.644
REMARK INTER:                  -3.297
REMARK INTRA:                  -0.347
REMARK UNBOUND:                -0.348
REMARK SMILES CCCCC(=O)CC
REMARK SMILES IDX 4 1 3 2 2 3 1 4 5 5 6 6 7 7 8 8
REMARK H PARENT
REMARK Flexibility Score: inf
ROOT
ATOM      1  C   UNL     1     141.421 133.053 140.248  1.00  0.00     0.075 C 
ENDROOT
BRANCH   1   2
ATOM      2  C   UNL     1     140.614 132.928 138.949  1.00  0.00     0.008 C 
BRANCH   2   3
ATOM      3  C   UNL     1     139.768 134.180 138.672  1.00  0.00    -0.003 C 
ATOM      4  C   UNL     1     138.450 134.134 139.437  1.00  0.00     0.004 C 
ENDBRANCH   2   3
ENDBRANCH   1   2
BRANCH   1   5
ATOM      5  C   UNL     1     141.083 131.957 141.226  1.00  0.00     0.132 C 
ATOM      6  O   UNL     1     141.674 131.900 142.294  1.00  0.00    -0.300 OA
BRANCH   5   7
ATOM      7  C   UNL     1     140.026 130.932 140.912  1.00  0.00     0.072 C 
ATOM      8  C   UNL     1     138.855 131.042 141.882  1.00  0.00     0.012 C 
ENDBRANCH   5   7
ENDBRANCH   1   5
TORSDOF 4
ENDMDL
MODEL 3
REMARK VINA RESULT:    -2.660     10.679     11.869
REMARK INTER + INTRA:          -3.631
REMARK INTER:                  -3.283
REMARK INTRA:                  -0.347
REMARK UNBOUND:                -0.348
REMARK SMILES CCCCC(=O)CC
REMARK SMILES IDX 4 1 3 2 2 3 1 4 5 5 6 6 7 7 8 8
REMARK H PARENT
REMARK Flexibility Score: inf
ROOT
ATOM      1  C   UNL     1     133.127 140.258 140.114  1.00  0.00     0.075 C 
ENDROOT
BRANCH   1   2
ATOM      2  C   UNL     1     132.951 141.055 138.815  1.00  0.00     0.008 C 
BRANCH   2   3
ATOM      3  C   UNL     1     134.162 141.952 138.520  1.00  0.00    -0.003 C 
ATOM      4  C   UNL     1     134.133 143.215 139.375  1.00  0.00     0.004 C 
ENDBRANCH   2   3
ENDBRANCH   1   2
BRANCH   1   5
ATOM      5  C   UNL     1     132.064 140.597 141.129  1.00  0.00     0.132 C 
ATOM      6  O   UNL     1     132.026 139.986 142.187  1.00  0.00    -0.300 OA
BRANCH   5   7
ATOM      7  C   UNL     1     131.051 141.678 140.863  1.00  0.00     0.072 C 
ATOM      8  C   UNL     1     131.182 142.808 141.878  1.00  0.00     0.012 C 
ENDBRANCH   5   7
ENDBRANCH   1   5
TORSDOF 4
ENDMDL
MODEL 4
REMARK VINA RESULT:    -2.624     10.632     11.725
REMARK INTER + INTRA:          -3.586
REMARK INTER:                  -3.360
REMARK INTRA:                  -0.226
REMARK UNBOUND:                -0.348
REMARK SMILES CCCCC(=O)CC
REMARK SMILES IDX 4 1 3 2 2 3 1 4 5 5 6 6 7 7 8 8
REMARK H PARENT
REMARK Flexibility Score: inf
ROOT
ATOM      1  C   UNL     1     148.528 141.340 140.098  1.00  0.00     0.075 C 
ENDROOT
BRANCH   1   2
ATOM      2  C   UNL     1     147.815 140.099 139.544  1.00  0.00     0.008 C 
BRANCH   2   3
ATOM      3  C   UNL     1     147.856 140.047 138.010  1.00  0.00    -0.003 C 
ATOM      4  C   UNL     1     147.993 141.445 137.414  1.00  0.00     0.004 C 
ENDBRANCH   2   3
ENDBRANCH   1   2
BRANCH   1   5
ATOM      5  C   UNL     1     149.578 140.976 141.116  1.00  0.00     0.132 C 
ATOM      6  O   UNL     1     149.618 141.576 142.180  1.00  0.00    -0.300 OA
BRANCH   5   7
ATOM      7  C   UNL     1     150.578 139.883 140.847  1.00  0.00     0.072 C 
ATOM      8  C   UNL     1     150.470 138.777 141.890  1.00  0.00     0.012 C 
ENDBRANCH   5   7
ENDBRANCH   1   5
TORSDOF 4
ENDMDL
MODEL 5
REMARK VINA RESULT:    -2.543      1.755      2.775
REMARK INTER + INTRA:          -3.486
REMARK INTER:                  -3.113
REMARK INTRA:                  -0.372
REMARK UNBOUND:                -0.348
REMARK SMILES CCCCC(=O)CC
REMARK SMILES IDX 4 1 3 2 2 3 1 4 5 5 6 6 7 7 8 8
REMARK H PARENT
REMARK Flexibility Score: inf
ROOT
ATOM      1  C   UNL     1     142.134 151.125 140.030  1.00  0.00     0.075 C 
ENDROOT
BRANCH   1   2
ATOM      2  C   UNL     1     143.498 150.780 139.419  1.00  0.00     0.008 C 
BRANCH   2   3
ATOM      3  C   UNL     1     143.456 149.473 138.613  1.00  0.00    -0.003 C 
ATOM      4  C   UNL     1     142.516 149.594 137.417  1.00  0.00     0.004 C 
ENDBRANCH   2   3
ENDBRANCH   1   2
BRANCH   1   5
ATOM      5  C   UNL     1     141.824 150.266 141.230  1.00  0.00     0.132 C 
ATOM      6  O   UNL     1     142.673 150.112 142.095  1.00  0.00    -0.300 OA
BRANCH   5   7
ATOM      7  C   UNL     1     140.484 149.598 141.383  1.00  0.00     0.072 C 
ATOM      8  C   UNL     1     140.249 148.587 140.266  1.00  0.00     0.012 C 
ENDBRANCH   5   7
ENDBRANCH   1   5
TORSDOF 4
ENDMDL
MODEL 6
REMARK VINA RESULT:    -2.491     11.185     12.976
REMARK INTER + INTRA:          -3.422
REMARK INTER:                  -3.071
REMARK INTRA:                  -0.351
REMARK UNBOUND:                -0.348
REMARK SMILES CCCCC(=O)CC
REMARK SMILES IDX 4 1 3 2 2 3 1 4 5 5 6 6 7 7 8 8
REMARK H PARENT
REMARK Flexibility Score: inf
ROOT
ATOM      1  C   UNL     1     151.000 139.361 139.897  1.00  0.00     0.075 C 
ENDROOT
BRANCH   1   2
ATOM      2  C   UNL     1     150.409 138.044 139.377  1.00  0.00     0.008 C 
BRANCH   2   3
ATOM      3  C   UNL     1     149.572 138.249 138.106  1.00  0.00    -0.003 C 
ATOM      4  C   UNL     1     150.046 139.472 137.326  1.00  0.00     0.004 C 
ENDBRANCH   2   3
ENDBRANCH   1   2
BRANCH   1   5
ATOM      5  C   UNL     1     150.334 139.809 141.173  1.00  0.00     0.132 C 
ATOM      6  O   UNL     1     150.376 139.088 142.159  1.00  0.00    -0.300 OA
BRANCH   5   7
ATOM      7  C   UNL     1     149.621 141.132 141.256  1.00  0.00     0.072 C 
ATOM      8  C   UNL     1     148.523 141.226 140.202  1.00  0.00     0.012 C 
ENDBRANCH   5   7
ENDBRANCH   1   5
TORSDOF 4
ENDMDL
MODEL 7
REMARK VINA RESULT:    -2.449     11.190     12.487
REMARK INTER + INTRA:          -3.370
REMARK INTER:                  -2.988
REMARK INTRA:                  -0.381
REMARK UNBOUND:                -0.348
REMARK SMILES CCCCC(=O)CC
REMARK SMILES IDX 4 1 3 2 2 3 1 4 5 5 6 6 7 7 8 8
REMARK H PARENT
REMARK Flexibility Score: inf
ROOT
ATOM      1  C   UNL     1     149.316 138.434 139.216  1.00  0.00     0.075 C 
ENDROOT
BRANCH   1   2
ATOM      2  C   UNL     1     149.551 138.797 140.688  1.00  0.00     0.008 C 
BRANCH   2   3
ATOM      3  C   UNL     1     150.442 140.039 140.841  1.00  0.00    -0.003 C 
ATOM      4  C   UNL     1     149.684 141.180 141.513  1.00  0.00     0.004 C 
ENDBRANCH   2   3
ENDBRANCH   1   2
BRANCH   1   5
ATOM      5  C   UNL     1     147.884 138.660 138.804  1.00  0.00     0.132 C 
ATOM      6  O   UNL     1     147.212 137.714 138.420  1.00  0.00    -0.300 OA
BRANCH   5   7
ATOM      7  C   UNL     1     147.265 140.031 138.861  1.00  0.00     0.072 C 
ATOM      8  C   UNL     1     148.068 141.026 138.029  1.00  0.00     0.012 C 
ENDBRANCH   5   7
ENDBRANCH   1   5
TORSDOF 4
ENDMDL
MODEL 8
REMARK VINA RESULT:    -2.432      1.951      3.966
REMARK INTER + INTRA:          -3.349
REMARK INTER:                  -2.964
REMARK INTRA:                  -0.385
REMARK UNBOUND:                -0.348
REMARK SMILES CCCCC(=O)CC
REMARK SMILES IDX 4 1 3 2 2 3 1 4 5 5 6 6 7 7 8 8
REMARK H PARENT
REMARK Flexibility Score: inf
ROOT
ATOM      1  C   UNL     1     143.208 149.324 139.515  1.00  0.00     0.075 C 
ENDROOT
BRANCH   1   2
ATOM      2  C   UNL     1     142.690 149.704 140.908  1.00  0.00     0.008 C 
BRANCH   2   3
ATOM      3  C   UNL     1     141.324 150.404 140.845  1.00  0.00    -0.003 C 
ATOM      4  C   UNL     1     140.273 149.633 141.638  1.00  0.00     0.004 C 
ENDBRANCH   2   3
ENDBRANCH   1   2
BRANCH   1   5
ATOM      5  C   UNL     1     142.441 148.166 138.928  1.00  0.00     0.132 C 
ATOM      6  O   UNL     1     142.452 147.086 139.499  1.00  0.00    -0.300 OA
BRANCH   5   7
ATOM      7  C   UNL     1     141.659 148.319 137.651  1.00  0.00     0.072 C 
ATOM      8  C   UNL     1     140.170 148.092 137.894  1.00  0.00     0.012 C 
ENDBRANCH   5   7
ENDBRANCH   1   5
TORSDOF 4
ENDMDL
MODEL 9
REMARK VINA RESULT:    -2.400     16.145     17.127
REMARK INTER + INTRA:          -3.310
REMARK INTER:                  -2.933
REMARK INTRA:                  -0.377
REMARK UNBOUND:                -0.348
REMARK SMILES CCCCC(=O)CC
REMARK SMILES IDX 4 1 3 2 2 3 1 4 5 5 6 6 7 7 8 8
REMARK H PARENT
REMARK Flexibility Score: inf
ROOT
ATOM      1  C   UNL     1     138.905 133.017 139.850  1.00  0.00     0.075 C 
ENDROOT
BRANCH   1   2
ATOM      2  C   UNL     1     138.908 131.912 140.915  1.00  0.00     0.008 C 
BRANCH   2   3
ATOM      3  C   UNL     1     140.225 131.121 140.923  1.00  0.00    -0.003 C 
ATOM      4  C   UNL     1     141.344 131.922 141.582  1.00  0.00     0.004 C 
ENDBRANCH   2   3
ENDBRANCH   1   2
BRANCH   1   5
ATOM      5  C   UNL     1     138.841 132.451 138.454  1.00  0.00     0.132 C 
ATOM      6  O   UNL     1     137.807 131.928 138.065  1.00  0.00    -0.300 OA
BRANCH   5   7
ATOM      7  C   UNL     1     140.026 132.521 137.530  1.00  0.00     0.072 C 
ATOM      8  C   UNL     1     141.108 133.432 138.100  1.00  0.00     0.012 C 
ENDBRANCH   5   7
ENDBRANCH   1   5
TORSDOF 4
ENDMDL
