MODEL 1
REMARK VINA RESULT:    -3.413      0.000      0.000
REMARK INTER + INTRA:          -4.109
REMARK INTER:                  -4.011
REMARK INTRA:                  -0.098
REMARK UNBOUND:                -0.098
REMARK SMILES O=C([O-])CCC(=O)[O-]
REMARK SMILES IDX 4 1 2 2 1 3 3 4 5 5 6 6 7 7 8 8
REMARK H PARENT
REMARK Flexibility Score: inf
ROOT
ATOM      1  C   UNL     1       4.890  25.992  13.472  1.00  0.00     0.059 C 
ENDROOT
BRANCH   1   2
ATOM      2  C   UNL     1       4.740  27.328  12.818  1.00  0.00     0.042 C 
ATOM      3  O   UNL     1       3.910  27.487  11.883  1.00  0.00    -0.550 OA
ATOM      4  O   UNL     1       5.551  28.387  13.204  1.00  0.00    -0.550 OA
ENDBRANCH   1   2
BRANCH   1   5
ATOM      5  C   UNL     1       6.270  25.866  14.120  1.00  0.00     0.059 C 
BRANCH   5   6
ATOM      6  C   UNL     1       6.152  25.884  15.611  1.00  0.00     0.042 C 
ATOM      7  O   UNL     1       7.182  25.792  16.331  1.00  0.00    -0.550 OA
ATOM      8  O   UNL     1       4.909  26.054  16.208  1.00  0.00    -0.550 OA
ENDBRANCH   5   6
ENDBRANCH   1   5
TORSDOF 3
ENDMDL
MODEL 2
REMARK VINA RESULT:    -3.410      0.125      3.852
REMARK INTER + INTRA:          -4.106
REMARK INTER:                  -4.006
REMARK INTRA:                  -0.100
REMARK UNBOUND:                -0.098
REMARK SMILES O=C([O-])CCC(=O)[O-]
REMARK SMILES IDX 4 1 2 2 1 3 3 4 5 5 6 6 7 7 8 8
REMARK H PARENT
REMARK Flexibility Score: inf
ROOT
ATOM      1  C   UNL     1       6.238  25.887  14.123  1.00  0.00     0.059 C 
ENDROOT
BRANCH   1   2
ATOM      2  C   UNL     1       6.091  25.907  15.611  1.00  0.00     0.042 C 
ATOM      3  O   UNL     1       4.959  26.081  16.135  1.00  0.00    -0.550 OA
ATOM      4  O   UNL     1       7.213  25.785  16.422  1.00  0.00    -0.550 OA
ENDBRANCH   1   2
BRANCH   1   5
ATOM      5  C   UNL     1       4.881  26.104  13.449  1.00  0.00     0.059 C 
BRANCH   5   6
ATOM      6  C   UNL     1       4.845  27.432  12.762  1.00  0.00     0.042 C 
ATOM      7  O   UNL     1       4.038  27.636  11.816  1.00  0.00    -0.550 OA
ATOM      8  O   UNL     1       5.669  28.463  13.196  1.00  0.00    -0.550 OA
ENDBRANCH   5   6
ENDBRANCH   1   5
TORSDOF 3
ENDMDL
MODEL 3
REMARK VINA RESULT:    -3.389      0.115      3.843
REMARK INTER + INTRA:          -4.081
REMARK INTER:                  -3.994
REMARK INTRA:                  -0.088
REMARK UNBOUND:                -0.098
REMARK SMILES O=C([O-])CCC(=O)[O-]
REMARK SMILES IDX 4 1 2 2 1 3 3 4 5 5 6 6 7 7 8 8
REMARK H PARENT
REMARK Flexibility Score: inf
ROOT
ATOM      1  C   UNL     1       6.291  25.890  14.168  1.00  0.00     0.059 C 
ENDROOT
BRANCH   1   2
ATOM      2  C   UNL     1       6.151  25.951  15.656  1.00  0.00     0.042 C 
ATOM      3  O   UNL     1       7.164  25.830  16.394  1.00  0.00    -0.550 OA
ATOM      4  O   UNL     1       4.894  26.092  16.231  1.00  0.00    -0.550 OA
ENDBRANCH   1   2
BRANCH   1   5
ATOM      5  C   UNL     1       4.932  26.086  13.494  1.00  0.00     0.059 C 
BRANCH   5   6
ATOM      6  C   UNL     1       4.853  27.436  12.856  1.00  0.00     0.042 C 
ATOM      7  O   UNL     1       5.659  28.345  13.193  1.00  0.00    -0.550 OA
ATOM      8  O   UNL     1       3.923  27.680  11.854  1.00  0.00    -0.550 OA
ENDBRANCH   5   6
ENDBRANCH   1   5
TORSDOF 3
ENDMDL
MODEL 4
REMARK VINA RESULT:    -3.334      1.014      1.678
REMARK INTER + INTRA:          -4.017
REMARK INTER:                  -3.904
REMARK INTRA:                  -0.113
REMARK UNBOUND:                -0.098
REMARK SMILES O=C([O-])CCC(=O)[O-]
REMARK SMILES IDX 4 1 2 2 1 3 3 4 5 5 6 6 7 7 8 8
REMARK H PARENT
REMARK Flexibility Score: inf
ROOT
ATOM      1  C   UNL     1       5.399  27.248  13.548  1.00  0.00     0.059 C 
ENDROOT
BRANCH   1   2
ATOM      2  C   UNL     1       4.255  26.865  12.665  1.00  0.00     0.042 C 
ATOM      3  O   UNL     1       3.760  25.709  12.731  1.00  0.00    -0.550 OA
ATOM      4  O   UNL     1       3.765  27.770  11.731  1.00  0.00    -0.550 OA
ENDBRANCH   1   2
BRANCH   1   5
ATOM      5  C   UNL     1       6.104  25.999  14.081  1.00  0.00     0.059 C 
BRANCH   5   6
ATOM      6  C   UNL     1       6.071  25.977  15.576  1.00  0.00     0.042 C 
ATOM      7  O   UNL     1       4.976  26.089  16.189  1.00  0.00    -0.550 OA
ATOM      8  O   UNL     1       7.244  25.784  16.295  1.00  0.00    -0.550 OA
ENDBRANCH   5   6
ENDBRANCH   1   5
TORSDOF 3
ENDMDL
MODEL 5
REMARK VINA RESULT:    -3.101      1.890      2.306
REMARK INTER + INTRA:          -3.742
REMARK INTER:                  -3.641
REMARK INTRA:                  -0.101
REMARK UNBOUND:                -0.098
REMARK SMILES O=C([O-])CCC(=O)[O-]
REMARK SMILES IDX 4 1 2 2 1 3 3 4 5 5 6 6 7 7 8 8
REMARK H PARENT
REMARK Flexibility Score: inf
ROOT
ATOM      1  C   UNL     1       4.311  27.564  12.191  1.00  0.00     0.059 C 
ENDROOT
BRANCH   1   2
ATOM      2  C   UNL     1       3.016  28.202  12.580  1.00  0.00     0.042 C 
ATOM      3  O   UNL     1       2.268  28.707  11.701  1.00  0.00    -0.550 OA
ATOM      4  O   UNL     1       2.655  28.284  13.919  1.00  0.00    -0.550 OA
ENDBRANCH   1   2
BRANCH   1   5
ATOM      5  C   UNL     1       5.267  27.524  13.384  1.00  0.00     0.059 C 
BRANCH   5   6
ATOM      6  C   UNL     1       5.585  26.110  13.753  1.00  0.00     0.042 C 
ATOM      7  O   UNL     1       6.575  25.853  14.488  1.00  0.00    -0.550 OA
ATOM      8  O   UNL     1       4.760  25.078  13.326  1.00  0.00    -0.550 OA
ENDBRANCH   5   6
ENDBRANCH   1   5
TORSDOF 3
ENDMDL
MODEL 6
REMARK VINA RESULT:    -3.084      1.424      2.098
REMARK INTER + INTRA:          -3.723
REMARK INTER:                  -3.640
REMARK INTRA:                  -0.083
REMARK UNBOUND:                -0.098
REMARK SMILES O=C([O-])CCC(=O)[O-]
REMARK SMILES IDX 4 1 2 2 1 3 3 4 5 5 6 6 7 7 8 8
REMARK H PARENT
REMARK Flexibility Score: inf
ROOT
ATOM      1  C   UNL     1       5.683  27.073  14.146  1.00  0.00     0.059 C 
ENDROOT
BRANCH   1   2
ATOM      2  C   UNL     1       5.217  27.940  13.019  1.00  0.00     0.042 C 
ATOM      3  O   UNL     1       5.644  29.121  12.909  1.00  0.00    -0.550 OA
ATOM      4  O   UNL     1       4.274  27.463  12.118  1.00  0.00    -0.550 OA
ENDBRANCH   1   2
BRANCH   1   5
ATOM      5  C   UNL     1       5.292  25.615  13.895  1.00  0.00     0.059 C 
BRANCH   5   6
ATOM      6  C   UNL     1       4.393  25.121  14.983  1.00  0.00     0.042 C 
ATOM      7  O   UNL     1       4.218  25.808  16.024  1.00  0.00    -0.550 OA
ATOM      8  O   UNL     1       3.707  23.923  14.828  1.00  0.00    -0.550 OA
ENDBRANCH   5   6
ENDBRANCH   1   5
TORSDOF 3
ENDMDL
MODEL 7
REMARK VINA RESULT:    -3.000      1.590      4.146
REMARK INTER + INTRA:          -3.624
REMARK INTER:                  -3.502
REMARK INTRA:                  -0.122
REMARK UNBOUND:                -0.098
REMARK SMILES O=C([O-])CCC(=O)[O-]
REMARK SMILES IDX 4 1 2 2 1 3 3 4 5 5 6 6 7 7 8 8
REMARK H PARENT
REMARK Flexibility Score: inf
ROOT
ATOM      1  C   UNL     1       4.657  27.869  14.194  1.00  0.00     0.059 C 
ENDROOT
BRANCH   1   2
ATOM      2  C   UNL     1       5.648  26.837  14.630  1.00  0.00     0.042 C 
ATOM      3  O   UNL     1       6.112  26.857  15.801  1.00  0.00    -0.550 OA
ATOM      4  O   UNL     1       6.099  25.881  13.729  1.00  0.00    -0.550 OA
ENDBRANCH   1   2
BRANCH   1   5
ATOM      5  C   UNL     1       4.780  28.127  12.691  1.00  0.00     0.059 C 
BRANCH   5   6
ATOM      6  C   UNL     1       3.553  27.655  11.977  1.00  0.00     0.042 C 
ATOM      7  O   UNL     1       3.319  26.422  11.864  1.00  0.00    -0.550 OA
ATOM      8  O   UNL     1       2.640  28.576  11.479  1.00  0.00    -0.550 OA
ENDBRANCH   5   6
ENDBRANCH   1   5
TORSDOF 3
ENDMDL
MODEL 8
REMARK VINA RESULT:    -2.930      1.520      3.705
REMARK INTER + INTRA:          -3.542
REMARK INTER:                  -3.434
REMARK INTRA:                  -0.109
REMARK UNBOUND:                -0.098
REMARK SMILES O=C([O-])CCC(=O)[O-]
REMARK SMILES IDX 4 1 2 2 1 3 3 4 5 5 6 6 7 7 8 8
REMARK H PARENT
REMARK Flexibility Score: inf
ROOT
ATOM      1  C   UNL     1       4.821  25.791  13.558  1.00  0.00     0.059 C 
ENDROOT
BRANCH   1   2
ATOM      2  C   UNL     1       4.338  25.210  14.848  1.00  0.00     0.042 C 
ATOM      3  O   UNL     1       4.502  25.838  15.928  1.00  0.00    -0.550 OA
ATOM      4  O   UNL     1       3.750  23.951  14.867  1.00  0.00    -0.550 OA
ENDBRANCH   1   2
BRANCH   1   5
ATOM      5  C   UNL     1       5.684  27.028  13.817  1.00  0.00     0.059 C 
BRANCH   5   6
ATOM      6  C   UNL     1       5.017  28.253  13.280  1.00  0.00     0.042 C 
ATOM      7  O   UNL     1       5.706  29.194  12.803  1.00  0.00    -0.550 OA
ATOM      8  O   UNL     1       3.630  28.338  13.258  1.00  0.00    -0.550 OA
ENDBRANCH   5   6
ENDBRANCH   1   5
TORSDOF 3
ENDMDL
MODEL 9
REMARK VINA RESULT:    -2.824      1.648      3.573
REMARK INTER + INTRA:          -3.417
REMARK INTER:                  -3.234
REMARK INTRA:                  -0.183
REMARK UNBOUND:                -0.098
REMARK SMILES O=C([O-])CCC(=O)[O-]
REMARK SMILES IDX 4 1 2 2 1 3 3 4 5 5 6 6 7 7 8 8
REMARK H PARENT
REMARK Flexibility Score: inf
ROOT
ATOM      1  C   UNL     1       3.568  26.682  14.493  1.00  0.00     0.059 C 
ENDROOT
BRANCH   1   2
ATOM      2  C   UNL     1       4.687  25.727  14.223  1.00  0.00     0.042 C 
ATOM      3  O   UNL     1       4.616  24.924  13.254  1.00  0.00    -0.550 OA
ATOM      4  O   UNL     1       5.787  25.687  15.070  1.00  0.00    -0.550 OA
ENDBRANCH   1   2
BRANCH   1   5
ATOM      5  C   UNL     1       4.081  28.124  14.480  1.00  0.00     0.059 C 
BRANCH   5   6
ATOM      6  C   UNL     1       4.500  28.518  13.100  1.00  0.00     0.042 C 
ATOM      7  O   UNL     1       5.654  28.981  12.894  1.00  0.00    -0.550 OA
ATOM      8  O   UNL     1       3.635  28.328  12.030  1.00  0.00    -0.550 OA
ENDBRANCH   5   6
ENDBRANCH   1   5
TORSDOF 3
ENDMDL
