MODEL 1
REMARK VINA RESULT:    -4.973      0.000      0.000
REMARK INTER + INTRA:          -7.141
REMARK INTER:                  -6.136
REMARK INTRA:                  -1.005
REMARK UNBOUND:                -1.005
REMARK SMILES CC(C)=CCC[C@H](C)c1ccc(C)cc1
REMARK SMILES IDX 6 1 7 2 8 3 9 4 13 5 12 6 11 7 14 8 10 9 15 10 5 11 4 12
REMARK SMILES IDX 2 13 1 14 3 15
REMARK H PARENT
REMARK Flexibility Score: inf
ROOT
ATOM      1  C   UNL     1     126.905 122.659 105.161  1.00  0.00     0.012 C 
ENDROOT
BRANCH   1   2
ATOM      2  C   UNL     1     126.926 123.001 103.650  1.00  0.00     0.016 C 
ATOM      3  C   UNL     1     128.238 122.577 102.971  1.00  0.00     0.013 C 
BRANCH   2   4
ATOM      4  C   UNL     1     126.681 124.485 103.446  1.00  0.00    -0.045 A 
ATOM      5  C   UNL     1     125.948 128.704 102.875  1.00  0.00     0.044 C 
ATOM      6  C   UNL     1     126.210 127.245 103.103  1.00  0.00    -0.051 A 
ATOM      7  C   UNL     1     127.488 126.714 102.884  1.00  0.00     0.004 A 
ATOM      8  C   UNL     1     125.163 126.389 103.473  1.00  0.00     0.004 A 
ATOM      9  C   UNL     1     127.725 125.348 103.061  1.00  0.00     0.004 A 
ATOM     10  C   UNL     1     125.397 125.022 103.651  1.00  0.00     0.004 A 
ENDBRANCH   2   4
ENDBRANCH   1   2
BRANCH   1  11
ATOM     11  C   UNL     1     125.547 122.145 105.673  1.00  0.00     0.028 C 
BRANCH  11  12
ATOM     12  C   UNL     1     124.771 121.410 104.605  1.00  0.00    -0.028 C 
ATOM     13  C   UNL     1     123.529 121.743 104.190  1.00  0.00    -0.080 C 
ATOM     14  C   UNL     1     122.753 122.881 104.812  1.00  0.00     0.039 C 
ATOM     15  C   UNL     1     122.901 120.931 103.087  1.00  0.00     0.039 C 
ENDBRANCH  11  12
ENDBRANCH   1  11
TORSDOF 4
ENDMDL
MODEL 2
REMARK VINA RESULT:    -4.918     17.365     19.116
REMARK INTER + INTRA:          -7.073
REMARK INTER:                  -6.491
REMARK INTRA:                  -0.582
REMARK UNBOUND:                -1.005
REMARK SMILES CC(C)=CCC[C@H](C)c1ccc(C)cc1
REMARK SMILES IDX 6 1 7 2 8 3 9 4 13 5 12 6 11 7 14 8 10 9 15 10 5 11 4 12
REMARK SMILES IDX 2 13 1 14 3 15
REMARK H PARENT
REMARK Flexibility Score: inf
ROOT
ATOM      1  C   UNL     1     123.747 124.701 122.317  1.00  0.00     0.012 C 
ENDROOT
BRANCH   1   2
ATOM      2  C   UNL     1     122.217 124.527 122.149  1.00  0.00     0.016 C 
ATOM      3  C   UNL     1     121.843 123.909 120.792  1.00  0.00     0.013 C 
BRANCH   2   4
ATOM      4  C   UNL     1     121.515 125.859 122.336  1.00  0.00    -0.045 A 
ATOM      5  C   UNL     1     119.485 129.636 122.861  1.00  0.00     0.044 C 
ATOM      6  C   UNL     1     120.184 128.318 122.708  1.00  0.00    -0.051 A 
ATOM      7  C   UNL     1     121.561 128.216 122.949  1.00  0.00     0.004 A 
ATOM      8  C   UNL     1     119.479 127.193 122.260  1.00  0.00     0.004 A 
ATOM      9  C   UNL     1     122.220 126.997 122.773  1.00  0.00     0.004 A 
ATOM     10  C   UNL     1     120.136 125.971 122.084  1.00  0.00     0.004 A 
ENDBRANCH   2   4
ENDBRANCH   1   2
BRANCH   1  11
ATOM     11  C   UNL     1     124.460 123.479 122.922  1.00  0.00     0.028 C 
BRANCH  11  12
ATOM     12  C   UNL     1     125.955 123.519 122.705  1.00  0.00    -0.028 C 
ATOM     13  C   UNL     1     126.593 122.975 121.645  1.00  0.00    -0.080 C 
ATOM     14  C   UNL     1     125.857 122.203 120.575  1.00  0.00     0.039 C 
ATOM     15  C   UNL     1     128.088 123.131 121.552  1.00  0.00     0.039 C 
ENDBRANCH  11  12
ENDBRANCH   1  11
TORSDOF 4
ENDMDL
MODEL 3
REMARK VINA RESULT:    -4.891     13.919     16.420
REMARK INTER + INTRA:          -7.040
REMARK INTER:                  -6.338
REMARK INTRA:                  -0.702
REMARK UNBOUND:                -1.005
REMARK SMILES CC(C)=CCC[C@H](C)c1ccc(C)cc1
REMARK SMILES IDX 6 1 7 2 8 3 9 4 13 5 12 6 11 7 14 8 10 9 15 10 5 11 4 12
REMARK SMILES IDX 2 13 1 14 3 15
REMARK H PARENT
REMARK Flexibility Score: inf
ROOT
ATOM      1  C   UNL     1     124.142 121.883 118.767  1.00  0.00     0.012 C 
ENDROOT
BRANCH   1   2
ATOM      2  C   UNL     1     122.919 122.827 118.651  1.00  0.00     0.016 C 
ATOM      3  C   UNL     1     122.478 123.385 120.013  1.00  0.00     0.013 C 
BRANCH   2   4
ATOM      4  C   UNL     1     121.766 122.108 117.974  1.00  0.00    -0.045 A 
ATOM      5  C   UNL     1     118.464 120.069 116.076  1.00  0.00     0.044 C 
ATOM      6  C   UNL     1     119.601 120.803 116.722  1.00  0.00    -0.051 A 
ATOM      7  C   UNL     1     120.827 120.934 116.057  1.00  0.00     0.004 A 
ATOM      8  C   UNL     1     119.466 121.308 118.023  1.00  0.00     0.004 A 
ATOM      9  C   UNL     1     121.899 121.586 116.672  1.00  0.00     0.004 A 
ATOM     10  C   UNL     1     120.537 121.962 118.641  1.00  0.00     0.004 A 
ENDBRANCH   2   4
ENDBRANCH   1   2
BRANCH   1  11
ATOM     11  C   UNL     1     124.569 121.578 120.213  1.00  0.00     0.028 C 
BRANCH  11  12
ATOM     12  C   UNL     1     126.015 121.931 120.472  1.00  0.00    -0.028 C 
ATOM     13  C   UNL     1     126.437 122.805 121.413  1.00  0.00    -0.080 C 
ATOM     14  C   UNL     1     125.472 123.578 122.281  1.00  0.00     0.039 C 
ATOM     15  C   UNL     1     127.919 123.024 121.574  1.00  0.00     0.039 C 
ENDBRANCH  11  12
ENDBRANCH   1  11
TORSDOF 4
ENDMDL
MODEL 4
REMARK VINA RESULT:    -4.718     14.218     16.402
REMARK INTER + INTRA:          -6.826
REMARK INTER:                  -5.915
REMARK INTRA:                  -0.911
REMARK UNBOUND:                -1.005
REMARK SMILES CC(C)=CCC[C@H](C)c1ccc(C)cc1
REMARK SMILES IDX 6 1 7 2 8 3 9 4 13 5 12 6 11 7 14 8 10 9 15 10 5 11 4 12
REMARK SMILES IDX 2 13 1 14 3 15
REMARK H PARENT
REMARK Flexibility Score: inf
ROOT
ATOM      1  C   UNL     1     122.096 123.090 118.550  1.00  0.00     0.012 C 
ENDROOT
BRANCH   1   2
ATOM      2  C   UNL     1     122.221 122.950 120.088  1.00  0.00     0.016 C 
ATOM      3  C   UNL     1     121.501 124.080 120.840  1.00  0.00     0.013 C 
BRANCH   2   4
ATOM      4  C   UNL     1     123.683 122.893 120.491  1.00  0.00    -0.045 A 
ATOM      5  C   UNL     1     127.839 122.756 121.663  1.00  0.00     0.044 C 
ATOM      6  C   UNL     1     126.390 122.780 121.276  1.00  0.00    -0.051 A 
ATOM      7  C   UNL     1     125.926 121.978 120.224  1.00  0.00     0.004 A 
ATOM      8  C   UNL     1     125.503 123.655 121.919  1.00  0.00     0.004 A 
ATOM      9  C   UNL     1     124.583 122.027 119.839  1.00  0.00     0.004 A 
ATOM     10  C   UNL     1     124.159 123.705 121.535  1.00  0.00     0.004 A 
ENDBRANCH   2   4
ENDBRANCH   1   2
BRANCH   1  11
ATOM     11  C   UNL     1     121.247 121.993 117.882  1.00  0.00     0.028 C 
BRANCH  11  12
ATOM     12  C   UNL     1     121.964 121.335 116.727  1.00  0.00    -0.028 C 
ATOM     13  C   UNL     1     122.606 120.147 116.797  1.00  0.00    -0.080 C 
ATOM     14  C   UNL     1     122.720 119.371 118.088  1.00  0.00     0.039 C 
ATOM     15  C   UNL     1     123.243 119.603 115.545  1.00  0.00     0.039 C 
ENDBRANCH  11  12
ENDBRANCH   1  11
TORSDOF 4
ENDMDL
MODEL 5
REMARK VINA RESULT:    -4.709     13.583     15.607
REMARK INTER + INTRA:          -6.815
REMARK INTER:                  -5.275
REMARK INTRA:                  -1.540
REMARK UNBOUND:                -1.005
REMARK SMILES CC(C)=CCC[C@H](C)c1ccc(C)cc1
REMARK SMILES IDX 6 1 7 2 8 3 9 4 13 5 12 6 11 7 14 8 10 9 15 10 5 11 4 12
REMARK SMILES IDX 2 13 1 14 3 15
REMARK H PARENT
REMARK Flexibility Score: inf
ROOT
ATOM      1  C   UNL     1     120.479 121.136 115.978  1.00  0.00     0.012 C 
ENDROOT
BRANCH   1   2
ATOM      2  C   UNL     1     121.959 120.680 116.016  1.00  0.00     0.016 C 
ATOM      3  C   UNL     1     122.102 119.150 115.960  1.00  0.00     0.013 C 
BRANCH   2   4
ATOM      4  C   UNL     1     122.646 121.232 117.252  1.00  0.00    -0.045 A 
ATOM      5  C   UNL     1     124.619 122.773 120.772  1.00  0.00     0.044 C 
ATOM      6  C   UNL     1     123.956 122.251 119.532  1.00  0.00    -0.051 A 
ATOM      7  C   UNL     1     122.999 123.025 118.863  1.00  0.00     0.004 A 
ATOM      8  C   UNL     1     124.241 120.957 119.071  1.00  0.00     0.004 A 
ATOM      9  C   UNL     1     122.354 122.524 117.729  1.00  0.00     0.004 A 
ATOM     10  C   UNL     1     123.597 120.455 117.936  1.00  0.00     0.004 A 
ENDBRANCH   2   4
ENDBRANCH   1   2
BRANCH   1  11
ATOM     11  C   UNL     1     119.529 120.273 116.828  1.00  0.00     0.028 C 
BRANCH  11  12
ATOM     12  C   UNL     1     118.891 121.055 117.951  1.00  0.00    -0.028 C 
ATOM     13  C   UNL     1     119.245 120.962 119.252  1.00  0.00    -0.080 C 
ATOM     14  C   UNL     1     120.305 119.995 119.728  1.00  0.00     0.039 C 
ATOM     15  C   UNL     1     118.536 121.837 120.252  1.00  0.00     0.039 C 
ENDBRANCH  11  12
ENDBRANCH   1  11
TORSDOF 4
ENDMDL
MODEL 6
REMARK VINA RESULT:    -4.669     15.412     17.685
REMARK INTER + INTRA:          -6.765
REMARK INTER:                  -5.573
REMARK INTRA:                  -1.192
REMARK UNBOUND:                -1.005
REMARK SMILES CC(C)=CCC[C@H](C)c1ccc(C)cc1
REMARK SMILES IDX 6 1 7 2 8 3 9 4 13 5 12 6 11 7 14 8 10 9 15 10 5 11 4 12
REMARK SMILES IDX 2 13 1 14 3 15
REMARK H PARENT
REMARK Flexibility Score: inf
ROOT
ATOM      1  C   UNL     1     123.971 124.453 122.127  1.00  0.00     0.012 C 
ENDROOT
BRANCH   1   2
ATOM      2  C   UNL     1     122.619 123.706 122.010  1.00  0.00     0.016 C 
ATOM      3  C   UNL     1     122.469 122.597 123.063  1.00  0.00     0.013 C 
BRANCH   2   4
ATOM      4  C   UNL     1     122.455 123.136 120.613  1.00  0.00    -0.045 A 
ATOM      5  C   UNL     1     121.954 121.510 116.642  1.00  0.00     0.044 C 
ATOM      6  C   UNL     1     122.124 122.103 118.009  1.00  0.00    -0.051 A 
ATOM      7  C   UNL     1     123.394 122.486 118.461  1.00  0.00     0.004 A 
ATOM      8  C   UNL     1     121.023 122.218 118.870  1.00  0.00     0.004 A 
ATOM      9  C   UNL     1     123.558 123.005 119.748  1.00  0.00     0.004 A 
ATOM     10  C   UNL     1     121.185 122.737 120.158  1.00  0.00     0.004 A 
ENDBRANCH   2   4
ENDBRANCH   1   2
BRANCH   1  11
ATOM     11  C   UNL     1     124.988 123.775 123.062  1.00  0.00     0.028 C 
BRANCH  11  12
ATOM     12  C   UNL     1     126.282 123.438 122.358  1.00  0.00    -0.028 C 
ATOM     13  C   UNL     1     126.611 122.210 121.901  1.00  0.00    -0.080 C 
ATOM     14  C   UNL     1     125.717 121.010 122.108  1.00  0.00     0.039 C 
ATOM     15  C   UNL     1     127.926 122.041 121.185  1.00  0.00     0.039 C 
ENDBRANCH  11  12
ENDBRANCH   1  11
TORSDOF 4
ENDMDL
MODEL 7
REMARK VINA RESULT:    -4.624      1.669      3.208
REMARK INTER + INTRA:          -6.710
REMARK INTER:                  -6.098
REMARK INTRA:                  -0.612
REMARK UNBOUND:                -1.005
REMARK SMILES CC(C)=CCC[C@H](C)c1ccc(C)cc1
REMARK SMILES IDX 6 1 7 2 8 3 9 4 13 5 12 6 11 7 14 8 10 9 15 10 5 11 4 12
REMARK SMILES IDX 2 13 1 14 3 15
REMARK H PARENT
REMARK Flexibility Score: inf
ROOT
ATOM      1  C   UNL     1     125.901 125.550 104.164  1.00  0.00     0.012 C 
ENDROOT
BRANCH   1   2
ATOM      2  C   UNL     1     126.765 125.932 102.936  1.00  0.00     0.016 C 
ATOM      3  C   UNL     1     128.082 125.142 102.878  1.00  0.00     0.013 C 
BRANCH   2   4
ATOM      4  C   UNL     1     127.041 127.424 102.935  1.00  0.00    -0.045 A 
ATOM      5  C   UNL     1     127.862 131.666 102.929  1.00  0.00     0.044 C 
ATOM      6  C   UNL     1     127.575 130.194 102.900  1.00  0.00    -0.051 A 
ATOM      7  C   UNL     1     126.254 129.730 102.963  1.00  0.00     0.004 A 
ATOM      8  C   UNL     1     128.629 129.269 102.877  1.00  0.00     0.004 A 
ATOM      9  C   UNL     1     125.988 128.358 102.973  1.00  0.00     0.004 A 
ATOM     10  C   UNL     1     128.365 127.897 102.885  1.00  0.00     0.004 A 
ENDBRANCH   2   4
ENDBRANCH   1   2
BRANCH   1  11
ATOM     11  C   UNL     1     124.475 125.087 103.814  1.00  0.00     0.028 C 
BRANCH  11  12
ATOM     12  C   UNL     1     123.989 123.984 104.723  1.00  0.00    -0.028 C 
ATOM     13  C   UNL     1     124.062 122.664 104.439  1.00  0.00    -0.080 C 
ATOM     14  C   UNL     1     124.599 122.155 103.122  1.00  0.00     0.039 C 
ATOM     15  C   UNL     1     123.566 121.682 105.468  1.00  0.00     0.039 C 
ENDBRANCH  11  12
ENDBRANCH   1  11
TORSDOF 4
ENDMDL
MODEL 8
REMARK VINA RESULT:    -4.604     16.711     19.453
REMARK INTER + INTRA:          -6.685
REMARK INTER:                  -5.557
REMARK INTRA:                  -1.128
REMARK UNBOUND:                -1.005
REMARK SMILES CC(C)=CCC[C@H](C)c1ccc(C)cc1
REMARK SMILES IDX 6 1 7 2 8 3 9 4 13 5 12 6 11 7 14 8 10 9 15 10 5 11 4 12
REMARK SMILES IDX 2 13 1 14 3 15
REMARK H PARENT
REMARK Flexibility Score: inf
ROOT
ATOM      1  C   UNL     1     119.229 121.075 119.929  1.00  0.00     0.012 C 
ENDROOT
BRANCH   1   2
ATOM      2  C   UNL     1     117.787 121.521 120.278  1.00  0.00     0.016 C 
ATOM      3  C   UNL     1     117.761 122.722 121.237  1.00  0.00     0.013 C 
BRANCH   2   4
ATOM      4  C   UNL     1     117.007 120.358 120.864  1.00  0.00    -0.045 A 
ATOM      5  C   UNL     1     114.808 117.047 122.558  1.00  0.00     0.044 C 
ATOM      6  C   UNL     1     115.553 118.216 121.985  1.00  0.00    -0.051 A 
ATOM      7  C   UNL     1     115.153 118.780 120.766  1.00  0.00     0.004 A 
ATOM      8  C   UNL     1     116.694 118.712 122.631  1.00  0.00     0.004 A 
ATOM      9  C   UNL     1     115.867 119.846 120.213  1.00  0.00     0.004 A 
ATOM     10  C   UNL     1     117.411 119.778 122.080  1.00  0.00     0.004 A 
ENDBRANCH   2   4
ENDBRANCH   1   2
BRANCH   1  11
ATOM     11  C   UNL     1     119.557 121.119 118.426  1.00  0.00     0.028 C 
BRANCH  11  12
ATOM     12  C   UNL     1     118.430 120.581 117.576  1.00  0.00    -0.028 C 
ATOM     13  C   UNL     1     118.156 119.269 117.402  1.00  0.00    -0.080 C 
ATOM     14  C   UNL     1     119.010 118.183 118.012  1.00  0.00     0.039 C 
ATOM     15  C   UNL     1     116.972 118.892 116.550  1.00  0.00     0.039 C 
ENDBRANCH  11  12
ENDBRANCH   1  11
TORSDOF 4
ENDMDL
MODEL 9
REMARK VINA RESULT:    -4.573     13.136     15.226
REMARK INTER + INTRA:          -6.647
REMARK INTER:                  -5.122
REMARK INTRA:                  -1.525
REMARK UNBOUND:                -1.005
REMARK SMILES CC(C)=CCC[C@H](C)c1ccc(C)cc1
REMARK SMILES IDX 6 1 7 2 8 3 9 4 13 5 12 6 11 7 14 8 10 9 15 10 5 11 4 12
REMARK SMILES IDX 2 13 1 14 3 15
REMARK H PARENT
REMARK Flexibility Score: inf
ROOT
ATOM      1  C   UNL     1     122.522 122.359 117.492  1.00  0.00     0.012 C 
ENDROOT
BRANCH   1   2
ATOM      2  C   UNL     1     121.467 121.507 116.743  1.00  0.00     0.016 C 
ATOM      3  C   UNL     1     120.142 121.403 117.515  1.00  0.00     0.013 C 
BRANCH   2   4
ATOM      4  C   UNL     1     122.021 120.124 116.453  1.00  0.00    -0.045 A 
ATOM      5  C   UNL     1     123.574 116.174 115.646  1.00  0.00     0.044 C 
ATOM      6  C   UNL     1     123.018 117.544 115.901  1.00  0.00    -0.051 A 
ATOM      7  C   UNL     1     123.649 118.674 115.364  1.00  0.00     0.004 A 
ATOM      8  C   UNL     1     121.901 117.708 116.732  1.00  0.00     0.004 A 
ATOM      9  C   UNL     1     123.152 119.953 115.631  1.00  0.00     0.004 A 
ATOM     10  C   UNL     1     121.401 118.986 116.999  1.00  0.00     0.004 A 
ENDBRANCH   2   4
ENDBRANCH   1   2
BRANCH   1  11
ATOM     11  C   UNL     1     123.055 121.713 118.784  1.00  0.00     0.028 C 
BRANCH  11  12
ATOM     12  C   UNL     1     124.557 121.554 118.769  1.00  0.00    -0.028 C 
ATOM     13  C   UNL     1     125.206 120.375 118.895  1.00  0.00    -0.080 C 
ATOM     14  C   UNL     1     124.473 119.075 119.128  1.00  0.00     0.039 C 
ATOM     15  C   UNL     1     126.711 120.376 118.824  1.00  0.00     0.039 C 
ENDBRANCH  11  12
ENDBRANCH   1  11
TORSDOF 4
ENDMDL
