MODEL 1
REMARK VINA RESULT:    -3.096      0.000      0.000
REMARK INTER + INTRA:          -2.965
REMARK INTER:                  -3.277
REMARK INTRA:                   0.312
REMARK UNBOUND:                 0.312
REMARK SMILES CC1=CC[C@@]23[C@@H]([C@@H](C(C)C)CC[C@@H]2C)[C@H]13
REMARK SMILES IDX 14 1 13 2 12 3 11 4 7 5 6 6 5 7 15 8 2 9 3 10 4 11 1 12 8 13
REMARK SMILES IDX 9 14 10 15
REMARK H PARENT
REMARK Flexibility Score: inf
ROOT
ATOM      1  C   UNL     1     147.837 143.494 132.253  1.00  0.00     0.008 C 
ATOM      2  C   UNL     1     146.882 144.490 132.933  1.00  0.00    -0.007 C 
ATOM      3  C   UNL     1     147.311 145.951 132.699  1.00  0.00     0.004 C 
ATOM      4  C   UNL     1     146.751 146.513 131.395  1.00  0.00     0.004 C 
ATOM      5  C   UNL     1     145.202 146.608 131.433  1.00  0.00    -0.004 C 
ATOM      6  C   UNL     1     144.539 145.267 131.865  1.00  0.00     0.007 C 
ATOM      7  C   UNL     1     145.392 144.213 132.590  1.00  0.00    -0.013 C 
ATOM      8  C   UNL     1     145.012 144.022 131.114  1.00  0.00     0.025 C 
ATOM      9  C   UNL     1     144.081 142.857 131.127  1.00  0.00    -0.073 C 
ATOM     10  C   UNL     1     143.890 142.365 132.345  1.00  0.00    -0.027 C 
ATOM     11  C   UNL     1     144.641 143.128 133.380  1.00  0.00     0.035 C 
ATOM     12  C   UNL     1     143.427 142.303 129.901  1.00  0.00     0.039 C 
ENDROOT
BRANCH   5  13
ATOM     13  C   UNL     1     144.659 147.777 132.332  1.00  0.00    -0.014 C 
ATOM     14  C   UNL     1     143.146 147.688 132.610  1.00  0.00     0.007 C 
ATOM     15  C   UNL     1     145.394 147.829 133.688  1.00  0.00     0.007 C 
ENDBRANCH   5  13
TORSDOF 1
ENDMDL
MODEL 2
REMARK VINA RESULT:    -3.060      1.323      4.794
REMARK INTER + INTRA:          -2.926
REMARK INTER:                  -3.169
REMARK INTRA:                   0.243
REMARK UNBOUND:                 0.312
REMARK SMILES CC1=CC[C@@]23[C@@H]([C@@H](C(C)C)CC[C@@H]2C)[C@H]13
REMARK SMILES IDX 14 1 13 2 12 3 11 4 7 5 6 6 5 7 15 8 2 9 3 10 4 11 1 12 8 13
REMARK SMILES IDX 9 14 10 15
REMARK H PARENT
REMARK Flexibility Score: inf
ROOT
ATOM      1  C   UNL     1     142.780 147.262 132.252  1.00  0.00     0.008 C 
ATOM      2  C   UNL     1     143.711 146.272 132.972  1.00  0.00    -0.007 C 
ATOM      3  C   UNL     1     143.291 144.809 132.736  1.00  0.00     0.004 C 
ATOM      4  C   UNL     1     143.896 144.236 131.456  1.00  0.00     0.004 C 
ATOM      5  C   UNL     1     145.443 144.142 131.549  1.00  0.00    -0.004 C 
ATOM      6  C   UNL     1     146.090 145.487 131.992  1.00  0.00     0.007 C 
ATOM      7  C   UNL     1     145.212 146.546 132.679  1.00  0.00    -0.013 C 
ATOM      8  C   UNL     1     145.643 146.726 131.216  1.00  0.00     0.025 C 
ATOM      9  C   UNL     1     146.572 147.892 131.252  1.00  0.00    -0.073 C 
ATOM     10  C   UNL     1     146.721 148.393 132.472  1.00  0.00    -0.027 C 
ATOM     11  C   UNL     1     145.934 147.638 133.486  1.00  0.00     0.035 C 
ATOM     12  C   UNL     1     147.269 148.436 130.045  1.00  0.00     0.039 C 
ENDROOT
BRANCH   5  13
ATOM     13  C   UNL     1     145.954 142.981 132.476  1.00  0.00    -0.014 C 
ATOM     14  C   UNL     1     147.489 142.913 132.587  1.00  0.00     0.007 C 
ATOM     15  C   UNL     1     145.375 143.105 133.900  1.00  0.00     0.007 C 
ENDBRANCH   5  13
TORSDOF 1
ENDMDL
MODEL 3
REMARK VINA RESULT:    -2.082      1.487      3.432
REMARK INTER + INTRA:          -1.892
REMARK INTER:                  -1.526
REMARK INTRA:                  -0.366
REMARK UNBOUND:                 0.312
REMARK SMILES CC1=CC[C@@]23[C@@H]([C@@H](C(C)C)CC[C@@H]2C)[C@H]13
REMARK SMILES IDX 14 1 13 2 12 3 11 4 7 5 6 6 5 7 15 8 2 9 3 10 4 11 1 12 8 13
REMARK SMILES IDX 9 14 10 15
REMARK H PARENT
REMARK Flexibility Score: inf
ROOT
ATOM      1  C   UNL     1     143.127 145.990 133.822  1.00  0.00     0.008 C 
ATOM      2  C   UNL     1     143.829 146.695 132.649  1.00  0.00    -0.007 C 
ATOM      3  C   UNL     1     144.402 148.065 133.059  1.00  0.00     0.004 C 
ATOM      4  C   UNL     1     145.805 147.947 133.650  1.00  0.00     0.004 C 
ATOM      5  C   UNL     1     146.828 147.445 132.596  1.00  0.00    -0.004 C 
ATOM      6  C   UNL     1     146.348 146.149 131.879  1.00  0.00     0.007 C 
ATOM      7  C   UNL     1     144.857 145.776 131.932  1.00  0.00    -0.013 C 
ATOM      8  C   UNL     1     145.877 145.020 132.796  1.00  0.00     0.025 C 
ATOM      9  C   UNL     1     145.901 143.648 132.210  1.00  0.00    -0.073 C 
ATOM     10  C   UNL     1     145.068 143.511 131.186  1.00  0.00    -0.027 C 
ATOM     11  C   UNL     1     144.347 144.778 130.879  1.00  0.00     0.035 C 
ATOM     12  C   UNL     1     146.774 142.544 132.717  1.00  0.00     0.039 C 
ENDROOT
BRANCH   5  13
ATOM     13  C   UNL     1     147.219 148.525 131.525  1.00  0.00    -0.014 C 
ATOM     14  C   UNL     1     148.703 148.937 131.579  1.00  0.00     0.007 C 
ATOM     15  C   UNL     1     146.908 148.035 130.096  1.00  0.00     0.007 C 
ENDBRANCH   5  13
TORSDOF 1
ENDMDL
MODEL 4
REMARK VINA RESULT:    -2.070      1.073      4.306
REMARK INTER + INTRA:          -1.879
REMARK INTER:                  -1.515
REMARK INTRA:                  -0.363
REMARK UNBOUND:                 0.312
REMARK SMILES CC1=CC[C@@]23[C@@H]([C@@H](C(C)C)CC[C@@H]2C)[C@H]13
REMARK SMILES IDX 14 1 13 2 12 3 11 4 7 5 6 6 5 7 15 8 2 9 3 10 4 11 1 12 8 13
REMARK SMILES IDX 9 14 10 15
REMARK H PARENT
REMARK Flexibility Score: inf
ROOT
ATOM      1  C   UNL     1     147.629 144.793 133.794  1.00  0.00     0.008 C 
ATOM      2  C   UNL     1     146.912 144.087 132.631  1.00  0.00    -0.007 C 
ATOM      3  C   UNL     1     146.328 142.725 133.053  1.00  0.00     0.004 C 
ATOM      4  C   UNL     1     144.931 142.860 133.653  1.00  0.00     0.004 C 
ATOM      5  C   UNL     1     143.905 143.367 132.604  1.00  0.00    -0.004 C 
ATOM      6  C   UNL     1     144.393 144.654 131.876  1.00  0.00     0.007 C 
ATOM      7  C   UNL     1     145.887 145.012 131.916  1.00  0.00    -0.013 C 
ATOM      8  C   UNL     1     144.881 145.784 132.783  1.00  0.00     0.025 C 
ATOM      9  C   UNL     1     144.866 147.152 132.190  1.00  0.00    -0.073 C 
ATOM     10  C   UNL     1     145.692 147.275 131.159  1.00  0.00    -0.027 C 
ATOM     11  C   UNL     1     146.399 146.000 130.854  1.00  0.00     0.035 C 
ATOM     12  C   UNL     1     144.007 148.267 132.697  1.00  0.00     0.039 C 
ENDROOT
BRANCH   5  13
ATOM     13  C   UNL     1     143.496 142.284 131.542  1.00  0.00    -0.014 C 
ATOM     14  C   UNL     1     142.003 141.907 131.591  1.00  0.00     0.007 C 
ATOM     15  C   UNL     1     143.826 142.752 130.109  1.00  0.00     0.007 C 
ENDBRANCH   5  13
TORSDOF 1
ENDMDL
MODEL 5
REMARK VINA RESULT:    -1.963      1.280      3.351
REMARK INTER + INTRA:          -1.765
REMARK INTER:                  -1.716
REMARK INTRA:                  -0.050
REMARK UNBOUND:                 0.312
REMARK SMILES CC1=CC[C@@]23[C@@H]([C@@H](C(C)C)CC[C@@H]2C)[C@H]13
REMARK SMILES IDX 14 1 13 2 12 3 11 4 7 5 6 6 5 7 15 8 2 9 3 10 4 11 1 12 8 13
REMARK SMILES IDX 9 14 10 15
REMARK H PARENT
REMARK Flexibility Score: inf
ROOT
ATOM      1  C   UNL     1     143.122 146.488 131.026  1.00  0.00     0.008 C 
ATOM      2  C   UNL     1     144.540 145.918 131.198  1.00  0.00    -0.007 C 
ATOM      3  C   UNL     1     145.287 146.575 132.375  1.00  0.00     0.004 C 
ATOM      4  C   UNL     1     144.993 145.879 133.702  1.00  0.00     0.004 C 
ATOM      5  C   UNL     1     145.535 144.424 133.715  1.00  0.00    -0.004 C 
ATOM      6  C   UNL     1     145.069 143.609 132.473  1.00  0.00     0.007 C 
ATOM      7  C   UNL     1     144.556 144.365 131.236  1.00  0.00    -0.013 C 
ATOM      8  C   UNL     1     143.571 143.653 132.175  1.00  0.00     0.025 C 
ATOM      9  C   UNL     1     143.034 142.530 131.353  1.00  0.00    -0.073 C 
ATOM     10  C   UNL     1     143.538 142.503 130.126  1.00  0.00    -0.027 C 
ATOM     11  C   UNL     1     144.529 143.593 129.906  1.00  0.00     0.035 C 
ATOM     12  C   UNL     1     142.037 141.535 131.858  1.00  0.00     0.039 C 
ENDROOT
BRANCH   5  13
ATOM     13  C   UNL     1     147.097 144.329 133.852  1.00  0.00    -0.014 C 
ATOM     14  C   UNL     1     147.788 143.728 132.613  1.00  0.00     0.007 C 
ATOM     15  C   UNL     1     147.721 145.714 134.125  1.00  0.00     0.007 C 
ENDBRANCH   5  13
TORSDOF 1
ENDMDL
MODEL 6
REMARK VINA RESULT:    -1.921      1.417      3.292
REMARK INTER + INTRA:          -1.721
REMARK INTER:                  -2.028
REMARK INTRA:                   0.308
REMARK UNBOUND:                 0.312
REMARK SMILES CC1=CC[C@@]23[C@@H]([C@@H](C(C)C)CC[C@@H]2C)[C@H]13
REMARK SMILES IDX 14 1 13 2 12 3 11 4 7 5 6 6 5 7 15 8 2 9 3 10 4 11 1 12 8 13
REMARK SMILES IDX 9 14 10 15
REMARK H PARENT
REMARK Flexibility Score: inf
ROOT
ATOM      1  C   UNL     1     147.531 147.802 132.211  1.00  0.00     0.008 C 
ATOM      2  C   UNL     1     146.458 146.931 132.887  1.00  0.00    -0.007 C 
ATOM      3  C   UNL     1     145.036 147.466 132.632  1.00  0.00     0.004 C 
ATOM      4  C   UNL     1     144.449 146.937 131.326  1.00  0.00     0.004 C 
ATOM      5  C   UNL     1     144.237 145.400 131.376  1.00  0.00    -0.004 C 
ATOM      6  C   UNL     1     145.520 144.643 131.830  1.00  0.00     0.007 C 
ATOM      7  C   UNL     1     146.626 145.421 132.560  1.00  0.00    -0.013 C 
ATOM      8  C   UNL     1     146.805 145.014 131.090  1.00  0.00     0.025 C 
ATOM      9  C   UNL     1     147.897 143.999 131.126  1.00  0.00    -0.073 C 
ATOM     10  C   UNL     1     148.359 143.783 132.351  1.00  0.00    -0.027 C 
ATOM     11  C   UNL     1     147.643 144.599 133.370  1.00  0.00     0.035 C 
ATOM     12  C   UNL     1     148.415 143.293 129.912  1.00  0.00     0.039 C 
ENDROOT
BRANCH   5  13
ATOM     13  C   UNL     1     143.021 144.955 132.266  1.00  0.00    -0.014 C 
ATOM     14  C   UNL     1     142.975 143.438 132.531  1.00  0.00     0.007 C 
ATOM     15  C   UNL     1     143.027 145.680 133.627  1.00  0.00     0.007 C 
ENDBRANCH   5  13
TORSDOF 1
ENDMDL
MODEL 7
REMARK VINA RESULT:    -1.907      1.433      3.511
REMARK INTER + INTRA:          -1.707
REMARK INTER:                  -1.998
REMARK INTRA:                   0.291
REMARK UNBOUND:                 0.312
REMARK SMILES CC1=CC[C@@]23[C@@H]([C@@H](C(C)C)CC[C@@H]2C)[C@H]13
REMARK SMILES IDX 14 1 13 2 12 3 11 4 7 5 6 6 5 7 15 8 2 9 3 10 4 11 1 12 8 13
REMARK SMILES IDX 9 14 10 15
REMARK H PARENT
REMARK Flexibility Score: inf
ROOT
ATOM      1  C   UNL     1     143.197 142.935 132.204  1.00  0.00     0.008 C 
ATOM      2  C   UNL     1     144.264 143.800 132.895  1.00  0.00    -0.007 C 
ATOM      3  C   UNL     1     145.688 143.265 132.651  1.00  0.00     0.004 C 
ATOM      4  C   UNL     1     146.288 143.801 131.354  1.00  0.00     0.004 C 
ATOM      5  C   UNL     1     146.501 145.338 131.415  1.00  0.00    -0.004 C 
ATOM      6  C   UNL     1     145.215 146.094 131.861  1.00  0.00     0.007 C 
ATOM      7  C   UNL     1     144.101 145.312 132.577  1.00  0.00    -0.013 C 
ATOM      8  C   UNL     1     143.936 145.729 131.107  1.00  0.00     0.025 C 
ATOM      9  C   UNL     1     142.845 146.745 131.139  1.00  0.00    -0.073 C 
ATOM     10  C   UNL     1     142.372 146.954 132.361  1.00  0.00    -0.027 C 
ATOM     11  C   UNL     1     143.077 146.130 133.382  1.00  0.00     0.035 C 
ATOM     12  C   UNL     1     142.340 147.459 129.925  1.00  0.00     0.039 C 
ENDROOT
BRANCH   5  13
ATOM     13  C   UNL     1     147.709 145.776 132.319  1.00  0.00    -0.014 C 
ATOM     14  C   UNL     1     147.788 147.298 132.547  1.00  0.00     0.007 C 
ATOM     15  C   UNL     1     147.657 145.086 133.697  1.00  0.00     0.007 C 
ENDBRANCH   5  13
TORSDOF 1
ENDMDL
MODEL 8
REMARK VINA RESULT:    -1.532      1.599      4.044
REMARK INTER + INTRA:          -1.309
REMARK INTER:                  -1.385
REMARK INTRA:                   0.076
REMARK UNBOUND:                 0.312
REMARK SMILES CC1=CC[C@@]23[C@@H]([C@@H](C(C)C)CC[C@@H]2C)[C@H]13
REMARK SMILES IDX 14 1 13 2 12 3 11 4 7 5 6 6 5 7 15 8 2 9 3 10 4 11 1 12 8 13
REMARK SMILES IDX 9 14 10 15
REMARK H PARENT
REMARK Flexibility Score: inf
ROOT
ATOM      1  C   UNL     1     146.649 148.000 131.097  1.00  0.00     0.008 C 
ATOM      2  C   UNL     1     146.254 146.532 131.331  1.00  0.00    -0.007 C 
ATOM      3  C   UNL     1     146.991 145.922 132.539  1.00  0.00     0.004 C 
ATOM      4  C   UNL     1     146.259 146.187 133.852  1.00  0.00     0.004 C 
ATOM      5  C   UNL     1     144.880 145.475 133.891  1.00  0.00    -0.004 C 
ATOM      6  C   UNL     1     144.021 145.784 132.630  1.00  0.00     0.007 C 
ATOM      7  C   UNL     1     144.714 146.331 131.371  1.00  0.00    -0.013 C 
ATOM      8  C   UNL     1     143.885 147.263 132.267  1.00  0.00     0.025 C 
ATOM      9  C   UNL     1     142.709 147.625 131.424  1.00  0.00    -0.073 C 
ATOM     10  C   UNL     1     142.748 147.067 130.220  1.00  0.00    -0.027 C 
ATOM     11  C   UNL     1     143.950 146.207 130.042  1.00  0.00     0.035 C 
ATOM     12  C   UNL     1     141.599 148.515 131.886  1.00  0.00     0.039 C 
ENDROOT
BRANCH   5  13
ATOM     13  C   UNL     1     144.974 143.920 134.096  1.00  0.00    -0.014 C 
ATOM     14  C   UNL     1     144.230 143.111 133.016  1.00  0.00     0.007 C 
ATOM     15  C   UNL     1     146.442 143.446 134.125  1.00  0.00     0.007 C 
ENDBRANCH   5  13
TORSDOF 1
ENDMDL
