MODEL 1
REMARK VINA RESULT:    -5.747      0.000      0.000
REMARK INTER + INTRA:          -8.744
REMARK INTER:                  -7.931
REMARK INTRA:                  -0.814
REMARK UNBOUND:                -0.814
REMARK SMILES CCCCc1cccc(O)c1CCCC
REMARK SMILES IDX 5 1 11 2 9 3 8 4 7 5 6 6 4 7 3 8 2 9 1 10 12 11 13 12 14 13
REMARK SMILES IDX 15 14 10 15
REMARK H PARENT 10 16
REMARK Flexibility Score: inf
ROOT
ATOM      1  C   UNL     1      81.867   1.890  -0.047  1.00  0.00    -0.041 A 
ATOM      2  C   UNL     1      82.861   2.593  -0.796  1.00  0.00    -0.003 A 
ATOM      3  C   UNL     1      82.627   3.958  -1.130  1.00  0.00     0.119 A 
ATOM      4  C   UNL     1      81.426   4.573  -0.769  1.00  0.00     0.046 A 
ATOM      5  C   UNL     1      80.451   3.871  -0.072  1.00  0.00     0.004 A 
ATOM      6  C   UNL     1      80.669   2.547   0.291  1.00  0.00     0.004 A 
ENDROOT
BRANCH   1   7
ATOM      7  C   UNL     1      82.031   0.457   0.433  1.00  0.00     0.036 C 
BRANCH   7   8
ATOM      8  C   UNL     1      80.702  -0.231   0.781  1.00  0.00     0.004 C 
BRANCH   8   9
ATOM      9  C   UNL     1      79.942  -0.714  -0.462  1.00  0.00    -0.003 C 
ATOM     10  C   UNL     1      78.502  -0.211  -0.458  1.00  0.00     0.004 C 
ENDBRANCH   8   9
ENDBRANCH   7   8
ENDBRANCH   1   7
BRANCH   2  11
ATOM     11  C   UNL     1      84.124   1.905  -1.290  1.00  0.00     0.040 C 
BRANCH  11  12
ATOM     12  C   UNL     1      85.332   2.269  -0.407  1.00  0.00     0.005 C 
BRANCH  12  13
ATOM     13  C   UNL     1      85.738   1.131   0.540  1.00  0.00    -0.003 C 
ATOM     14  C   UNL     1      85.419   1.439   2.002  1.00  0.00     0.004 C 
ENDBRANCH  12  13
ENDBRANCH  11  12
ENDBRANCH   2  11
BRANCH   3  15
ATOM     15  O   UNL     1      83.561   4.739  -1.817  1.00  0.00    -0.508 OA
ATOM     16  H   UNL     1      83.628   5.744  -1.739  1.00  0.00     0.293 HD
ENDBRANCH   3  15
TORSDOF 7
ENDMDL
MODEL 2
REMARK VINA RESULT:    -5.599      1.576      4.680
REMARK INTER + INTRA:          -8.540
REMARK INTER:                  -7.668
REMARK INTRA:                  -0.872
REMARK UNBOUND:                -0.814
REMARK SMILES CCCCc1cccc(O)c1CCCC
REMARK SMILES IDX 5 1 11 2 9 3 8 4 7 5 6 6 4 7 3 8 2 9 1 10 12 11 13 12 14 13
REMARK SMILES IDX 15 14 10 15
REMARK H PARENT 10 16
REMARK Flexibility Score: inf
ROOT
ATOM      1  C   UNL     1      82.535   2.661  -0.740  1.00  0.00    -0.041 A 
ATOM      2  C   UNL     1      81.399   2.262   0.031  1.00  0.00    -0.003 A 
ATOM      3  C   UNL     1      80.389   3.226   0.308  1.00  0.00     0.119 A 
ATOM      4  C   UNL     1      80.537   4.544  -0.129  1.00  0.00     0.046 A 
ATOM      5  C   UNL     1      81.660   4.931  -0.848  1.00  0.00     0.004 A 
ATOM      6  C   UNL     1      82.646   4.001  -1.157  1.00  0.00     0.004 A 
ENDROOT
BRANCH   1   7
ATOM      7  C   UNL     1      83.641   1.709  -1.165  1.00  0.00     0.036 C 
BRANCH   7   8
ATOM      8  C   UNL     1      85.051   2.306  -1.030  1.00  0.00     0.004 C 
BRANCH   8   9
ATOM      9  C   UNL     1      85.915   1.556  -0.006  1.00  0.00    -0.003 C 
ATOM     10  C   UNL     1      85.119   1.233   1.255  1.00  0.00     0.004 C 
ENDBRANCH   8   9
ENDBRANCH   7   8
ENDBRANCH   1   7
BRANCH   2  11
ATOM     11  C   UNL     1      81.279   0.860   0.607  1.00  0.00     0.040 C 
BRANCH  11  12
ATOM     12  C   UNL     1      80.614  -0.095  -0.403  1.00  0.00     0.005 C 
BRANCH  12  13
ATOM     13  C   UNL     1      79.200  -0.515   0.024  1.00  0.00    -0.003 C 
ATOM     14  C   UNL     1      78.108   0.245  -0.728  1.00  0.00     0.004 C 
ENDBRANCH  12  13
ENDBRANCH  11  12
ENDBRANCH   2  11
BRANCH   3  15
ATOM     15  O   UNL     1      79.221   2.917   1.012  1.00  0.00    -0.508 OA
ATOM     16  H   UNL     1      78.288   3.021   0.640  1.00  0.00     0.293 HD
ENDBRANCH   3  15
TORSDOF 7
ENDMDL
MODEL 3
REMARK VINA RESULT:    -5.296      1.054      3.590
REMARK INTER + INTRA:          -8.123
REMARK INTER:                  -7.230
REMARK INTRA:                  -0.893
REMARK UNBOUND:                -0.814
REMARK SMILES CCCCc1cccc(O)c1CCCC
REMARK SMILES IDX 5 1 11 2 9 3 8 4 7 5 6 6 4 7 3 8 2 9 1 10 12 11 13 12 14 13
REMARK SMILES IDX 15 14 10 15
REMARK H PARENT 10 16
REMARK Flexibility Score: inf
ROOT
ATOM      1  C   UNL     1      83.364   1.306   0.520  1.00  0.00    -0.041 A 
ATOM      2  C   UNL     1      83.426   2.205  -0.590  1.00  0.00    -0.003 A 
ATOM      3  C   UNL     1      84.704   2.611  -1.069  1.00  0.00     0.119 A 
ATOM      4  C   UNL     1      85.866   2.171  -0.431  1.00  0.00     0.046 A 
ATOM      5  C   UNL     1      85.794   1.325   0.668  1.00  0.00     0.004 A 
ATOM      6  C   UNL     1      84.560   0.892   1.137  1.00  0.00     0.004 A 
ENDROOT
BRANCH   1   7
ATOM      7  C   UNL     1      82.066   0.743   1.076  1.00  0.00     0.036 C 
BRANCH   7   8
ATOM      8  C   UNL     1      81.952  -0.784   0.944  1.00  0.00     0.004 C 
BRANCH   8   9
ATOM      9  C   UNL     1      80.829  -1.213  -0.010  1.00  0.00    -0.003 C 
ATOM     10  C   UNL     1      79.825  -0.084  -0.222  1.00  0.00     0.004 C 
ENDBRANCH   8   9
ENDBRANCH   7   8
ENDBRANCH   1   7
BRANCH   2  11
ATOM     11  C   UNL     1      82.169   2.778  -1.224  1.00  0.00     0.040 C 
BRANCH  11  12
ATOM     12  C   UNL     1      82.040   4.285  -0.928  1.00  0.00     0.005 C 
BRANCH  12  13
ATOM     13  C   UNL     1      80.789   4.621  -0.105  1.00  0.00    -0.003 C 
ATOM     14  C   UNL     1      79.878   3.412   0.102  1.00  0.00     0.004 C 
ENDBRANCH  12  13
ENDBRANCH  11  12
ENDBRANCH   2  11
BRANCH   3  15
ATOM     15  O   UNL     1      84.865   3.448  -2.178  1.00  0.00    -0.508 OA
ATOM     16  H   UNL     1      85.311   4.354  -2.146  1.00  0.00     0.293 HD
ENDBRANCH   3  15
TORSDOF 7
ENDMDL
MODEL 4
REMARK VINA RESULT:    -5.285     11.057     12.039
REMARK INTER + INTRA:          -8.107
REMARK INTER:                  -7.494
REMARK INTRA:                  -0.613
REMARK UNBOUND:                -0.814
REMARK SMILES CCCCc1cccc(O)c1CCCC
REMARK SMILES IDX 5 1 11 2 9 3 8 4 7 5 6 6 4 7 3 8 2 9 1 10 12 11 13 12 14 13
REMARK SMILES IDX 15 14 10 15
REMARK H PARENT 10 16
REMARK Flexibility Score: inf
ROOT
ATOM      1  C   UNL     1      71.004   0.683  -2.343  1.00  0.00    -0.041 A 
ATOM      2  C   UNL     1      71.309   1.112  -1.014  1.00  0.00    -0.003 A 
ATOM      3  C   UNL     1      71.212   2.499  -0.704  1.00  0.00     0.119 A 
ATOM      4  C   UNL     1      70.870   3.418  -1.698  1.00  0.00     0.046 A 
ATOM      5  C   UNL     1      70.609   2.996  -2.995  1.00  0.00     0.004 A 
ATOM      6  C   UNL     1      70.669   1.644  -3.315  1.00  0.00     0.004 A 
ENDROOT
BRANCH   1   7
ATOM      7  C   UNL     1      70.998  -0.774  -2.778  1.00  0.00     0.036 C 
BRANCH   7   8
ATOM      8  C   UNL     1      70.148  -1.038  -4.030  1.00  0.00     0.004 C 
BRANCH   8   9
ATOM      9  C   UNL     1      70.256  -2.488  -4.523  1.00  0.00    -0.003 C 
ATOM     10  C   UNL     1      71.472  -3.185  -3.921  1.00  0.00     0.004 C 
ENDBRANCH   8   9
ENDBRANCH   7   8
ENDBRANCH   1   7
BRANCH   2  11
ATOM     11  C   UNL     1      71.789   0.136   0.049  1.00  0.00     0.040 C 
BRANCH  11  12
ATOM     12  C   UNL     1      70.653  -0.215   1.028  1.00  0.00     0.005 C 
BRANCH  12  13
ATOM     13  C   UNL     1      71.068  -0.057   2.498  1.00  0.00    -0.003 C 
ATOM     14  C   UNL     1      70.059   0.752   3.311  1.00  0.00     0.004 C 
ENDBRANCH  12  13
ENDBRANCH  11  12
ENDBRANCH   2  11
BRANCH   3  15
ATOM     15  O   UNL     1      71.444   3.005   0.578  1.00  0.00    -0.508 OA
ATOM     16  H   UNL     1      71.434   2.448   1.421  1.00  0.00     0.293 HD
ENDBRANCH   3  15
TORSDOF 7
ENDMDL
MODEL 5
REMARK VINA RESULT:    -5.200      9.744     12.854
REMARK INTER + INTRA:          -7.990
REMARK INTER:                  -7.204
REMARK INTRA:                  -0.786
REMARK UNBOUND:                -0.814
REMARK SMILES CCCCc1cccc(O)c1CCCC
REMARK SMILES IDX 5 1 11 2 9 3 8 4 7 5 6 6 4 7 3 8 2 9 1 10 12 11 13 12 14 13
REMARK SMILES IDX 15 14 10 15
REMARK H PARENT 10 16
REMARK Flexibility Score: inf
ROOT
ATOM      1  C   UNL     1      71.183  -0.483  -3.040  1.00  0.00    -0.041 A 
ATOM      2  C   UNL     1      70.116   0.137  -3.761  1.00  0.00    -0.003 A 
ATOM      3  C   UNL     1      69.283  -0.677  -4.582  1.00  0.00     0.119 A 
ATOM      4  C   UNL     1      69.542  -2.044  -4.708  1.00  0.00     0.046 A 
ATOM      5  C   UNL     1      70.602  -2.631  -4.029  1.00  0.00     0.004 A 
ATOM      6  C   UNL     1      71.411  -1.863  -3.200  1.00  0.00     0.004 A 
ENDROOT
BRANCH   1   7
ATOM      7  C   UNL     1      72.092   0.263  -2.076  1.00  0.00     0.036 C 
BRANCH   7   8
ATOM      8  C   UNL     1      71.664   0.138  -0.605  1.00  0.00     0.004 C 
BRANCH   8   9
ATOM      9  C   UNL     1      72.348   1.171   0.300  1.00  0.00    -0.003 C 
ATOM     10  C   UNL     1      73.637   1.688  -0.331  1.00  0.00     0.004 C 
ENDBRANCH   8   9
ENDBRANCH   7   8
ENDBRANCH   1   7
BRANCH   2  11
ATOM     11  C   UNL     1      69.891   1.640  -3.720  1.00  0.00     0.040 C 
BRANCH  11  12
ATOM     12  C   UNL     1      69.506   2.100  -2.302  1.00  0.00     0.005 C 
BRANCH  12  13
ATOM     13  C   UNL     1      70.228   3.388  -1.881  1.00  0.00    -0.003 C 
ATOM     14  C   UNL     1      71.435   3.701  -2.765  1.00  0.00     0.004 C 
ENDBRANCH  12  13
ENDBRANCH  11  12
ENDBRANCH   2  11
BRANCH   3  15
ATOM     15  O   UNL     1      68.187  -0.169  -5.287  1.00  0.00    -0.508 OA
ATOM     16  H   UNL     1      68.252   0.534  -6.008  1.00  0.00     0.293 HD
ENDBRANCH   3  15
TORSDOF 7
ENDMDL
MODEL 6
REMARK VINA RESULT:    -5.111      8.349      9.049
REMARK INTER + INTRA:          -7.867
REMARK INTER:                  -7.217
REMARK INTRA:                  -0.651
REMARK UNBOUND:                -0.814
REMARK SMILES CCCCc1cccc(O)c1CCCC
REMARK SMILES IDX 5 1 11 2 9 3 8 4 7 5 6 6 4 7 3 8 2 9 1 10 12 11 13 12 14 13
REMARK SMILES IDX 15 14 10 15
REMARK H PARENT 10 16
REMARK Flexibility Score: inf
ROOT
ATOM      1  C   UNL     1      83.133   3.208   8.667  1.00  0.00    -0.041 A 
ATOM      2  C   UNL     1      83.330   4.357   7.840  1.00  0.00    -0.003 A 
ATOM      3  C   UNL     1      82.245   5.263   7.659  1.00  0.00     0.119 A 
ATOM      4  C   UNL     1      81.005   4.999   8.244  1.00  0.00     0.046 A 
ATOM      5  C   UNL     1      80.814   3.862   9.018  1.00  0.00     0.004 A 
ATOM      6  C   UNL     1      81.865   2.978   9.233  1.00  0.00     0.004 A 
ENDROOT
BRANCH   1   7
ATOM      7  C   UNL     1      84.231   2.210   8.996  1.00  0.00     0.036 C 
BRANCH   7   8
ATOM      8  C   UNL     1      84.230   0.972   8.086  1.00  0.00     0.004 C 
BRANCH   8   9
ATOM      9  C   UNL     1      85.637   0.403   7.859  1.00  0.00    -0.003 C 
ATOM     10  C   UNL     1      86.640   1.515   7.566  1.00  0.00     0.004 C 
ENDBRANCH   8   9
ENDBRANCH   7   8
ENDBRANCH   1   7
BRANCH   2  11
ATOM     11  C   UNL     1      84.640   4.599   7.107  1.00  0.00     0.040 C 
BRANCH  11  12
ATOM     12  C   UNL     1      85.401   5.791   7.718  1.00  0.00     0.005 C 
BRANCH  12  13
ATOM     13  C   UNL     1      86.677   6.140   6.939  1.00  0.00    -0.003 C 
ATOM     14  C   UNL     1      86.625   7.536   6.320  1.00  0.00     0.004 C 
ENDBRANCH  12  13
ENDBRANCH  11  12
ENDBRANCH   2  11
BRANCH   3  15
ATOM     15  O   UNL     1      82.357   6.437   6.908  1.00  0.00    -0.508 OA
ATOM     16  H   UNL     1      82.294   7.368   7.295  1.00  0.00     0.293 HD
ENDBRANCH   3  15
TORSDOF 7
ENDMDL
MODEL 7
REMARK VINA RESULT:    -5.082      1.890      4.705
REMARK INTER + INTRA:          -7.827
REMARK INTER:                  -6.967
REMARK INTRA:                  -0.860
REMARK UNBOUND:                -0.814
REMARK SMILES CCCCc1cccc(O)c1CCCC
REMARK SMILES IDX 5 1 11 2 9 3 8 4 7 5 6 6 4 7 3 8 2 9 1 10 12 11 13 12 14 13
REMARK SMILES IDX 15 14 10 15
REMARK H PARENT 10 16
REMARK Flexibility Score: inf
ROOT
ATOM      1  C   UNL     1      83.558   2.163  -0.582  1.00  0.00    -0.041 A 
ATOM      2  C   UNL     1      83.592   1.282   0.544  1.00  0.00    -0.003 A 
ATOM      3  C   UNL     1      84.858   0.861   1.044  1.00  0.00     0.119 A 
ATOM      4  C   UNL     1      86.034   1.269   0.411  1.00  0.00     0.046 A 
ATOM      5  C   UNL     1      85.989   2.097  -0.703  1.00  0.00     0.004 A 
ATOM      6  C   UNL     1      84.768   2.545  -1.192  1.00  0.00     0.004 A 
ENDROOT
BRANCH   1   7
ATOM      7  C   UNL     1      82.276   2.740  -1.161  1.00  0.00     0.036 C 
BRANCH   7   8
ATOM      8  C   UNL     1      82.208   4.274  -1.094  1.00  0.00     0.004 C 
BRANCH   8   9
ATOM      9  C   UNL     1      81.016   4.778  -0.268  1.00  0.00    -0.003 C 
ATOM     10  C   UNL     1      80.078   3.632   0.099  1.00  0.00     0.004 C 
ENDBRANCH   8   9
ENDBRANCH   7   8
ENDBRANCH   1   7
BRANCH   2  11
ATOM     11  C   UNL     1      82.318   0.742   1.174  1.00  0.00     0.040 C 
BRANCH  11  12
ATOM     12  C   UNL     1      82.143  -0.757   0.865  1.00  0.00     0.005 C 
BRANCH  12  13
ATOM     13  C   UNL     1      80.851  -1.053   0.089  1.00  0.00    -0.003 C 
ATOM     14  C   UNL     1      80.001   0.196  -0.138  1.00  0.00     0.004 C 
ENDBRANCH  12  13
ENDBRANCH  11  12
ENDBRANCH   2  11
BRANCH   3  15
ATOM     15  O   UNL     1      84.992   0.041   2.168  1.00  0.00    -0.508 OA
ATOM     16  H   UNL     1      84.620   0.261   3.081  1.00  0.00     0.293 HD
ENDBRANCH   3  15
TORSDOF 7
ENDMDL
MODEL 8
REMARK VINA RESULT:    -5.061      7.525      8.851
REMARK INTER + INTRA:          -7.797
REMARK INTER:                  -6.585
REMARK INTRA:                  -1.212
REMARK UNBOUND:                -0.814
REMARK SMILES CCCCc1cccc(O)c1CCCC
REMARK SMILES IDX 5 1 11 2 9 3 8 4 7 5 6 6 4 7 3 8 2 9 1 10 12 11 13 12 14 13
REMARK SMILES IDX 15 14 10 15
REMARK H PARENT 10 16
REMARK Flexibility Score: inf
ROOT
ATOM      1  C   UNL     1      84.848   0.511  -6.880  1.00  0.00    -0.041 A 
ATOM      2  C   UNL     1      84.248   1.596  -7.591  1.00  0.00    -0.003 A 
ATOM      3  C   UNL     1      84.959   2.826  -7.689  1.00  0.00     0.119 A 
ATOM      4  C   UNL     1      86.197   2.973  -7.058  1.00  0.00     0.046 A 
ATOM      5  C   UNL     1      86.756   1.925  -6.341  1.00  0.00     0.004 A 
ATOM      6  C   UNL     1      86.095   0.705  -6.256  1.00  0.00     0.004 A 
ENDROOT
BRANCH   1   7
ATOM      7  C   UNL     1      84.225  -0.871  -6.769  1.00  0.00     0.036 C 
BRANCH   7   8
ATOM      8  C   UNL     1      84.952  -1.942  -7.598  1.00  0.00     0.004 C 
BRANCH   8   9
ATOM      9  C   UNL     1      84.043  -3.121  -7.969  1.00  0.00    -0.003 C 
ATOM     10  C   UNL     1      84.119  -3.428  -9.461  1.00  0.00     0.004 C 
ENDBRANCH   8   9
ENDBRANCH   7   8
ENDBRANCH   1   7
BRANCH   2  11
ATOM     11  C   UNL     1      82.853   1.485  -8.187  1.00  0.00     0.040 C 
BRANCH  11  12
ATOM     12  C   UNL     1      82.911   0.930  -9.623  1.00  0.00     0.005 C 
BRANCH  12  13
ATOM     13  C   UNL     1      82.132  -0.384  -9.781  1.00  0.00    -0.003 C 
ATOM     14  C   UNL     1      81.168  -0.639  -8.623  1.00  0.00     0.004 C 
ENDBRANCH  12  13
ENDBRANCH  11  12
ENDBRANCH   2  11
BRANCH   3  15
ATOM     15  O   UNL     1      84.474   3.925  -8.403  1.00  0.00    -0.508 OA
ATOM     16  H   UNL     1      84.123   3.879  -9.349  1.00  0.00     0.293 HD
ENDBRANCH   3  15
TORSDOF 7
ENDMDL
MODEL 9
REMARK VINA RESULT:    -4.892      7.992      8.742
REMARK INTER + INTRA:          -7.565
REMARK INTER:                  -6.874
REMARK INTRA:                  -0.691
REMARK UNBOUND:                -0.814
REMARK SMILES CCCCc1cccc(O)c1CCCC
REMARK SMILES IDX 5 1 11 2 9 3 8 4 7 5 6 6 4 7 3 8 2 9 1 10 12 11 13 12 14 13
REMARK SMILES IDX 15 14 10 15
REMARK H PARENT 10 16
REMARK Flexibility Score: inf
ROOT
ATOM      1  C   UNL     1      83.802  -1.154  -7.737  1.00  0.00    -0.041 A 
ATOM      2  C   UNL     1      83.714   0.157  -8.299  1.00  0.00    -0.003 A 
ATOM      3  C   UNL     1      82.446   0.623  -8.751  1.00  0.00     0.119 A 
ATOM      4  C   UNL     1      81.327  -0.210  -8.685  1.00  0.00     0.046 A 
ATOM      5  C   UNL     1      81.430  -1.496  -8.169  1.00  0.00     0.004 A 
ATOM      6  C   UNL     1      82.650  -1.962  -7.695  1.00  0.00     0.004 A 
ENDROOT
BRANCH   1   7
ATOM      7  C   UNL     1      85.079  -1.736  -7.153  1.00  0.00     0.036 C 
BRANCH   7   8
ATOM      8  C   UNL     1      85.346  -3.188  -7.582  1.00  0.00     0.004 C 
BRANCH   8   9
ATOM      9  C   UNL     1      85.434  -4.150  -6.390  1.00  0.00    -0.003 C 
ATOM     10  C   UNL     1      84.245  -5.105  -6.364  1.00  0.00     0.004 C 
ENDBRANCH   8   9
ENDBRANCH   7   8
ENDBRANCH   1   7
BRANCH   2  11
ATOM     11  C   UNL     1      84.944   1.033  -8.478  1.00  0.00     0.040 C 
BRANCH  11  12
ATOM     12  C   UNL     1      85.085   2.030  -7.313  1.00  0.00     0.005 C 
BRANCH  12  13
ATOM     13  C   UNL     1      85.281   3.475  -7.791  1.00  0.00    -0.003 C 
ATOM     14  C   UNL     1      86.428   4.183  -7.071  1.00  0.00     0.004 C 
ENDBRANCH  12  13
ENDBRANCH  11  12
ENDBRANCH   2  11
BRANCH   3  15
ATOM     15  O   UNL     1      82.253   1.907  -9.270  1.00  0.00    -0.508 OA
ATOM     16  H   UNL     1      81.348   2.312  -9.463  1.00  0.00     0.293 HD
ENDBRANCH   3  15
TORSDOF 7
ENDMDL
