MODEL 1
REMARK VINA RESULT:    -6.398      0.000      0.000
REMARK INTER + INTRA:          -6.398
REMARK INTER:                  -6.398
REMARK INTRA:                   0.000
REMARK UNBOUND:                 0.000
REMARK SMILES CC1=CC[C@H]2[C@@H](C1)C2(C)C
REMARK SMILES IDX 1 1 2 2 3 3 4 4 5 5 6 6 7 7 8 8 9 9 10 10
REMARK H PARENT
REMARK Flexibility Score: inf
ROOT
ATOM      1  C   UNL     1       3.157  10.483  13.888  1.00  0.00     0.039 C 
ATOM      2  C   UNL     1       3.775   9.292  13.207  1.00  0.00    -0.077 C 
ATOM      3  C   UNL     1       3.988   9.327  11.880  1.00  0.00    -0.028 C 
ATOM      4  C   UNL     1       4.596   8.165  11.149  1.00  0.00     0.031 C 
ATOM      5  C   UNL     1       5.701   7.478  11.979  1.00  0.00     0.003 C 
ATOM      6  C   UNL     1       5.463   7.427  13.506  1.00  0.00     0.003 C 
ATOM      7  C   UNL     1       4.150   8.068  14.008  1.00  0.00     0.034 C 
ATOM      8  C   UNL     1       5.433   6.134  12.675  1.00  0.00    -0.029 C 
ATOM      9  C   UNL     1       6.669   5.242  12.839  1.00  0.00     0.012 C 
ATOM     10  C   UNL     1       4.103   5.389  12.443  1.00  0.00     0.012 C 
ENDROOT
TORSDOF 0
ENDMDL
MODEL 2
REMARK VINA RESULT:    -5.506      0.897      4.053
REMARK INTER + INTRA:          -5.506
REMARK INTER:                  -5.506
REMARK INTRA:                   0.000
REMARK UNBOUND:                 0.000
REMARK SMILES CC1=CC[C@H]2[C@@H](C1)C2(C)C
REMARK SMILES IDX 1 1 2 2 3 3 4 4 5 5 6 6 7 7 8 8 9 9 10 10
REMARK H PARENT
REMARK Flexibility Score: inf
ROOT
ATOM      1  C   UNL     1       7.751   4.875  12.523  1.00  0.00     0.039 C 
ATOM      2  C   UNL     1       6.498   5.708  12.545  1.00  0.00    -0.077 C 
ATOM      3  C   UNL     1       5.305   5.110  12.384  1.00  0.00    -0.028 C 
ATOM      4  C   UNL     1       4.024   5.894  12.391  1.00  0.00     0.031 C 
ATOM      5  C   UNL     1       4.056   7.039  13.426  1.00  0.00     0.003 C 
ATOM      6  C   UNL     1       5.423   7.737  13.614  1.00  0.00     0.003 C 
ATOM      7  C   UNL     1       6.581   7.203  12.743  1.00  0.00     0.034 C 
ATOM      8  C   UNL     1       4.249   8.496  12.972  1.00  0.00    -0.029 C 
ATOM      9  C   UNL     1       3.591   9.540  13.880  1.00  0.00     0.012 C 
ATOM     10  C   UNL     1       4.277   8.846  11.471  1.00  0.00     0.012 C 
ENDROOT
TORSDOF 0
ENDMDL
MODEL 3
REMARK VINA RESULT:    -4.966      1.587      4.436
REMARK INTER + INTRA:          -4.966
REMARK INTER:                  -4.966
REMARK INTRA:                   0.000
REMARK UNBOUND:                 0.000
REMARK SMILES CC1=CC[C@H]2[C@@H](C1)C2(C)C
REMARK SMILES IDX 1 1 2 2 3 3 4 4 5 5 6 6 7 7 8 8 9 9 10 10
REMARK H PARENT
REMARK Flexibility Score: inf
ROOT
ATOM      1  C   UNL     1       4.993   6.340  12.782  1.00  0.00     0.039 C 
ATOM      2  C   UNL     1       4.354   7.702  12.727  1.00  0.00    -0.077 C 
ATOM      3  C   UNL     1       3.995   8.309  13.871  1.00  0.00    -0.028 C 
ATOM      4  C   UNL     1       3.349   9.665  13.874  1.00  0.00     0.031 C 
ATOM      5  C   UNL     1       3.949  10.590  12.794  1.00  0.00     0.003 C 
ATOM      6  C   UNL     1       4.361   9.902  11.472  1.00  0.00     0.003 C 
ATOM      7  C   UNL     1       4.118   8.378  11.398  1.00  0.00     0.034 C 
ATOM      8  C   UNL     1       3.175  10.881  11.498  1.00  0.00    -0.029 C 
ATOM      9  C   UNL     1       3.465  12.251  10.875  1.00  0.00     0.012 C 
ATOM     10  C   UNL     1       1.734  10.363  11.319  1.00  0.00     0.012 C 
ENDROOT
TORSDOF 0
ENDMDL
MODEL 4
REMARK VINA RESULT:    -4.444      1.155      4.103
REMARK INTER + INTRA:          -4.444
REMARK INTER:                  -4.444
REMARK INTRA:                   0.000
REMARK UNBOUND:                 0.000
REMARK SMILES CC1=CC[C@H]2[C@@H](C1)C2(C)C
REMARK SMILES IDX 1 1 2 2 3 3 4 4 5 5 6 6 7 7 8 8 9 9 10 10
REMARK H PARENT
REMARK Flexibility Score: inf
ROOT
ATOM      1  C   UNL     1       6.994   4.875  12.753  1.00  0.00     0.039 C 
ATOM      2  C   UNL     1       6.320   6.133  13.231  1.00  0.00    -0.077 C 
ATOM      3  C   UNL     1       6.952   6.927  14.112  1.00  0.00    -0.028 C 
ATOM      4  C   UNL     1       6.323   8.190  14.627  1.00  0.00     0.031 C 
ATOM      5  C   UNL     1       5.526   8.924  13.527  1.00  0.00     0.003 C 
ATOM      6  C   UNL     1       4.790   8.020  12.512  1.00  0.00     0.003 C 
ATOM      7  C   UNL     1       4.944   6.497  12.726  1.00  0.00     0.034 C 
ATOM      8  C   UNL     1       3.989   8.871  13.511  1.00  0.00    -0.029 C 
ATOM      9  C   UNL     1       3.315  10.105  12.900  1.00  0.00     0.012 C 
ATOM     10  C   UNL     1       3.221   8.199  14.666  1.00  0.00     0.012 C 
ENDROOT
TORSDOF 0
ENDMDL
MODEL 5
REMARK VINA RESULT:    -4.102      1.263      3.973
REMARK INTER + INTRA:          -4.102
REMARK INTER:                  -4.102
REMARK INTRA:                   0.000
REMARK UNBOUND:                 0.000
REMARK SMILES CC1=CC[C@H]2[C@@H](C1)C2(C)C
REMARK SMILES IDX 1 1 2 2 3 3 4 4 5 5 6 6 7 7 8 8 9 9 10 10
REMARK H PARENT
REMARK Flexibility Score: inf
ROOT
ATOM      1  C   UNL     1       7.088   6.710  14.249  1.00  0.00     0.039 C 
ATOM      2  C   UNL     1       5.942   7.493  13.667  1.00  0.00    -0.077 C 
ATOM      3  C   UNL     1       5.510   7.209  12.426  1.00  0.00    -0.028 C 
ATOM      4  C   UNL     1       4.375   7.963  11.795  1.00  0.00     0.031 C 
ATOM      5  C   UNL     1       3.271   8.302  12.818  1.00  0.00     0.003 C 
ATOM      6  C   UNL     1       3.757   8.637  14.247  1.00  0.00     0.003 C 
ATOM      7  C   UNL     1       5.285   8.591  14.470  1.00  0.00     0.034 C 
ATOM      8  C   UNL     1       3.129   9.731  13.368  1.00  0.00    -0.029 C 
ATOM      9  C   UNL     1       1.701  10.124  13.762  1.00  0.00     0.012 C 
ATOM     10  C   UNL     1       4.000  10.872  12.805  1.00  0.00     0.012 C 
ENDROOT
TORSDOF 0
ENDMDL
