MODEL 1
REMARK VINA RESULT:    -4.050      0.000      0.000
REMARK INTER + INTRA:         -10.213
REMARK INTER:                  -7.838
REMARK INTRA:                  -2.375
REMARK UNBOUND:                -2.375
REMARK SMILES CCCCCCCCCCCCCCCCCC(=O)[O-]
REMARK SMILES IDX 10 1 11 2 12 3 13 4 14 5 15 6 16 7 17 8 18 9 19 10 20 11
REMARK SMILES IDX 9 12 8 13 7 14 6 15 5 16 4 17 3 18 2 19 1 20
REMARK H PARENT
REMARK Flexibility Score: inf
ROOT
ATOM      1  C   UNL     1       1.159   8.349  -2.871  1.00  0.00     0.000 C 
ENDROOT
BRANCH   1   2
ATOM      2  C   UNL     1       0.169   9.360  -2.267  1.00  0.00     0.000 C 
BRANCH   2   3
ATOM      3  C   UNL     1      -1.025   8.741  -1.509  1.00  0.00     0.000 C 
BRANCH   3   4
ATOM      4  C   UNL     1      -1.120   9.096  -0.012  1.00  0.00     0.000 C 
BRANCH   4   5
ATOM      5  C   UNL     1      -0.007   8.478   0.865  1.00  0.00     0.000 C 
BRANCH   5   6
ATOM      6  C   UNL     1      -0.457   8.146   2.300  1.00  0.00     0.000 C 
BRANCH   6   7
ATOM      7  C   UNL     1       0.316   6.997   2.973  1.00  0.00     0.006 C 
BRANCH   7   8
ATOM      8  C   UNL     1       0.338   5.688   2.166  1.00  0.00     0.053 C 
BRANCH   8   9
ATOM      9  C   UNL     1      -0.199   4.535   2.956  1.00  0.00     0.041 C 
ATOM     10  O   UNL     1      -0.335   4.630   4.203  1.00  0.00    -0.550 OA
ATOM     11  O   UNL     1      -0.517   3.342   2.317  1.00  0.00    -0.550 OA
ENDBRANCH   8   9
ENDBRANCH   7   8
ENDBRANCH   6   7
ENDBRANCH   5   6
ENDBRANCH   4   5
ENDBRANCH   3   4
ENDBRANCH   2   3
ENDBRANCH   1   2
BRANCH   1  12
ATOM     12  C   UNL     1       1.001   6.938  -2.280  1.00  0.00     0.000 C 
BRANCH  12  13
ATOM     13  C   UNL     1       2.047   5.952  -2.819  1.00  0.00    -0.000 C 
BRANCH  13  14
ATOM     14  C   UNL     1       2.924   6.566  -3.926  1.00  0.00    -0.000 C 
BRANCH  14  15
ATOM     15  C   UNL     1       4.430   6.408  -3.626  1.00  0.00    -0.000 C 
BRANCH  15  16
ATOM     16  C   UNL     1       4.723   5.663  -2.311  1.00  0.00    -0.000 C 
BRANCH  16  17
ATOM     17  C   UNL     1       5.329   6.575  -1.233  1.00  0.00    -0.000 C 
BRANCH  17  18
ATOM     18  C   UNL     1       4.872   8.040  -1.358  1.00  0.00    -0.000 C 
BRANCH  18  19
ATOM     19  C   UNL     1       3.819   8.485  -0.327  1.00  0.00    -0.003 C 
ATOM     20  C   UNL     1       3.412   7.369   0.635  1.00  0.00     0.004 C 
ENDBRANCH  18  19
ENDBRANCH  17  18
ENDBRANCH  16  17
ENDBRANCH  15  16
ENDBRANCH  14  15
ENDBRANCH  13  14
ENDBRANCH  12  13
ENDBRANCH   1  12
TORSDOF 16
ENDMDL
MODEL 2
REMARK VINA RESULT:    -3.941      1.542      3.810
REMARK INTER + INTRA:         -10.003
REMARK INTER:                  -7.746
REMARK INTRA:                  -2.257
REMARK UNBOUND:                -2.375
REMARK SMILES CCCCCCCCCCCCCCCCCC(=O)[O-]
REMARK SMILES IDX 10 1 11 2 12 3 13 4 14 5 15 6 16 7 17 8 18 9 19 10 20 11
REMARK SMILES IDX 9 12 8 13 7 14 6 15 5 16 4 17 3 18 2 19 1 20
REMARK H PARENT
REMARK Flexibility Score: inf
ROOT
ATOM      1  C   UNL     1       4.938   6.936  -0.967  1.00  0.00     0.000 C 
ENDROOT
BRANCH   1   2
ATOM      2  C   UNL     1       3.970   8.091  -0.658  1.00  0.00     0.000 C 
BRANCH   2   3
ATOM      3  C   UNL     1       3.298   8.034   0.731  1.00  0.00     0.000 C 
BRANCH   3   4
ATOM      4  C   UNL     1       2.320   6.861   0.950  1.00  0.00     0.000 C 
BRANCH   4   5
ATOM      5  C   UNL     1       1.007   7.249   1.666  1.00  0.00     0.000 C 
BRANCH   5   6
ATOM      6  C   UNL     1       0.835   6.592   3.049  1.00  0.00     0.000 C 
BRANCH   6   7
ATOM      7  C   UNL     1       0.501   5.088   3.016  1.00  0.00     0.006 C 
BRANCH   7   8
ATOM      8  C   UNL     1       1.716   4.163   3.191  1.00  0.00     0.053 C 
BRANCH   8   9
ATOM      9  C   UNL     1       2.490   4.483   4.431  1.00  0.00     0.041 C 
ATOM     10  O   UNL     1       1.898   4.597   5.536  1.00  0.00    -0.550 OA
ATOM     11  O   UNL     1       3.862   4.693   4.361  1.00  0.00    -0.550 OA
ENDBRANCH   8   9
ENDBRANCH   7   8
ENDBRANCH   6   7
ENDBRANCH   5   6
ENDBRANCH   4   5
ENDBRANCH   3   4
ENDBRANCH   2   3
ENDBRANCH   1   2
BRANCH   1  12
ATOM     12  C   UNL     1       4.417   6.004  -2.076  1.00  0.00     0.000 C 
BRANCH  12  13
ATOM     13  C   UNL     1       4.091   6.758  -3.373  1.00  0.00    -0.000 C 
BRANCH  13  14
ATOM     14  C   UNL     1       2.635   6.551  -3.829  1.00  0.00    -0.000 C 
BRANCH  14  15
ATOM     15  C   UNL     1       1.746   6.001  -2.693  1.00  0.00    -0.000 C 
BRANCH  15  16
ATOM     16  C   UNL     1       0.624   6.964  -2.267  1.00  0.00    -0.000 C 
BRANCH  16  17
ATOM     17  C   UNL     1       0.878   8.412  -2.717  1.00  0.00    -0.000 C 
BRANCH  17  18
ATOM     18  C   UNL     1       0.527   9.448  -1.634  1.00  0.00    -0.000 C 
BRANCH  18  19
ATOM     19  C   UNL     1      -0.758   9.151  -0.839  1.00  0.00    -0.003 C 
ATOM     20  C   UNL     1      -2.033   9.435  -1.632  1.00  0.00     0.004 C 
ENDBRANCH  18  19
ENDBRANCH  17  18
ENDBRANCH  16  17
ENDBRANCH  15  16
ENDBRANCH  14  15
ENDBRANCH  13  14
ENDBRANCH  12  13
ENDBRANCH   1  12
TORSDOF 16
ENDMDL
MODEL 3
REMARK VINA RESULT:    -3.916      2.366      5.917
REMARK INTER + INTRA:          -9.954
REMARK INTER:                  -8.158
REMARK INTRA:                  -1.796
REMARK UNBOUND:                -2.375
REMARK SMILES CCCCCCCCCCCCCCCCCC(=O)[O-]
REMARK SMILES IDX 10 1 11 2 12 3 13 4 14 5 15 6 16 7 17 8 18 9 19 10 20 11
REMARK SMILES IDX 9 12 8 13 7 14 6 15 5 16 4 17 3 18 2 19 1 20
REMARK H PARENT
REMARK Flexibility Score: inf
ROOT
ATOM      1  C   UNL     1       0.926   8.242  -1.842  1.00  0.00     0.000 C 
ENDROOT
BRANCH   1   2
ATOM      2  C   UNL     1       1.247   6.760  -1.577  1.00  0.00     0.000 C 
BRANCH   2   3
ATOM      3  C   UNL     1       1.639   5.937  -2.823  1.00  0.00     0.000 C 
BRANCH   3   4
ATOM      4  C   UNL     1       2.539   6.663  -3.844  1.00  0.00     0.000 C 
BRANCH   4   5
ATOM      5  C   UNL     1       4.053   6.426  -3.644  1.00  0.00     0.000 C 
BRANCH   5   6
ATOM      6  C   UNL     1       4.748   7.516  -2.805  1.00  0.00     0.000 C 
BRANCH   6   7
ATOM      7  C   UNL     1       5.564   6.992  -1.609  1.00  0.00     0.006 C 
BRANCH   7   8
ATOM      8  C   UNL     1       5.175   5.579  -1.144  1.00  0.00     0.053 C 
BRANCH   8   9
ATOM      9  C   UNL     1       5.647   5.297   0.247  1.00  0.00     0.041 C 
ATOM     10  O   UNL     1       5.272   6.024   1.204  1.00  0.00    -0.550 OA
ATOM     11  O   UNL     1       6.531   4.251   0.484  1.00  0.00    -0.550 OA
ENDBRANCH   8   9
ENDBRANCH   7   8
ENDBRANCH   6   7
ENDBRANCH   5   6
ENDBRANCH   4   5
ENDBRANCH   3   4
ENDBRANCH   2   3
ENDBRANCH   1   2
BRANCH   1  12
ATOM     12  C   UNL     1      -0.580   8.546  -1.767  1.00  0.00     0.000 C 
BRANCH  12  13
ATOM     13  C   UNL     1      -1.012   9.046  -0.380  1.00  0.00    -0.000 C 
BRANCH  13  14
ATOM     14  C   UNL     1       0.124   9.765   0.370  1.00  0.00    -0.000 C 
BRANCH  14  15
ATOM     15  C   UNL     1       0.110   9.451   1.881  1.00  0.00    -0.000 C 
BRANCH  15  16
ATOM     16  C   UNL     1      -0.309   8.006   2.207  1.00  0.00    -0.000 C 
BRANCH  16  17
ATOM     17  C   UNL     1       0.892   7.081   2.463  1.00  0.00    -0.000 C 
BRANCH  17  18
ATOM     18  C   UNL     1       0.599   5.609   2.123  1.00  0.00    -0.000 C 
BRANCH  18  19
ATOM     19  C   UNL     1      -0.388   4.905   3.072  1.00  0.00    -0.003 C 
ATOM     20  C   UNL     1      -0.584   3.425   2.744  1.00  0.00     0.004 C 
ENDBRANCH  18  19
ENDBRANCH  17  18
ENDBRANCH  16  17
ENDBRANCH  15  16
ENDBRANCH  14  15
ENDBRANCH  13  14
ENDBRANCH  12  13
ENDBRANCH   1  12
TORSDOF 16
ENDMDL
MODEL 4
REMARK VINA RESULT:    -3.887      1.489      2.537
REMARK INTER + INTRA:          -9.899
REMARK INTER:                  -7.555
REMARK INTRA:                  -2.344
REMARK UNBOUND:                -2.375
REMARK SMILES CCCCCCCCCCCCCCCCCC(=O)[O-]
REMARK SMILES IDX 10 1 11 2 12 3 13 4 14 5 15 6 16 7 17 8 18 9 19 10 20 11
REMARK SMILES IDX 9 12 8 13 7 14 6 15 5 16 4 17 3 18 2 19 1 20
REMARK H PARENT
REMARK Flexibility Score: inf
ROOT
ATOM      1  C   UNL     1       0.671   7.537  -0.279  1.00  0.00     0.000 C 
ENDROOT
BRANCH   1   2
ATOM      2  C   UNL     1      -0.228   8.710   0.148  1.00  0.00     0.000 C 
BRANCH   2   3
ATOM      3  C   UNL     1      -0.174   9.068   1.649  1.00  0.00     0.000 C 
BRANCH   3   4
ATOM      4  C   UNL     1       0.459   8.002   2.566  1.00  0.00     0.000 C 
BRANCH   4   5
ATOM      5  C   UNL     1      -0.559   7.151   3.358  1.00  0.00     0.000 C 
BRANCH   5   6
ATOM      6  C   UNL     1      -0.404   5.634   3.142  1.00  0.00     0.000 C 
BRANCH   6   7
ATOM      7  C   UNL     1       0.939   5.201   2.525  1.00  0.00     0.006 C 
BRANCH   7   8
ATOM      8  C   UNL     1       1.718   4.169   3.357  1.00  0.00     0.053 C 
BRANCH   8   9
ATOM      9  C   UNL     1       2.051   4.687   4.722  1.00  0.00     0.041 C 
ATOM     10  O   UNL     1       1.466   4.223   5.735  1.00  0.00    -0.550 OA
ATOM     11  O   UNL     1       2.982   5.707   4.871  1.00  0.00    -0.550 OA
ENDBRANCH   8   9
ENDBRANCH   7   8
ENDBRANCH   6   7
ENDBRANCH   5   6
ENDBRANCH   4   5
ENDBRANCH   3   4
ENDBRANCH   2   3
ENDBRANCH   1   2
BRANCH   1  12
ATOM     12  C   UNL     1       0.464   7.135  -1.749  1.00  0.00     0.000 C 
BRANCH  12  13
ATOM     13  C   UNL     1       0.728   8.296  -2.720  1.00  0.00    -0.000 C 
BRANCH  13  14
ATOM     14  C   UNL     1       1.841   7.977  -3.735  1.00  0.00    -0.000 C 
BRANCH  14  15
ATOM     15  C   UNL     1       2.373   6.537  -3.579  1.00  0.00    -0.000 C 
BRANCH  15  16
ATOM     16  C   UNL     1       3.909   6.447  -3.540  1.00  0.00    -0.000 C 
BRANCH  16  17
ATOM     17  C   UNL     1       4.441   5.927  -2.195  1.00  0.00    -0.000 C 
BRANCH  17  18
ATOM     18  C   UNL     1       4.247   6.930  -1.044  1.00  0.00    -0.000 C 
BRANCH  18  19
ATOM     19  C   UNL     1       4.751   8.357  -1.331  1.00  0.00    -0.003 C 
ATOM     20  C   UNL     1       3.789   9.441  -0.848  1.00  0.00     0.004 C 
ENDBRANCH  18  19
ENDBRANCH  17  18
ENDBRANCH  16  17
ENDBRANCH  15  16
ENDBRANCH  14  15
ENDBRANCH  13  14
ENDBRANCH  12  13
ENDBRANCH   1  12
TORSDOF 16
ENDMDL
MODEL 5
REMARK VINA RESULT:    -3.860      1.131      2.304
REMARK INTER + INTRA:          -9.845
REMARK INTER:                  -7.414
REMARK INTRA:                  -2.431
REMARK UNBOUND:                -2.375
REMARK SMILES CCCCCCCCCCCCCCCCCC(=O)[O-]
REMARK SMILES IDX 10 1 11 2 12 3 13 4 14 5 15 6 16 7 17 8 18 9 19 10 20 11
REMARK SMILES IDX 9 12 8 13 7 14 6 15 5 16 4 17 3 18 2 19 1 20
REMARK H PARENT
REMARK Flexibility Score: inf
ROOT
ATOM      1  C   UNL     1       0.038   7.500  -1.862  1.00  0.00     0.000 C 
ENDROOT
BRANCH   1   2
ATOM      2  C   UNL     1      -0.675   8.863  -1.838  1.00  0.00     0.000 C 
BRANCH   2   3
ATOM      3  C   UNL     1      -0.531   9.659  -0.522  1.00  0.00     0.000 C 
BRANCH   3   4
ATOM      4  C   UNL     1      -0.709   8.841   0.774  1.00  0.00     0.000 C 
BRANCH   4   5
ATOM      5  C   UNL     1       0.611   8.493   1.497  1.00  0.00     0.000 C 
BRANCH   5   6
ATOM      6  C   UNL     1       0.688   7.033   1.983  1.00  0.00     0.000 C 
BRANCH   6   7
ATOM      7  C   UNL     1      -0.303   6.670   3.105  1.00  0.00     0.006 C 
BRANCH   7   8
ATOM      8  C   UNL     1       0.080   5.417   3.910  1.00  0.00     0.053 C 
BRANCH   8   9
ATOM      9  C   UNL     1       0.434   4.267   3.021  1.00  0.00     0.041 C 
ATOM     10  O   UNL     1       1.634   3.909   2.895  1.00  0.00    -0.550 OA
ATOM     11  O   UNL     1      -0.558   3.611   2.302  1.00  0.00    -0.550 OA
ENDBRANCH   8   9
ENDBRANCH   7   8
ENDBRANCH   6   7
ENDBRANCH   5   6
ENDBRANCH   4   5
ENDBRANCH   3   4
ENDBRANCH   2   3
ENDBRANCH   1   2
BRANCH   1  12
ATOM     12  C   UNL     1       1.283   7.497  -2.766  1.00  0.00     0.000 C 
BRANCH  12  13
ATOM     13  C   UNL     1       1.528   8.858  -3.436  1.00  0.00    -0.000 C 
BRANCH  13  14
ATOM     14  C   UNL     1       2.856   9.502  -2.998  1.00  0.00    -0.000 C 
BRANCH  14  15
ATOM     15  C   UNL     1       2.988   9.572  -1.461  1.00  0.00    -0.000 C 
BRANCH  15  16
ATOM     16  C   UNL     1       4.229   8.845  -0.915  1.00  0.00    -0.000 C 
BRANCH  16  17
ATOM     17  C   UNL     1       3.884   7.516  -0.224  1.00  0.00    -0.000 C 
BRANCH  17  18
ATOM     18  C   UNL     1       4.400   6.287  -0.995  1.00  0.00    -0.000 C 
BRANCH  18  19
ATOM     19  C   UNL     1       5.356   6.602  -2.160  1.00  0.00    -0.003 C 
ATOM     20  C   UNL     1       4.757   6.289  -3.530  1.00  0.00     0.004 C 
ENDBRANCH  18  19
ENDBRANCH  17  18
ENDBRANCH  16  17
ENDBRANCH  15  16
ENDBRANCH  14  15
ENDBRANCH  13  14
ENDBRANCH  12  13
ENDBRANCH   1  12
TORSDOF 16
ENDMDL
MODEL 6
REMARK VINA RESULT:    -3.821      0.949      2.258
REMARK INTER + INTRA:          -9.770
REMARK INTER:                  -6.750
REMARK INTRA:                  -3.020
REMARK UNBOUND:                -2.375
REMARK SMILES CCCCCCCCCCCCCCCCCC(=O)[O-]
REMARK SMILES IDX 10 1 11 2 12 3 13 4 14 5 15 6 16 7 17 8 18 9 19 10 20 11
REMARK SMILES IDX 9 12 8 13 7 14 6 15 5 16 4 17 3 18 2 19 1 20
REMARK H PARENT
REMARK Flexibility Score: inf
ROOT
ATOM      1  C   UNL     1       1.763   6.009  -2.933  1.00  0.00     0.000 C 
ENDROOT
BRANCH   1   2
ATOM      2  C   UNL     1       1.088   6.909  -1.884  1.00  0.00     0.000 C 
BRANCH   2   3
ATOM      3  C   UNL     1       0.681   8.312  -2.385  1.00  0.00     0.000 C 
BRANCH   3   4
ATOM      4  C   UNL     1       0.235   9.306  -1.293  1.00  0.00     0.000 C 
BRANCH   4   5
ATOM      5  C   UNL     1      -0.458   8.651  -0.076  1.00  0.00     0.000 C 
BRANCH   5   6
ATOM      6  C   UNL     1       0.403   8.645   1.201  1.00  0.00     0.000 C 
BRANCH   6   7
ATOM      7  C   UNL     1       0.077   7.516   2.198  1.00  0.00     0.006 C 
BRANCH   7   8
ATOM      8  C   UNL     1       0.633   6.139   1.802  1.00  0.00     0.053 C 
BRANCH   8   9
ATOM      9  C   UNL     1       0.314   5.092   2.823  1.00  0.00     0.041 C 
ATOM     10  O   UNL     1       0.386   3.872   2.523  1.00  0.00    -0.550 OA
ATOM     11  O   UNL     1      -0.096   5.464   4.097  1.00  0.00    -0.550 OA
ENDBRANCH   8   9
ENDBRANCH   7   8
ENDBRANCH   6   7
ENDBRANCH   5   6
ENDBRANCH   4   5
ENDBRANCH   3   4
ENDBRANCH   2   3
ENDBRANCH   1   2
BRANCH   1  12
ATOM     12  C   UNL     1       2.852   6.743  -3.734  1.00  0.00     0.000 C 
BRANCH  12  13
ATOM     13  C   UNL     1       4.270   6.302  -3.342  1.00  0.00    -0.000 C 
BRANCH  13  14
ATOM     14  C   UNL     1       5.196   7.493  -3.034  1.00  0.00    -0.000 C 
BRANCH  14  15
ATOM     15  C   UNL     1       4.403   8.760  -2.650  1.00  0.00    -0.000 C 
BRANCH  15  16
ATOM     16  C   UNL     1       4.742   9.300  -1.249  1.00  0.00    -0.000 C 
BRANCH  16  17
ATOM     17  C   UNL     1       3.681   8.936  -0.198  1.00  0.00    -0.000 C 
BRANCH  17  18
ATOM     18  C   UNL     1       4.175   7.889   0.817  1.00  0.00    -0.000 C 
BRANCH  18  19
ATOM     19  C   UNL     1       4.041   6.425   0.360  1.00  0.00    -0.003 C 
ATOM     20  C   UNL     1       5.385   5.706   0.248  1.00  0.00     0.004 C 
ENDBRANCH  18  19
ENDBRANCH  17  18
ENDBRANCH  16  17
ENDBRANCH  15  16
ENDBRANCH  14  15
ENDBRANCH  13  14
ENDBRANCH  12  13
ENDBRANCH   1  12
TORSDOF 16
ENDMDL
MODEL 7
REMARK VINA RESULT:    -3.805      1.458      2.532
REMARK INTER + INTRA:          -9.739
REMARK INTER:                  -7.463
REMARK INTRA:                  -2.276
REMARK UNBOUND:                -2.375
REMARK SMILES CCCCCCCCCCCCCCCCCC(=O)[O-]
REMARK SMILES IDX 10 1 11 2 12 3 13 4 14 5 15 6 16 7 17 8 18 9 19 10 20 11
REMARK SMILES IDX 9 12 8 13 7 14 6 15 5 16 4 17 3 18 2 19 1 20
REMARK H PARENT
REMARK Flexibility Score: inf
ROOT
ATOM      1  C   UNL     1       0.406   7.117  -1.867  1.00  0.00     0.000 C 
ENDROOT
BRANCH   1   2
ATOM      2  C   UNL     1       0.888   7.130  -0.407  1.00  0.00     0.000 C 
BRANCH   2   3
ATOM      3  C   UNL     1       0.610   8.438   0.367  1.00  0.00     0.000 C 
BRANCH   3   4
ATOM      4  C   UNL     1       0.721   8.340   1.902  1.00  0.00     0.000 C 
BRANCH   4   5
ATOM      5  C   UNL     1      -0.457   7.607   2.584  1.00  0.00     0.000 C 
BRANCH   5   6
ATOM      6  C   UNL     1      -0.029   6.393   3.430  1.00  0.00     0.000 C 
BRANCH   6   7
ATOM      7  C   UNL     1       0.171   5.088   2.637  1.00  0.00     0.006 C 
BRANCH   7   8
ATOM      8  C   UNL     1       1.110   4.073   3.310  1.00  0.00     0.053 C 
BRANCH   8   9
ATOM      9  C   UNL     1       1.018   4.129   4.803  1.00  0.00     0.041 C 
ATOM     10  O   UNL     1       1.960   4.620   5.477  1.00  0.00    -0.550 OA
ATOM     11  O   UNL     1      -0.094   3.605   5.452  1.00  0.00    -0.550 OA
ENDBRANCH   8   9
ENDBRANCH   7   8
ENDBRANCH   6   7
ENDBRANCH   5   6
ENDBRANCH   4   5
ENDBRANCH   3   4
ENDBRANCH   2   3
ENDBRANCH   1   2
BRANCH   1  12
ATOM     12  C   UNL     1       1.375   6.379  -2.806  1.00  0.00     0.000 C 
BRANCH  12  13
ATOM     13  C   UNL     1       2.132   7.335  -3.741  1.00  0.00    -0.000 C 
BRANCH  13  14
ATOM     14  C   UNL     1       1.538   8.755  -3.743  1.00  0.00    -0.000 C 
BRANCH  14  15
ATOM     15  C   UNL     1       2.462   9.770  -3.037  1.00  0.00    -0.000 C 
BRANCH  15  16
ATOM     16  C   UNL     1       3.830   9.188  -2.640  1.00  0.00    -0.000 C 
BRANCH  16  17
ATOM     17  C   UNL     1       3.998   9.045  -1.119  1.00  0.00    -0.000 C 
BRANCH  17  18
ATOM     18  C   UNL     1       5.003   7.946  -0.727  1.00  0.00    -0.000 C 
BRANCH  18  19
ATOM     19  C   UNL     1       4.437   6.514  -0.731  1.00  0.00    -0.003 C 
ATOM     20  C   UNL     1       5.034   5.637  -1.830  1.00  0.00     0.004 C 
ENDBRANCH  18  19
ENDBRANCH  17  18
ENDBRANCH  16  17
ENDBRANCH  15  16
ENDBRANCH  14  15
ENDBRANCH  13  14
ENDBRANCH  12  13
ENDBRANCH   1  12
TORSDOF 16
ENDMDL
MODEL 8
REMARK VINA RESULT:    -3.680      2.578      5.571
REMARK INTER + INTRA:          -9.497
REMARK INTER:                  -6.875
REMARK INTRA:                  -2.622
REMARK UNBOUND:                -2.375
REMARK SMILES CCCCCCCCCCCCCCCCCC(=O)[O-]
REMARK SMILES IDX 10 1 11 2 12 3 13 4 14 5 15 6 16 7 17 8 18 9 19 10 20 11
REMARK SMILES IDX 9 12 8 13 7 14 6 15 5 16 4 17 3 18 2 19 1 20
REMARK H PARENT
REMARK Flexibility Score: inf
ROOT
ATOM      1  C   UNL     1      -0.017   7.958  -1.875  1.00  0.00     0.000 C 
ENDROOT
BRANCH   1   2
ATOM      2  C   UNL     1       0.645   9.003  -2.789  1.00  0.00     0.000 C 
BRANCH   2   3
ATOM      3  C   UNL     1       1.727   8.452  -3.744  1.00  0.00     0.000 C 
BRANCH   3   4
ATOM      4  C   UNL     1       1.890   6.919  -3.751  1.00  0.00     0.000 C 
BRANCH   4   5
ATOM      5  C   UNL     1       3.092   6.400  -2.930  1.00  0.00     0.000 C 
BRANCH   5   6
ATOM      6  C   UNL     1       4.099   7.498  -2.538  1.00  0.00     0.000 C 
BRANCH   6   7
ATOM      7  C   UNL     1       5.031   7.135  -1.367  1.00  0.00     0.006 C 
BRANCH   7   8
ATOM      8  C   UNL     1       5.140   5.627  -1.085  1.00  0.00     0.053 C 
BRANCH   8   9
ATOM      9  C   UNL     1       5.757   5.350   0.250  1.00  0.00     0.041 C 
ATOM     10  O   UNL     1       6.281   4.230   0.485  1.00  0.00    -0.550 OA
ATOM     11  O   UNL     1       5.721   6.316   1.248  1.00  0.00    -0.550 OA
ENDBRANCH   8   9
ENDBRANCH   7   8
ENDBRANCH   6   7
ENDBRANCH   5   6
ENDBRANCH   4   5
ENDBRANCH   3   4
ENDBRANCH   2   3
ENDBRANCH   1   2
BRANCH   1  12
ATOM     12  C   UNL     1       0.445   8.070  -0.412  1.00  0.00     0.000 C 
BRANCH  12  13
ATOM     13  C   UNL     1       1.053   6.762   0.115  1.00  0.00    -0.000 C 
BRANCH  13  14
ATOM     14  C   UNL     1       2.232   7.002   1.077  1.00  0.00    -0.000 C 
BRANCH  14  15
ATOM     15  C   UNL     1       2.220   6.018   2.266  1.00  0.00    -0.000 C 
BRANCH  15  16
ATOM     16  C   UNL     1       0.812   5.522   2.642  1.00  0.00    -0.000 C 
BRANCH  16  17
ATOM     17  C   UNL     1       0.132   6.407   3.699  1.00  0.00    -0.000 C 
BRANCH  17  18
ATOM     18  C   UNL     1      -0.941   7.336   3.103  1.00  0.00    -0.000 C 
BRANCH  18  19
ATOM     19  C   UNL     1      -0.669   8.842   3.279  1.00  0.00    -0.003 C 
ATOM     20  C   UNL     1       0.748   9.144   3.764  1.00  0.00     0.004 C 
ENDBRANCH  18  19
ENDBRANCH  17  18
ENDBRANCH  16  17
ENDBRANCH  15  16
ENDBRANCH  14  15
ENDBRANCH  13  14
ENDBRANCH  12  13
ENDBRANCH   1  12
TORSDOF 16
ENDMDL
MODEL 9
REMARK VINA RESULT:    -3.671      2.748      6.105
REMARK INTER + INTRA:          -9.479
REMARK INTER:                  -7.823
REMARK INTRA:                  -1.656
REMARK UNBOUND:                -2.375
REMARK SMILES CCCCCCCCCCCCCCCCCC(=O)[O-]
REMARK SMILES IDX 10 1 11 2 12 3 13 4 14 5 15 6 16 7 17 8 18 9 19 10 20 11
REMARK SMILES IDX 9 12 8 13 7 14 6 15 5 16 4 17 3 18 2 19 1 20
REMARK H PARENT
REMARK Flexibility Score: inf
ROOT
ATOM      1  C   UNL     1       0.721   7.842  -2.334  1.00  0.00     0.000 C 
ENDROOT
BRANCH   1   2
ATOM      2  C   UNL     1       1.750   7.783  -3.476  1.00  0.00     0.000 C 
BRANCH   2   3
ATOM      3  C   UNL     1       2.381   6.396  -3.722  1.00  0.00     0.000 C 
BRANCH   3   4
ATOM      4  C   UNL     1       3.923   6.361  -3.752  1.00  0.00     0.000 C 
BRANCH   4   5
ATOM      5  C   UNL     1       4.598   6.812  -2.437  1.00  0.00     0.000 C 
BRANCH   5   6
ATOM      6  C   UNL     1       4.674   5.707  -1.366  1.00  0.00     0.000 C 
BRANCH   6   7
ATOM      7  C   UNL     1       5.611   6.014  -0.182  1.00  0.00     0.006 C 
BRANCH   7   8
ATOM      8  C   UNL     1       5.093   5.526   1.181  1.00  0.00     0.053 C 
BRANCH   8   9
ATOM      9  C   UNL     1       6.013   4.523   1.802  1.00  0.00     0.041 C 
ATOM     10  O   UNL     1       6.366   4.645   3.004  1.00  0.00    -0.550 OA
ATOM     11  O   UNL     1       6.510   3.470   1.043  1.00  0.00    -0.550 OA
ENDBRANCH   8   9
ENDBRANCH   7   8
ENDBRANCH   6   7
ENDBRANCH   5   6
ENDBRANCH   4   5
ENDBRANCH   3   4
ENDBRANCH   2   3
ENDBRANCH   1   2
BRANCH   1  12
ATOM     12  C   UNL     1       1.003   6.812  -1.226  1.00  0.00     0.000 C 
BRANCH  12  13
ATOM     13  C   UNL     1       1.284   7.470   0.133  1.00  0.00    -0.000 C 
BRANCH  13  14
ATOM     14  C   UNL     1       1.526   6.440   1.251  1.00  0.00    -0.000 C 
BRANCH  14  15
ATOM     15  C   UNL     1       0.892   6.877   2.589  1.00  0.00    -0.000 C 
BRANCH  15  16
ATOM     16  C   UNL     1      -0.307   6.012   3.015  1.00  0.00    -0.000 C 
BRANCH  16  17
ATOM     17  C   UNL     1      -0.128   4.528   2.658  1.00  0.00    -0.000 C 
BRANCH  17  18
ATOM     18  C   UNL     1      -0.533   3.582   3.803  1.00  0.00    -0.000 C 
BRANCH  18  19
ATOM     19  C   UNL     1       0.457   3.524   4.982  1.00  0.00    -0.003 C 
ATOM     20  C   UNL     1      -0.061   4.229   6.235  1.00  0.00     0.004 C 
ENDBRANCH  18  19
ENDBRANCH  17  18
ENDBRANCH  16  17
ENDBRANCH  15  16
ENDBRANCH  14  15
ENDBRANCH  13  14
ENDBRANCH  12  13
ENDBRANCH   1  12
TORSDOF 16
ENDMDL
