MODEL 1
REMARK VINA RESULT:    -3.290      0.000      0.000
REMARK INTER + INTRA:          -8.860
REMARK INTER:                  -6.368
REMARK INTRA:                  -2.492
REMARK UNBOUND:                -2.492
REMARK SMILES CCCCCCCCCCCCCCCCCC(=O)[O-]
REMARK SMILES IDX 10 1 11 2 12 3 13 4 14 5 15 6 16 7 17 8 18 9 19 10 20 11
REMARK SMILES IDX 9 12 8 13 7 14 6 15 5 16 4 17 3 18 2 19 1 20
REMARK H PARENT
REMARK Flexibility Score: inf
ROOT
ATOM      1  C   UNL     1     -32.211   3.535 -38.335  1.00  0.00     0.000 C 
ENDROOT
BRANCH   1   2
ATOM      2  C   UNL     1     -31.700   3.434 -39.781  1.00  0.00     0.000 C 
BRANCH   2   3
ATOM      3  C   UNL     1     -30.495   4.361 -40.003  1.00  0.00     0.000 C 
BRANCH   3   4
ATOM      4  C   UNL     1     -29.230   3.863 -39.273  1.00  0.00     0.000 C 
BRANCH   4   5
ATOM      5  C   UNL     1     -28.617   4.907 -38.324  1.00  0.00     0.000 C 
BRANCH   5   6
ATOM      6  C   UNL     1     -27.460   4.345 -37.483  1.00  0.00     0.000 C 
BRANCH   6   7
ATOM      7  C   UNL     1     -26.768   5.413 -36.617  1.00  0.00     0.006 C 
BRANCH   7   8
ATOM      8  C   UNL     1     -26.855   5.142 -35.105  1.00  0.00     0.053 C 
BRANCH   8   9
ATOM      9  C   UNL     1     -25.530   4.776 -34.509  1.00  0.00     0.041 C 
ATOM     10  O   UNL     1     -24.861   3.823 -34.989  1.00  0.00    -0.550 OA
ATOM     11  O   UNL     1     -25.047   5.464 -33.401  1.00  0.00    -0.550 OA
ENDBRANCH   8   9
ENDBRANCH   7   8
ENDBRANCH   6   7
ENDBRANCH   5   6
ENDBRANCH   4   5
ENDBRANCH   3   4
ENDBRANCH   2   3
ENDBRANCH   1   2
BRANCH   1  12
ATOM     12  C   UNL     1     -33.147   2.375 -37.953  1.00  0.00     0.000 C 
BRANCH  12  13
ATOM     13  C   UNL     1     -33.120   1.231 -38.982  1.00  0.00    -0.000 C 
BRANCH  13  14
ATOM     14  C   UNL     1     -32.512  -0.061 -38.411  1.00  0.00    -0.000 C 
BRANCH  14  15
ATOM     15  C   UNL     1     -30.981  -0.096 -38.520  1.00  0.00    -0.000 C 
BRANCH  15  16
ATOM     16  C   UNL     1     -30.367  -0.901 -37.369  1.00  0.00    -0.000 C 
BRANCH  16  17
ATOM     17  C   UNL     1     -29.303  -0.079 -36.626  1.00  0.00    -0.000 C 
BRANCH  17  18
ATOM     18  C   UNL     1     -29.606   1.433 -36.654  1.00  0.00    -0.000 C 
BRANCH  18  19
ATOM     19  C   UNL     1     -30.365   1.932 -35.413  1.00  0.00    -0.003 C 
ATOM     20  C   UNL     1     -30.268   3.444 -35.220  1.00  0.00     0.004 C 
ENDBRANCH  18  19
ENDBRANCH  17  18
ENDBRANCH  16  17
ENDBRANCH  15  16
ENDBRANCH  14  15
ENDBRANCH  13  14
ENDBRANCH  12  13
ENDBRANCH   1  12
TORSDOF 16
ENDMDL
MODEL 2
REMARK VINA RESULT:    -3.283      6.403     10.002
REMARK INTER + INTRA:          -8.846
REMARK INTER:                  -5.946
REMARK INTRA:                  -2.901
REMARK UNBOUND:                -2.492
REMARK SMILES CCCCCCCCCCCCCCCCCC(=O)[O-]
REMARK SMILES IDX 10 1 11 2 12 3 13 4 14 5 15 6 16 7 17 8 18 9 19 10 20 11
REMARK SMILES IDX 9 12 8 13 7 14 6 15 5 16 4 17 3 18 2 19 1 20
REMARK H PARENT
REMARK Flexibility Score: inf
ROOT
ATOM      1  C   UNL     1     -26.459   8.090 -27.033  1.00  0.00     0.000 C 
ENDROOT
BRANCH   1   2
ATOM      2  C   UNL     1     -24.940   8.112 -27.264  1.00  0.00     0.000 C 
BRANCH   2   3
ATOM      3  C   UNL     1     -24.612   8.112 -28.765  1.00  0.00     0.000 C 
BRANCH   3   4
ATOM      4  C   UNL     1     -23.686   6.944 -29.163  1.00  0.00     0.000 C 
BRANCH   4   5
ATOM      5  C   UNL     1     -23.913   6.442 -30.599  1.00  0.00     0.000 C 
BRANCH   5   6
ATOM      6  C   UNL     1     -23.671   4.932 -30.751  1.00  0.00     0.000 C 
BRANCH   6   7
ATOM      7  C   UNL     1     -24.350   4.333 -31.995  1.00  0.00     0.006 C 
BRANCH   7   8
ATOM      8  C   UNL     1     -24.711   5.373 -33.070  1.00  0.00     0.053 C 
BRANCH   8   9
ATOM      9  C   UNL     1     -25.791   4.894 -33.993  1.00  0.00     0.041 C 
ATOM     10  O   UNL     1     -26.115   3.678 -34.011  1.00  0.00    -0.550 OA
ATOM     11  O   UNL     1     -26.417   5.785 -34.858  1.00  0.00    -0.550 OA
ENDBRANCH   8   9
ENDBRANCH   7   8
ENDBRANCH   6   7
ENDBRANCH   5   6
ENDBRANCH   4   5
ENDBRANCH   3   4
ENDBRANCH   2   3
ENDBRANCH   1   2
BRANCH   1  12
ATOM     12  C   UNL     1     -27.260   8.085 -28.346  1.00  0.00     0.000 C 
BRANCH  12  13
ATOM     13  C   UNL     1     -28.529   7.218 -28.261  1.00  0.00    -0.000 C 
BRANCH  13  14
ATOM     14  C   UNL     1     -28.735   6.351 -29.513  1.00  0.00    -0.000 C 
BRANCH  14  15
ATOM     15  C   UNL     1     -27.423   5.760 -30.049  1.00  0.00    -0.000 C 
BRANCH  15  16
ATOM     16  C   UNL     1     -27.427   4.230 -29.945  1.00  0.00    -0.000 C 
BRANCH  16  17
ATOM     17  C   UNL     1     -27.106   3.772 -28.514  1.00  0.00    -0.000 C 
BRANCH  17  18
ATOM     18  C   UNL     1     -25.917   4.545 -27.906  1.00  0.00    -0.000 C 
BRANCH  18  19
ATOM     19  C   UNL     1     -25.297   3.853 -26.680  1.00  0.00    -0.003 C 
ATOM     20  C   UNL     1     -25.044   4.811 -25.517  1.00  0.00     0.004 C 
ENDBRANCH  18  19
ENDBRANCH  17  18
ENDBRANCH  16  17
ENDBRANCH  15  16
ENDBRANCH  14  15
ENDBRANCH  13  14
ENDBRANCH  12  13
ENDBRANCH   1  12
TORSDOF 16
ENDMDL
MODEL 3
REMARK VINA RESULT:    -3.258      6.507     10.517
REMARK INTER + INTRA:          -8.796
REMARK INTER:                  -6.177
REMARK INTRA:                  -2.619
REMARK UNBOUND:                -2.492
REMARK SMILES CCCCCCCCCCCCCCCCCC(=O)[O-]
REMARK SMILES IDX 10 1 11 2 12 3 13 4 14 5 15 6 16 7 17 8 18 9 19 10 20 11
REMARK SMILES IDX 9 12 8 13 7 14 6 15 5 16 4 17 3 18 2 19 1 20
REMARK H PARENT
REMARK Flexibility Score: inf
ROOT
ATOM      1  C   UNL     1     -25.763   3.873 -28.751  1.00  0.00     0.000 C 
ENDROOT
BRANCH   1   2
ATOM      2  C   UNL     1     -24.262   3.604 -28.942  1.00  0.00     0.000 C 
BRANCH   2   3
ATOM      3  C   UNL     1     -23.858   3.768 -30.415  1.00  0.00     0.000 C 
BRANCH   3   4
ATOM      4  C   UNL     1     -23.422   5.211 -30.746  1.00  0.00     0.000 C 
BRANCH   4   5
ATOM      5  C   UNL     1     -24.287   5.882 -31.827  1.00  0.00     0.000 C 
BRANCH   5   6
ATOM      6  C   UNL     1     -25.438   4.987 -32.313  1.00  0.00     0.000 C 
BRANCH   6   7
ATOM      7  C   UNL     1     -25.355   4.657 -33.814  1.00  0.00     0.006 C 
BRANCH   7   8
ATOM      8  C   UNL     1     -24.070   3.913 -34.219  1.00  0.00     0.053 C 
BRANCH   8   9
ATOM      9  C   UNL     1     -24.210   3.193 -35.525  1.00  0.00     0.041 C 
ATOM     10  O   UNL     1     -23.396   3.413 -36.460  1.00  0.00    -0.550 OA
ATOM     11  O   UNL     1     -25.259   2.303 -35.724  1.00  0.00    -0.550 OA
ENDBRANCH   8   9
ENDBRANCH   7   8
ENDBRANCH   6   7
ENDBRANCH   5   6
ENDBRANCH   4   5
ENDBRANCH   3   4
ENDBRANCH   2   3
ENDBRANCH   1   2
BRANCH   1  12
ATOM     12  C   UNL     1     -26.099   4.397 -27.345  1.00  0.00     0.000 C 
BRANCH  12  13
ATOM     13  C   UNL     1     -24.857   4.503 -26.441  1.00  0.00    -0.000 C 
BRANCH  13  14
ATOM     14  C   UNL     1     -24.583   5.945 -25.984  1.00  0.00    -0.000 C 
BRANCH  14  15
ATOM     15  C   UNL     1     -23.769   6.749 -27.009  1.00  0.00    -0.000 C 
BRANCH  15  16
ATOM     16  C   UNL     1     -24.503   8.035 -27.404  1.00  0.00    -0.000 C 
BRANCH  16  17
ATOM     17  C   UNL     1     -24.752   8.086 -28.920  1.00  0.00    -0.000 C 
BRANCH  17  18
ATOM     18  C   UNL     1     -26.230   7.830 -29.279  1.00  0.00    -0.000 C 
BRANCH  18  19
ATOM     19  C   UNL     1     -27.199   8.077 -28.110  1.00  0.00    -0.003 C 
ATOM     20  C   UNL     1     -28.436   7.182 -28.159  1.00  0.00     0.004 C 
ENDBRANCH  18  19
ENDBRANCH  17  18
ENDBRANCH  16  17
ENDBRANCH  15  16
ENDBRANCH  14  15
ENDBRANCH  13  14
ENDBRANCH  12  13
ENDBRANCH   1  12
TORSDOF 16
ENDMDL
MODEL 4
REMARK VINA RESULT:    -3.244      5.985     10.515
REMARK INTER + INTRA:          -8.770
REMARK INTER:                  -6.356
REMARK INTRA:                  -2.414
REMARK UNBOUND:                -2.492
REMARK SMILES CCCCCCCCCCCCCCCCCC(=O)[O-]
REMARK SMILES IDX 10 1 11 2 12 3 13 4 14 5 15 6 16 7 17 8 18 9 19 10 20 11
REMARK SMILES IDX 9 12 8 13 7 14 6 15 5 16 4 17 3 18 2 19 1 20
REMARK H PARENT
REMARK Flexibility Score: inf
ROOT
ATOM      1  C   UNL     1     -25.910   4.026 -26.917  1.00  0.00     0.000 C 
ENDROOT
BRANCH   1   2
ATOM      2  C   UNL     1     -25.689   5.293 -26.075  1.00  0.00     0.000 C 
BRANCH   2   3
ATOM      3  C   UNL     1     -24.193   5.529 -25.819  1.00  0.00     0.000 C 
BRANCH   3   4
ATOM      4  C   UNL     1     -23.635   6.705 -26.648  1.00  0.00     0.000 C 
BRANCH   4   5
ATOM      5  C   UNL     1     -24.707   7.725 -27.068  1.00  0.00     0.000 C 
BRANCH   5   6
ATOM      6  C   UNL     1     -24.679   8.038 -28.572  1.00  0.00     0.000 C 
BRANCH   6   7
ATOM      7  C   UNL     1     -26.082   8.125 -29.198  1.00  0.00     0.006 C 
BRANCH   7   8
ATOM      8  C   UNL     1     -27.225   7.831 -28.210  1.00  0.00     0.053 C 
BRANCH   8   9
ATOM      9  C   UNL     1     -28.296   6.971 -28.809  1.00  0.00     0.041 C 
ATOM     10  O   UNL     1     -28.118   6.427 -29.930  1.00  0.00    -0.550 OA
ATOM     11  O   UNL     1     -29.505   6.796 -28.145  1.00  0.00    -0.550 OA
ENDBRANCH   8   9
ENDBRANCH   7   8
ENDBRANCH   6   7
ENDBRANCH   5   6
ENDBRANCH   4   5
ENDBRANCH   3   4
ENDBRANCH   2   3
ENDBRANCH   1   2
BRANCH   1  12
ATOM     12  C   UNL     1     -25.774   4.284 -28.427  1.00  0.00     0.000 C 
BRANCH  12  13
ATOM     13  C   UNL     1     -24.464   3.722 -29.007  1.00  0.00    -0.000 C 
BRANCH  13  14
ATOM     14  C   UNL     1     -23.756   4.720 -29.939  1.00  0.00    -0.000 C 
BRANCH  14  15
ATOM     15  C   UNL     1     -24.698   5.321 -30.991  1.00  0.00    -0.000 C 
BRANCH  15  16
ATOM     16  C   UNL     1     -23.962   5.558 -32.315  1.00  0.00    -0.000 C 
BRANCH  16  17
ATOM     17  C   UNL     1     -24.530   4.667 -33.431  1.00  0.00    -0.000 C 
BRANCH  17  18
ATOM     18  C   UNL     1     -26.072   4.679 -33.461  1.00  0.00    -0.000 C 
BRANCH  18  19
ATOM     19  C   UNL     1     -26.658   5.346 -34.718  1.00  0.00    -0.003 C 
ATOM     20  C   UNL     1     -26.310   4.603 -36.006  1.00  0.00     0.004 C 
ENDBRANCH  18  19
ENDBRANCH  17  18
ENDBRANCH  16  17
ENDBRANCH  15  16
ENDBRANCH  14  15
ENDBRANCH  13  14
ENDBRANCH  12  13
ENDBRANCH   1  12
TORSDOF 16
ENDMDL
MODEL 5
REMARK VINA RESULT:    -3.211      6.550      9.510
REMARK INTER + INTRA:          -8.706
REMARK INTER:                  -6.961
REMARK INTRA:                  -1.745
REMARK UNBOUND:                -2.492
REMARK SMILES CCCCCCCCCCCCCCCCCC(=O)[O-]
REMARK SMILES IDX 10 1 11 2 12 3 13 4 14 5 15 6 16 7 17 8 18 9 19 10 20 11
REMARK SMILES IDX 9 12 8 13 7 14 6 15 5 16 4 17 3 18 2 19 1 20
REMARK H PARENT
REMARK Flexibility Score: inf
ROOT
ATOM      1  C   UNL     1     -31.961  -1.037 -34.610  1.00  0.00     0.000 C 
ENDROOT
BRANCH   1   2
ATOM      2  C   UNL     1     -33.274  -1.694 -34.154  1.00  0.00     0.000 C 
BRANCH   2   3
ATOM      3  C   UNL     1     -33.296  -1.876 -32.628  1.00  0.00     0.000 C 
BRANCH   3   4
ATOM      4  C   UNL     1     -33.517  -3.346 -32.216  1.00  0.00     0.000 C 
BRANCH   4   5
ATOM      5  C   UNL     1     -33.511  -4.325 -33.403  1.00  0.00     0.000 C 
BRANCH   5   6
ATOM      6  C   UNL     1     -34.697  -5.301 -33.380  1.00  0.00     0.000 C 
BRANCH   6   7
ATOM      7  C   UNL     1     -35.090  -5.741 -31.958  1.00  0.00     0.006 C 
BRANCH   7   8
ATOM      8  C   UNL     1     -34.506  -7.103 -31.543  1.00  0.00     0.053 C 
BRANCH   8   9
ATOM      9  C   UNL     1     -33.237  -6.969 -30.758  1.00  0.00     0.041 C 
ATOM     10  O   UNL     1     -33.194  -6.219 -29.747  1.00  0.00    -0.550 OA
ATOM     11  O   UNL     1     -32.091  -7.646 -31.159  1.00  0.00    -0.550 OA
ENDBRANCH   8   9
ENDBRANCH   7   8
ENDBRANCH   6   7
ENDBRANCH   5   6
ENDBRANCH   4   5
ENDBRANCH   3   4
ENDBRANCH   2   3
ENDBRANCH   1   2
BRANCH   1  12
ATOM     12  C   UNL     1     -30.867  -2.065 -34.944  1.00  0.00     0.000 C 
BRANCH  12  13
ATOM     13  C   UNL     1     -30.146  -1.752 -36.268  1.00  0.00    -0.000 C 
BRANCH  13  14
ATOM     14  C   UNL     1     -30.184  -0.256 -36.619  1.00  0.00    -0.000 C 
BRANCH  14  15
ATOM     15  C   UNL     1     -30.333  -0.003 -38.126  1.00  0.00    -0.000 C 
BRANCH  15  16
ATOM     16  C   UNL     1     -31.594  -0.680 -38.674  1.00  0.00    -0.000 C 
BRANCH  16  17
ATOM     17  C   UNL     1     -32.862   0.057 -38.212  1.00  0.00    -0.000 C 
BRANCH  17  18
ATOM     18  C   UNL     1     -32.974   1.468 -38.826  1.00  0.00    -0.000 C 
BRANCH  18  19
ATOM     19  C   UNL     1     -33.345   2.556 -37.804  1.00  0.00    -0.003 C 
ATOM     20  C   UNL     1     -32.185   2.933 -36.884  1.00  0.00     0.004 C 
ENDBRANCH  18  19
ENDBRANCH  17  18
ENDBRANCH  16  17
ENDBRANCH  15  16
ENDBRANCH  14  15
ENDBRANCH  13  14
ENDBRANCH  12  13
ENDBRANCH   1  12
TORSDOF 16
ENDMDL
MODEL 6
REMARK VINA RESULT:    -3.188      1.355      2.174
REMARK INTER + INTRA:          -8.661
REMARK INTER:                  -6.888
REMARK INTRA:                  -1.773
REMARK UNBOUND:                -2.492
REMARK SMILES CCCCCCCCCCCCCCCCCC(=O)[O-]
REMARK SMILES IDX 10 1 11 2 12 3 13 4 14 5 15 6 16 7 17 8 18 9 19 10 20 11
REMARK SMILES IDX 9 12 8 13 7 14 6 15 5 16 4 17 3 18 2 19 1 20
REMARK H PARENT
REMARK Flexibility Score: inf
ROOT
ATOM      1  C   UNL     1     -31.306   3.552 -39.595  1.00  0.00     0.000 C 
ENDROOT
BRANCH   1   2
ATOM      2  C   UNL     1     -30.946   4.980 -40.038  1.00  0.00     0.000 C 
BRANCH   2   3
ATOM      3  C   UNL     1     -29.425   5.192 -40.024  1.00  0.00     0.000 C 
BRANCH   3   4
ATOM      4  C   UNL     1     -28.912   5.665 -38.647  1.00  0.00     0.000 C 
BRANCH   4   5
ATOM      5  C   UNL     1     -27.909   4.695 -37.999  1.00  0.00     0.000 C 
BRANCH   5   6
ATOM      6  C   UNL     1     -27.074   5.352 -36.889  1.00  0.00     0.000 C 
BRANCH   6   7
ATOM      7  C   UNL     1     -26.919   4.463 -35.643  1.00  0.00     0.006 C 
BRANCH   7   8
ATOM      8  C   UNL     1     -26.556   5.238 -34.364  1.00  0.00     0.053 C 
BRANCH   8   9
ATOM      9  C   UNL     1     -25.154   4.968 -33.906  1.00  0.00     0.041 C 
ATOM     10  O   UNL     1     -24.658   5.632 -32.958  1.00  0.00    -0.550 OA
ATOM     11  O   UNL     1     -24.383   4.006 -34.548  1.00  0.00    -0.550 OA
ENDBRANCH   8   9
ENDBRANCH   7   8
ENDBRANCH   6   7
ENDBRANCH   5   6
ENDBRANCH   4   5
ENDBRANCH   3   4
ENDBRANCH   2   3
ENDBRANCH   1   2
BRANCH   1  12
ATOM     12  C   UNL     1     -31.870   3.497 -38.166  1.00  0.00     0.000 C 
BRANCH  12  13
ATOM     13  C   UNL     1     -33.068   2.539 -38.040  1.00  0.00    -0.000 C 
BRANCH  13  14
ATOM     14  C   UNL     1     -32.967   1.340 -38.996  1.00  0.00    -0.000 C 
BRANCH  14  15
ATOM     15  C   UNL     1     -32.986  -0.009 -38.262  1.00  0.00    -0.000 C 
BRANCH  15  16
ATOM     16  C   UNL     1     -31.563  -0.538 -38.050  1.00  0.00    -0.000 C 
BRANCH  16  17
ATOM     17  C   UNL     1     -30.846  -0.750 -39.393  1.00  0.00    -0.000 C 
BRANCH  17  18
ATOM     18  C   UNL     1     -29.317  -0.577 -39.273  1.00  0.00    -0.000 C 
BRANCH  18  19
ATOM     19  C   UNL     1     -28.879   0.876 -39.027  1.00  0.00    -0.003 C 
ATOM     20  C   UNL     1     -28.339   1.109 -37.617  1.00  0.00     0.004 C 
ENDBRANCH  18  19
ENDBRANCH  17  18
ENDBRANCH  16  17
ENDBRANCH  15  16
ENDBRANCH  14  15
ENDBRANCH  13  14
ENDBRANCH  12  13
ENDBRANCH   1  12
TORSDOF 16
ENDMDL
MODEL 7
REMARK VINA RESULT:    -3.156      1.485      2.085
REMARK INTER + INTRA:          -8.600
REMARK INTER:                  -5.962
REMARK INTRA:                  -2.637
REMARK UNBOUND:                -2.492
REMARK SMILES CCCCCCCCCCCCCCCCCC(=O)[O-]
REMARK SMILES IDX 10 1 11 2 12 3 13 4 14 5 15 6 16 7 17 8 18 9 19 10 20 11
REMARK SMILES IDX 9 12 8 13 7 14 6 15 5 16 4 17 3 18 2 19 1 20
REMARK H PARENT
REMARK Flexibility Score: inf
ROOT
ATOM      1  C   UNL     1     -31.942   3.106 -38.174  1.00  0.00     0.000 C 
ENDROOT
BRANCH   1   2
ATOM      2  C   UNL     1     -31.436   2.944 -39.617  1.00  0.00     0.000 C 
BRANCH   2   3
ATOM      3  C   UNL     1     -29.903   3.026 -39.674  1.00  0.00     0.000 C 
BRANCH   3   4
ATOM      4  C   UNL     1     -29.402   4.459 -39.952  1.00  0.00     0.000 C 
BRANCH   4   5
ATOM      5  C   UNL     1     -28.923   5.199 -38.691  1.00  0.00     0.000 C 
BRANCH   5   6
ATOM      6  C   UNL     1     -28.450   4.247 -37.582  1.00  0.00     0.000 C 
BRANCH   6   7
ATOM      7  C   UNL     1     -26.933   4.314 -37.334  1.00  0.00     0.006 C 
BRANCH   7   8
ATOM      8  C   UNL     1     -26.488   3.669 -36.009  1.00  0.00     0.053 C 
BRANCH   8   9
ATOM      9  C   UNL     1     -25.976   4.675 -35.024  1.00  0.00     0.041 C 
ATOM     10  O   UNL     1     -26.543   5.793 -34.908  1.00  0.00    -0.550 OA
ATOM     11  O   UNL     1     -24.852   4.391 -34.256  1.00  0.00    -0.550 OA
ENDBRANCH   8   9
ENDBRANCH   7   8
ENDBRANCH   6   7
ENDBRANCH   5   6
ENDBRANCH   4   5
ENDBRANCH   3   4
ENDBRANCH   2   3
ENDBRANCH   1   2
BRANCH   1  12
ATOM     12  C   UNL     1     -32.701   1.868 -37.668  1.00  0.00     0.000 C 
BRANCH  12  13
ATOM     13  C   UNL     1     -32.849   0.782 -38.749  1.00  0.00    -0.000 C 
BRANCH  13  14
ATOM     14  C   UNL     1     -32.064  -0.496 -38.411  1.00  0.00    -0.000 C 
BRANCH  14  15
ATOM     15  C   UNL     1     -30.899  -0.751 -39.379  1.00  0.00    -0.000 C 
BRANCH  15  16
ATOM     16  C   UNL     1     -29.590  -0.981 -38.614  1.00  0.00    -0.000 C 
BRANCH  16  17
ATOM     17  C   UNL     1     -29.511  -0.080 -37.372  1.00  0.00    -0.000 C 
BRANCH  17  18
ATOM     18  C   UNL     1     -28.147   0.632 -37.253  1.00  0.00    -0.000 C 
BRANCH  18  19
ATOM     19  C   UNL     1     -27.384   0.726 -38.585  1.00  0.00    -0.003 C 
ATOM     20  C   UNL     1     -25.914   0.327 -38.462  1.00  0.00     0.004 C 
ENDBRANCH  18  19
ENDBRANCH  17  18
ENDBRANCH  16  17
ENDBRANCH  15  16
ENDBRANCH  14  15
ENDBRANCH  13  14
ENDBRANCH  12  13
ENDBRANCH   1  12
TORSDOF 16
ENDMDL
MODEL 8
REMARK VINA RESULT:    -3.119      1.253      3.090
REMARK INTER + INTRA:          -8.528
REMARK INTER:                  -5.622
REMARK INTRA:                  -2.906
REMARK UNBOUND:                -2.492
REMARK SMILES CCCCCCCCCCCCCCCCCC(=O)[O-]
REMARK SMILES IDX 10 1 11 2 12 3 13 4 14 5 15 6 16 7 17 8 18 9 19 10 20 11
REMARK SMILES IDX 9 12 8 13 7 14 6 15 5 16 4 17 3 18 2 19 1 20
REMARK H PARENT
REMARK Flexibility Score: inf
ROOT
ATOM      1  C   UNL     1     -30.862  -0.267 -39.001  1.00  0.00     0.000 C 
ENDROOT
BRANCH   1   2
ATOM      2  C   UNL     1     -29.826  -0.530 -37.896  1.00  0.00     0.000 C 
BRANCH   2   3
ATOM      3  C   UNL     1     -28.565   0.319 -38.113  1.00  0.00     0.000 C 
BRANCH   3   4
ATOM      4  C   UNL     1     -28.662   1.202 -39.375  1.00  0.00     0.000 C 
BRANCH   4   5
ATOM      5  C   UNL     1     -28.612   2.710 -39.076  1.00  0.00     0.000 C 
BRANCH   5   6
ATOM      6  C   UNL     1     -27.766   3.047 -37.838  1.00  0.00     0.000 C 
BRANCH   6   7
ATOM      7  C   UNL     1     -28.045   4.454 -37.279  1.00  0.00     0.006 C 
BRANCH   7   8
ATOM      8  C   UNL     1     -26.781   5.210 -36.834  1.00  0.00     0.053 C 
BRANCH   8   9
ATOM      9  C   UNL     1     -26.287   4.762 -35.491  1.00  0.00     0.041 C 
ATOM     10  O   UNL     1     -25.250   4.054 -35.402  1.00  0.00    -0.550 OA
ATOM     11  O   UNL     1     -26.991   5.098 -34.340  1.00  0.00    -0.550 OA
ENDBRANCH   8   9
ENDBRANCH   7   8
ENDBRANCH   6   7
ENDBRANCH   5   6
ENDBRANCH   4   5
ENDBRANCH   3   4
ENDBRANCH   2   3
ENDBRANCH   1   2
BRANCH   1  12
ATOM     12  C   UNL     1     -32.310  -0.340 -38.488  1.00  0.00     0.000 C 
BRANCH  12  13
ATOM     13  C   UNL     1     -33.015   1.028 -38.511  1.00  0.00    -0.000 C 
BRANCH  13  14
ATOM     14  C   UNL     1     -32.235   2.079 -39.317  1.00  0.00    -0.000 C 
BRANCH  14  15
ATOM     15  C   UNL     1     -32.644   3.518 -38.971  1.00  0.00    -0.000 C 
BRANCH  15  16
ATOM     16  C   UNL     1     -31.668   4.140 -37.966  1.00  0.00    -0.000 C 
BRANCH  16  17
ATOM     17  C   UNL     1     -32.340   4.355 -36.601  1.00  0.00    -0.000 C 
BRANCH  17  18
ATOM     18  C   UNL     1     -31.591   3.634 -35.461  1.00  0.00    -0.000 C 
BRANCH  18  19
ATOM     19  C   UNL     1     -30.809   2.394 -35.926  1.00  0.00    -0.003 C 
ATOM     20  C   UNL     1     -29.990   1.750 -34.809  1.00  0.00     0.004 C 
ENDBRANCH  18  19
ENDBRANCH  17  18
ENDBRANCH  16  17
ENDBRANCH  15  16
ENDBRANCH  14  15
ENDBRANCH  13  14
ENDBRANCH  12  13
ENDBRANCH   1  12
TORSDOF 16
ENDMDL
MODEL 9
REMARK VINA RESULT:    -3.073      1.851      2.997
REMARK INTER + INTRA:          -8.440
REMARK INTER:                  -5.764
REMARK INTRA:                  -2.676
REMARK UNBOUND:                -2.492
REMARK SMILES CCCCCCCCCCCCCCCCCC(=O)[O-]
REMARK SMILES IDX 10 1 11 2 12 3 13 4 14 5 15 6 16 7 17 8 18 9 19 10 20 11
REMARK SMILES IDX 9 12 8 13 7 14 6 15 5 16 4 17 3 18 2 19 1 20
REMARK H PARENT
REMARK Flexibility Score: inf
ROOT
ATOM      1  C   UNL     1     -31.486   3.932 -40.008  1.00  0.00     0.000 C 
ENDROOT
BRANCH   1   2
ATOM      2  C   UNL     1     -31.172   4.827 -38.799  1.00  0.00     0.000 C 
BRANCH   2   3
ATOM      3  C   UNL     1     -29.715   4.647 -38.346  1.00  0.00     0.000 C 
BRANCH   3   4
ATOM      4  C   UNL     1     -28.874   3.861 -39.374  1.00  0.00     0.000 C 
BRANCH   4   5
ATOM      5  C   UNL     1     -28.319   2.534 -38.828  1.00  0.00     0.000 C 
BRANCH   5   6
ATOM      6  C   UNL     1     -28.568   2.356 -37.322  1.00  0.00     0.000 C 
BRANCH   6   7
ATOM      7  C   UNL     1     -27.269   2.242 -36.504  1.00  0.00     0.006 C 
BRANCH   7   8
ATOM      8  C   UNL     1     -26.317   3.439 -36.675  1.00  0.00     0.053 C 
BRANCH   8   9
ATOM      9  C   UNL     1     -26.852   4.692 -36.051  1.00  0.00     0.041 C 
ATOM     10  O   UNL     1     -27.411   4.650 -34.924  1.00  0.00    -0.550 OA
ATOM     11  O   UNL     1     -26.763   5.903 -36.728  1.00  0.00    -0.550 OA
ENDBRANCH   8   9
ENDBRANCH   7   8
ENDBRANCH   6   7
ENDBRANCH   5   6
ENDBRANCH   4   5
ENDBRANCH   3   4
ENDBRANCH   2   3
ENDBRANCH   1   2
BRANCH   1  12
ATOM     12  C   UNL     1     -32.600   2.912 -39.719  1.00  0.00     0.000 C 
BRANCH  12  13
ATOM     13  C   UNL     1     -32.877   2.748 -38.214  1.00  0.00    -0.000 C 
BRANCH  13  14
ATOM     14  C   UNL     1     -32.165   1.525 -37.614  1.00  0.00    -0.000 C 
BRANCH  14  15
ATOM     15  C   UNL     1     -32.163   0.315 -38.559  1.00  0.00    -0.000 C 
BRANCH  15  16
ATOM     16  C   UNL     1     -30.871  -0.496 -38.409  1.00  0.00    -0.000 C 
BRANCH  16  17
ATOM     17  C   UNL     1     -30.473  -1.155 -39.739  1.00  0.00    -0.000 C 
BRANCH  17  18
ATOM     18  C   UNL     1     -28.987  -0.925 -40.083  1.00  0.00    -0.000 C 
BRANCH  18  19
ATOM     19  C   UNL     1     -28.023  -1.796 -39.261  1.00  0.00    -0.003 C 
ATOM     20  C   UNL     1     -27.086  -0.978 -38.373  1.00  0.00     0.004 C 
ENDBRANCH  18  19
ENDBRANCH  17  18
ENDBRANCH  16  17
ENDBRANCH  15  16
ENDBRANCH  14  15
ENDBRANCH  13  14
ENDBRANCH  12  13
ENDBRANCH   1  12
TORSDOF 16
ENDMDL
