MODEL 1
REMARK VINA RESULT:    -5.302      0.000      0.000
REMARK INTER + INTRA:          -5.700
REMARK INTER:                  -5.612
REMARK INTRA:                  -0.089
REMARK UNBOUND:                -0.089
REMARK SMILES C=C(C)[C@@H]1CC=C(C)C(=O)C1
REMARK SMILES IDX 8 1 7 2 6 3 5 4 4 5 11 6 9 7 10 8 2 9 1 10 3 11
REMARK H PARENT
REMARK Flexibility Score: inf
ROOT
ATOM      1  C   UNL     1      -2.769  29.077  51.585  1.00  0.00     0.048 C 
ATOM      2  C   UNL     1      -1.574  28.401  52.198  1.00  0.00    -0.012 C 
ATOM      3  C   UNL     1      -1.669  27.129  52.621  1.00  0.00    -0.019 C 
ATOM      4  C   UNL     1      -0.499  26.399  53.227  1.00  0.00     0.036 C 
ATOM      5  C   UNL     1       0.415  27.365  54.004  1.00  0.00     0.025 C 
ATOM      6  C   UNL     1       0.860  28.527  53.095  1.00  0.00     0.089 C 
ATOM      7  C   UNL     1      -0.332  29.177  52.447  1.00  0.00     0.158 C 
ATOM      8  O   UNL     1      -0.253  30.380  52.083  1.00  0.00    -0.295 OA
ENDROOT
BRANCH   5   9
ATOM      9  C   UNL     1       1.610  26.641  54.613  1.00  0.00    -0.077 C 
ATOM     10  C   UNL     1       1.799  26.601  55.943  1.00  0.00     0.008 C 
ATOM     11  C   UNL     1       2.611  25.954  53.721  1.00  0.00     0.039 C 
ENDBRANCH   5   9
TORSDOF 1
ENDMDL
MODEL 2
REMARK VINA RESULT:    -5.174      1.573      4.302
REMARK INTER + INTRA:          -5.565
REMARK INTER:                  -5.468
REMARK INTRA:                  -0.096
REMARK UNBOUND:                -0.089
REMARK SMILES C=C(C)[C@@H]1CC=C(C)C(=O)C1
REMARK SMILES IDX 8 1 7 2 6 3 5 4 4 5 11 6 9 7 10 8 2 9 1 10 3 11
REMARK H PARENT
REMARK Flexibility Score: inf
ROOT
ATOM      1  C   UNL     1       1.330  25.481  54.596  1.00  0.00     0.048 C 
ATOM      2  C   UNL     1       0.526  26.543  53.899  1.00  0.00    -0.012 C 
ATOM      3  C   UNL     1      -0.710  26.261  53.450  1.00  0.00    -0.019 C 
ATOM      4  C   UNL     1      -1.564  27.292  52.761  1.00  0.00     0.036 C 
ATOM      5  C   UNL     1      -0.700  28.282  51.957  1.00  0.00     0.025 C 
ATOM      6  C   UNL     1       0.366  28.922  52.868  1.00  0.00     0.089 C 
ATOM      7  C   UNL     1       1.143  27.861  53.599  1.00  0.00     0.158 C 
ATOM      8  O   UNL     1       2.314  28.115  53.987  1.00  0.00    -0.295 OA
ENDROOT
BRANCH   5   9
ATOM      9  C   UNL     1      -1.551  29.337  51.263  1.00  0.00    -0.077 C 
ATOM     10  C   UNL     1      -2.894  29.289  51.302  1.00  0.00     0.008 C 
ATOM     11  C   UNL     1      -0.892  30.464  50.512  1.00  0.00     0.039 C 
ENDBRANCH   5   9
TORSDOF 1
ENDMDL
MODEL 3
REMARK VINA RESULT:    -5.106      2.688      4.078
REMARK INTER + INTRA:          -5.493
REMARK INTER:                  -5.399
REMARK INTRA:                  -0.094
REMARK UNBOUND:                -0.089
REMARK SMILES C=C(C)[C@@H]1CC=C(C)C(=O)C1
REMARK SMILES IDX 8 1 7 2 6 3 5 4 4 5 11 6 9 7 10 8 2 9 1 10 3 11
REMARK H PARENT
REMARK Flexibility Score: inf
ROOT
ATOM      1  C   UNL     1      -1.545  31.465  48.219  1.00  0.00     0.048 C 
ATOM      2  C   UNL     1      -1.605  30.723  49.525  1.00  0.00    -0.012 C 
ATOM      3  C   UNL     1      -0.469  30.309  50.113  1.00  0.00    -0.019 C 
ATOM      4  C   UNL     1      -0.471  29.578  51.429  1.00  0.00     0.036 C 
ATOM      5  C   UNL     1      -1.733  28.708  51.579  1.00  0.00     0.025 C 
ATOM      6  C   UNL     1      -2.999  29.566  51.386  1.00  0.00     0.089 C 
ATOM      7  C   UNL     1      -2.921  30.342  50.100  1.00  0.00     0.158 C 
ATOM      8  O   UNL     1      -3.987  30.698  49.532  1.00  0.00    -0.295 OA
ENDROOT
BRANCH   5   9
ATOM      9  C   UNL     1      -1.754  27.971  52.912  1.00  0.00    -0.077 C 
ATOM     10  C   UNL     1      -2.183  28.570  54.036  1.00  0.00     0.008 C 
ATOM     11  C   UNL     1      -1.285  26.541  52.990  1.00  0.00     0.039 C 
ENDBRANCH   5   9
TORSDOF 1
ENDMDL
MODEL 4
REMARK VINA RESULT:    -5.022      1.211      1.432
REMARK INTER + INTRA:          -5.404
REMARK INTER:                  -5.311
REMARK INTRA:                  -0.094
REMARK UNBOUND:                -0.089
REMARK SMILES C=C(C)[C@@H]1CC=C(C)C(=O)C1
REMARK SMILES IDX 8 1 7 2 6 3 5 4 4 5 11 6 9 7 10 8 2 9 1 10 3 11
REMARK H PARENT
REMARK Flexibility Score: inf
ROOT
ATOM      1  C   UNL     1      -3.395  30.214  51.234  1.00  0.00     0.048 C 
ATOM      2  C   UNL     1      -2.194  29.430  51.684  1.00  0.00    -0.012 C 
ATOM      3  C   UNL     1      -2.283  28.097  51.838  1.00  0.00    -0.019 C 
ATOM      4  C   UNL     1      -1.107  27.262  52.270  1.00  0.00     0.036 C 
ATOM      5  C   UNL     1      -0.186  28.051  53.220  1.00  0.00     0.025 C 
ATOM      6  C   UNL     1       0.248  29.377  52.565  1.00  0.00     0.089 C 
ATOM      7  C   UNL     1      -0.951  30.142  52.076  1.00  0.00     0.158 C 
ATOM      8  O   UNL     1      -0.876  31.395  51.966  1.00  0.00    -0.295 OA
ENDROOT
BRANCH   5   9
ATOM      9  C   UNL     1       1.015  27.221  53.656  1.00  0.00    -0.077 C 
ATOM     10  C   UNL     1       0.863  25.991  54.177  1.00  0.00     0.008 C 
ATOM     11  C   UNL     1       2.408  27.776  53.511  1.00  0.00     0.039 C 
ENDBRANCH   5   9
TORSDOF 1
ENDMDL
MODEL 5
REMARK VINA RESULT:    -4.901      1.927      5.081
REMARK INTER + INTRA:          -5.276
REMARK INTER:                  -5.182
REMARK INTRA:                  -0.094
REMARK UNBOUND:                -0.089
REMARK SMILES C=C(C)[C@@H]1CC=C(C)C(=O)C1
REMARK SMILES IDX 8 1 7 2 6 3 5 4 4 5 11 6 9 7 10 8 2 9 1 10 3 11
REMARK H PARENT
REMARK Flexibility Score: inf
ROOT
ATOM      1  C   UNL     1       0.817  27.379  54.404  1.00  0.00     0.048 C 
ATOM      2  C   UNL     1       0.073  28.050  53.283  1.00  0.00    -0.012 C 
ATOM      3  C   UNL     1       0.441  29.278  52.876  1.00  0.00    -0.019 C 
ATOM      4  C   UNL     1      -0.258  29.988  51.748  1.00  0.00     0.036 C 
ATOM      5  C   UNL     1      -1.752  29.616  51.698  1.00  0.00     0.025 C 
ATOM      6  C   UNL     1      -1.919  28.086  51.617  1.00  0.00     0.089 C 
ATOM      7  C   UNL     1      -1.140  27.411  52.713  1.00  0.00     0.158 C 
ATOM      8  O   UNL     1      -1.508  26.276  53.117  1.00  0.00    -0.295 OA
ENDROOT
BRANCH   5   9
ATOM      9  C   UNL     1      -2.470  30.320  50.554  1.00  0.00    -0.077 C 
ATOM     10  C   UNL     1      -3.809  30.439  50.536  1.00  0.00     0.008 C 
ATOM     11  C   UNL     1      -1.679  30.897  49.409  1.00  0.00     0.039 C 
ENDBRANCH   5   9
TORSDOF 1
ENDMDL
MODEL 6
REMARK VINA RESULT:    -4.898      2.952      5.092
REMARK INTER + INTRA:          -5.273
REMARK INTER:                  -5.177
REMARK INTRA:                  -0.096
REMARK UNBOUND:                -0.089
REMARK SMILES C=C(C)[C@@H]1CC=C(C)C(=O)C1
REMARK SMILES IDX 8 1 7 2 6 3 5 4 4 5 11 6 9 7 10 8 2 9 1 10 3 11
REMARK H PARENT
REMARK Flexibility Score: inf
ROOT
ATOM      1  C   UNL     1      -2.262  28.858  54.143  1.00  0.00     0.048 C 
ATOM      2  C   UNL     1      -1.819  29.481  52.848  1.00  0.00    -0.012 C 
ATOM      3  C   UNL     1      -2.732  30.000  52.009  1.00  0.00    -0.019 C 
ATOM      4  C   UNL     1      -2.342  30.651  50.708  1.00  0.00     0.036 C 
ATOM      5  C   UNL     1      -1.088  29.986  50.109  1.00  0.00     0.025 C 
ATOM      6  C   UNL     1       0.063  29.994  51.134  1.00  0.00     0.089 C 
ATOM      7  C   UNL     1      -0.392  29.411  52.444  1.00  0.00     0.158 C 
ATOM      8  O   UNL     1       0.461  28.892  53.213  1.00  0.00    -0.295 OA
ENDROOT
BRANCH   5   9
ATOM      9  C   UNL     1      -0.675  30.642  48.797  1.00  0.00    -0.077 C 
ATOM     10  C   UNL     1      -1.513  31.452  48.127  1.00  0.00     0.008 C 
ATOM     11  C   UNL     1       0.694  30.386  48.224  1.00  0.00     0.039 C 
ENDBRANCH   5   9
TORSDOF 1
ENDMDL
MODEL 7
REMARK VINA RESULT:    -4.740      1.644      2.055
REMARK INTER + INTRA:          -5.106
REMARK INTER:                  -5.009
REMARK INTRA:                  -0.097
REMARK UNBOUND:                -0.089
REMARK SMILES C=C(C)[C@@H]1CC=C(C)C(=O)C1
REMARK SMILES IDX 8 1 7 2 6 3 5 4 4 5 11 6 9 7 10 8 2 9 1 10 3 11
REMARK H PARENT
REMARK Flexibility Score: inf
ROOT
ATOM      1  C   UNL     1      -2.927  30.091  52.267  1.00  0.00     0.048 C 
ATOM      2  C   UNL     1      -1.723  29.463  52.911  1.00  0.00    -0.012 C 
ATOM      3  C   UNL     1      -0.561  29.396  52.237  1.00  0.00    -0.019 C 
ATOM      4  C   UNL     1       0.679  28.793  52.841  1.00  0.00     0.036 C 
ATOM      5  C   UNL     1       0.325  27.648  53.809  1.00  0.00     0.025 C 
ATOM      6  C   UNL     1      -0.665  28.142  54.881  1.00  0.00     0.089 C 
ATOM      7  C   UNL     1      -1.850  28.809  54.238  1.00  0.00     0.158 C 
ATOM      8  O   UNL     1      -2.947  28.840  54.857  1.00  0.00    -0.295 OA
ENDROOT
BRANCH   5   9
ATOM      9  C   UNL     1       1.571  27.036  54.436  1.00  0.00    -0.077 C 
ATOM     10  C   UNL     1       1.689  26.901  55.768  1.00  0.00     0.008 C 
ATOM     11  C   UNL     1       2.705  26.568  53.560  1.00  0.00     0.039 C 
ENDBRANCH   5   9
TORSDOF 1
ENDMDL
MODEL 8
REMARK VINA RESULT:    -4.644      3.090      5.186
REMARK INTER + INTRA:          -5.004
REMARK INTER:                  -4.907
REMARK INTRA:                  -0.097
REMARK UNBOUND:                -0.089
REMARK SMILES C=C(C)[C@@H]1CC=C(C)C(=O)C1
REMARK SMILES IDX 8 1 7 2 6 3 5 4 4 5 11 6 9 7 10 8 2 9 1 10 3 11
REMARK H PARENT
REMARK Flexibility Score: inf
ROOT
ATOM      1  C   UNL     1      -2.420  28.902  54.217  1.00  0.00     0.048 C 
ATOM      2  C   UNL     1      -2.121  29.248  52.784  1.00  0.00    -0.012 C 
ATOM      3  C   UNL     1      -1.097  28.648  52.151  1.00  0.00    -0.019 C 
ATOM      4  C   UNL     1      -0.765  28.944  50.712  1.00  0.00     0.036 C 
ATOM      5  C   UNL     1      -1.093  30.407  50.357  1.00  0.00     0.025 C 
ATOM      6  C   UNL     1      -2.564  30.721  50.692  1.00  0.00     0.089 C 
ATOM      7  C   UNL     1      -2.876  30.336  52.112  1.00  0.00     0.158 C 
ATOM      8  O   UNL     1      -3.812  30.924  52.716  1.00  0.00    -0.295 OA
ENDROOT
BRANCH   5   9
ATOM      9  C   UNL     1      -0.771  30.717  48.900  1.00  0.00    -0.077 C 
ATOM     10  C   UNL     1      -1.657  31.344  48.107  1.00  0.00     0.008 C 
ATOM     11  C   UNL     1       0.561  30.319  48.320  1.00  0.00     0.039 C 
ENDBRANCH   5   9
TORSDOF 1
ENDMDL
MODEL 9
REMARK VINA RESULT:    -4.342      2.242      3.730
REMARK INTER + INTRA:          -4.684
REMARK INTER:                  -4.590
REMARK INTRA:                  -0.095
REMARK UNBOUND:                -0.089
REMARK SMILES C=C(C)[C@@H]1CC=C(C)C(=O)C1
REMARK SMILES IDX 8 1 7 2 6 3 5 4 4 5 11 6 9 7 10 8 2 9 1 10 3 11
REMARK H PARENT
REMARK Flexibility Score: inf
ROOT
ATOM      1  C   UNL     1      -1.872  31.490  48.370  1.00  0.00     0.048 C 
ATOM      2  C   UNL     1      -1.793  30.686  49.639  1.00  0.00    -0.012 C 
ATOM      3  C   UNL     1      -2.893  30.512  50.391  1.00  0.00    -0.019 C 
ATOM      4  C   UNL     1      -2.874  29.702  51.660  1.00  0.00     0.036 C 
ATOM      5  C   UNL     1      -1.510  29.815  52.369  1.00  0.00     0.025 C 
ATOM      6  C   UNL     1      -0.374  29.419  51.406  1.00  0.00     0.089 C 
ATOM      7  C   UNL     1      -0.478  30.191  50.120  1.00  0.00     0.158 C 
ATOM      8  O   UNL     1       0.562  30.384  49.434  1.00  0.00    -0.295 OA
ENDROOT
BRANCH   5   9
ATOM      9  C   UNL     1      -1.472  28.991  53.650  1.00  0.00    -0.077 C 
ATOM     10  C   UNL     1      -2.532  28.932  54.475  1.00  0.00     0.008 C 
ATOM     11  C   UNL     1      -0.230  28.222  54.016  1.00  0.00     0.039 C 
ENDBRANCH   5   9
TORSDOF 1
ENDMDL
