MODEL 1
REMARK VINA RESULT:    -1.382      0.000      0.000
REMARK INTER + INTRA:          -1.986
REMARK INTER:                  -1.786
REMARK INTRA:                  -0.200
REMARK UNBOUND:                -0.200
REMARK SMILES CCCCCCC(=O)[O-]
REMARK SMILES IDX 5 1 6 2 7 3 8 4 9 5 4 6 3 7 2 8 1 9
REMARK H PARENT
REMARK Flexibility Score: inf
ROOT
ATOM      1  C   UNL     1       7.107  49.032   8.936  1.00  0.00     0.006 C 
ENDROOT
BRANCH   1   2
ATOM      2  C   UNL     1       8.005  49.161  10.173  1.00  0.00     0.053 C 
BRANCH   2   3
ATOM      3  C   UNL     1       7.945  47.911  10.994  1.00  0.00     0.041 C 
ATOM      4  O   UNL     1       8.419  47.895  12.160  1.00  0.00    -0.550 OA
ATOM      5  O   UNL     1       7.409  46.750  10.452  1.00  0.00    -0.550 OA
ENDBRANCH   2   3
ENDBRANCH   1   2
BRANCH   1   6
ATOM      6  C   UNL     1       6.024  50.121   8.875  1.00  0.00     0.000 C 
BRANCH   6   7
ATOM      7  C   UNL     1       4.602  49.547   8.957  1.00  0.00    -0.000 C 
BRANCH   7   8
ATOM      8  C   UNL     1       4.603  48.174   9.639  1.00  0.00    -0.003 C 
ATOM      9  C   UNL     1       4.228  48.289  11.113  1.00  0.00     0.004 C 
ENDBRANCH   7   8
ENDBRANCH   6   7
ENDBRANCH   1   6
TORSDOF 5
ENDMDL
MODEL 2
REMARK VINA RESULT:    -1.277      0.956      1.473
REMARK INTER + INTRA:          -1.850
REMARK INTER:                  -1.966
REMARK INTRA:                   0.116
REMARK UNBOUND:                -0.200
REMARK SMILES CCCCCCC(=O)[O-]
REMARK SMILES IDX 5 1 6 2 7 3 8 4 9 5 4 6 3 7 2 8 1 9
REMARK H PARENT
REMARK Flexibility Score: inf
ROOT
ATOM      1  C   UNL     1       7.890  49.352   8.876  1.00  0.00     0.006 C 
ENDROOT
BRANCH   1   2
ATOM      2  C   UNL     1       8.279  47.868   8.907  1.00  0.00     0.053 C 
BRANCH   2   3
ATOM      3  C   UNL     1       7.880  47.251  10.210  1.00  0.00     0.041 C 
ATOM      4  O   UNL     1       7.170  46.212  10.229  1.00  0.00    -0.550 OA
ATOM      5  O   UNL     1       8.252  47.852  11.406  1.00  0.00    -0.550 OA
ENDBRANCH   2   3
ENDBRANCH   1   2
BRANCH   1   6
ATOM      6  C   UNL     1       6.644  49.655   9.724  1.00  0.00     0.000 C 
BRANCH   6   7
ATOM      7  C   UNL     1       5.373  49.803   8.875  1.00  0.00    -0.000 C 
BRANCH   7   8
ATOM      8  C   UNL     1       4.165  49.178   9.583  1.00  0.00    -0.003 C 
ATOM      9  C   UNL     1       4.603  48.319  10.765  1.00  0.00     0.004 C 
ENDBRANCH   7   8
ENDBRANCH   6   7
ENDBRANCH   1   6
TORSDOF 5
ENDMDL
MODEL 3
REMARK VINA RESULT:     0.057      8.164      9.066
REMARK INTER + INTRA:          -0.126
REMARK INTER:                  -0.082
REMARK INTRA:                  -0.044
REMARK UNBOUND:                -0.200
REMARK SMILES CCCCCCC(=O)[O-]
REMARK SMILES IDX 5 1 6 2 7 3 8 4 9 5 4 6 3 7 2 8 1 9
REMARK H PARENT
REMARK Flexibility Score: inf
ROOT
ATOM      1  C   UNL     1      14.312  45.107   9.813  1.00  0.00     0.006 C 
ENDROOT
BRANCH   1   2
ATOM      2  C   UNL     1      13.230  44.556   8.875  1.00  0.00     0.053 C 
BRANCH   2   3
ATOM      3  C   UNL     1      12.985  43.107   9.157  1.00  0.00     0.041 C 
ATOM      4  O   UNL     1      13.921  42.374   9.570  1.00  0.00    -0.550 OA
ATOM      5  O   UNL     1      11.734  42.554   8.915  1.00  0.00    -0.550 OA
ENDBRANCH   2   3
ENDBRANCH   1   2
BRANCH   1   6
ATOM      6  C   UNL     1      15.628  45.416   9.080  1.00  0.00     0.000 C 
BRANCH   6   7
ATOM      7  C   UNL     1      15.852  46.921   8.875  1.00  0.00    -0.000 C 
BRANCH   7   8
ATOM      8  C   UNL     1      14.520  47.679   8.875  1.00  0.00    -0.003 C 
ATOM      9  C   UNL     1      14.743  49.188   8.880  1.00  0.00     0.004 C 
ENDBRANCH   7   8
ENDBRANCH   6   7
ENDBRANCH   1   6
TORSDOF 5
ENDMDL
MODEL 4
REMARK VINA RESULT:     0.435      2.200      3.656
REMARK INTER + INTRA:           0.363
REMARK INTER:                  -0.427
REMARK INTRA:                   0.789
REMARK UNBOUND:                -0.200
REMARK SMILES CCCCCCC(=O)[O-]
REMARK SMILES IDX 5 1 6 2 7 3 8 4 9 5 4 6 3 7 2 8 1 9
REMARK H PARENT
REMARK Flexibility Score: inf
ROOT
ATOM      1  C   UNL     1       6.494  47.075   9.505  1.00  0.00     0.006 C 
ENDROOT
BRANCH   1   2
ATOM      2  C   UNL     1       5.306  47.815   8.875  1.00  0.00     0.053 C 
BRANCH   2   3
ATOM      3  C   UNL     1       4.808  48.883   9.797  1.00  0.00     0.041 C 
ATOM      4  O   UNL     1       4.197  48.575  10.853  1.00  0.00    -0.550 OA
ATOM      5  O   UNL     1       4.976  50.221   9.465  1.00  0.00    -0.550 OA
ENDBRANCH   2   3
ENDBRANCH   1   2
BRANCH   1   6
ATOM      6  C   UNL     1       7.839  47.475   8.879  1.00  0.00     0.000 C 
BRANCH   6   7
ATOM      7  C   UNL     1       8.141  48.973   9.030  1.00  0.00    -0.000 C 
BRANCH   7   8
ATOM      8  C   UNL     1       8.238  49.366  10.509  1.00  0.00    -0.003 C 
ATOM      9  C   UNL     1       8.122  48.144  11.414  1.00  0.00     0.004 C 
ENDBRANCH   7   8
ENDBRANCH   6   7
ENDBRANCH   1   6
TORSDOF 5
ENDMDL
