MODEL 1
REMARK VINA RESULT:    -5.516      0.000      0.000
REMARK INTER + INTRA:          -8.596
REMARK INTER:                  -7.612
REMARK INTRA:                  -0.984
REMARK UNBOUND:                -0.984
REMARK SMILES CCCCc1cccc(O)c1CCCC
REMARK SMILES IDX 5 1 11 2 9 3 8 4 7 5 6 6 4 7 3 8 2 9 1 10 12 11 13 12 14 13
REMARK SMILES IDX 15 14 10 15
REMARK H PARENT 10 16
REMARK Flexibility Score: inf
ROOT
ATOM      1  C   UNL     1      20.784  28.574 -13.706  1.00  0.00    -0.041 A 
ATOM      2  C   UNL     1      20.150  28.072 -14.878  1.00  0.00    -0.003 A 
ATOM      3  C   UNL     1      20.945  27.523 -15.908  1.00  0.00     0.119 A 
ATOM      4  C   UNL     1      22.334  27.435 -15.758  1.00  0.00     0.046 A 
ATOM      5  C   UNL     1      22.945  27.895 -14.595  1.00  0.00     0.004 A 
ATOM      6  C   UNL     1      22.180  28.459 -13.577  1.00  0.00     0.004 A 
ENDROOT
BRANCH   1   7
ATOM      7  C   UNL     1      20.014  29.185 -12.555  1.00  0.00     0.036 C 
BRANCH   7   8
ATOM      8  C   UNL     1      20.731  28.929 -11.225  1.00  0.00     0.004 C 
BRANCH   8   9
ATOM      9  C   UNL     1      19.726  28.628 -10.107  1.00  0.00    -0.003 C 
ATOM     10  C   UNL     1      20.275  27.588  -9.136  1.00  0.00     0.004 C 
ENDBRANCH   8   9
ENDBRANCH   7   8
ENDBRANCH   1   7
BRANCH   2  11
ATOM     11  C   UNL     1      18.649  28.164 -15.080  1.00  0.00     0.040 C 
BRANCH  11  12
ATOM     12  C   UNL     1      17.974  26.830 -14.734  1.00  0.00     0.005 C 
BRANCH  12  13
ATOM     13  C   UNL     1      16.962  26.960 -13.584  1.00  0.00    -0.003 C 
ATOM     14  C   UNL     1      17.526  26.488 -12.246  1.00  0.00     0.004 C 
ENDBRANCH  12  13
ENDBRANCH  11  12
ENDBRANCH   2  11
BRANCH   3  15
ATOM     15  O   UNL     1      20.352  27.065 -17.087  1.00  0.00    -0.508 OA
ATOM     16  H   UNL     1      19.655  26.331 -17.081  1.00  0.00     0.293 HD
ENDBRANCH   3  15
TORSDOF 7
ENDMDL
MODEL 2
REMARK VINA RESULT:    -5.461      1.470      3.756
REMARK INTER + INTRA:          -8.519
REMARK INTER:                  -7.614
REMARK INTRA:                  -0.905
REMARK UNBOUND:                -0.984
REMARK SMILES CCCCc1cccc(O)c1CCCC
REMARK SMILES IDX 5 1 11 2 9 3 8 4 7 5 6 6 4 7 3 8 2 9 1 10 12 11 13 12 14 13
REMARK SMILES IDX 15 14 10 15
REMARK H PARENT 10 16
REMARK Flexibility Score: inf
ROOT
ATOM      1  C   UNL     1      19.800  28.026 -14.511  1.00  0.00    -0.041 A 
ATOM      2  C   UNL     1      20.787  28.542 -13.623  1.00  0.00    -0.003 A 
ATOM      3  C   UNL     1      22.151  28.437 -13.977  1.00  0.00     0.119 A 
ATOM      4  C   UNL     1      22.522  27.875 -15.204  1.00  0.00     0.046 A 
ATOM      5  C   UNL     1      21.551  27.406 -16.084  1.00  0.00     0.004 A 
ATOM      6  C   UNL     1      20.202  27.481 -15.743  1.00  0.00     0.004 A 
ENDROOT
BRANCH   1   7
ATOM      7  C   UNL     1      18.318  28.088 -14.212  1.00  0.00     0.036 C 
BRANCH   7   8
ATOM      8  C   UNL     1      17.586  26.899 -14.846  1.00  0.00     0.004 C 
BRANCH   8   9
ATOM      9  C   UNL     1      16.951  26.009 -13.772  1.00  0.00    -0.003 C 
ATOM     10  C   UNL     1      17.246  26.538 -12.372  1.00  0.00     0.004 C 
ENDBRANCH   8   9
ENDBRANCH   7   8
ENDBRANCH   1   7
BRANCH   2  11
ATOM     11  C   UNL     1      20.422  29.143 -12.279  1.00  0.00     0.040 C 
BRANCH  11  12
ATOM     12  C   UNL     1      20.444  28.070 -11.182  1.00  0.00     0.005 C 
BRANCH  12  13
ATOM     13  C   UNL     1      19.715  28.517  -9.905  1.00  0.00    -0.003 C 
ATOM     14  C   UNL     1      20.189  27.765  -8.662  1.00  0.00     0.004 C 
ENDBRANCH  12  13
ENDBRANCH  11  12
ENDBRANCH   2  11
BRANCH   3  15
ATOM     15  O   UNL     1      23.141  28.893 -13.104  1.00  0.00    -0.508 OA
ATOM     16  H   UNL     1      24.109  28.612 -13.203  1.00  0.00     0.293 HD
ENDBRANCH   3  15
TORSDOF 7
ENDMDL
MODEL 3
REMARK VINA RESULT:    -5.298      2.020      4.260
REMARK INTER + INTRA:          -8.295
REMARK INTER:                  -7.195
REMARK INTRA:                  -1.100
REMARK UNBOUND:                -0.984
REMARK SMILES CCCCc1cccc(O)c1CCCC
REMARK SMILES IDX 5 1 11 2 9 3 8 4 7 5 6 6 4 7 3 8 2 9 1 10 12 11 13 12 14 13
REMARK SMILES IDX 15 14 10 15
REMARK H PARENT 10 16
REMARK Flexibility Score: inf
ROOT
ATOM      1  C   UNL     1      21.091  27.994 -16.678  1.00  0.00    -0.041 A 
ATOM      2  C   UNL     1      22.366  28.258 -16.099  1.00  0.00    -0.003 A 
ATOM      3  C   UNL     1      23.391  28.793 -16.910  1.00  0.00     0.119 A 
ATOM      4  C   UNL     1      23.143  29.099 -18.252  1.00  0.00     0.046 A 
ATOM      5  C   UNL     1      21.885  28.872 -18.804  1.00  0.00     0.004 A 
ATOM      6  C   UNL     1      20.868  28.326 -18.026  1.00  0.00     0.004 A 
ENDROOT
BRANCH   1   7
ATOM      7  C   UNL     1      19.937  27.416 -15.888  1.00  0.00     0.036 C 
BRANCH   7   8
ATOM      8  C   UNL     1      18.870  28.485 -15.625  1.00  0.00     0.004 C 
BRANCH   8   9
ATOM      9  C   UNL     1      17.631  27.873 -14.961  1.00  0.00    -0.003 C 
ATOM     10  C   UNL     1      17.992  27.183 -13.650  1.00  0.00     0.004 C 
ENDBRANCH   8   9
ENDBRANCH   7   8
ENDBRANCH   1   7
BRANCH   2  11
ATOM     11  C   UNL     1      22.673  27.925 -14.651  1.00  0.00     0.040 C 
BRANCH  11  12
ATOM     12  C   UNL     1      22.239  29.072 -13.728  1.00  0.00     0.005 C 
BRANCH  12  13
ATOM     13  C   UNL     1      21.280  28.607 -12.620  1.00  0.00    -0.003 C 
ATOM     14  C   UNL     1      20.492  29.760 -12.000  1.00  0.00     0.004 C 
ENDBRANCH  12  13
ENDBRANCH  11  12
ENDBRANCH   2  11
BRANCH   3  15
ATOM     15  O   UNL     1      24.663  29.018 -16.378  1.00  0.00    -0.508 OA
ATOM     16  H   UNL     1      24.795  29.282 -15.409  1.00  0.00     0.293 HD
ENDBRANCH   3  15
TORSDOF 7
ENDMDL
MODEL 4
REMARK VINA RESULT:    -5.280     12.084     14.770
REMARK INTER + INTRA:          -8.269
REMARK INTER:                  -7.178
REMARK INTRA:                  -1.091
REMARK UNBOUND:                -0.984
REMARK SMILES CCCCc1cccc(O)c1CCCC
REMARK SMILES IDX 5 1 11 2 9 3 8 4 7 5 6 6 4 7 3 8 2 9 1 10 12 11 13 12 14 13
REMARK SMILES IDX 15 14 10 15
REMARK H PARENT 10 16
REMARK Flexibility Score: inf
ROOT
ATOM      1  C   UNL     1      33.209  30.581 -13.504  1.00  0.00    -0.041 A 
ATOM      2  C   UNL     1      33.753  31.391 -14.541  1.00  0.00    -0.003 A 
ATOM      3  C   UNL     1      32.887  32.218 -15.292  1.00  0.00     0.119 A 
ATOM      4  C   UNL     1      31.522  32.272 -14.989  1.00  0.00     0.046 A 
ATOM      5  C   UNL     1      31.002  31.504 -13.951  1.00  0.00     0.004 A 
ATOM      6  C   UNL     1      31.836  30.667 -13.213  1.00  0.00     0.004 A 
ENDROOT
BRANCH   1   7
ATOM      7  C   UNL     1      34.057  29.660 -12.654  1.00  0.00     0.036 C 
BRANCH   7   8
ATOM      8  C   UNL     1      33.466  29.522 -11.246  1.00  0.00     0.004 C 
BRANCH   8   9
ATOM      9  C   UNL     1      34.469  29.979 -10.181  1.00  0.00    -0.003 C 
ATOM     10  C   UNL     1      34.053  31.313  -9.569  1.00  0.00     0.004 C 
ENDBRANCH   8   9
ENDBRANCH   7   8
ENDBRANCH   1   7
BRANCH   2  11
ATOM     11  C   UNL     1      35.224  31.347 -14.906  1.00  0.00     0.040 C 
BRANCH  11  12
ATOM     12  C   UNL     1      35.981  32.507 -14.243  1.00  0.00     0.005 C 
BRANCH  12  13
ATOM     13  C   UNL     1      37.125  32.025 -13.337  1.00  0.00    -0.003 C 
ATOM     14  C   UNL     1      36.819  32.209 -11.852  1.00  0.00     0.004 C 
ENDBRANCH  12  13
ENDBRANCH  11  12
ENDBRANCH   2  11
BRANCH   3  15
ATOM     15  O   UNL     1      33.388  32.988 -16.344  1.00  0.00    -0.508 OA
ATOM     16  H   UNL     1      34.270  32.769 -16.791  1.00  0.00     0.293 HD
ENDBRANCH   3  15
TORSDOF 7
ENDMDL
MODEL 5
REMARK VINA RESULT:    -5.256      1.564      3.844
REMARK INTER + INTRA:          -8.237
REMARK INTER:                  -7.060
REMARK INTRA:                  -1.177
REMARK UNBOUND:                -0.984
REMARK SMILES CCCCc1cccc(O)c1CCCC
REMARK SMILES IDX 5 1 11 2 9 3 8 4 7 5 6 6 4 7 3 8 2 9 1 10 12 11 13 12 14 13
REMARK SMILES IDX 15 14 10 15
REMARK H PARENT 10 16
REMARK Flexibility Score: inf
ROOT
ATOM      1  C   UNL     1      20.183  28.497 -13.526  1.00  0.00    -0.041 A 
ATOM      2  C   UNL     1      21.337  28.133 -14.277  1.00  0.00    -0.003 A 
ATOM      3  C   UNL     1      21.170  27.564 -15.560  1.00  0.00     0.119 A 
ATOM      4  C   UNL     1      19.889  27.404 -16.100  1.00  0.00     0.046 A 
ATOM      5  C   UNL     1      18.767  27.794 -15.376  1.00  0.00     0.004 A 
ATOM      6  C   UNL     1      18.910  28.337 -14.101  1.00  0.00     0.004 A 
ENDROOT
BRANCH   1   7
ATOM      7  C   UNL     1      20.264  29.105 -12.142  1.00  0.00     0.036 C 
BRANCH   7   8
ATOM      8  C   UNL     1      19.894  28.072 -11.072  1.00  0.00     0.004 C 
BRANCH   8   9
ATOM      9  C   UNL     1      20.660  28.331  -9.770  1.00  0.00    -0.003 C 
ATOM     10  C   UNL     1      22.161  28.429 -10.024  1.00  0.00     0.004 C 
ENDBRANCH   8   9
ENDBRANCH   7   8
ENDBRANCH   1   7
BRANCH   2  11
ATOM     11  C   UNL     1      22.738  28.280 -13.716  1.00  0.00     0.040 C 
BRANCH  11  12
ATOM     12  C   UNL     1      23.294  29.681 -14.009  1.00  0.00     0.005 C 
BRANCH  12  13
ATOM     13  C   UNL     1      23.982  30.310 -12.787  1.00  0.00    -0.003 C 
ATOM     14  C   UNL     1      23.126  31.383 -12.115  1.00  0.00     0.004 C 
ENDBRANCH  12  13
ENDBRANCH  11  12
ENDBRANCH   2  11
BRANCH   3  15
ATOM     15  O   UNL     1      22.283  27.156 -16.298  1.00  0.00    -0.508 OA
ATOM     16  H   UNL     1      22.198  26.521 -17.082  1.00  0.00     0.293 HD
ENDBRANCH   3  15
TORSDOF 7
ENDMDL
MODEL 6
REMARK VINA RESULT:    -5.227     12.595     15.076
REMARK INTER + INTRA:          -8.197
REMARK INTER:                  -7.293
REMARK INTRA:                  -0.904
REMARK UNBOUND:                -0.984
REMARK SMILES CCCCc1cccc(O)c1CCCC
REMARK SMILES IDX 5 1 11 2 9 3 8 4 7 5 6 6 4 7 3 8 2 9 1 10 12 11 13 12 14 13
REMARK SMILES IDX 15 14 10 15
REMARK H PARENT 10 16
REMARK Flexibility Score: inf
ROOT
ATOM      1  C   UNL     1      34.340  30.711 -13.018  1.00  0.00    -0.041 A 
ATOM      2  C   UNL     1      35.062  31.463 -12.048  1.00  0.00    -0.003 A 
ATOM      3  C   UNL     1      36.306  32.031 -12.405  1.00  0.00     0.119 A 
ATOM      4  C   UNL     1      36.798  31.891 -13.707  1.00  0.00     0.046 A 
ATOM      5  C   UNL     1      36.072  31.184 -14.661  1.00  0.00     0.004 A 
ATOM      6  C   UNL     1      34.854  30.600 -14.323  1.00  0.00     0.004 A 
ENDROOT
BRANCH   1   7
ATOM      7  C   UNL     1      33.005  30.062 -12.724  1.00  0.00     0.036 C 
BRANCH   7   8
ATOM      8  C   UNL     1      33.185  28.577 -12.390  1.00  0.00     0.004 C 
BRANCH   8   9
ATOM      9  C   UNL     1      31.850  27.829 -12.475  1.00  0.00    -0.003 C 
ATOM     10  C   UNL     1      30.960  28.411 -13.569  1.00  0.00     0.004 C 
ENDBRANCH   8   9
ENDBRANCH   7   8
ENDBRANCH   1   7
BRANCH   2  11
ATOM     11  C   UNL     1      34.565  31.622 -10.624  1.00  0.00     0.040 C 
BRANCH  11  12
ATOM     12  C   UNL     1      34.817  30.341  -9.817  1.00  0.00     0.005 C 
BRANCH  12  13
ATOM     13  C   UNL     1      33.862  30.198  -8.621  1.00  0.00    -0.003 C 
ATOM     14  C   UNL     1      32.392  30.225  -9.035  1.00  0.00     0.004 C 
ENDBRANCH  12  13
ENDBRANCH  11  12
ENDBRANCH   2  11
BRANCH   3  15
ATOM     15  O   UNL     1      37.055  32.734 -11.459  1.00  0.00    -0.508 OA
ATOM     16  H   UNL     1      36.631  33.423 -10.850  1.00  0.00     0.293 HD
ENDBRANCH   3  15
TORSDOF 7
ENDMDL
MODEL 7
REMARK VINA RESULT:    -5.178      1.966      4.766
REMARK INTER + INTRA:          -8.130
REMARK INTER:                  -7.087
REMARK INTRA:                  -1.042
REMARK UNBOUND:                -0.984
REMARK SMILES CCCCc1cccc(O)c1CCCC
REMARK SMILES IDX 5 1 11 2 9 3 8 4 7 5 6 6 4 7 3 8 2 9 1 10 12 11 13 12 14 13
REMARK SMILES IDX 15 14 10 15
REMARK H PARENT 10 16
REMARK Flexibility Score: inf
ROOT
ATOM      1  C   UNL     1      21.065  28.377 -13.810  1.00  0.00    -0.041 A 
ATOM      2  C   UNL     1      21.307  27.910 -15.134  1.00  0.00    -0.003 A 
ATOM      3  C   UNL     1      20.211  27.716 -16.004  1.00  0.00     0.119 A 
ATOM      4  C   UNL     1      18.912  28.021 -15.584  1.00  0.00     0.046 A 
ATOM      5  C   UNL     1      18.686  28.511 -14.301  1.00  0.00     0.004 A 
ATOM      6  C   UNL     1      19.751  28.690 -13.421  1.00  0.00     0.004 A 
ENDROOT
BRANCH   1   7
ATOM      7  C   UNL     1      22.175  28.608 -12.807  1.00  0.00     0.036 C 
BRANCH   7   8
ATOM      8  C   UNL     1      22.209  30.074 -12.362  1.00  0.00     0.004 C 
BRANCH   8   9
ATOM      9  C   UNL     1      23.273  30.860 -13.135  1.00  0.00    -0.003 C 
ATOM     10  C   UNL     1      24.647  30.212 -12.995  1.00  0.00     0.004 C 
ENDBRANCH   8   9
ENDBRANCH   7   8
ENDBRANCH   1   7
BRANCH   2  11
ATOM     11  C   UNL     1      22.700  27.555 -15.617  1.00  0.00     0.040 C 
BRANCH  11  12
ATOM     12  C   UNL     1      23.347  28.753 -16.328  1.00  0.00     0.005 C 
BRANCH  12  13
ATOM     13  C   UNL     1      24.819  28.500 -16.690  1.00  0.00    -0.003 C 
ATOM     14  C   UNL     1      25.146  28.881 -18.133  1.00  0.00     0.004 C 
ENDBRANCH  12  13
ENDBRANCH  11  12
ENDBRANCH   2  11
BRANCH   3  15
ATOM     15  O   UNL     1      20.416  27.215 -17.291  1.00  0.00    -0.508 OA
ATOM     16  H   UNL     1      21.341  27.164 -17.701  1.00  0.00     0.293 HD
ENDBRANCH   3  15
TORSDOF 7
ENDMDL
MODEL 8
REMARK VINA RESULT:    -5.053     11.693     13.763
REMARK INTER + INTRA:          -7.957
REMARK INTER:                  -6.776
REMARK INTRA:                  -1.181
REMARK UNBOUND:                -0.984
REMARK SMILES CCCCc1cccc(O)c1CCCC
REMARK SMILES IDX 5 1 11 2 9 3 8 4 7 5 6 6 4 7 3 8 2 9 1 10 12 11 13 12 14 13
REMARK SMILES IDX 15 14 10 15
REMARK H PARENT 10 16
REMARK Flexibility Score: inf
ROOT
ATOM      1  C   UNL     1      33.098  31.869 -15.967  1.00  0.00    -0.041 A 
ATOM      2  C   UNL     1      31.798  31.550 -15.479  1.00  0.00    -0.003 A 
ATOM      3  C   UNL     1      30.766  31.274 -16.403  1.00  0.00     0.119 A 
ATOM      4  C   UNL     1      31.030  31.272 -17.777  1.00  0.00     0.046 A 
ATOM      5  C   UNL     1      32.310  31.550 -18.247  1.00  0.00     0.004 A 
ATOM      6  C   UNL     1      33.336  31.845 -17.352  1.00  0.00     0.004 A 
ENDROOT
BRANCH   1   7
ATOM      7  C   UNL     1      34.261  32.185 -15.052  1.00  0.00     0.036 C 
BRANCH   7   8
ATOM      8  C   UNL     1      35.288  31.046 -15.067  1.00  0.00     0.004 C 
BRANCH   8   9
ATOM      9  C   UNL     1      36.563  31.446 -14.316  1.00  0.00    -0.003 C 
ATOM     10  C   UNL     1      36.236  32.013 -12.938  1.00  0.00     0.004 C 
ENDBRANCH   8   9
ENDBRANCH   7   8
ENDBRANCH   1   7
BRANCH   2  11
ATOM     11  C   UNL     1      31.474  31.557 -13.997  1.00  0.00     0.040 C 
BRANCH  11  12
ATOM     12  C   UNL     1      31.688  30.164 -13.389  1.00  0.00     0.005 C 
BRANCH  12  13
ATOM     13  C   UNL     1      32.724  30.167 -12.254  1.00  0.00    -0.003 C 
ATOM     14  C   UNL     1      33.756  29.050 -12.395  1.00  0.00     0.004 C 
ENDBRANCH  12  13
ENDBRANCH  11  12
ENDBRANCH   2  11
BRANCH   3  15
ATOM     15  O   UNL     1      29.472  31.003 -15.952  1.00  0.00    -0.508 OA
ATOM     16  H   UNL     1      29.021  31.579 -15.251  1.00  0.00     0.293 HD
ENDBRANCH   3  15
TORSDOF 7
ENDMDL
MODEL 9
REMARK VINA RESULT:    -5.047     12.275     14.936
REMARK INTER + INTRA:          -7.948
REMARK INTER:                  -6.934
REMARK INTRA:                  -1.014
REMARK UNBOUND:                -0.984
REMARK SMILES CCCCc1cccc(O)c1CCCC
REMARK SMILES IDX 5 1 11 2 9 3 8 4 7 5 6 6 4 7 3 8 2 9 1 10 12 11 13 12 14 13
REMARK SMILES IDX 15 14 10 15
REMARK H PARENT 10 16
REMARK Flexibility Score: inf
ROOT
ATOM      1  C   UNL     1      35.121  31.552 -14.062  1.00  0.00    -0.041 A 
ATOM      2  C   UNL     1      34.616  31.264 -12.762  1.00  0.00    -0.003 A 
ATOM      3  C   UNL     1      35.407  31.572 -11.633  1.00  0.00     0.119 A 
ATOM      4  C   UNL     1      36.651  32.194 -11.791  1.00  0.00     0.046 A 
ATOM      5  C   UNL     1      37.124  32.506 -13.062  1.00  0.00     0.004 A 
ATOM      6  C   UNL     1      36.368  32.190 -14.188  1.00  0.00     0.004 A 
ENDROOT
BRANCH   1   7
ATOM      7  C   UNL     1      34.348  31.251 -15.327  1.00  0.00     0.036 C 
BRANCH   7   8
ATOM      8  C   UNL     1      33.452  32.434 -15.711  1.00  0.00     0.004 C 
BRANCH   8   9
ATOM      9  C   UNL     1      31.972  32.035 -15.684  1.00  0.00    -0.003 C 
ATOM     10  C   UNL     1      31.680  30.929 -16.694  1.00  0.00     0.004 C 
ENDBRANCH   8   9
ENDBRANCH   7   8
ENDBRANCH   1   7
BRANCH   2  11
ATOM     11  C   UNL     1      33.279  30.577 -12.556  1.00  0.00     0.040 C 
BRANCH  11  12
ATOM     12  C   UNL     1      33.456  29.054 -12.497  1.00  0.00     0.005 C 
BRANCH  12  13
ATOM     13  C   UNL     1      32.120  28.300 -12.588  1.00  0.00    -0.003 C 
ATOM     14  C   UNL     1      31.141  28.949 -13.565  1.00  0.00     0.004 C 
ENDBRANCH  12  13
ENDBRANCH  11  12
ENDBRANCH   2  11
BRANCH   3  15
ATOM     15  O   UNL     1      34.954  31.257 -10.350  1.00  0.00    -0.508 OA
ATOM     16  H   UNL     1      35.347  31.694  -9.525  1.00  0.00     0.293 HD
ENDBRANCH   3  15
TORSDOF 7
ENDMDL
