MODEL 1
REMARK VINA RESULT:    -5.965      0.000      0.000
REMARK INTER + INTRA:         -15.039
REMARK INTER:                 -13.636
REMARK INTRA:                  -1.403
REMARK UNBOUND:                -1.403
REMARK SMILES CCCCCCCCCCCCCCCCCCCCCCCC(=O)[O-]
REMARK SMILES IDX 13 1 14 2 15 3 16 4 17 5 18 6 19 7 20 8 21 9 22 10 23 11
REMARK SMILES IDX 24 12 25 13 26 14 12 15 11 16 10 17 9 18 8 19 7 20 6 21 5 22
REMARK SMILES IDX 4 23 3 24 2 25 1 26
REMARK H PARENT
REMARK Flexibility Score: inf
ROOT
ATOM      1  C   UNL     1     -18.810  23.778  -1.358  1.00  0.00     0.000 C 
ENDROOT
BRANCH   1   2
ATOM      2  C   UNL     1     -19.132  22.280  -1.546  1.00  0.00     0.000 C 
BRANCH   2   3
ATOM      3  C   UNL     1     -20.635  21.981  -1.717  1.00  0.00     0.000 C 
BRANCH   3   4
ATOM      4  C   UNL     1     -21.403  21.708  -0.412  1.00  0.00     0.000 C 
BRANCH   4   5
ATOM      5  C   UNL     1     -22.199  22.913   0.129  1.00  0.00     0.000 C 
BRANCH   5   6
ATOM      6  C   UNL     1     -23.541  23.171  -0.584  1.00  0.00     0.000 C 
BRANCH   6   7
ATOM      7  C   UNL     1     -24.707  22.255  -0.150  1.00  0.00     0.000 C 
BRANCH   7   8
ATOM      8  C   UNL     1     -26.044  22.493  -0.876  1.00  0.00     0.000 C 
BRANCH   8   9
ATOM      9  C   UNL     1     -25.938  23.489  -2.044  1.00  0.00     0.000 C 
BRANCH   9  10
ATOM     10  C   UNL     1     -26.884  23.148  -3.210  1.00  0.00     0.006 C 
BRANCH  10  11
ATOM     11  C   UNL     1     -26.799  24.127  -4.393  1.00  0.00     0.053 C 
BRANCH  11  12
ATOM     12  C   UNL     1     -25.414  24.661  -4.605  1.00  0.00     0.041 C 
ATOM     13  O   UNL     1     -24.529  23.933  -5.131  1.00  0.00    -0.550 OA
ATOM     14  O   UNL     1     -25.110  25.974  -4.269  1.00  0.00    -0.550 OA
ENDBRANCH  11  12
ENDBRANCH  10  11
ENDBRANCH   9  10
ENDBRANCH   8   9
ENDBRANCH   7   8
ENDBRANCH   6   7
ENDBRANCH   5   6
ENDBRANCH   4   5
ENDBRANCH   3   4
ENDBRANCH   2   3
ENDBRANCH   1   2
BRANCH   1  15
ATOM     15  C   UNL     1     -18.840  24.201   0.120  1.00  0.00     0.000 C 
BRANCH  15  16
ATOM     16  C   UNL     1     -18.415  25.670   0.288  1.00  0.00     0.000 C 
BRANCH  16  17
ATOM     17  C   UNL     1     -17.412  25.869   1.442  1.00  0.00     0.000 C 
BRANCH  17  18
ATOM     18  C   UNL     1     -16.049  26.440   1.002  1.00  0.00    -0.000 C 
BRANCH  18  19
ATOM     19  C   UNL     1     -16.173  27.378  -0.210  1.00  0.00    -0.000 C 
BRANCH  19  20
ATOM     20  C   UNL     1     -16.567  28.812   0.197  1.00  0.00    -0.000 C 
BRANCH  20  21
ATOM     21  C   UNL     1     -15.925  29.295   1.516  1.00  0.00    -0.000 C 
BRANCH  21  22
ATOM     22  C   UNL     1     -15.551  30.792   1.541  1.00  0.00    -0.000 C 
BRANCH  22  23
ATOM     23  C   UNL     1     -16.721  31.708   1.153  1.00  0.00    -0.000 C 
BRANCH  23  24
ATOM     24  C   UNL     1     -16.212  33.083   0.694  1.00  0.00    -0.000 C 
BRANCH  24  25
ATOM     25  C   UNL     1     -16.897  33.571  -0.592  1.00  0.00    -0.003 C 
ATOM     26  C   UNL     1     -18.064  32.678  -1.017  1.00  0.00     0.004 C 
ENDBRANCH  24  25
ENDBRANCH  23  24
ENDBRANCH  22  23
ENDBRANCH  21  22
ENDBRANCH  20  21
ENDBRANCH  19  20
ENDBRANCH  18  19
ENDBRANCH  17  18
ENDBRANCH  16  17
ENDBRANCH  15  16
ENDBRANCH   1  15
TORSDOF 22
ENDMDL
MODEL 2
REMARK VINA RESULT:    -5.944      0.979      2.085
REMARK INTER + INTRA:         -14.992
REMARK INTER:                 -13.294
REMARK INTRA:                  -1.699
REMARK UNBOUND:                -1.403
REMARK SMILES CCCCCCCCCCCCCCCCCCCCCCCC(=O)[O-]
REMARK SMILES IDX 13 1 14 2 15 3 16 4 17 5 18 6 19 7 20 8 21 9 22 10 23 11
REMARK SMILES IDX 24 12 25 13 26 14 12 15 11 16 10 17 9 18 8 19 7 20 6 21 5 22
REMARK SMILES IDX 4 23 3 24 2 25 1 26
REMARK H PARENT
REMARK Flexibility Score: inf
ROOT
ATOM      1  C   UNL     1     -18.714  24.580   0.521  1.00  0.00     0.000 C 
ENDROOT
BRANCH   1   2
ATOM      2  C   UNL     1     -18.591  24.185  -0.966  1.00  0.00     0.000 C 
BRANCH   2   3
ATOM      3  C   UNL     1     -18.813  22.683  -1.234  1.00  0.00     0.000 C 
BRANCH   3   4
ATOM      4  C   UNL     1     -20.224  22.304  -1.716  1.00  0.00     0.000 C 
BRANCH   4   5
ATOM      5  C   UNL     1     -21.115  21.646  -0.642  1.00  0.00     0.000 C 
BRANCH   5   6
ATOM      6  C   UNL     1     -22.091  22.610   0.062  1.00  0.00     0.000 C 
BRANCH   6   7
ATOM      7  C   UNL     1     -23.573  22.177   0.048  1.00  0.00     0.000 C 
BRANCH   7   8
ATOM      8  C   UNL     1     -24.565  23.219  -0.503  1.00  0.00     0.000 C 
BRANCH   8   9
ATOM      9  C   UNL     1     -25.907  22.611  -0.948  1.00  0.00     0.000 C 
BRANCH   9  10
ATOM     10  C   UNL     1     -26.341  23.080  -2.349  1.00  0.00     0.006 C 
BRANCH  10  11
ATOM     11  C   UNL     1     -25.587  24.322  -2.855  1.00  0.00     0.053 C 
BRANCH  11  12
ATOM     12  C   UNL     1     -25.658  24.476  -4.345  1.00  0.00     0.041 C 
ATOM     13  O   UNL     1     -26.611  25.113  -4.870  1.00  0.00    -0.550 OA
ATOM     14  O   UNL     1     -24.651  23.961  -5.152  1.00  0.00    -0.550 OA
ENDBRANCH  11  12
ENDBRANCH  10  11
ENDBRANCH   9  10
ENDBRANCH   8   9
ENDBRANCH   7   8
ENDBRANCH   6   7
ENDBRANCH   5   6
ENDBRANCH   4   5
ENDBRANCH   3   4
ENDBRANCH   2   3
ENDBRANCH   1   2
BRANCH   1  15
ATOM     15  C   UNL     1     -17.804  25.764   0.889  1.00  0.00     0.000 C 
BRANCH  15  16
ATOM     16  C   UNL     1     -17.540  26.665  -0.329  1.00  0.00     0.000 C 
BRANCH  16  17
ATOM     17  C   UNL     1     -16.187  27.398  -0.243  1.00  0.00     0.000 C 
BRANCH  17  18
ATOM     18  C   UNL     1     -16.284  28.842   0.288  1.00  0.00    -0.000 C 
BRANCH  18  19
ATOM     19  C   UNL     1     -16.185  28.909   1.821  1.00  0.00    -0.000 C 
BRANCH  19  20
ATOM     20  C   UNL     1     -15.980  30.349   2.332  1.00  0.00    -0.000 C 
BRANCH  20  21
ATOM     21  C   UNL     1     -15.753  31.391   1.214  1.00  0.00    -0.000 C 
BRANCH  21  22
ATOM     22  C   UNL     1     -16.850  32.471   1.106  1.00  0.00    -0.000 C 
BRANCH  22  23
ATOM     23  C   UNL     1     -16.976  33.055  -0.309  1.00  0.00    -0.000 C 
BRANCH  23  24
ATOM     24  C   UNL     1     -18.258  32.556  -0.996  1.00  0.00    -0.000 C 
BRANCH  24  25
ATOM     25  C   UNL     1     -17.998  31.389  -1.961  1.00  0.00    -0.003 C 
ATOM     26  C   UNL     1     -18.963  30.221  -1.753  1.00  0.00     0.004 C 
ENDBRANCH  24  25
ENDBRANCH  23  24
ENDBRANCH  22  23
ENDBRANCH  21  22
ENDBRANCH  20  21
ENDBRANCH  19  20
ENDBRANCH  18  19
ENDBRANCH  17  18
ENDBRANCH  16  17
ENDBRANCH  15  16
ENDBRANCH   1  15
TORSDOF 22
ENDMDL
MODEL 3
REMARK VINA RESULT:    -5.911      4.458     10.707
REMARK INTER + INTRA:         -14.916
REMARK INTER:                 -12.609
REMARK INTRA:                  -2.307
REMARK UNBOUND:                -1.403
REMARK SMILES CCCCCCCCCCCCCCCCCCCCCCCC(=O)[O-]
REMARK SMILES IDX 13 1 14 2 15 3 16 4 17 5 18 6 19 7 20 8 21 9 22 10 23 11
REMARK SMILES IDX 24 12 25 13 26 14 12 15 11 16 10 17 9 18 8 19 7 20 6 21 5 22
REMARK SMILES IDX 4 23 3 24 2 25 1 26
REMARK H PARENT
REMARK Flexibility Score: inf
ROOT
ATOM      1  C   UNL     1     -17.458  29.384  -0.749  1.00  0.00     0.000 C 
ENDROOT
BRANCH   1   2
ATOM      2  C   UNL     1     -18.556  30.074  -1.586  1.00  0.00     0.000 C 
BRANCH   2   3
ATOM      3  C   UNL     1     -18.192  31.503  -2.037  1.00  0.00     0.000 C 
BRANCH   3   4
ATOM      4  C   UNL     1     -18.240  32.573  -0.932  1.00  0.00     0.000 C 
BRANCH   4   5
ATOM      5  C   UNL     1     -16.935  33.378  -0.761  1.00  0.00     0.000 C 
BRANCH   5   6
ATOM      6  C   UNL     1     -16.300  33.285   0.641  1.00  0.00     0.000 C 
BRANCH   6   7
ATOM      7  C   UNL     1     -16.597  31.983   1.416  1.00  0.00     0.000 C 
BRANCH   7   8
ATOM      8  C   UNL     1     -15.404  31.023   1.584  1.00  0.00     0.000 C 
BRANCH   8   9
ATOM      9  C   UNL     1     -15.707  29.826   2.503  1.00  0.00     0.000 C 
BRANCH   9  10
ATOM     10  C   UNL     1     -15.474  30.140   3.992  1.00  0.00     0.006 C 
BRANCH  10  11
ATOM     11  C   UNL     1     -16.468  29.449   4.941  1.00  0.00     0.053 C 
BRANCH  11  12
ATOM     12  C   UNL     1     -17.562  30.364   5.401  1.00  0.00     0.041 C 
ATOM     13  O   UNL     1     -17.335  31.594   5.555  1.00  0.00    -0.550 OA
ATOM     14  O   UNL     1     -18.844  29.872   5.614  1.00  0.00    -0.550 OA
ENDBRANCH  11  12
ENDBRANCH  10  11
ENDBRANCH   9  10
ENDBRANCH   8   9
ENDBRANCH   7   8
ENDBRANCH   6   7
ENDBRANCH   5   6
ENDBRANCH   4   5
ENDBRANCH   3   4
ENDBRANCH   2   3
ENDBRANCH   1   2
BRANCH   1  15
ATOM     15  C   UNL     1     -17.706  27.874  -0.591  1.00  0.00     0.000 C 
BRANCH  15  16
ATOM     16  C   UNL     1     -16.746  27.256   0.440  1.00  0.00     0.000 C 
BRANCH  16  17
ATOM     17  C   UNL     1     -16.895  25.725   0.546  1.00  0.00     0.000 C 
BRANCH  17  18
ATOM     18  C   UNL     1     -18.164  25.265   1.288  1.00  0.00    -0.000 C 
BRANCH  18  19
ATOM     19  C   UNL     1     -19.148  24.529   0.363  1.00  0.00    -0.000 C 
BRANCH  19  20
ATOM     20  C   UNL     1     -18.497  24.112  -0.971  1.00  0.00    -0.000 C 
BRANCH  20  21
ATOM     21  C   UNL     1     -19.277  23.026  -1.744  1.00  0.00    -0.000 C 
BRANCH  21  22
ATOM     22  C   UNL     1     -18.969  21.578  -1.310  1.00  0.00    -0.000 C 
BRANCH  22  23
ATOM     23  C   UNL     1     -20.176  20.875  -0.671  1.00  0.00    -0.000 C 
BRANCH  23  24
ATOM     24  C   UNL     1     -20.141  21.009   0.860  1.00  0.00    -0.000 C 
BRANCH  24  25
ATOM     25  C   UNL     1     -21.395  21.694   1.425  1.00  0.00    -0.003 C 
ATOM     26  C   UNL     1     -22.222  22.398   0.348  1.00  0.00     0.004 C 
ENDBRANCH  24  25
ENDBRANCH  23  24
ENDBRANCH  22  23
ENDBRANCH  21  22
ENDBRANCH  20  21
ENDBRANCH  19  20
ENDBRANCH  18  19
ENDBRANCH  17  18
ENDBRANCH  16  17
ENDBRANCH  15  16
ENDBRANCH   1  15
TORSDOF 22
ENDMDL
MODEL 4
REMARK VINA RESULT:    -5.851      3.735     10.158
REMARK INTER + INTRA:         -14.778
REMARK INTER:                 -13.394
REMARK INTRA:                  -1.385
REMARK UNBOUND:                -1.403
REMARK SMILES CCCCCCCCCCCCCCCCCCCCCCCC(=O)[O-]
REMARK SMILES IDX 13 1 14 2 15 3 16 4 17 5 18 6 19 7 20 8 21 9 22 10 23 11
REMARK SMILES IDX 24 12 25 13 26 14 12 15 11 16 10 17 9 18 8 19 7 20 6 21 5 22
REMARK SMILES IDX 4 23 3 24 2 25 1 26
REMARK H PARENT
REMARK Flexibility Score: inf
ROOT
ATOM      1  C   UNL     1     -18.340  23.941  -0.316  1.00  0.00     0.000 C 
ENDROOT
BRANCH   1   2
ATOM      2  C   UNL     1     -17.878  25.407  -0.183  1.00  0.00     0.000 C 
BRANCH   2   3
ATOM      3  C   UNL     1     -16.695  25.605   0.786  1.00  0.00     0.000 C 
BRANCH   3   4
ATOM      4  C   UNL     1     -16.266  27.065   1.010  1.00  0.00     0.000 C 
BRANCH   4   5
ATOM      5  C   UNL     1     -16.211  27.922  -0.272  1.00  0.00     0.000 C 
BRANCH   5   6
ATOM      6  C   UNL     1     -17.180  29.121  -0.286  1.00  0.00     0.000 C 
BRANCH   6   7
ATOM      7  C   UNL     1     -18.451  28.934  -1.144  1.00  0.00     0.000 C 
BRANCH   7   8
ATOM      8  C   UNL     1     -19.000  30.211  -1.806  1.00  0.00     0.000 C 
BRANCH   8   9
ATOM      9  C   UNL     1     -17.958  31.339  -1.918  1.00  0.00     0.000 C 
BRANCH   9  10
ATOM     10  C   UNL     1     -18.151  32.440  -0.858  1.00  0.00     0.006 C 
BRANCH  10  11
ATOM     11  C   UNL     1     -16.912  33.324  -0.642  1.00  0.00     0.053 C 
BRANCH  11  12
ATOM     12  C   UNL     1     -16.341  33.194   0.739  1.00  0.00     0.041 C 
ATOM     13  O   UNL     1     -16.224  32.058   1.270  1.00  0.00    -0.550 OA
ATOM     14  O   UNL     1     -15.893  34.320   1.420  1.00  0.00    -0.550 OA
ENDBRANCH  11  12
ENDBRANCH  10  11
ENDBRANCH   9  10
ENDBRANCH   8   9
ENDBRANCH   7   8
ENDBRANCH   6   7
ENDBRANCH   5   6
ENDBRANCH   4   5
ENDBRANCH   3   4
ENDBRANCH   2   3
ENDBRANCH   1   2
BRANCH   1  15
ATOM     15  C   UNL     1     -18.839  23.610  -1.733  1.00  0.00     0.000 C 
BRANCH  15  16
ATOM     16  C   UNL     1     -19.366  22.168  -1.816  1.00  0.00     0.000 C 
BRANCH  16  17
ATOM     17  C   UNL     1     -20.007  21.693  -0.496  1.00  0.00     0.000 C 
BRANCH  17  18
ATOM     18  C   UNL     1     -21.541  21.556  -0.554  1.00  0.00    -0.000 C 
BRANCH  18  19
ATOM     19  C   UNL     1     -22.258  22.888  -0.273  1.00  0.00    -0.000 C 
BRANCH  19  20
ATOM     20  C   UNL     1     -23.752  22.692   0.051  1.00  0.00    -0.000 C 
BRANCH  20  21
ATOM     21  C   UNL     1     -24.699  23.620  -0.740  1.00  0.00    -0.000 C 
BRANCH  21  22
ATOM     22  C   UNL     1     -25.888  22.906  -1.417  1.00  0.00    -0.000 C 
BRANCH  22  23
ATOM     23  C   UNL     1     -26.304  23.562  -2.742  1.00  0.00    -0.000 C 
BRANCH  23  24
ATOM     24  C   UNL     1     -25.264  24.602  -3.189  1.00  0.00    -0.000 C 
BRANCH  24  25
ATOM     25  C   UNL     1     -25.454  25.041  -4.649  1.00  0.00    -0.003 C 
ATOM     26  C   UNL     1     -25.912  23.899  -5.557  1.00  0.00     0.004 C 
ENDBRANCH  24  25
ENDBRANCH  23  24
ENDBRANCH  22  23
ENDBRANCH  21  22
ENDBRANCH  20  21
ENDBRANCH  19  20
ENDBRANCH  18  19
ENDBRANCH  17  18
ENDBRANCH  16  17
ENDBRANCH  15  16
ENDBRANCH   1  15
TORSDOF 22
ENDMDL
MODEL 5
REMARK VINA RESULT:    -5.786      2.500     10.053
REMARK INTER + INTRA:         -14.630
REMARK INTER:                 -13.301
REMARK INTRA:                  -1.329
REMARK UNBOUND:                -1.403
REMARK SMILES CCCCCCCCCCCCCCCCCCCCCCCC(=O)[O-]
REMARK SMILES IDX 13 1 14 2 15 3 16 4 17 5 18 6 19 7 20 8 21 9 22 10 23 11
REMARK SMILES IDX 24 12 25 13 26 14 12 15 11 16 10 17 9 18 8 19 7 20 6 21 5 22
REMARK SMILES IDX 4 23 3 24 2 25 1 26
REMARK H PARENT
REMARK Flexibility Score: inf
ROOT
ATOM      1  C   UNL     1     -19.221  24.539   0.257  1.00  0.00     0.000 C 
ENDROOT
BRANCH   1   2
ATOM      2  C   UNL     1     -18.148  25.395   0.963  1.00  0.00     0.000 C 
BRANCH   2   3
ATOM      3  C   UNL     1     -17.722  26.644   0.167  1.00  0.00     0.000 C 
BRANCH   3   4
ATOM      4  C   UNL     1     -16.338  27.212   0.526  1.00  0.00     0.000 C 
BRANCH   4   5
ATOM      5  C   UNL     1     -16.201  28.737   0.341  1.00  0.00     0.000 C 
BRANCH   5   6
ATOM      6  C   UNL     1     -15.898  29.518   1.635  1.00  0.00     0.000 C 
BRANCH   6   7
ATOM      7  C   UNL     1     -15.524  31.004   1.439  1.00  0.00     0.000 C 
BRANCH   7   8
ATOM      8  C   UNL     1     -16.708  31.960   1.199  1.00  0.00     0.000 C 
BRANCH   8   9
ATOM      9  C   UNL     1     -16.359  33.147   0.284  1.00  0.00     0.000 C 
BRANCH   9  10
ATOM     10  C   UNL     1     -17.165  33.149  -1.028  1.00  0.00     0.006 C 
BRANCH  10  11
ATOM     11  C   UNL     1     -18.428  32.272  -0.988  1.00  0.00     0.053 C 
BRANCH  11  12
ATOM     12  C   UNL     1     -18.370  31.126  -1.952  1.00  0.00     0.041 C 
ATOM     13  O   UNL     1     -18.645  29.959  -1.564  1.00  0.00    -0.550 OA
ATOM     14  O   UNL     1     -18.060  31.349  -3.288  1.00  0.00    -0.550 OA
ENDBRANCH  11  12
ENDBRANCH  10  11
ENDBRANCH   9  10
ENDBRANCH   8   9
ENDBRANCH   7   8
ENDBRANCH   6   7
ENDBRANCH   5   6
ENDBRANCH   4   5
ENDBRANCH   3   4
ENDBRANCH   2   3
ENDBRANCH   1   2
BRANCH   1  15
ATOM     15  C   UNL     1     -18.606  23.410  -0.588  1.00  0.00     0.000 C 
BRANCH  15  16
ATOM     16  C   UNL     1     -19.486  23.083  -1.807  1.00  0.00     0.000 C 
BRANCH  16  17
ATOM     17  C   UNL     1     -20.091  21.667  -1.739  1.00  0.00     0.000 C 
BRANCH  17  18
ATOM     18  C   UNL     1     -21.094  21.465  -0.586  1.00  0.00    -0.000 C 
BRANCH  18  19
ATOM     19  C   UNL     1     -22.249  22.480  -0.632  1.00  0.00    -0.000 C 
BRANCH  19  20
ATOM     20  C   UNL     1     -23.454  22.034   0.218  1.00  0.00    -0.000 C 
BRANCH  20  21
ATOM     21  C   UNL     1     -24.794  22.686  -0.191  1.00  0.00    -0.000 C 
BRANCH  21  22
ATOM     22  C   UNL     1     -24.658  23.943  -1.074  1.00  0.00    -0.000 C 
BRANCH  22  23
ATOM     23  C   UNL     1     -25.955  24.296  -1.817  1.00  0.00    -0.000 C 
BRANCH  23  24
ATOM     24  C   UNL     1     -26.129  23.416  -3.065  1.00  0.00    -0.000 C 
BRANCH  24  25
ATOM     25  C   UNL     1     -26.376  24.237  -4.340  1.00  0.00    -0.003 C 
ATOM     26  C   UNL     1     -25.117  24.401  -5.193  1.00  0.00     0.004 C 
ENDBRANCH  24  25
ENDBRANCH  23  24
ENDBRANCH  22  23
ENDBRANCH  21  22
ENDBRANCH  20  21
ENDBRANCH  19  20
ENDBRANCH  18  19
ENDBRANCH  17  18
ENDBRANCH  16  17
ENDBRANCH  15  16
ENDBRANCH   1  15
TORSDOF 22
ENDMDL
MODEL 6
REMARK VINA RESULT:    -5.743      3.888     10.457
REMARK INTER + INTRA:         -14.531
REMARK INTER:                 -12.587
REMARK INTRA:                  -1.944
REMARK UNBOUND:                -1.403
REMARK SMILES CCCCCCCCCCCCCCCCCCCCCCCC(=O)[O-]
REMARK SMILES IDX 13 1 14 2 15 3 16 4 17 5 18 6 19 7 20 8 21 9 22 10 23 11
REMARK SMILES IDX 24 12 25 13 26 14 12 15 11 16 10 17 9 18 8 19 7 20 6 21 5 22
REMARK SMILES IDX 4 23 3 24 2 25 1 26
REMARK H PARENT
REMARK Flexibility Score: inf
ROOT
ATOM      1  C   UNL     1     -17.060  27.230  -0.572  1.00  0.00     0.000 C 
ENDROOT
BRANCH   1   2
ATOM      2  C   UNL     1     -17.605  28.674  -0.612  1.00  0.00     0.000 C 
BRANCH   2   3
ATOM      3  C   UNL     1     -18.971  28.807  -1.314  1.00  0.00     0.000 C 
BRANCH   3   4
ATOM      4  C   UNL     1     -19.221  30.152  -2.017  1.00  0.00     0.000 C 
BRANCH   4   5
ATOM      5  C   UNL     1     -18.049  31.151  -1.926  1.00  0.00     0.000 C 
BRANCH   5   6
ATOM      6  C   UNL     1     -18.281  32.328  -0.956  1.00  0.00     0.000 C 
BRANCH   6   7
ATOM      7  C   UNL     1     -17.097  33.309  -0.813  1.00  0.00     0.000 C 
BRANCH   7   8
ATOM      8  C   UNL     1     -16.307  33.209   0.506  1.00  0.00     0.000 C 
BRANCH   8   9
ATOM      9  C   UNL     1     -16.673  31.973   1.347  1.00  0.00     0.000 C 
BRANCH   9  10
ATOM     10  C   UNL     1     -15.522  30.955   1.446  1.00  0.00     0.006 C 
BRANCH  10  11
ATOM     11  C   UNL     1     -15.872  29.691   2.250  1.00  0.00     0.053 C 
BRANCH  11  12
ATOM     12  C   UNL     1     -15.955  29.946   3.725  1.00  0.00     0.041 C 
ATOM     13  O   UNL     1     -16.930  29.503   4.390  1.00  0.00    -0.550 OA
ATOM     14  O   UNL     1     -14.935  30.629   4.376  1.00  0.00    -0.550 OA
ENDBRANCH  11  12
ENDBRANCH  10  11
ENDBRANCH   9  10
ENDBRANCH   8   9
ENDBRANCH   7   8
ENDBRANCH   6   7
ENDBRANCH   5   6
ENDBRANCH   4   5
ENDBRANCH   3   4
ENDBRANCH   2   3
ENDBRANCH   1   2
BRANCH   1  15
ATOM     15  C   UNL     1     -17.070  26.640   0.848  1.00  0.00     0.000 C 
BRANCH  15  16
ATOM     16  C   UNL     1     -17.942  25.374   0.919  1.00  0.00     0.000 C 
BRANCH  16  17
ATOM     17  C   UNL     1     -18.405  24.894  -0.471  1.00  0.00     0.000 C 
BRANCH  17  18
ATOM     18  C   UNL     1     -18.687  23.381  -0.552  1.00  0.00    -0.000 C 
BRANCH  18  19
ATOM     19  C   UNL     1     -19.515  23.006  -1.793  1.00  0.00    -0.000 C 
BRANCH  19  20
ATOM     20  C   UNL     1     -20.481  21.837  -1.521  1.00  0.00    -0.000 C 
BRANCH  20  21
ATOM     21  C   UNL     1     -20.843  21.647  -0.032  1.00  0.00    -0.000 C 
BRANCH  21  22
ATOM     22  C   UNL     1     -22.327  21.896   0.309  1.00  0.00    -0.000 C 
BRANCH  22  23
ATOM     23  C   UNL     1     -22.870  23.198  -0.299  1.00  0.00    -0.000 C 
BRANCH  23  24
ATOM     24  C   UNL     1     -24.378  23.086  -0.575  1.00  0.00    -0.000 C 
BRANCH  24  25
ATOM     25  C   UNL     1     -24.927  24.284  -1.366  1.00  0.00    -0.003 C 
ATOM     26  C   UNL     1     -26.061  23.898  -2.316  1.00  0.00     0.004 C 
ENDBRANCH  24  25
ENDBRANCH  23  24
ENDBRANCH  22  23
ENDBRANCH  21  22
ENDBRANCH  20  21
ENDBRANCH  19  20
ENDBRANCH  18  19
ENDBRANCH  17  18
ENDBRANCH  16  17
ENDBRANCH  15  16
ENDBRANCH   1  15
TORSDOF 22
ENDMDL
MODEL 7
REMARK VINA RESULT:    -5.705      2.851      5.962
REMARK INTER + INTRA:         -14.446
REMARK INTER:                 -12.294
REMARK INTRA:                  -2.152
REMARK UNBOUND:                -1.403
REMARK SMILES CCCCCCCCCCCCCCCCCCCCCCCC(=O)[O-]
REMARK SMILES IDX 13 1 14 2 15 3 16 4 17 5 18 6 19 7 20 8 21 9 22 10 23 11
REMARK SMILES IDX 24 12 25 13 26 14 12 15 11 16 10 17 9 18 8 19 7 20 6 21 5 22
REMARK SMILES IDX 4 23 3 24 2 25 1 26
REMARK H PARENT
REMARK Flexibility Score: inf
ROOT
ATOM      1  C   UNL     1     -17.550  29.419  -0.744  1.00  0.00     0.000 C 
ENDROOT
BRANCH   1   2
ATOM      2  C   UNL     1     -17.830  27.908  -0.601  1.00  0.00     0.000 C 
BRANCH   2   3
ATOM      3  C   UNL     1     -16.593  27.078  -0.202  1.00  0.00     0.000 C 
BRANCH   3   4
ATOM      4  C   UNL     1     -16.894  25.769   0.549  1.00  0.00     0.000 C 
BRANCH   4   5
ATOM      5  C   UNL     1     -18.380  25.562   0.909  1.00  0.00     0.000 C 
BRANCH   5   6
ATOM      6  C   UNL     1     -18.946  24.179   0.532  1.00  0.00     0.000 C 
BRANCH   6   7
ATOM      7  C   UNL     1     -18.719  23.749  -0.934  1.00  0.00     0.000 C 
BRANCH   7   8
ATOM      8  C   UNL     1     -18.029  22.385  -1.127  1.00  0.00     0.000 C 
BRANCH   8   9
ATOM      9  C   UNL     1     -18.994  21.266  -1.554  1.00  0.00     0.000 C 
BRANCH   9  10
ATOM     10  C   UNL     1     -20.432  21.769  -1.780  1.00  0.00     0.006 C 
BRANCH  10  11
ATOM     11  C   UNL     1     -21.437  21.287  -0.720  1.00  0.00     0.053 C 
BRANCH  11  12
ATOM     12  C   UNL     1     -22.180  22.416  -0.070  1.00  0.00     0.041 C 
ATOM     13  O   UNL     1     -22.956  23.138  -0.752  1.00  0.00    -0.550 OA
ATOM     14  O   UNL     1     -22.055  22.643   1.295  1.00  0.00    -0.550 OA
ENDBRANCH  11  12
ENDBRANCH  10  11
ENDBRANCH   9  10
ENDBRANCH   8   9
ENDBRANCH   7   8
ENDBRANCH   6   7
ENDBRANCH   5   6
ENDBRANCH   4   5
ENDBRANCH   3   4
ENDBRANCH   2   3
ENDBRANCH   1   2
BRANCH   1  15
ATOM     15  C   UNL     1     -18.620  30.134  -1.586  1.00  0.00     0.000 C 
BRANCH  15  16
ATOM     16  C   UNL     1     -18.160  31.546  -1.989  1.00  0.00     0.000 C 
BRANCH  16  17
ATOM     17  C   UNL     1     -18.193  32.540  -0.812  1.00  0.00     0.000 C 
BRANCH  17  18
ATOM     18  C   UNL     1     -16.910  33.379  -0.658  1.00  0.00    -0.000 C 
BRANCH  18  19
ATOM     19  C   UNL     1     -16.242  33.181   0.713  1.00  0.00    -0.000 C 
BRANCH  19  20
ATOM     20  C   UNL     1     -16.683  31.871   1.396  1.00  0.00    -0.000 C 
BRANCH  20  21
ATOM     21  C   UNL     1     -15.518  30.930   1.774  1.00  0.00    -0.000 C 
BRANCH  21  22
ATOM     22  C   UNL     1     -15.948  29.599   2.424  1.00  0.00    -0.000 C 
BRANCH  22  23
ATOM     23  C   UNL     1     -16.185  29.721   3.937  1.00  0.00    -0.000 C 
BRANCH  23  24
ATOM     24  C   UNL     1     -14.923  30.230   4.650  1.00  0.00    -0.000 C 
BRANCH  24  25
ATOM     25  C   UNL     1     -15.244  31.073   5.894  1.00  0.00    -0.003 C 
ATOM     26  C   UNL     1     -16.147  32.267   5.585  1.00  0.00     0.004 C 
ENDBRANCH  24  25
ENDBRANCH  23  24
ENDBRANCH  22  23
ENDBRANCH  21  22
ENDBRANCH  20  21
ENDBRANCH  19  20
ENDBRANCH  18  19
ENDBRANCH  17  18
ENDBRANCH  16  17
ENDBRANCH  15  16
ENDBRANCH   1  15
TORSDOF 22
ENDMDL
MODEL 8
REMARK VINA RESULT:    -5.691      2.344      9.975
REMARK INTER + INTRA:         -14.414
REMARK INTER:                 -13.225
REMARK INTRA:                  -1.189
REMARK UNBOUND:                -1.403
REMARK SMILES CCCCCCCCCCCCCCCCCCCCCCCC(=O)[O-]
REMARK SMILES IDX 13 1 14 2 15 3 16 4 17 5 18 6 19 7 20 8 21 9 22 10 23 11
REMARK SMILES IDX 24 12 25 13 26 14 12 15 11 16 10 17 9 18 8 19 7 20 6 21 5 22
REMARK SMILES IDX 4 23 3 24 2 25 1 26
REMARK H PARENT
REMARK Flexibility Score: inf
ROOT
ATOM      1  C   UNL     1     -18.096  25.582   0.669  1.00  0.00     0.000 C 
ENDROOT
BRANCH   1   2
ATOM      2  C   UNL     1     -16.713  26.243   0.850  1.00  0.00     0.000 C 
BRANCH   2   3
ATOM      3  C   UNL     1     -16.376  27.292  -0.229  1.00  0.00     0.000 C 
BRANCH   3   4
ATOM      4  C   UNL     1     -15.925  28.662   0.305  1.00  0.00     0.000 C 
BRANCH   4   5
ATOM      5  C   UNL     1     -16.274  28.921   1.785  1.00  0.00     0.000 C 
BRANCH   5   6
ATOM      6  C   UNL     1     -15.663  30.208   2.375  1.00  0.00     0.000 C 
BRANCH   6   7
ATOM      7  C   UNL     1     -15.498  31.378   1.380  1.00  0.00     0.000 C 
BRANCH   7   8
ATOM      8  C   UNL     1     -16.634  32.418   1.383  1.00  0.00     0.000 C 
BRANCH   8   9
ATOM      9  C   UNL     1     -16.667  33.292   0.117  1.00  0.00     0.000 C 
BRANCH   9  10
ATOM     10  C   UNL     1     -17.641  32.761  -0.952  1.00  0.00     0.006 C 
BRANCH  10  11
ATOM     11  C   UNL     1     -17.887  31.245  -0.877  1.00  0.00     0.053 C 
BRANCH  11  12
ATOM     12  C   UNL     1     -18.654  30.723  -2.055  1.00  0.00     0.041 C 
ATOM     13  O   UNL     1     -18.334  31.073  -3.223  1.00  0.00    -0.550 OA
ATOM     14  O   UNL     1     -19.688  29.814  -1.872  1.00  0.00    -0.550 OA
ENDBRANCH  11  12
ENDBRANCH  10  11
ENDBRANCH   9  10
ENDBRANCH   8   9
ENDBRANCH   7   8
ENDBRANCH   6   7
ENDBRANCH   5   6
ENDBRANCH   4   5
ENDBRANCH   3   4
ENDBRANCH   2   3
ENDBRANCH   1   2
BRANCH   1  15
ATOM     15  C   UNL     1     -18.190  24.767  -0.631  1.00  0.00     0.000 C 
BRANCH  15  16
ATOM     16  C   UNL     1     -18.966  23.457  -0.414  1.00  0.00     0.000 C 
BRANCH  16  17
ATOM     17  C   UNL     1     -19.358  22.773  -1.738  1.00  0.00     0.000 C 
BRANCH  17  18
ATOM     18  C   UNL     1     -20.721  22.054  -1.697  1.00  0.00    -0.000 C 
BRANCH  18  19
ATOM     19  C   UNL     1     -21.487  22.327  -0.391  1.00  0.00    -0.000 C 
BRANCH  19  20
ATOM     20  C   UNL     1     -22.754  23.173  -0.621  1.00  0.00    -0.000 C 
BRANCH  20  21
ATOM     21  C   UNL     1     -24.030  22.593   0.030  1.00  0.00    -0.000 C 
BRANCH  21  22
ATOM     22  C   UNL     1     -25.352  23.177  -0.510  1.00  0.00    -0.000 C 
BRANCH  22  23
ATOM     23  C   UNL     1     -25.153  24.073  -1.741  1.00  0.00    -0.000 C 
BRANCH  23  24
ATOM     24  C   UNL     1     -26.127  23.685  -2.865  1.00  0.00    -0.000 C 
BRANCH  24  25
ATOM     25  C   UNL     1     -26.046  24.632  -4.072  1.00  0.00    -0.003 C 
ATOM     26  C   UNL     1     -24.984  24.208  -5.088  1.00  0.00     0.004 C 
ENDBRANCH  24  25
ENDBRANCH  23  24
ENDBRANCH  22  23
ENDBRANCH  21  22
ENDBRANCH  20  21
ENDBRANCH  19  20
ENDBRANCH  18  19
ENDBRANCH  17  18
ENDBRANCH  16  17
ENDBRANCH  15  16
ENDBRANCH   1  15
TORSDOF 22
ENDMDL
MODEL 9
REMARK VINA RESULT:    -5.647      1.488      3.735
REMARK INTER + INTRA:         -14.312
REMARK INTER:                 -12.544
REMARK INTRA:                  -1.768
REMARK UNBOUND:                -1.403
REMARK SMILES CCCCCCCCCCCCCCCCCCCCCCCC(=O)[O-]
REMARK SMILES IDX 13 1 14 2 15 3 16 4 17 5 18 6 19 7 20 8 21 9 22 10 23 11
REMARK SMILES IDX 24 12 25 13 26 14 12 15 11 16 10 17 9 18 8 19 7 20 6 21 5 22
REMARK SMILES IDX 4 23 3 24 2 25 1 26
REMARK H PARENT
REMARK Flexibility Score: inf
ROOT
ATOM      1  C   UNL     1     -17.715  26.664   0.433  1.00  0.00     0.000 C 
ENDROOT
BRANCH   1   2
ATOM      2  C   UNL     1     -17.427  25.185   0.100  1.00  0.00     0.000 C 
BRANCH   2   3
ATOM      3  C   UNL     1     -18.695  24.335  -0.116  1.00  0.00     0.000 C 
BRANCH   3   4
ATOM      4  C   UNL     1     -18.531  23.141  -1.073  1.00  0.00     0.000 C 
BRANCH   4   5
ATOM      5  C   UNL     1     -19.824  22.717  -1.799  1.00  0.00     0.000 C 
BRANCH   5   6
ATOM      6  C   UNL     1     -21.106  22.830  -0.949  1.00  0.00     0.000 C 
BRANCH   6   7
ATOM      7  C   UNL     1     -21.411  21.613  -0.049  1.00  0.00     0.000 C 
BRANCH   7   8
ATOM      8  C   UNL     1     -22.890  21.186   0.012  1.00  0.00     0.000 C 
BRANCH   8   9
ATOM      9  C   UNL     1     -23.813  22.261   0.613  1.00  0.00     0.000 C 
BRANCH   9  10
ATOM     10  C   UNL     1     -24.983  22.633  -0.317  1.00  0.00     0.006 C 
BRANCH  10  11
ATOM     11  C   UNL     1     -24.769  23.940  -1.099  1.00  0.00     0.053 C 
BRANCH  11  12
ATOM     12  C   UNL     1     -25.746  24.108  -2.225  1.00  0.00     0.041 C 
ATOM     13  O   UNL     1     -25.454  24.838  -3.210  1.00  0.00    -0.550 OA
ATOM     14  O   UNL     1     -26.955  23.424  -2.212  1.00  0.00    -0.550 OA
ENDBRANCH  11  12
ENDBRANCH  10  11
ENDBRANCH   9  10
ENDBRANCH   8   9
ENDBRANCH   7   8
ENDBRANCH   6   7
ENDBRANCH   5   6
ENDBRANCH   4   5
ENDBRANCH   3   4
ENDBRANCH   2   3
ENDBRANCH   1   2
BRANCH   1  15
ATOM     15  C   UNL     1     -16.575  27.596  -0.009  1.00  0.00     0.000 C 
BRANCH  15  16
ATOM     16  C   UNL     1     -17.123  28.883  -0.649  1.00  0.00     0.000 C 
BRANCH  16  17
ATOM     17  C   UNL     1     -18.591  28.743  -1.099  1.00  0.00     0.000 C 
BRANCH  17  18
ATOM     18  C   UNL     1     -19.157  29.993  -1.802  1.00  0.00    -0.000 C 
BRANCH  18  19
ATOM     19  C   UNL     1     -18.103  31.102  -1.960  1.00  0.00    -0.000 C 
BRANCH  19  20
ATOM     20  C   UNL     1     -18.293  32.240  -0.937  1.00  0.00    -0.000 C 
BRANCH  20  21
ATOM     21  C   UNL     1     -17.084  33.194  -0.819  1.00  0.00    -0.000 C 
BRANCH  21  22
ATOM     22  C   UNL     1     -16.423  33.230   0.574  1.00  0.00    -0.000 C 
BRANCH  22  23
ATOM     23  C   UNL     1     -16.726  31.979   1.412  1.00  0.00    -0.000 C 
BRANCH  23  24
ATOM     24  C   UNL     1     -15.477  31.092   1.545  1.00  0.00    -0.000 C 
BRANCH  24  25
ATOM     25  C   UNL     1     -15.675  29.934   2.535  1.00  0.00    -0.003 C 
ATOM     26  C   UNL     1     -15.660  30.391   3.995  1.00  0.00     0.004 C 
ENDBRANCH  24  25
ENDBRANCH  23  24
ENDBRANCH  22  23
ENDBRANCH  21  22
ENDBRANCH  20  21
ENDBRANCH  19  20
ENDBRANCH  18  19
ENDBRANCH  17  18
ENDBRANCH  16  17
ENDBRANCH  15  16
ENDBRANCH   1  15
TORSDOF 22
ENDMDL
