MODEL 1
REMARK VINA RESULT:    -4.426      0.000      0.000
REMARK INTER + INTRA:          -7.820
REMARK INTER:                  -6.755
REMARK INTRA:                  -1.066
REMARK UNBOUND:                -1.066
REMARK SMILES OC[C@@H]1O[C@H](O[C@]2(CO)O[C@@H](CO)[C@H](O)[C@@H]2O)[C@H](O)[C@H](O)[C@H]1O
REMARK SMILES IDX 6 1 5 2 3 3 22 4 4 5 20 6 18 7 2 8 1 9 23 11 21 13 19 15
REMARK SMILES IDX 7 17 16 18 10 19 14 20 11 21 8 22 9 23 17 25 15 27 12 29
REMARK SMILES IDX 13 30
REMARK H PARENT 1 10 23 12 21 14 19 16 9 24 17 26 15 28 13 31
REMARK Flexibility Score: inf
ROOT
ATOM      1  O   UNL     1       1.606  45.518   9.546  1.00  0.00    -0.313 OA
ENDROOT
BRANCH   1   2
ATOM      2  C   UNL     1       1.103  46.784   9.960  1.00  0.00     0.285 C 
ATOM      3  C   UNL     1       2.612  48.149   8.683  1.00  0.00     0.178 C 
ATOM      4  C   UNL     1       1.488  48.586   7.707  1.00  0.00     0.177 C 
ATOM      5  O   UNL     1       2.140  47.759   9.972  1.00  0.00    -0.341 OA
ATOM      6  C   UNL     1       0.343  47.561   7.654  1.00  0.00     0.179 C 
ATOM      7  C   UNL     1      -0.093  47.219   9.085  1.00  0.00     0.202 C 
BRANCH   3   8
ATOM      8  C   UNL     1       3.607  47.134   8.088  1.00  0.00     0.191 C 
BRANCH   8   9
ATOM      9  O   UNL     1       4.523  46.728   9.068  1.00  0.00    -0.394 OA
ATOM     10  H   UNL     1       5.421  46.969   8.725  1.00  0.00     0.210 HD
ENDBRANCH   8   9
ENDBRANCH   3   8
BRANCH   4  11
ATOM     11  O   UNL     1       0.986  49.831   8.128  1.00  0.00    -0.387 OA
ATOM     12  H   UNL     1       0.990  50.428   7.336  1.00  0.00     0.211 HD
ENDBRANCH   4  11
BRANCH   6  13
ATOM     13  O   UNL     1       0.744  46.403   6.968  1.00  0.00    -0.387 OA
ATOM     14  H   UNL     1       1.147  45.794   7.640  1.00  0.00     0.211 HD
ENDBRANCH   6  13
BRANCH   7  15
ATOM     15  O   UNL     1      -1.124  46.261   9.096  1.00  0.00    -0.385 OA
ATOM     16  H   UNL     1      -1.733  46.452   8.338  1.00  0.00     0.211 HD
ENDBRANCH   7  15
ENDBRANCH   1   2
BRANCH   1  17
ATOM     17  C   UNL     1       1.729  44.563  10.601  1.00  0.00     0.224 C 
ATOM     18  C   UNL     1       2.239  43.239  10.014  1.00  0.00     0.208 C 
ATOM     19  O   UNL     1       2.684  44.978  11.558  1.00  0.00    -0.337 OA
ATOM     20  C   UNL     1       3.746  43.325  10.177  1.00  0.00     0.180 C 
ATOM     21  C   UNL     1       3.943  44.519  11.122  1.00  0.00     0.179 C 
BRANCH  17  22
ATOM     22  C   UNL     1       0.358  44.342  11.286  1.00  0.00     0.225 C 
BRANCH  22  23
ATOM     23  O   UNL     1       0.471  43.389  12.309  1.00  0.00    -0.391 OA
ATOM     24  H   UNL     1       1.358  43.540  12.731  1.00  0.00     0.210 HD
ENDBRANCH  22  23
ENDBRANCH  17  22
BRANCH  18  25
ATOM     25  O   UNL     1       1.846  43.087   8.671  1.00  0.00    -0.385 OA
ATOM     26  H   UNL     1       1.676  42.119   8.535  1.00  0.00     0.211 HD
ENDBRANCH  18  25
BRANCH  20  27
ATOM     27  O   UNL     1       4.392  43.571   8.953  1.00  0.00    -0.387 OA
ATOM     28  H   UNL     1       5.368  43.499   9.123  1.00  0.00     0.211 HD
ENDBRANCH  20  27
BRANCH  21  29
ATOM     29  C   UNL     1       4.796  44.158  12.346  1.00  0.00     0.191 C 
BRANCH  29  30
ATOM     30  O   UNL     1       4.755  42.777  12.592  1.00  0.00    -0.394 OA
ATOM     31  H   UNL     1       5.078  42.645  13.521  1.00  0.00     0.210 HD
ENDBRANCH  29  30
ENDBRANCH  21  29
ENDBRANCH   1  17
TORSDOF 13
ENDMDL
MODEL 2
REMARK VINA RESULT:    -4.063      1.546      5.098
REMARK INTER + INTRA:          -7.266
REMARK INTER:                  -6.255
REMARK INTRA:                  -1.011
REMARK UNBOUND:                -1.066
REMARK SMILES OC[C@@H]1O[C@H](O[C@]2(CO)O[C@@H](CO)[C@H](O)[C@@H]2O)[C@H](O)[C@H](O)[C@H]1O
REMARK SMILES IDX 6 1 5 2 3 3 22 4 4 5 20 6 18 7 2 8 1 9 23 11 21 13 19 15
REMARK SMILES IDX 7 17 16 18 10 19 14 20 11 21 8 22 9 23 17 25 15 27 12 29
REMARK SMILES IDX 13 30
REMARK H PARENT 1 10 23 12 21 14 19 16 9 24 17 26 15 28 13 31
REMARK Flexibility Score: inf
ROOT
ATOM      1  O   UNL     1       1.305  45.424  10.486  1.00  0.00    -0.313 OA
ENDROOT
BRANCH   1   2
ATOM      2  C   UNL     1       1.745  44.154  10.013  1.00  0.00     0.285 C 
ATOM      3  C   UNL     1       4.090  44.661   9.903  1.00  0.00     0.178 C 
ATOM      4  C   UNL     1       4.406  43.753  11.121  1.00  0.00     0.177 C 
ATOM      5  O   UNL     1       2.905  44.294   9.200  1.00  0.00    -0.341 OA
ATOM      6  C   UNL     1       3.182  43.574  12.036  1.00  0.00     0.179 C 
ATOM      7  C   UNL     1       1.971  43.174  11.184  1.00  0.00     0.202 C 
BRANCH   3   8
ATOM      8  C   UNL     1       4.153  46.171  10.207  1.00  0.00     0.191 C 
BRANCH   8   9
ATOM      9  O   UNL     1       4.384  46.888   9.025  1.00  0.00    -0.394 OA
ATOM     10  H   UNL     1       4.140  46.281   8.280  1.00  0.00     0.210 HD
ENDBRANCH   8   9
ENDBRANCH   3   8
BRANCH   4  11
ATOM     11  O   UNL     1       4.827  42.498  10.648  1.00  0.00    -0.387 OA
ATOM     12  H   UNL     1       4.009  41.978  10.435  1.00  0.00     0.211 HD
ENDBRANCH   4  11
BRANCH   6  13
ATOM     13  O   UNL     1       2.919  44.756  12.749  1.00  0.00    -0.387 OA
ATOM     14  H   UNL     1       3.792  45.203  12.899  1.00  0.00     0.211 HD
ENDBRANCH   6  13
BRANCH   7  15
ATOM     15  O   UNL     1       0.813  43.023  11.970  1.00  0.00    -0.385 OA
ATOM     16  H   UNL     1       0.556  42.066  11.961  1.00  0.00     0.211 HD
ENDBRANCH   7  15
ENDBRANCH   1   2
BRANCH   1  17
ATOM     17  C   UNL     1       0.106  45.895   9.869  1.00  0.00     0.224 C 
ATOM     18  C   UNL     1       0.390  47.250   9.205  1.00  0.00     0.208 C 
ATOM     19  O   UNL     1      -0.319  45.020   8.841  1.00  0.00    -0.337 OA
ATOM     20  C   UNL     1       0.754  46.886   7.776  1.00  0.00     0.180 C 
ATOM     21  C   UNL     1       0.335  45.414   7.656  1.00  0.00     0.179 C 
BRANCH  17  22
ATOM     22  C   UNL     1      -1.015  46.051  10.924  1.00  0.00     0.225 C 
BRANCH  22  23
ATOM     23  O   UNL     1      -1.120  44.888  11.702  1.00  0.00    -0.391 OA
ATOM     24  H   UNL     1      -2.040  44.543  11.560  1.00  0.00     0.210 HD
ENDBRANCH  22  23
ENDBRANCH  17  22
BRANCH  18  25
ATOM     25  O   UNL     1       1.421  47.941   9.868  1.00  0.00    -0.385 OA
ATOM     26  H   UNL     1       1.899  48.468   9.177  1.00  0.00     0.211 HD
ENDBRANCH  18  25
BRANCH  20  27
ATOM     27  O   UNL     1       2.133  47.013   7.538  1.00  0.00    -0.387 OA
ATOM     28  H   UNL     1       2.418  46.196   7.052  1.00  0.00     0.211 HD
ENDBRANCH  20  27
BRANCH  21  29
ATOM     29  C   UNL     1      -0.599  45.170   6.463  1.00  0.00     0.191 C 
BRANCH  29  30
ATOM     30  O   UNL     1      -1.096  46.382   5.964  1.00  0.00    -0.394 OA
ATOM     31  H   UNL     1      -0.331  47.014   5.937  1.00  0.00     0.210 HD
ENDBRANCH  29  30
ENDBRANCH  21  29
ENDBRANCH   1  17
TORSDOF 13
ENDMDL
MODEL 3
REMARK VINA RESULT:    -4.047      1.571      3.673
REMARK INTER + INTRA:          -7.242
REMARK INTER:                  -5.724
REMARK INTRA:                  -1.518
REMARK UNBOUND:                -1.066
REMARK SMILES OC[C@@H]1O[C@H](O[C@]2(CO)O[C@@H](CO)[C@H](O)[C@@H]2O)[C@H](O)[C@H](O)[C@H]1O
REMARK SMILES IDX 6 1 5 2 3 3 22 4 4 5 20 6 18 7 2 8 1 9 23 11 21 13 19 15
REMARK SMILES IDX 7 17 16 18 10 19 14 20 11 21 8 22 9 23 17 25 15 27 12 29
REMARK SMILES IDX 13 30
REMARK H PARENT 1 10 23 12 21 14 19 16 9 24 17 26 15 28 13 31
REMARK Flexibility Score: inf
ROOT
ATOM      1  O   UNL     1       2.669  46.699   9.305  1.00  0.00    -0.313 OA
ENDROOT
BRANCH   1   2
ATOM      2  C   UNL     1       2.138  46.711   7.984  1.00  0.00     0.285 C 
ATOM      3  C   UNL     1      -0.164  46.357   8.575  1.00  0.00     0.178 C 
ATOM      4  C   UNL     1      -0.547  47.813   8.201  1.00  0.00     0.177 C 
ATOM      5  O   UNL     1       0.992  45.870   7.895  1.00  0.00    -0.341 OA
ATOM      6  C   UNL     1       0.659  48.764   8.287  1.00  0.00     0.179 C 
ATOM      7  C   UNL     1       1.838  48.153   7.520  1.00  0.00     0.202 C 
BRANCH   3   8
ATOM      8  C   UNL     1      -0.115  46.085  10.091  1.00  0.00     0.191 C 
BRANCH   8   9
ATOM      9  O   UNL     1       0.382  44.797  10.331  1.00  0.00    -0.394 OA
ATOM     10  H   UNL     1      -0.409  44.221  10.492  1.00  0.00     0.210 HD
ENDBRANCH   8   9
ENDBRANCH   3   8
BRANCH   4  11
ATOM     11  O   UNL     1      -1.060  47.821   6.892  1.00  0.00    -0.387 OA
ATOM     12  H   UNL     1      -1.783  48.501   6.867  1.00  0.00     0.211 HD
ENDBRANCH   4  11
BRANCH   6  13
ATOM     13  O   UNL     1       1.008  49.002   9.627  1.00  0.00    -0.387 OA
ATOM     14  H   UNL     1       1.681  48.317   9.876  1.00  0.00     0.211 HD
ENDBRANCH   6  13
BRANCH   7  15
ATOM     15  O   UNL     1       2.981  48.972   7.589  1.00  0.00    -0.385 OA
ATOM     16  H   UNL     1       3.626  48.549   8.211  1.00  0.00     0.211 HD
ENDBRANCH   7  15
ENDBRANCH   1   2
BRANCH   1  17
ATOM     17  C   UNL     1       3.938  46.053   9.419  1.00  0.00     0.224 C 
ATOM     18  C   UNL     1       4.303  45.937  10.906  1.00  0.00     0.208 C 
ATOM     19  O   UNL     1       3.889  44.734   8.910  1.00  0.00    -0.337 OA
ATOM     20  C   UNL     1       3.786  44.566  11.303  1.00  0.00     0.180 C 
ATOM     21  C   UNL     1       3.472  43.892   9.960  1.00  0.00     0.179 C 
BRANCH  17  22
ATOM     22  C   UNL     1       5.023  46.866   8.673  1.00  0.00     0.225 C 
BRANCH  22  23
ATOM     23  O   UNL     1       5.166  48.137   9.251  1.00  0.00    -0.391 OA
ATOM     24  H   UNL     1       5.954  48.080   9.852  1.00  0.00     0.210 HD
ENDBRANCH  22  23
ENDBRANCH  17  22
BRANCH  18  25
ATOM     25  O   UNL     1       3.724  46.975  11.660  1.00  0.00    -0.385 OA
ATOM     26  H   UNL     1       4.174  46.968  12.544  1.00  0.00     0.211 HD
ENDBRANCH  18  25
BRANCH  20  27
ATOM     27  O   UNL     1       2.619  44.651  12.082  1.00  0.00    -0.387 OA
ATOM     28  H   UNL     1       1.992  45.248  11.597  1.00  0.00     0.211 HD
ENDBRANCH  20  27
BRANCH  21  29
ATOM     29  C   UNL     1       4.163  42.530   9.816  1.00  0.00     0.191 C 
BRANCH  29  30
ATOM     30  O   UNL     1       4.583  42.050  11.065  1.00  0.00    -0.394 OA
ATOM     31  H   UNL     1       5.391  41.498  10.900  1.00  0.00     0.210 HD
ENDBRANCH  29  30
ENDBRANCH  21  29
ENDBRANCH   1  17
TORSDOF 13
ENDMDL
MODEL 4
REMARK VINA RESULT:    -3.872      1.606      5.356
REMARK INTER + INTRA:          -6.975
REMARK INTER:                  -6.128
REMARK INTRA:                  -0.847
REMARK UNBOUND:                -1.066
REMARK SMILES OC[C@@H]1O[C@H](O[C@]2(CO)O[C@@H](CO)[C@H](O)[C@@H]2O)[C@H](O)[C@H](O)[C@H]1O
REMARK SMILES IDX 6 1 5 2 3 3 22 4 4 5 20 6 18 7 2 8 1 9 23 11 21 13 19 15
REMARK SMILES IDX 7 17 16 18 10 19 14 20 11 21 8 22 9 23 17 25 15 27 12 29
REMARK SMILES IDX 13 30
REMARK H PARENT 1 10 23 12 21 14 19 16 9 24 17 26 15 28 13 31
REMARK Flexibility Score: inf
ROOT
ATOM      1  O   UNL     1       1.770  45.283   9.634  1.00  0.00    -0.313 OA
ENDROOT
BRANCH   1   2
ATOM      2  C   UNL     1       2.102  45.024  10.995  1.00  0.00     0.285 C 
ATOM      3  C   UNL     1       2.981  42.810  10.682  1.00  0.00     0.178 C 
ATOM      4  C   UNL     1       4.435  43.285  10.943  1.00  0.00     0.177 C 
ATOM      5  O   UNL     1       1.987  43.635  11.286  1.00  0.00    -0.341 OA
ATOM      6  C   UNL     1       4.614  44.782  10.637  1.00  0.00     0.179 C 
ATOM      7  C   UNL     1       3.504  45.574  11.338  1.00  0.00     0.202 C 
BRANCH   3   8
ATOM      8  C   UNL     1       2.672  42.500   9.205  1.00  0.00     0.191 C 
BRANCH   8   9
ATOM      9  O   UNL     1       3.851  42.547   8.448  1.00  0.00    -0.394 OA
ATOM     10  H   UNL     1       3.826  43.405   7.951  1.00  0.00     0.210 HD
ENDBRANCH   8   9
ENDBRANCH   3   8
BRANCH   4  11
ATOM     11  O   UNL     1       4.754  43.038  12.290  1.00  0.00    -0.387 OA
ATOM     12  H   UNL     1       5.173  43.865  12.645  1.00  0.00     0.211 HD
ENDBRANCH   4  11
BRANCH   6  13
ATOM     13  O   UNL     1       4.589  45.012   9.251  1.00  0.00    -0.387 OA
ATOM     14  H   UNL     1       3.909  45.715   9.088  1.00  0.00     0.211 HD
ENDBRANCH   6  13
BRANCH   7  15
ATOM     15  O   UNL     1       3.603  46.953  11.069  1.00  0.00    -0.385 OA
ATOM     16  H   UNL     1       4.543  47.153  10.824  1.00  0.00     0.211 HD
ENDBRANCH   7  15
ENDBRANCH   1   2
BRANCH   1  17
ATOM     17  C   UNL     1       0.387  45.565   9.414  1.00  0.00     0.224 C 
ATOM     18  C   UNL     1       0.229  47.065   9.123  1.00  0.00     0.208 C 
ATOM     19  O   UNL     1      -0.101  44.878   8.278  1.00  0.00    -0.337 OA
ATOM     20  C   UNL     1       0.290  47.151   7.609  1.00  0.00     0.180 C 
ATOM     21  C   UNL     1       0.148  45.692   7.154  1.00  0.00     0.179 C 
BRANCH  17  22
ATOM     22  C   UNL     1      -0.445  45.180  10.661  1.00  0.00     0.225 C 
BRANCH  22  23
ATOM     23  O   UNL     1      -1.124  46.301  11.161  1.00  0.00    -0.391 OA
ATOM     24  H   UNL     1      -0.950  47.039  10.519  1.00  0.00     0.210 HD
ENDBRANCH  22  23
ENDBRANCH  17  22
BRANCH  18  25
ATOM     25  O   UNL     1       1.238  47.819   9.751  1.00  0.00    -0.385 OA
ATOM     26  H   UNL     1       2.029  47.787   9.153  1.00  0.00     0.211 HD
ENDBRANCH  18  25
BRANCH  20  27
ATOM     27  O   UNL     1       1.515  47.676   7.163  1.00  0.00    -0.387 OA
ATOM     28  H   UNL     1       1.915  48.165   7.929  1.00  0.00     0.211 HD
ENDBRANCH  20  27
BRANCH  21  29
ATOM     29  C   UNL     1      -0.986  45.506   6.138  1.00  0.00     0.191 C 
BRANCH  29  30
ATOM     30  O   UNL     1      -0.802  44.330   5.397  1.00  0.00    -0.394 OA
ATOM     31  H   UNL     1      -0.365  43.677   6.003  1.00  0.00     0.210 HD
ENDBRANCH  29  30
ENDBRANCH  21  29
ENDBRANCH   1  17
TORSDOF 13
ENDMDL
MODEL 5
REMARK VINA RESULT:    -3.692      1.589      3.386
REMARK INTER + INTRA:          -6.700
REMARK INTER:                  -5.175
REMARK INTRA:                  -1.525
REMARK UNBOUND:                -1.066
REMARK SMILES OC[C@@H]1O[C@H](O[C@]2(CO)O[C@@H](CO)[C@H](O)[C@@H]2O)[C@H](O)[C@H](O)[C@H]1O
REMARK SMILES IDX 6 1 5 2 3 3 22 4 4 5 20 6 18 7 2 8 1 9 23 11 21 13 19 15
REMARK SMILES IDX 7 17 16 18 10 19 14 20 11 21 8 22 9 23 17 25 15 27 12 29
REMARK SMILES IDX 13 30
REMARK H PARENT 1 10 23 12 21 14 19 16 9 24 17 26 15 28 13 31
REMARK Flexibility Score: inf
ROOT
ATOM      1  O   UNL     1       2.074  45.331   9.669  1.00  0.00    -0.313 OA
ENDROOT
BRANCH   1   2
ATOM      2  C   UNL     1       1.658  45.667   8.349  1.00  0.00     0.285 C 
ATOM      3  C   UNL     1      -0.498  46.558   8.922  1.00  0.00     0.178 C 
ATOM      4  C   UNL     1      -0.049  48.010   8.609  1.00  0.00     0.177 C 
ATOM      5  O   UNL     1       0.244  45.560   8.223  1.00  0.00    -0.341 OA
ATOM      6  C   UNL     1       1.475  48.180   8.736  1.00  0.00     0.179 C 
ATOM      7  C   UNL     1       2.172  47.066   7.945  1.00  0.00     0.202 C 
BRANCH   3   8
ATOM      8  C   UNL     1      -0.634  46.249  10.425  1.00  0.00     0.191 C 
BRANCH   8   9
ATOM      9  O   UNL     1      -0.638  44.862  10.631  1.00  0.00    -0.394 OA
ATOM     10  H   UNL     1      -1.261  44.485   9.958  1.00  0.00     0.210 HD
ENDBRANCH   8   9
ENDBRANCH   3   8
BRANCH   4  11
ATOM     11  O   UNL     1      -0.451  48.333   7.300  1.00  0.00    -0.387 OA
ATOM     12  H   UNL     1      -0.360  47.508   6.756  1.00  0.00     0.211 HD
ENDBRANCH   4  11
BRANCH   6  13
ATOM     13  O   UNL     1       1.866  48.151  10.084  1.00  0.00    -0.387 OA
ATOM     14  H   UNL     1       2.709  48.672  10.151  1.00  0.00     0.211 HD
ENDBRANCH   6  13
BRANCH   7  15
ATOM     15  O   UNL     1       3.573  47.158   8.049  1.00  0.00    -0.385 OA
ATOM     16  H   UNL     1       3.914  46.294   8.397  1.00  0.00     0.211 HD
ENDBRANCH   7  15
ENDBRANCH   1   2
BRANCH   1  17
ATOM     17  C   UNL     1       2.501  43.976   9.820  1.00  0.00     0.224 C 
ATOM     18  C   UNL     1       3.893  43.966  10.468  1.00  0.00     0.208 C 
ATOM     19  O   UNL     1       1.643  43.264  10.690  1.00  0.00    -0.337 OA
ATOM     20  C   UNL     1       3.603  43.838  11.953  1.00  0.00     0.180 C 
ATOM     21  C   UNL     1       2.116  43.461  12.003  1.00  0.00     0.179 C 
BRANCH  17  22
ATOM     22  C   UNL     1       2.556  43.274   8.442  1.00  0.00     0.225 C 
BRANCH  22  23
ATOM     23  O   UNL     1       3.864  42.850   8.162  1.00  0.00    -0.391 OA
ATOM     24  H   UNL     1       3.802  41.880   7.958  1.00  0.00     0.210 HD
ENDBRANCH  22  23
ENDBRANCH  17  22
BRANCH  18  25
ATOM     25  O   UNL     1       4.614  45.133  10.154  1.00  0.00    -0.385 OA
ATOM     26  H   UNL     1       4.054  45.899  10.444  1.00  0.00     0.211 HD
ENDBRANCH  18  25
BRANCH  20  27
ATOM     27  O   UNL     1       3.814  45.049  12.634  1.00  0.00    -0.387 OA
ATOM     28  H   UNL     1       4.566  45.510  12.177  1.00  0.00     0.211 HD
ENDBRANCH  20  27
BRANCH  21  29
ATOM     29  C   UNL     1       1.865  42.189  12.824  1.00  0.00     0.191 C 
BRANCH  29  30
ATOM     30  O   UNL     1       0.541  42.147  13.286  1.00  0.00    -0.394 OA
ATOM     31  H   UNL     1       0.093  42.961  12.936  1.00  0.00     0.210 HD
ENDBRANCH  29  30
ENDBRANCH  21  29
ENDBRANCH   1  17
TORSDOF 13
ENDMDL
MODEL 6
REMARK VINA RESULT:    -3.573      1.532      5.219
REMARK INTER + INTRA:          -6.519
REMARK INTER:                  -6.114
REMARK INTRA:                  -0.405
REMARK UNBOUND:                -1.066
REMARK SMILES OC[C@@H]1O[C@H](O[C@]2(CO)O[C@@H](CO)[C@H](O)[C@@H]2O)[C@H](O)[C@H](O)[C@H]1O
REMARK SMILES IDX 6 1 5 2 3 3 22 4 4 5 20 6 18 7 2 8 1 9 23 11 21 13 19 15
REMARK SMILES IDX 7 17 16 18 10 19 14 20 11 21 8 22 9 23 17 25 15 27 12 29
REMARK SMILES IDX 13 30
REMARK H PARENT 1 10 23 12 21 14 19 16 9 24 17 26 15 28 13 31
REMARK Flexibility Score: inf
ROOT
ATOM      1  O   UNL     1       1.434  45.406   9.825  1.00  0.00    -0.313 OA
ENDROOT
BRANCH   1   2
ATOM      2  C   UNL     1       1.260  43.996   9.919  1.00  0.00     0.285 C 
ATOM      3  C   UNL     1       3.582  43.390   9.819  1.00  0.00     0.178 C 
ATOM      4  C   UNL     1       3.603  42.980  11.315  1.00  0.00     0.177 C 
ATOM      5  O   UNL     1       2.292  43.313   9.216  1.00  0.00    -0.341 OA
ATOM      6  C   UNL     1       2.506  43.696  12.122  1.00  0.00     0.179 C 
ATOM      7  C   UNL     1       1.165  43.545  11.393  1.00  0.00     0.202 C 
BRANCH   3   8
ATOM      8  C   UNL     1       4.295  44.723   9.519  1.00  0.00     0.191 C 
BRANCH   8   9
ATOM      9  O   UNL     1       5.096  45.094  10.608  1.00  0.00    -0.394 OA
ATOM     10  H   UNL     1       5.147  44.299  11.198  1.00  0.00     0.210 HD
ENDBRANCH   8   9
ENDBRANCH   3   8
BRANCH   4  11
ATOM     11  O   UNL     1       3.417  41.588  11.402  1.00  0.00    -0.387 OA
ATOM     12  H   UNL     1       2.789  41.426  12.152  1.00  0.00     0.211 HD
ENDBRANCH   4  11
BRANCH   6  13
ATOM     13  O   UNL     1       2.826  45.053  12.297  1.00  0.00    -0.387 OA
ATOM     14  H   UNL     1       3.411  45.110  13.097  1.00  0.00     0.211 HD
ENDBRANCH   6  13
BRANCH   7  15
ATOM     15  O   UNL     1       0.128  44.208  12.076  1.00  0.00    -0.385 OA
ATOM     16  H   UNL     1       0.266  44.079  13.049  1.00  0.00     0.211 HD
ENDBRANCH   7  15
ENDBRANCH   1   2
BRANCH   1  17
ATOM     17  C   UNL     1       1.169  45.944   8.529  1.00  0.00     0.224 C 
ATOM     18  C   UNL     1       0.249  47.165   8.678  1.00  0.00     0.208 C 
ATOM     19  O   UNL     1       2.356  46.403   7.912  1.00  0.00    -0.337 OA
ATOM     20  C   UNL     1       1.210  48.337   8.756  1.00  0.00     0.180 C 
ATOM     21  C   UNL     1       2.555  47.737   8.322  1.00  0.00     0.179 C 
BRANCH  17  22
ATOM     22  C   UNL     1       0.489  44.879   7.635  1.00  0.00     0.225 C 
BRANCH  22  23
ATOM     23  O   UNL     1      -0.676  45.400   7.054  1.00  0.00    -0.391 OA
ATOM     24  H   UNL     1      -1.364  44.688   7.127  1.00  0.00     0.210 HD
ENDBRANCH  22  23
ENDBRANCH  17  22
BRANCH  18  25
ATOM     25  O   UNL     1      -0.568  47.056   9.818  1.00  0.00    -0.385 OA
ATOM     26  H   UNL     1      -1.503  46.991   9.491  1.00  0.00     0.211 HD
ENDBRANCH  18  25
BRANCH  20  27
ATOM     27  O   UNL     1       1.311  48.846  10.063  1.00  0.00    -0.387 OA
ATOM     28  H   UNL     1       2.166  48.509  10.438  1.00  0.00     0.211 HD
ENDBRANCH  20  27
BRANCH  21  29
ATOM     29  C   UNL     1       3.200  48.524   7.174  1.00  0.00     0.191 C 
BRANCH  29  30
ATOM     30  O   UNL     1       4.499  48.928   7.516  1.00  0.00    -0.394 OA
ATOM     31  H   UNL     1       5.107  48.536   6.836  1.00  0.00     0.210 HD
ENDBRANCH  29  30
ENDBRANCH  21  29
ENDBRANCH   1  17
TORSDOF 13
ENDMDL
MODEL 7
REMARK VINA RESULT:    -3.362      1.465      2.355
REMARK INTER + INTRA:          -6.197
REMARK INTER:                  -5.220
REMARK INTRA:                  -0.977
REMARK UNBOUND:                -1.066
REMARK SMILES OC[C@@H]1O[C@H](O[C@]2(CO)O[C@@H](CO)[C@H](O)[C@@H]2O)[C@H](O)[C@H](O)[C@H]1O
REMARK SMILES IDX 6 1 5 2 3 3 22 4 4 5 20 6 18 7 2 8 1 9 23 11 21 13 19 15
REMARK SMILES IDX 7 17 16 18 10 19 14 20 11 21 8 22 9 23 17 25 15 27 12 29
REMARK SMILES IDX 13 30
REMARK H PARENT 1 10 23 12 21 14 19 16 9 24 17 26 15 28 13 31
REMARK Flexibility Score: inf
ROOT
ATOM      1  O   UNL     1       2.145  45.550   8.744  1.00  0.00    -0.313 OA
ENDROOT
BRANCH   1   2
ATOM      2  C   UNL     1       1.228  46.289   9.544  1.00  0.00     0.285 C 
ATOM      3  C   UNL     1       1.592  48.435   8.529  1.00  0.00     0.178 C 
ATOM      4  C   UNL     1       0.200  48.416   7.845  1.00  0.00     0.177 C 
ATOM      5  O   UNL     1       1.669  47.633   9.706  1.00  0.00    -0.341 OA
ATOM      6  C   UNL     1      -0.321  46.983   7.643  1.00  0.00     0.179 C 
ATOM      7  C   UNL     1      -0.201  46.213   8.964  1.00  0.00     0.202 C 
BRANCH   3   8
ATOM      8  C   UNL     1       2.772  48.190   7.569  1.00  0.00     0.191 C 
BRANCH   8   9
ATOM      9  O   UNL     1       3.973  48.133   8.289  1.00  0.00    -0.394 OA
ATOM     10  H   UNL     1       3.874  47.384   8.932  1.00  0.00     0.210 HD
ENDBRANCH   8   9
ENDBRANCH   3   8
BRANCH   4  11
ATOM     11  O   UNL     1      -0.705  49.137   8.646  1.00  0.00    -0.387 OA
ATOM     12  H   UNL     1      -1.333  48.477   9.039  1.00  0.00     0.211 HD
ENDBRANCH   4  11
BRANCH   6  13
ATOM     13  O   UNL     1       0.396  46.334   6.623  1.00  0.00    -0.387 OA
ATOM     14  H   UNL     1      -0.106  46.481   5.780  1.00  0.00     0.211 HD
ENDBRANCH   6  13
BRANCH   7  15
ATOM     15  O   UNL     1      -0.640  44.882   8.829  1.00  0.00    -0.385 OA
ATOM     16  H   UNL     1      -1.571  44.828   9.165  1.00  0.00     0.211 HD
ENDBRANCH   7  15
ENDBRANCH   1   2
BRANCH   1  17
ATOM     17  C   UNL     1       2.671  44.384   9.381  1.00  0.00     0.224 C 
ATOM     18  C   UNL     1       4.101  44.681   9.854  1.00  0.00     0.208 C 
ATOM     19  O   UNL     1       1.922  44.050  10.533  1.00  0.00    -0.337 OA
ATOM     20  C   UNL     1       3.920  45.148  11.288  1.00  0.00     0.180 C 
ATOM     21  C   UNL     1       2.468  44.772  11.614  1.00  0.00     0.179 C 
BRANCH  17  22
ATOM     22  C   UNL     1       2.680  43.192   8.394  1.00  0.00     0.225 C 
BRANCH  22  23
ATOM     23  O   UNL     1       3.993  42.746   8.179  1.00  0.00    -0.391 OA
ATOM     24  H   UNL     1       3.915  41.837   7.787  1.00  0.00     0.210 HD
ENDBRANCH  22  23
ENDBRANCH  17  22
BRANCH  18  25
ATOM     25  O   UNL     1       4.720  45.649   9.042  1.00  0.00    -0.385 OA
ATOM     26  H   UNL     1       4.981  46.396   9.641  1.00  0.00     0.211 HD
ENDBRANCH  18  25
BRANCH  20  27
ATOM     27  O   UNL     1       4.096  46.537  11.413  1.00  0.00    -0.387 OA
ATOM     28  H   UNL     1       4.593  46.689  12.259  1.00  0.00     0.211 HD
ENDBRANCH  20  27
BRANCH  21  29
ATOM     29  C   UNL     1       2.358  43.926  12.889  1.00  0.00     0.191 C 
BRANCH  29  30
ATOM     30  O   UNL     1       1.374  42.937  12.747  1.00  0.00    -0.394 OA
ATOM     31  H   UNL     1       1.791  42.191  12.243  1.00  0.00     0.210 HD
ENDBRANCH  29  30
ENDBRANCH  21  29
ENDBRANCH   1  17
TORSDOF 13
ENDMDL
MODEL 8
REMARK VINA RESULT:    -3.193      1.768      3.770
REMARK INTER + INTRA:          -5.938
REMARK INTER:                  -6.597
REMARK INTRA:                   0.658
REMARK UNBOUND:                -1.066
REMARK SMILES OC[C@@H]1O[C@H](O[C@]2(CO)O[C@@H](CO)[C@H](O)[C@@H]2O)[C@H](O)[C@H](O)[C@H]1O
REMARK SMILES IDX 6 1 5 2 3 3 22 4 4 5 20 6 18 7 2 8 1 9 23 11 21 13 19 15
REMARK SMILES IDX 7 17 16 18 10 19 14 20 11 21 8 22 9 23 17 25 15 27 12 29
REMARK SMILES IDX 13 30
REMARK H PARENT 1 10 23 12 21 14 19 16 9 24 17 26 15 28 13 31
REMARK Flexibility Score: inf
ROOT
ATOM      1  O   UNL     1       2.726  45.062  10.321  1.00  0.00    -0.313 OA
ENDROOT
BRANCH   1   2
ATOM      2  C   UNL     1       3.843  45.026   9.437  1.00  0.00     0.285 C 
ATOM      3  C   UNL     1       3.548  47.208   8.477  1.00  0.00     0.178 C 
ATOM      4  C   UNL     1       4.791  47.768   9.216  1.00  0.00     0.177 C 
ATOM      5  O   UNL     1       3.586  45.797   8.269  1.00  0.00    -0.341 OA
ATOM      6  C   UNL     1       5.109  46.970  10.492  1.00  0.00     0.179 C 
ATOM      7  C   UNL     1       5.134  45.474  10.156  1.00  0.00     0.202 C 
BRANCH   3   8
ATOM      8  C   UNL     1       2.201  47.683   9.055  1.00  0.00     0.191 C 
BRANCH   8   9
ATOM      9  O   UNL     1       1.788  48.856   8.409  1.00  0.00    -0.394 OA
ATOM     10  H   UNL     1       1.174  48.570   7.684  1.00  0.00     0.210 HD
ENDBRANCH   8   9
ENDBRANCH   3   8
BRANCH   4  11
ATOM     11  O   UNL     1       5.893  47.719   8.344  1.00  0.00    -0.387 OA
ATOM     12  H   UNL     1       5.995  46.774   8.058  1.00  0.00     0.211 HD
ENDBRANCH   4  11
BRANCH   6  13
ATOM     13  O   UNL     1       4.161  47.238  11.494  1.00  0.00    -0.387 OA
ATOM     14  H   UNL     1       4.201  46.484  12.138  1.00  0.00     0.211 HD
ENDBRANCH   6  13
BRANCH   7  15
ATOM     15  O   UNL     1       5.394  44.692  11.298  1.00  0.00    -0.385 OA
ATOM     16  H   UNL     1       4.881  43.848  11.218  1.00  0.00     0.211 HD
ENDBRANCH   7  15
ENDBRANCH   1   2
BRANCH   1  17
ATOM     17  C   UNL     1       1.812  43.977  10.153  1.00  0.00     0.224 C 
ATOM     18  C   UNL     1       2.605  42.715   9.782  1.00  0.00     0.208 C 
ATOM     19  O   UNL     1       1.132  43.690  11.359  1.00  0.00    -0.337 OA
ATOM     20  C   UNL     1       2.860  42.040  11.118  1.00  0.00     0.180 C 
ATOM     21  C   UNL     1       1.930  42.783  12.086  1.00  0.00     0.179 C 
BRANCH  17  22
ATOM     22  C   UNL     1       0.791  44.304   9.037  1.00  0.00     0.225 C 
BRANCH  22  23
ATOM     23  O   UNL     1       1.210  43.757   7.815  1.00  0.00    -0.391 OA
ATOM     24  H   UNL     1       1.538  44.519   7.269  1.00  0.00     0.210 HD
ENDBRANCH  22  23
ENDBRANCH  17  22
BRANCH  18  25
ATOM     25  O   UNL     1       3.793  43.036   9.100  1.00  0.00    -0.385 OA
ATOM     26  H   UNL     1       4.332  42.204   9.064  1.00  0.00     0.211 HD
ENDBRANCH  18  25
BRANCH  20  27
ATOM     27  O   UNL     1       4.196  42.185  11.531  1.00  0.00    -0.387 OA
ATOM     28  H   UNL     1       4.538  43.018  11.113  1.00  0.00     0.211 HD
ENDBRANCH  20  27
BRANCH  21  29
ATOM     29  C   UNL     1       1.017  41.827  12.866  1.00  0.00     0.191 C 
BRANCH  29  30
ATOM     30  O   UNL     1      -0.183  42.460  13.218  1.00  0.00    -0.394 OA
ATOM     31  H   UNL     1       0.060  43.355  13.570  1.00  0.00     0.210 HD
ENDBRANCH  29  30
ENDBRANCH  21  29
ENDBRANCH   1  17
TORSDOF 13
ENDMDL
MODEL 9
REMARK VINA RESULT:    -2.863      1.439      5.747
REMARK INTER + INTRA:          -5.436
REMARK INTER:                  -5.463
REMARK INTRA:                   0.028
REMARK UNBOUND:                -1.066
REMARK SMILES OC[C@@H]1O[C@H](O[C@]2(CO)O[C@@H](CO)[C@H](O)[C@@H]2O)[C@H](O)[C@H](O)[C@H]1O
REMARK SMILES IDX 6 1 5 2 3 3 22 4 4 5 20 6 18 7 2 8 1 9 23 11 21 13 19 15
REMARK SMILES IDX 7 17 16 18 10 19 14 20 11 21 8 22 9 23 17 25 15 27 12 29
REMARK SMILES IDX 13 30
REMARK H PARENT 1 10 23 12 21 14 19 16 9 24 17 26 15 28 13 31
REMARK Flexibility Score: inf
ROOT
ATOM      1  O   UNL     1       1.786  45.327  10.018  1.00  0.00    -0.313 OA
ENDROOT
BRANCH   1   2
ATOM      2  C   UNL     1       3.037  45.178  10.682  1.00  0.00     0.285 C 
ATOM      3  C   UNL     1       2.331  43.561  12.312  1.00  0.00     0.178 C 
ATOM      4  C   UNL     1       3.133  42.426  11.623  1.00  0.00     0.177 C 
ATOM      5  O   UNL     1       2.843  44.867  12.058  1.00  0.00    -0.341 OA
ATOM      6  C   UNL     1       3.365  42.711  10.129  1.00  0.00     0.179 C 
ATOM      7  C   UNL     1       3.921  44.132   9.970  1.00  0.00     0.202 C 
BRANCH   3   8
ATOM      8  C   UNL     1       0.806  43.474  12.105  1.00  0.00     0.191 C 
BRANCH   8   9
ATOM      9  O   UNL     1       0.248  42.575  13.023  1.00  0.00    -0.394 OA
ATOM     10  H   UNL     1       1.009  42.087  13.431  1.00  0.00     0.210 HD
ENDBRANCH   8   9
ENDBRANCH   3   8
BRANCH   4  11
ATOM     11  O   UNL     1       4.372  42.291  12.274  1.00  0.00    -0.387 OA
ATOM     12  H   UNL     1       4.900  43.105  12.065  1.00  0.00     0.211 HD
ENDBRANCH   4  11
BRANCH   6  13
ATOM     13  O   UNL     1       2.171  42.562   9.404  1.00  0.00    -0.387 OA
ATOM     14  H   UNL     1       1.761  43.463   9.334  1.00  0.00     0.211 HD
ENDBRANCH   6  13
BRANCH   7  15
ATOM     15  O   UNL     1       4.128  44.457   8.616  1.00  0.00    -0.385 OA
ATOM     16  H   UNL     1       3.731  45.350   8.449  1.00  0.00     0.211 HD
ENDBRANCH   7  15
ENDBRANCH   1   2
BRANCH   1  17
ATOM     17  C   UNL     1       1.752  46.389   9.064  1.00  0.00     0.224 C 
ATOM     18  C   UNL     1       1.153  45.859   7.754  1.00  0.00     0.208 C 
ATOM     19  O   UNL     1       0.912  47.441   9.498  1.00  0.00    -0.337 OA
ATOM     20  C   UNL     1      -0.326  46.179   7.874  1.00  0.00     0.180 C 
ATOM     21  C   UNL     1      -0.396  47.140   9.069  1.00  0.00     0.179 C 
BRANCH  17  22
ATOM     22  C   UNL     1       3.181  46.926   8.810  1.00  0.00     0.225 C 
BRANCH  22  23
ATOM     23  O   UNL     1       3.208  47.716   7.651  1.00  0.00    -0.391 OA
ATOM     24  H   UNL     1       3.908  48.404   7.801  1.00  0.00     0.210 HD
ENDBRANCH  22  23
ENDBRANCH  17  22
BRANCH  18  25
ATOM     25  O   UNL     1       1.400  44.482   7.596  1.00  0.00    -0.385 OA
ATOM     26  H   UNL     1       1.983  44.211   8.352  1.00  0.00     0.211 HD
ENDBRANCH  18  25
BRANCH  20  27
ATOM     27  O   UNL     1      -1.091  45.029   8.137  1.00  0.00    -0.387 OA
ATOM     28  H   UNL     1      -0.505  44.400   8.633  1.00  0.00     0.211 HD
ENDBRANCH  20  27
BRANCH  21  29
ATOM     29  C   UNL     1      -1.124  48.446   8.724  1.00  0.00     0.191 C 
BRANCH  29  30
ATOM     30  O   UNL     1      -0.546  49.057   7.601  1.00  0.00    -0.394 OA
ATOM     31  H   UNL     1       0.410  48.791   7.595  1.00  0.00     0.210 HD
ENDBRANCH  29  30
ENDBRANCH  21  29
ENDBRANCH   1  17
TORSDOF 13
ENDMDL
