MODEL 1
REMARK VINA RESULT:     1.332      0.000      0.000
REMARK INTER + INTRA:           2.400
REMARK INTER:                   1.916
REMARK INTRA:                   0.484
REMARK UNBOUND:                 0.484
REMARK SMILES O=c1c(O[C@@H]2O[C@@H](CO)[C@@H](O)[C@H](O)[C@H]2O)c(-c2ccc(O)cc2)oc2cc(O)cc(O)c12
REMARK SMILES IDX 4 1 3 2 16 3 24 4 2 5 25 6 1 7 32 8 26 9 30 10 27 11 29 12
REMARK SMILES IDX 17 13 18 14 19 15 20 16 23 17 22 18 21 19 31 21 28 23 5 25
REMARK SMILES IDX 14 26 6 27 12 28 7 29 10 30 15 31 13 33 8 35 9 36 11 38
REMARK H PARENT 21 20 31 22 28 24 15 32 13 34 9 37 11 39
REMARK Flexibility Score: inf
ROOT
ATOM      1  O   UNL     1       1.911  -2.001  -9.963  1.00  0.00    -0.454 OA
ENDROOT
BRANCH   1   2
ATOM      2  C   UNL     1       2.820  -3.070 -10.039  1.00  0.00     0.214 A 
ATOM      3  C   UNL     1       4.215  -2.854 -10.060  1.00  0.00     0.180 A 
ATOM      4  O   UNL     1       5.045  -3.893 -10.035  1.00  0.00    -0.452 OA
ATOM      5  C   UNL     1       2.341  -4.385 -10.076  1.00  0.00     0.239 A 
ATOM      6  C   UNL     1       4.632  -5.156 -10.019  1.00  0.00     0.146 A 
ATOM      7  O   UNL     1       1.098  -4.588 -10.115  1.00  0.00    -0.285 OA
ATOM      8  C   UNL     1       3.252  -5.463 -10.049  1.00  0.00     0.111 A 
ATOM      9  C   UNL     1       5.582  -6.186  -9.977  1.00  0.00     0.094 A 
ATOM     10  C   UNL     1       2.849  -6.822 -10.045  1.00  0.00     0.134 A 
ATOM     11  C   UNL     1       5.178  -7.521  -9.988  1.00  0.00     0.123 A 
ATOM     12  C   UNL     1       3.819  -7.836 -10.023  1.00  0.00     0.093 A 
BRANCH   3  13
ATOM     13  C   UNL     1       4.809  -1.498 -10.094  1.00  0.00     0.021 A 
ATOM     14  C   UNL     1       3.961  -0.378 -10.088  1.00  0.00     0.016 A 
ATOM     15  C   UNL     1       4.494   0.915 -10.096  1.00  0.00     0.047 A 
ATOM     16  C   UNL     1       5.881   1.101 -10.111  1.00  0.00     0.115 A 
ATOM     17  C   UNL     1       6.202  -1.306 -10.100  1.00  0.00     0.016 A 
ATOM     18  C   UNL     1       6.733  -0.012 -10.122  1.00  0.00     0.047 A 
BRANCH  16  19
ATOM     19  O   UNL     1       6.422   2.387 -10.112  1.00  0.00    -0.508 OA
ATOM     20  H   UNL     1       7.421   2.543 -10.191  1.00  0.00     0.293 HD
ENDBRANCH  16  19
ENDBRANCH   3  13
BRANCH  10  21
ATOM     21  O   UNL     1       1.498  -7.172 -10.061  1.00  0.00    -0.507 OA
ATOM     22  H   UNL     1       0.840  -6.780  -9.400  1.00  0.00     0.293 HD
ENDBRANCH  10  21
BRANCH  11  23
ATOM     23  O   UNL     1       6.121  -8.546  -9.968  1.00  0.00    -0.508 OA
ATOM     24  H   UNL     1       7.019  -8.432  -9.518  1.00  0.00     0.293 HD
ENDBRANCH  11  23
ENDBRANCH   1   2
BRANCH   1  25
ATOM     25  C   UNL     1       0.684  -2.062  -9.222  1.00  0.00     0.339 C 
ATOM     26  C   UNL     1       0.567  -0.809  -8.314  1.00  0.00     0.214 C 
ATOM     27  O   UNL     1      -0.410  -2.153 -10.115  1.00  0.00    -0.332 OA
ATOM     28  C   UNL     1      -0.897  -0.292  -8.176  1.00  0.00     0.180 C 
ATOM     29  C   UNL     1      -1.627  -2.443  -9.453  1.00  0.00     0.179 C 
ATOM     30  C   UNL     1      -1.985  -1.394  -8.354  1.00  0.00     0.177 C 
BRANCH  26  31
ATOM     31  O   UNL     1       1.156  -1.051  -7.052  1.00  0.00    -0.384 OA
ATOM     32  H   UNL     1       0.786  -0.381  -6.414  1.00  0.00     0.211 HD
ENDBRANCH  26  31
BRANCH  28  33
ATOM     33  O   UNL     1      -1.121   0.758  -9.093  1.00  0.00    -0.387 OA
ATOM     34  H   UNL     1      -1.242   1.593  -8.571  1.00  0.00     0.211 HD
ENDBRANCH  28  33
BRANCH  29  35
ATOM     35  C   UNL     1      -1.701  -3.926  -9.011  1.00  0.00     0.191 C 
BRANCH  35  36
ATOM     36  O   UNL     1      -1.889  -4.763 -10.124  1.00  0.00    -0.394 OA
ATOM     37  H   UNL     1      -2.770  -4.529 -10.514  1.00  0.00     0.210 HD
ENDBRANCH  35  36
ENDBRANCH  29  35
BRANCH  30  38
ATOM     38  O   UNL     1      -2.342  -1.987  -7.125  1.00  0.00    -0.387 OA
ATOM     39  H   UNL     1      -1.551  -1.975  -6.532  1.00  0.00     0.211 HD
ENDBRANCH  30  38
ENDBRANCH   1  25
TORSDOF 11
ENDMDL
MODEL 2
REMARK VINA RESULT:     3.317     11.970     15.591
REMARK INTER + INTRA:           5.256
REMARK INTER:                   6.188
REMARK INTRA:                  -0.932
REMARK UNBOUND:                 0.484
REMARK SMILES O=c1c(O[C@@H]2O[C@@H](CO)[C@@H](O)[C@H](O)[C@H]2O)c(-c2ccc(O)cc2)oc2cc(O)cc(O)c12
REMARK SMILES IDX 4 1 3 2 16 3 24 4 2 5 25 6 1 7 32 8 26 9 30 10 27 11 29 12
REMARK SMILES IDX 17 13 18 14 19 15 20 16 23 17 22 18 21 19 31 21 28 23 5 25
REMARK SMILES IDX 14 26 6 27 12 28 7 29 10 30 15 31 13 33 8 35 9 36 11 38
REMARK H PARENT 21 20 31 22 28 24 15 32 13 34 9 37 11 39
REMARK Flexibility Score: inf
ROOT
ATOM      1  O   UNL     1       1.377   5.775   2.002  1.00  0.00    -0.454 OA
ENDROOT
BRANCH   1   2
ATOM      2  C   UNL     1       0.187   6.048   1.308  1.00  0.00     0.214 A 
ATOM      3  C   UNL     1      -0.700   5.017   0.928  1.00  0.00     0.180 A 
ATOM      4  O   UNL     1      -1.863   5.322   0.358  1.00  0.00    -0.452 OA
ATOM      5  C   UNL     1      -0.148   7.372   0.999  1.00  0.00     0.239 A 
ATOM      6  C   UNL     1      -2.240   6.567   0.092  1.00  0.00     0.146 A 
ATOM      7  O   UNL     1       0.662   8.294   1.283  1.00  0.00    -0.285 OA
ATOM      8  C   UNL     1      -1.390   7.657   0.393  1.00  0.00     0.111 A 
ATOM      9  C   UNL     1      -3.492   6.792  -0.496  1.00  0.00     0.094 A 
ATOM     10  C   UNL     1      -1.821   8.972   0.083  1.00  0.00     0.134 A 
ATOM     11  C   UNL     1      -3.902   8.088  -0.812  1.00  0.00     0.123 A 
ATOM     12  C   UNL     1      -3.070   9.171  -0.524  1.00  0.00     0.093 A 
BRANCH   3  13
ATOM     13  C   UNL     1      -0.397   3.585   1.152  1.00  0.00     0.021 A 
ATOM     14  C   UNL     1      -0.975   2.926   2.250  1.00  0.00     0.016 A 
ATOM     15  C   UNL     1      -0.724   1.568   2.474  1.00  0.00     0.047 A 
ATOM     16  C   UNL     1       0.107   0.855   1.602  1.00  0.00     0.115 A 
ATOM     17  C   UNL     1       0.430   2.863   0.274  1.00  0.00     0.016 A 
ATOM     18  C   UNL     1       0.690   1.508   0.507  1.00  0.00     0.047 A 
BRANCH  16  19
ATOM     19  O   UNL     1       0.356  -0.501   1.812  1.00  0.00    -0.508 OA
ATOM     20  H   UNL     1      -0.042  -0.998   2.602  1.00  0.00     0.293 HD
ENDBRANCH  16  19
ENDBRANCH   3  13
BRANCH  10  21
ATOM     21  O   UNL     1      -1.021  10.078   0.373  1.00  0.00    -0.507 OA
ATOM     22  H   UNL     1      -0.486  10.136   1.230  1.00  0.00     0.293 HD
ENDBRANCH  10  21
BRANCH  11  23
ATOM     23  O   UNL     1      -5.137   8.312  -1.417  1.00  0.00    -0.508 OA
ATOM     24  H   UNL     1      -5.722   7.547  -1.727  1.00  0.00     0.293 HD
ENDBRANCH  11  23
ENDBRANCH   1   2
BRANCH   1  25
ATOM     25  C   UNL     1       2.675   6.140   1.512  1.00  0.00     0.339 C 
ATOM     26  C   UNL     1       3.733   5.148   2.064  1.00  0.00     0.214 C 
ATOM     27  O   UNL     1       2.667   6.147   0.097  1.00  0.00    -0.332 OA
ATOM     28  C   UNL     1       4.872   4.842   1.045  1.00  0.00     0.180 C 
ATOM     29  C   UNL     1       3.844   6.714  -0.448  1.00  0.00     0.179 C 
ATOM     30  C   UNL     1       5.142   5.989   0.025  1.00  0.00     0.177 C 
BRANCH  26  31
ATOM     31  O   UNL     1       4.247   5.603   3.300  1.00  0.00    -0.384 OA
ATOM     32  H   UNL     1       5.214   5.363   3.330  1.00  0.00     0.211 HD
ENDBRANCH  26  31
BRANCH  28  33
ATOM     33  O   UNL     1       4.587   3.642   0.356  1.00  0.00    -0.387 OA
ATOM     34  H   UNL     1       3.617   3.461   0.456  1.00  0.00     0.211 HD
ENDBRANCH  28  33
BRANCH  29  35
ATOM     35  C   UNL     1       3.853   8.258  -0.315  1.00  0.00     0.191 C 
BRANCH  35  36
ATOM     36  O   UNL     1       2.572   8.780  -0.556  1.00  0.00    -0.394 OA
ATOM     37  H   UNL     1       2.581   9.721  -0.245  1.00  0.00     0.210 HD
ENDBRANCH  35  36
ENDBRANCH  29  35
BRANCH  30  38
ATOM     38  O   UNL     1       6.133   6.882   0.485  1.00  0.00    -0.387 OA
ATOM     39  H   UNL     1       6.335   7.523  -0.240  1.00  0.00     0.211 HD
ENDBRANCH  30  38
ENDBRANCH   1  25
TORSDOF 11
ENDMDL
