MODEL 1
REMARK VINA RESULT:    -6.341      0.000      0.000
REMARK INTER + INTRA:          -7.589
REMARK INTER:                  -7.268
REMARK INTRA:                  -0.321
REMARK UNBOUND:                -0.321
REMARK SMILES O=C1C[C@@H](c2ccc(O)cc2)Oc2cc(O)cc(O)c21
REMARK SMILES IDX 3 1 4 2 12 3 13 4 14 5 15 6 17 7 18 8 20 9 2 10 1 11 5 12
REMARK SMILES IDX 6 13 11 14 7 15 10 16 8 17 9 18 19 20 16 22
REMARK H PARENT 9 19 19 21 16 23
REMARK Flexibility Score: inf
ROOT
ATOM      1  C   UNL     1     110.182 114.170 111.552  1.00  0.00     0.131 C 
ATOM      2  C   UNL     1     110.195 113.605 110.124  1.00  0.00     0.211 C 
ATOM      3  O   UNL     1     111.349 114.061 109.412  1.00  0.00    -0.484 OA
ATOM      4  C   UNL     1     112.611 114.176 110.014  1.00  0.00     0.138 A 
ATOM      5  C   UNL     1     113.733 114.357 109.203  1.00  0.00     0.093 A 
ATOM      6  C   UNL     1     115.003 114.460 109.769  1.00  0.00     0.123 A 
ATOM      7  C   UNL     1     115.150 114.414 111.160  1.00  0.00     0.093 A 
ATOM      8  C   UNL     1     114.033 114.275 111.995  1.00  0.00     0.133 A 
ATOM      9  C   UNL     1     112.745 114.121 111.419  1.00  0.00     0.102 A 
ATOM     10  C   UNL     1     111.505 113.896 112.201  1.00  0.00     0.174 C 
ATOM     11  O   UNL     1     111.534 113.432 113.371  1.00  0.00    -0.294 OA
ENDROOT
BRANCH   2  12
ATOM     12  C   UNL     1     108.942 114.000 109.382  1.00  0.00    -0.007 A 
ATOM     13  C   UNL     1     109.017 114.531 108.083  1.00  0.00     0.011 A 
ATOM     14  C   UNL     1     107.687 113.892 110.006  1.00  0.00     0.011 A 
ATOM     15  C   UNL     1     107.855 114.924 107.411  1.00  0.00     0.046 A 
ATOM     16  C   UNL     1     106.526 114.285 109.332  1.00  0.00     0.046 A 
ATOM     17  C   UNL     1     106.608 114.801 108.032  1.00  0.00     0.115 A 
BRANCH  17  18
ATOM     18  O   UNL     1     105.458 115.196 107.351  1.00  0.00    -0.508 OA
ATOM     19  H   UNL     1     104.924 116.006 107.639  1.00  0.00     0.293 HD
ENDBRANCH  17  18
ENDBRANCH   2  12
BRANCH   8  20
ATOM     20  O   UNL     1     114.252 114.331 113.373  1.00  0.00    -0.507 OA
ATOM     21  H   UNL     1     114.817 115.034 113.827  1.00  0.00     0.293 HD
ENDBRANCH   8  20
BRANCH   6  22
ATOM     22  O   UNL     1     116.114 114.617 108.943  1.00  0.00    -0.508 OA
ATOM     23  H   UNL     1     116.243 115.451 108.381  1.00  0.00     0.293 HD
ENDBRANCH   6  22
TORSDOF 4
ENDMDL
MODEL 2
REMARK VINA RESULT:    -5.949      2.244      4.663
REMARK INTER + INTRA:          -7.140
REMARK INTER:                  -6.819
REMARK INTRA:                  -0.321
REMARK UNBOUND:                -0.321
REMARK SMILES O=C1C[C@@H](c2ccc(O)cc2)Oc2cc(O)cc(O)c21
REMARK SMILES IDX 3 1 4 2 12 3 13 4 14 5 15 6 17 7 18 8 20 9 2 10 1 11 5 12
REMARK SMILES IDX 6 13 11 14 7 15 10 16 8 17 9 18 19 20 16 22
REMARK H PARENT 9 19 19 21 16 23
REMARK Flexibility Score: inf
ROOT
ATOM      1  C   UNL     1     108.856 114.895 106.541  1.00  0.00     0.131 C 
ATOM      2  C   UNL     1     107.649 115.197 107.441  1.00  0.00     0.211 C 
ATOM      3  O   UNL     1     107.784 114.538 108.704  1.00  0.00    -0.484 OA
ATOM      4  C   UNL     1     109.012 114.435 109.375  1.00  0.00     0.138 A 
ATOM      5  C   UNL     1     109.019 114.030 110.712  1.00  0.00     0.093 A 
ATOM      6  C   UNL     1     110.221 113.932 111.411  1.00  0.00     0.123 A 
ATOM      7  C   UNL     1     111.429 114.212 110.762  1.00  0.00     0.093 A 
ATOM      8  C   UNL     1     111.447 114.580 109.410  1.00  0.00     0.133 A 
ATOM      9  C   UNL     1     110.222 114.727 108.709  1.00  0.00     0.102 A 
ATOM     10  C   UNL     1     110.118 115.179 107.300  1.00  0.00     0.174 C 
ATOM     11  O   UNL     1     111.036 115.839 106.746  1.00  0.00    -0.294 OA
ENDROOT
BRANCH   2  12
ATOM     12  C   UNL     1     106.365 114.774 106.772  1.00  0.00    -0.007 A 
ATOM     13  C   UNL     1     105.377 114.080 107.493  1.00  0.00     0.011 A 
ATOM     14  C   UNL     1     106.167 115.020 105.402  1.00  0.00     0.011 A 
ATOM     15  C   UNL     1     104.203 113.663 106.860  1.00  0.00     0.046 A 
ATOM     16  C   UNL     1     104.990 114.602 104.772  1.00  0.00     0.046 A 
ATOM     17  C   UNL     1     104.004 113.924 105.501  1.00  0.00     0.115 A 
BRANCH  17  18
ATOM     18  O   UNL     1     102.829 113.502 104.883  1.00  0.00    -0.508 OA
ATOM     19  H   UNL     1     102.172 112.892 105.354  1.00  0.00     0.293 HD
ENDBRANCH  17  18
ENDBRANCH   2  12
BRANCH   8  20
ATOM     20  O   UNL     1     112.696 114.752 108.809  1.00  0.00    -0.507 OA
ATOM     21  H   UNL     1     113.012 115.619 108.401  1.00  0.00     0.293 HD
ENDBRANCH   8  20
BRANCH   6  22
ATOM     22  O   UNL     1     110.208 113.549 112.750  1.00  0.00    -0.508 OA
ATOM     23  H   UNL     1     110.425 114.205 113.492  1.00  0.00     0.293 HD
ENDBRANCH   6  22
TORSDOF 4
ENDMDL
MODEL 3
REMARK VINA RESULT:    -5.716      2.196      7.769
REMARK INTER + INTRA:          -6.873
REMARK INTER:                  -6.580
REMARK INTRA:                  -0.293
REMARK UNBOUND:                -0.321
REMARK SMILES O=C1C[C@@H](c2ccc(O)cc2)Oc2cc(O)cc(O)c21
REMARK SMILES IDX 3 1 4 2 12 3 13 4 14 5 15 6 17 7 18 8 20 9 2 10 1 11 5 12
REMARK SMILES IDX 6 13 11 14 7 15 10 16 8 17 9 18 19 20 16 22
REMARK H PARENT 9 19 19 21 16 23
REMARK Flexibility Score: inf
ROOT
ATOM      1  C   UNL     1     108.344 114.760 108.195  1.00  0.00     0.131 C 
ATOM      2  C   UNL     1     108.296 114.319 109.665  1.00  0.00     0.211 C 
ATOM      3  O   UNL     1     107.499 115.223 110.436  1.00  0.00    -0.484 OA
ATOM      4  C   UNL     1     106.311 115.787 109.949  1.00  0.00     0.138 A 
ATOM      5  C   UNL     1     105.452 116.430 110.843  1.00  0.00     0.093 A 
ATOM      6  C   UNL     1     104.256 116.988 110.393  1.00  0.00     0.123 A 
ATOM      7  C   UNL     1     103.930 116.931 109.034  1.00  0.00     0.093 A 
ATOM      8  C   UNL     1     104.797 116.326 108.113  1.00  0.00     0.133 A 
ATOM      9  C   UNL     1     105.992 115.715 108.576  1.00  0.00     0.102 A 
ATOM     10  C   UNL     1     106.946 114.987 107.704  1.00  0.00     0.174 C 
ATOM     11  O   UNL     1     106.596 114.510 106.592  1.00  0.00    -0.294 OA
ENDROOT
BRANCH   2  12
ATOM     12  C   UNL     1     109.687 114.235 110.242  1.00  0.00    -0.007 A 
ATOM     13  C   UNL     1     110.809 114.566 109.461  1.00  0.00     0.011 A 
ATOM     14  C   UNL     1     109.881 113.768 111.554  1.00  0.00     0.011 A 
ATOM     15  C   UNL     1     112.097 114.457 109.992  1.00  0.00     0.046 A 
ATOM     16  C   UNL     1     111.171 113.661 112.083  1.00  0.00     0.046 A 
ATOM     17  C   UNL     1     112.282 114.007 111.303  1.00  0.00     0.115 A 
BRANCH  17  18
ATOM     18  O   UNL     1     113.573 113.903 111.819  1.00  0.00    -0.508 OA
ATOM     19  H   UNL     1     114.108 114.723 112.075  1.00  0.00     0.293 HD
ENDBRANCH  17  18
ENDBRANCH   2  12
BRANCH   8  20
ATOM     20  O   UNL     1     104.445 116.391 106.763  1.00  0.00    -0.507 OA
ATOM     21  H   UNL     1     103.595 116.001 106.382  1.00  0.00     0.293 HD
ENDBRANCH   8  20
BRANCH   6  22
ATOM     22  O   UNL     1     103.401 117.606 111.303  1.00  0.00    -0.508 OA
ATOM     23  H   UNL     1     102.550 117.156 111.621  1.00  0.00     0.293 HD
ENDBRANCH   6  22
TORSDOF 4
ENDMDL
MODEL 4
REMARK VINA RESULT:    -5.574      2.003      7.499
REMARK INTER + INTRA:          -6.710
REMARK INTER:                  -6.415
REMARK INTRA:                  -0.295
REMARK UNBOUND:                -0.321
REMARK SMILES O=C1C[C@@H](c2ccc(O)cc2)Oc2cc(O)cc(O)c21
REMARK SMILES IDX 3 1 4 2 12 3 13 4 14 5 15 6 17 7 18 8 20 9 2 10 1 11 5 12
REMARK SMILES IDX 6 13 11 14 7 15 10 16 8 17 9 18 19 20 16 22
REMARK H PARENT 9 19 19 21 16 23
REMARK Flexibility Score: inf
ROOT
ATOM      1  C   UNL     1     107.288 115.124 110.253  1.00  0.00     0.131 C 
ATOM      2  C   UNL     1     108.496 115.438 109.360  1.00  0.00     0.211 C 
ATOM      3  O   UNL     1     108.290 114.934 108.037  1.00  0.00    -0.484 OA
ATOM      4  C   UNL     1     107.046 114.994 107.391  1.00  0.00     0.138 A 
ATOM      5  C   UNL     1     106.984 114.742 106.019  1.00  0.00     0.093 A 
ATOM      6  C   UNL     1     105.765 114.809 105.345  1.00  0.00     0.123 A 
ATOM      7  C   UNL     1     104.594 115.099 106.053  1.00  0.00     0.093 A 
ATOM      8  C   UNL     1     104.627 115.315 107.437  1.00  0.00     0.133 A 
ATOM      9  C   UNL     1     105.873 115.296 108.117  1.00  0.00     0.102 A 
ATOM     10  C   UNL     1     106.036 115.580 109.564  1.00  0.00     0.174 C 
ATOM     11  O   UNL     1     105.179 116.238 110.211  1.00  0.00    -0.294 OA
ENDROOT
BRANCH   2  12
ATOM     12  C   UNL     1     109.758 114.853 109.944  1.00  0.00    -0.007 A 
ATOM     13  C   UNL     1     109.733 114.188 111.182  1.00  0.00     0.011 A 
ATOM     14  C   UNL     1     110.987 115.017 109.281  1.00  0.00     0.011 A 
ATOM     15  C   UNL     1     110.910 113.674 111.733  1.00  0.00     0.046 A 
ATOM     16  C   UNL     1     112.163 114.502 109.834  1.00  0.00     0.046 A 
ATOM     17  C   UNL     1     112.127 113.827 111.062  1.00  0.00     0.115 A 
BRANCH  17  18
ATOM     18  O   UNL     1     113.293 113.310 111.622  1.00  0.00    -0.508 OA
ATOM     19  H   UNL     1     113.266 112.572 112.315  1.00  0.00     0.293 HD
ENDBRANCH  17  18
ENDBRANCH   2  12
BRANCH   8  20
ATOM     20  O   UNL     1     103.406 115.507 108.086  1.00  0.00    -0.507 OA
ATOM     21  H   UNL     1     102.886 114.770 108.540  1.00  0.00     0.293 HD
ENDBRANCH   8  20
BRANCH   6  22
ATOM     22  O   UNL     1     105.725 114.577 103.972  1.00  0.00    -0.508 OA
ATOM     23  H   UNL     1     105.021 113.977 103.556  1.00  0.00     0.293 HD
ENDBRANCH   6  22
TORSDOF 4
ENDMDL
MODEL 5
REMARK VINA RESULT:    -5.548      3.041      4.746
REMARK INTER + INTRA:          -6.680
REMARK INTER:                  -6.392
REMARK INTRA:                  -0.288
REMARK UNBOUND:                -0.321
REMARK SMILES O=C1C[C@@H](c2ccc(O)cc2)Oc2cc(O)cc(O)c21
REMARK SMILES IDX 3 1 4 2 12 3 13 4 14 5 15 6 17 7 18 8 20 9 2 10 1 11 5 12
REMARK SMILES IDX 6 13 11 14 7 15 10 16 8 17 9 18 19 20 16 22
REMARK H PARENT 9 19 19 21 16 23
REMARK Flexibility Score: inf
ROOT
ATOM      1  C   UNL     1     106.579 114.392 109.470  1.00  0.00     0.131 C 
ATOM      2  C   UNL     1     106.304 114.150 107.979  1.00  0.00     0.211 C 
ATOM      3  O   UNL     1     107.185 114.936 107.171  1.00  0.00    -0.484 OA
ATOM      4  C   UNL     1     108.534 115.136 107.499  1.00  0.00     0.138 A 
ATOM      5  C   UNL     1     109.392 115.672 106.535  1.00  0.00     0.093 A 
ATOM      6  C   UNL     1     110.741 115.869 106.825  1.00  0.00     0.123 A 
ATOM      7  C   UNL     1     111.233 115.557 108.097  1.00  0.00     0.093 A 
ATOM      8  C   UNL     1     110.382 115.057 109.091  1.00  0.00     0.133 A 
ATOM      9  C   UNL     1     109.018 114.810 108.784  1.00  0.00     0.102 A 
ATOM     10  C   UNL     1     108.045 114.217 109.735  1.00  0.00     0.174 C 
ATOM     11  O   UNL     1     108.417 113.528 110.721  1.00  0.00    -0.294 OA
ENDROOT
BRANCH   2  12
ATOM     12  C   UNL     1     104.869 114.472 107.642  1.00  0.00    -0.007 A 
ATOM     13  C   UNL     1     104.133 113.643 106.778  1.00  0.00     0.011 A 
ATOM     14  C   UNL     1     104.270 115.640 108.145  1.00  0.00     0.011 A 
ATOM     15  C   UNL     1     102.814 113.963 106.445  1.00  0.00     0.046 A 
ATOM     16  C   UNL     1     102.950 115.958 107.810  1.00  0.00     0.046 A 
ATOM     17  C   UNL     1     102.218 115.118 106.960  1.00  0.00     0.115 A 
BRANCH  17  18
ATOM     18  O   UNL     1     100.902 115.424 106.619  1.00  0.00    -0.508 OA
ATOM     19  H   UNL     1     100.663 115.790 105.706  1.00  0.00     0.293 HD
ENDBRANCH  17  18
ENDBRANCH   2  12
BRANCH   8  20
ATOM     20  O   UNL     1     110.927 114.858 110.361  1.00  0.00    -0.507 OA
ATOM     21  H   UNL     1     111.866 115.122 110.620  1.00  0.00     0.293 HD
ENDBRANCH   8  20
BRANCH   6  22
ATOM     22  O   UNL     1     111.587 116.384 105.844  1.00  0.00    -0.508 OA
ATOM     23  H   UNL     1     112.453 116.853 106.084  1.00  0.00     0.293 HD
ENDBRANCH   6  22
TORSDOF 4
ENDMDL
MODEL 6
REMARK VINA RESULT:    -5.476      1.806      7.198
REMARK INTER + INTRA:          -6.598
REMARK INTER:                  -6.299
REMARK INTRA:                  -0.299
REMARK UNBOUND:                -0.321
REMARK SMILES O=C1C[C@@H](c2ccc(O)cc2)Oc2cc(O)cc(O)c21
REMARK SMILES IDX 3 1 4 2 12 3 13 4 14 5 15 6 17 7 18 8 20 9 2 10 1 11 5 12
REMARK SMILES IDX 6 13 11 14 7 15 10 16 8 17 9 18 19 20 16 22
REMARK H PARENT 9 19 19 21 16 23
REMARK Flexibility Score: inf
ROOT
ATOM      1  C   UNL     1     110.882 114.868 108.223  1.00  0.00     0.131 C 
ATOM      2  C   UNL     1     110.484 114.134 109.512  1.00  0.00     0.211 C 
ATOM      3  O   UNL     1     109.266 114.667 110.040  1.00  0.00    -0.484 OA
ATOM      4  C   UNL     1     108.193 115.051 109.223  1.00  0.00     0.138 A 
ATOM      5  C   UNL     1     106.950 115.297 109.811  1.00  0.00     0.093 A 
ATOM      6  C   UNL     1     105.860 115.667 109.024  1.00  0.00     0.123 A 
ATOM      7  C   UNL     1     106.019 115.822 107.643  1.00  0.00     0.093 A 
ATOM      8  C   UNL     1     107.267 115.620 107.038  1.00  0.00     0.133 A 
ATOM      9  C   UNL     1     108.367 115.197 107.829  1.00  0.00     0.102 A 
ATOM     10  C   UNL     1     109.712 114.886 107.286  1.00  0.00     0.174 C 
ATOM     11  O   UNL     1     109.885 114.585 106.076  1.00  0.00    -0.294 OA
ENDROOT
BRANCH   2  12
ATOM     12  C   UNL     1     111.581 114.233 110.543  1.00  0.00    -0.007 A 
ATOM     13  C   UNL     1     112.829 114.789 110.211  1.00  0.00     0.011 A 
ATOM     14  C   UNL     1     111.385 113.716 111.836  1.00  0.00     0.011 A 
ATOM     15  C   UNL     1     113.851 114.850 111.162  1.00  0.00     0.046 A 
ATOM     16  C   UNL     1     112.409 113.779 112.785  1.00  0.00     0.046 A 
ATOM     17  C   UNL     1     113.645 114.348 112.450  1.00  0.00     0.115 A 
BRANCH  17  18
ATOM     18  O   UNL     1     114.674 114.416 113.388  1.00  0.00    -0.508 OA
ATOM     19  H   UNL     1     114.514 114.205 114.366  1.00  0.00     0.293 HD
ENDBRANCH  17  18
ENDBRANCH   2  12
BRANCH   8  20
ATOM     20  O   UNL     1     107.366 115.884 105.670  1.00  0.00    -0.507 OA
ATOM     21  H   UNL     1     108.227 116.132 105.205  1.00  0.00     0.293 HD
ENDBRANCH   8  20
BRANCH   6  22
ATOM     22  O   UNL     1     104.622 115.886 109.625  1.00  0.00    -0.508 OA
ATOM     23  H   UNL     1     104.128 115.144 110.107  1.00  0.00     0.293 HD
ENDBRANCH   6  22
TORSDOF 4
ENDMDL
MODEL 7
REMARK VINA RESULT:    -5.429      2.485      8.353
REMARK INTER + INTRA:          -6.544
REMARK INTER:                  -6.260
REMARK INTRA:                  -0.284
REMARK UNBOUND:                -0.321
REMARK SMILES O=C1C[C@@H](c2ccc(O)cc2)Oc2cc(O)cc(O)c21
REMARK SMILES IDX 3 1 4 2 12 3 13 4 14 5 15 6 17 7 18 8 20 9 2 10 1 11 5 12
REMARK SMILES IDX 6 13 11 14 7 15 10 16 8 17 9 18 19 20 16 22
REMARK H PARENT 9 19 19 21 16 23
REMARK Flexibility Score: inf
ROOT
ATOM      1  C   UNL     1     106.148 115.517 109.586  1.00  0.00     0.131 C 
ATOM      2  C   UNL     1     107.214 115.191 108.531  1.00  0.00     0.211 C 
ATOM      3  O   UNL     1     106.738 114.192 107.624  1.00  0.00    -0.484 OA
ATOM      4  C   UNL     1     105.415 114.166 107.156  1.00  0.00     0.138 A 
ATOM      5  C   UNL     1     105.097 113.342 106.074  1.00  0.00     0.093 A 
ATOM      6  C   UNL     1     103.795 113.305 105.576  1.00  0.00     0.123 A 
ATOM      7  C   UNL     1     102.796 114.073 106.183  1.00  0.00     0.093 A 
ATOM      8  C   UNL     1     103.084 114.875 107.296  1.00  0.00     0.133 A 
ATOM      9  C   UNL     1     104.419 114.952 107.774  1.00  0.00     0.102 A 
ATOM     10  C   UNL     1     104.851 115.820 108.897  1.00  0.00     0.174 C 
ATOM     11  O   UNL     1     104.187 116.831 109.247  1.00  0.00    -0.294 OA
ENDROOT
BRANCH   2  12
ATOM     12  C   UNL     1     108.490 114.725 109.187  1.00  0.00    -0.007 A 
ATOM     13  C   UNL     1     108.451 113.863 110.297  1.00  0.00     0.011 A 
ATOM     14  C   UNL     1     109.734 115.195 108.729  1.00  0.00     0.011 A 
ATOM     15  C   UNL     1     109.635 113.458 110.920  1.00  0.00     0.046 A 
ATOM     16  C   UNL     1     110.917 114.789 109.354  1.00  0.00     0.046 A 
ATOM     17  C   UNL     1     110.870 113.918 110.451  1.00  0.00     0.115 A 
BRANCH  17  18
ATOM     18  O   UNL     1     112.042 113.507 111.082  1.00  0.00    -0.508 OA
ATOM     19  H   UNL     1     112.104 113.433 112.090  1.00  0.00     0.293 HD
ENDBRANCH  17  18
ENDBRANCH   2  12
BRANCH   8  20
ATOM     20  O   UNL     1     102.016 115.539 107.902  1.00  0.00    -0.507 OA
ATOM     21  H   UNL     1     101.928 115.675 108.898  1.00  0.00     0.293 HD
ENDBRANCH   8  20
BRANCH   6  22
ATOM     22  O   UNL     1     103.501 112.495 104.481  1.00  0.00    -0.508 OA
ATOM     23  H   UNL     1     104.231 112.135 103.877  1.00  0.00     0.293 HD
ENDBRANCH   6  22
TORSDOF 4
ENDMDL
MODEL 8
REMARK VINA RESULT:    -5.423      2.531      8.333
REMARK INTER + INTRA:          -6.537
REMARK INTER:                  -6.249
REMARK INTRA:                  -0.288
REMARK UNBOUND:                -0.321
REMARK SMILES O=C1C[C@@H](c2ccc(O)cc2)Oc2cc(O)cc(O)c21
REMARK SMILES IDX 3 1 4 2 12 3 13 4 14 5 15 6 17 7 18 8 20 9 2 10 1 11 5 12
REMARK SMILES IDX 6 13 11 14 7 15 10 16 8 17 9 18 19 20 16 22
REMARK H PARENT 9 19 19 21 16 23
REMARK Flexibility Score: inf
ROOT
ATOM      1  C   UNL     1     106.046 115.500 109.557  1.00  0.00     0.131 C 
ATOM      2  C   UNL     1     107.125 115.189 108.510  1.00  0.00     0.211 C 
ATOM      3  O   UNL     1     106.664 114.194 107.591  1.00  0.00    -0.484 OA
ATOM      4  C   UNL     1     105.347 114.163 107.110  1.00  0.00     0.138 A 
ATOM      5  C   UNL     1     105.045 113.345 106.018  1.00  0.00     0.093 A 
ATOM      6  C   UNL     1     103.749 113.303 105.507  1.00  0.00     0.123 A 
ATOM      7  C   UNL     1     102.738 114.060 106.110  1.00  0.00     0.093 A 
ATOM      8  C   UNL     1     103.010 114.856 107.231  1.00  0.00     0.133 A 
ATOM      9  C   UNL     1     104.339 114.938 107.724  1.00  0.00     0.102 A 
ATOM     10  C   UNL     1     104.755 115.800 108.858  1.00  0.00     0.174 C 
ATOM     11  O   UNL     1     104.081 116.804 109.208  1.00  0.00    -0.294 OA
ENDROOT
BRANCH   2  12
ATOM     12  C   UNL     1     108.398 114.726 109.176  1.00  0.00    -0.007 A 
ATOM     13  C   UNL     1     109.652 115.125 108.681  1.00  0.00     0.011 A 
ATOM     14  C   UNL     1     108.343 113.842 110.268  1.00  0.00     0.011 A 
ATOM     15  C   UNL     1     110.828 114.669 109.283  1.00  0.00     0.046 A 
ATOM     16  C   UNL     1     109.521 113.387 110.869  1.00  0.00     0.046 A 
ATOM     17  C   UNL     1     110.767 113.802 110.378  1.00  0.00     0.115 A 
BRANCH  17  18
ATOM     18  O   UNL     1     111.947 113.354 110.968  1.00  0.00    -0.508 OA
ATOM     19  H   UNL     1     112.458 113.925 111.631  1.00  0.00     0.293 HD
ENDBRANCH  17  18
ENDBRANCH   2  12
BRANCH   8  20
ATOM     20  O   UNL     1     101.931 115.508 107.831  1.00  0.00    -0.507 OA
ATOM     21  H   UNL     1     101.833 115.636 108.828  1.00  0.00     0.293 HD
ENDBRANCH   8  20
BRANCH   6  22
ATOM     22  O   UNL     1     103.471 112.500 104.404  1.00  0.00    -0.508 OA
ATOM     23  H   UNL     1     104.209 112.149 103.804  1.00  0.00     0.293 HD
ENDBRANCH   6  22
TORSDOF 4
ENDMDL
MODEL 9
REMARK VINA RESULT:    -5.200      2.455      3.982
REMARK INTER + INTRA:          -6.281
REMARK INTER:                  -5.992
REMARK INTRA:                  -0.289
REMARK UNBOUND:                -0.321
REMARK SMILES O=C1C[C@@H](c2ccc(O)cc2)Oc2cc(O)cc(O)c21
REMARK SMILES IDX 3 1 4 2 12 3 13 4 14 5 15 6 17 7 18 8 20 9 2 10 1 11 5 12
REMARK SMILES IDX 6 13 11 14 7 15 10 16 8 17 9 18 19 20 16 22
REMARK H PARENT 9 19 19 21 16 23
REMARK Flexibility Score: inf
ROOT
ATOM      1  C   UNL     1     106.782 114.377 109.050  1.00  0.00     0.131 C 
ATOM      2  C   UNL     1     107.423 114.487 107.659  1.00  0.00     0.211 C 
ATOM      3  O   UNL     1     108.735 115.049 107.753  1.00  0.00    -0.484 OA
ATOM      4  C   UNL     1     109.623 114.726 108.790  1.00  0.00     0.138 A 
ATOM      5  C   UNL     1     110.966 115.090 108.668  1.00  0.00     0.093 A 
ATOM      6  C   UNL     1     111.877 114.771 109.674  1.00  0.00     0.123 A 
ATOM      7  C   UNL     1     111.437 114.110 110.826  1.00  0.00     0.093 A 
ATOM      8  C   UNL     1     110.086 113.772 110.988  1.00  0.00     0.133 A 
ATOM      9  C   UNL     1     109.166 114.053 109.943  1.00  0.00     0.102 A 
ATOM     10  C   UNL     1     107.731 113.678 109.975  1.00  0.00     0.174 C 
ATOM     11  O   UNL     1     107.304 112.754 110.717  1.00  0.00    -0.294 OA
ENDROOT
BRANCH   2  12
ATOM     12  C   UNL     1     106.567 115.324 106.741  1.00  0.00    -0.007 A 
ATOM     13  C   UNL     1     106.231 116.646 107.083  1.00  0.00     0.011 A 
ATOM     14  C   UNL     1     106.049 114.771 105.557  1.00  0.00     0.011 A 
ATOM     15  C   UNL     1     105.412 117.407 106.244  1.00  0.00     0.046 A 
ATOM     16  C   UNL     1     105.231 115.534 104.719  1.00  0.00     0.046 A 
ATOM     17  C   UNL     1     104.912 116.856 105.060  1.00  0.00     0.115 A 
BRANCH  17  18
ATOM     18  O   UNL     1     104.097 117.626 104.232  1.00  0.00    -0.508 OA
ATOM     19  H   UNL     1     103.868 117.330 103.291  1.00  0.00     0.293 HD
ENDBRANCH  17  18
ENDBRANCH   2  12
BRANCH   8  20
ATOM     20  O   UNL     1     109.710 113.198 112.204  1.00  0.00    -0.507 OA
ATOM     21  H   UNL     1     108.921 113.506 112.753  1.00  0.00     0.293 HD
ENDBRANCH   8  20
BRANCH   6  22
ATOM     22  O   UNL     1     113.217 115.122 109.526  1.00  0.00    -0.508 OA
ATOM     23  H   UNL     1     113.895 114.945 110.257  1.00  0.00     0.293 HD
ENDBRANCH   6  22
TORSDOF 4
ENDMDL
