MODEL 1
REMARK VINA RESULT:    -3.810      0.000      0.000
REMARK INTER + INTRA:          -5.511
REMARK INTER:                  -5.146
REMARK INTRA:                  -0.364
REMARK UNBOUND:                -0.364
REMARK SMILES CCCCCCC=CC(=O)[O-]
REMARK SMILES IDX 5 1 6 2 7 3 8 4 9 5 10 6 11 7 4 8 3 9 2 10 1 11
REMARK H PARENT
REMARK Flexibility Score: inf
ROOT
ATOM      1  C   UNL     1      62.355  33.270  60.900  1.00  0.00     0.004 C 
ENDROOT
BRANCH   1   2
ATOM      2  C   UNL     1      61.261  32.246  60.558  1.00  0.00     0.027 C 
BRANCH   2   3
ATOM      3  C   UNL     1      60.880  31.398  61.743  1.00  0.00    -0.025 C 
ATOM      4  C   UNL     1      61.506  30.280  62.149  1.00  0.00     0.020 C 
BRANCH   4   5
ATOM      5  C   UNL     1      62.716  29.680  61.549  1.00  0.00     0.064 C 
ATOM      6  O   UNL     1      62.657  28.710  60.750  1.00  0.00    -0.545 OA
ATOM      7  O   UNL     1      63.956  30.223  61.859  1.00  0.00    -0.545 OA
ENDBRANCH   4   5
ENDBRANCH   2   3
ENDBRANCH   1   2
BRANCH   1   8
ATOM      8  C   UNL     1      61.873  34.715  60.707  1.00  0.00     0.000 C 
BRANCH   8   9
ATOM      9  C   UNL     1      62.869  35.713  61.310  1.00  0.00    -0.000 C 
BRANCH   9  10
ATOM     10  C   UNL     1      64.218  35.043  61.594  1.00  0.00    -0.003 C 
ATOM     11  C   UNL     1      65.278  36.072  61.972  1.00  0.00     0.004 C 
ENDBRANCH   9  10
ENDBRANCH   8   9
ENDBRANCH   1   8
TORSDOF 6
ENDMDL
MODEL 2
REMARK VINA RESULT:    -3.770     12.599     14.421
REMARK INTER + INTRA:          -5.457
REMARK INTER:                  -5.087
REMARK INTRA:                  -0.371
REMARK UNBOUND:                -0.364
REMARK SMILES CCCCCCC=CC(=O)[O-]
REMARK SMILES IDX 5 1 6 2 7 3 8 4 9 5 10 6 11 7 4 8 3 9 2 10 1 11
REMARK H PARENT
REMARK Flexibility Score: inf
ROOT
ATOM      1  C   UNL     1      56.591  27.848  50.361  1.00  0.00     0.004 C 
ENDROOT
BRANCH   1   2
ATOM      2  C   UNL     1      57.712  28.850  50.681  1.00  0.00     0.027 C 
BRANCH   2   3
ATOM      3  C   UNL     1      58.491  29.249  49.455  1.00  0.00    -0.025 C 
ATOM      4  C   UNL     1      59.547  28.595  48.942  1.00  0.00     0.020 C 
BRANCH   4   5
ATOM      5  C   UNL     1      60.132  27.334  49.444  1.00  0.00     0.064 C 
ATOM      6  O   UNL     1      59.606  26.214  49.214  1.00  0.00    -0.545 OA
ATOM      7  O   UNL     1      61.315  27.386  50.170  1.00  0.00    -0.545 OA
ENDBRANCH   4   5
ENDBRANCH   2   3
ENDBRANCH   1   2
BRANCH   1   8
ATOM      8  C   UNL     1      55.207  28.513  50.359  1.00  0.00     0.000 C 
BRANCH   8   9
ATOM      9  C   UNL     1      54.111  27.503  49.995  1.00  0.00    -0.000 C 
BRANCH   9  10
ATOM     10  C   UNL     1      54.708  26.120  49.712  1.00  0.00    -0.003 C 
ATOM     11  C   UNL     1      53.643  25.152  49.206  1.00  0.00     0.004 C 
ENDBRANCH   9  10
ENDBRANCH   8   9
ENDBRANCH   1   8
TORSDOF 6
ENDMDL
MODEL 3
REMARK VINA RESULT:    -3.557      1.461      2.127
REMARK INTER + INTRA:          -5.169
REMARK INTER:                  -4.763
REMARK INTRA:                  -0.406
REMARK UNBOUND:                -0.364
REMARK SMILES CCCCCCC=CC(=O)[O-]
REMARK SMILES IDX 5 1 6 2 7 3 8 4 9 5 10 6 11 7 4 8 3 9 2 10 1 11
REMARK H PARENT
REMARK Flexibility Score: inf
ROOT
ATOM      1  C   UNL     1      61.057  31.971  60.979  1.00  0.00     0.004 C 
ENDROOT
BRANCH   1   2
ATOM      2  C   UNL     1      61.382  30.833  61.961  1.00  0.00     0.027 C 
BRANCH   2   3
ATOM      3  C   UNL     1      62.770  30.282  61.758  1.00  0.00    -0.025 C 
ATOM      4  C   UNL     1      63.082  28.996  61.520  1.00  0.00     0.020 C 
BRANCH   4   5
ATOM      5  C   UNL     1      62.136  27.873  61.363  1.00  0.00     0.064 C 
ATOM      6  O   UNL     1      61.554  27.634  60.273  1.00  0.00    -0.545 OA
ATOM      7  O   UNL     1      61.901  27.038  62.448  1.00  0.00    -0.545 OA
ENDBRANCH   4   5
ENDBRANCH   2   3
ENDBRANCH   1   2
BRANCH   1   8
ATOM      8  C   UNL     1      62.249  32.917  60.778  1.00  0.00     0.000 C 
BRANCH   8   9
ATOM      9  C   UNL     1      61.799  34.383  60.802  1.00  0.00    -0.000 C 
BRANCH   9  10
ATOM     10  C   UNL     1      62.974  35.315  61.118  1.00  0.00    -0.003 C 
ATOM     11  C   UNL     1      64.212  34.524  61.529  1.00  0.00     0.004 C 
ENDBRANCH   9  10
ENDBRANCH   8   9
ENDBRANCH   1   8
TORSDOF 6
ENDMDL
MODEL 4
REMARK VINA RESULT:    -3.523      1.042      1.572
REMARK INTER + INTRA:          -5.123
REMARK INTER:                  -4.709
REMARK INTRA:                  -0.413
REMARK UNBOUND:                -0.364
REMARK SMILES CCCCCCC=CC(=O)[O-]
REMARK SMILES IDX 5 1 6 2 7 3 8 4 9 5 10 6 11 7 4 8 3 9 2 10 1 11
REMARK H PARENT
REMARK Flexibility Score: inf
ROOT
ATOM      1  C   UNL     1      62.110  32.955  60.024  1.00  0.00     0.004 C 
ENDROOT
BRANCH   1   2
ATOM      2  C   UNL     1      61.065  31.835  60.159  1.00  0.00     0.027 C 
BRANCH   2   3
ATOM      3  C   UNL     1      60.826  31.445  61.595  1.00  0.00    -0.025 C 
ATOM      4  C   UNL     1      61.502  30.509  62.283  1.00  0.00     0.020 C 
BRANCH   4   5
ATOM      5  C   UNL     1      62.642  29.706  61.793  1.00  0.00     0.064 C 
ATOM      6  O   UNL     1      62.496  28.540  61.346  1.00  0.00    -0.545 OA
ATOM      7  O   UNL     1      63.912  30.270  61.803  1.00  0.00    -0.545 OA
ENDBRANCH   4   5
ENDBRANCH   2   3
ENDBRANCH   1   2
BRANCH   1   8
ATOM      8  C   UNL     1      61.665  34.246  60.727  1.00  0.00     0.000 C 
BRANCH   8   9
ATOM      9  C   UNL     1      62.874  35.065  61.192  1.00  0.00    -0.000 C 
BRANCH   9  10
ATOM     10  C   UNL     1      62.530  36.556  61.280  1.00  0.00    -0.003 C 
ATOM     11  C   UNL     1      61.056  36.802  60.970  1.00  0.00     0.004 C 
ENDBRANCH   9  10
ENDBRANCH   8   9
ENDBRANCH   1   8
TORSDOF 6
ENDMDL
MODEL 5
REMARK VINA RESULT:    -3.487     12.980     14.170
REMARK INTER + INTRA:          -5.075
REMARK INTER:                  -4.653
REMARK INTRA:                  -0.422
REMARK UNBOUND:                -0.364
REMARK SMILES CCCCCCC=CC(=O)[O-]
REMARK SMILES IDX 5 1 6 2 7 3 8 4 9 5 10 6 11 7 4 8 3 9 2 10 1 11
REMARK H PARENT
REMARK Flexibility Score: inf
ROOT
ATOM      1  C   UNL     1      56.540  25.909  50.188  1.00  0.00     0.004 C 
ENDROOT
BRANCH   1   2
ATOM      2  C   UNL     1      57.789  26.678  50.648  1.00  0.00     0.027 C 
BRANCH   2   3
ATOM      3  C   UNL     1      58.979  26.421  49.761  1.00  0.00    -0.025 C 
ATOM      4  C   UNL     1      59.766  27.356  49.203  1.00  0.00     0.020 C 
BRANCH   4   5
ATOM      5  C   UNL     1      59.658  28.819  49.379  1.00  0.00     0.064 C 
ATOM      6  O   UNL     1      58.684  29.477  48.932  1.00  0.00    -0.545 OA
ATOM      7  O   UNL     1      60.652  29.484  50.085  1.00  0.00    -0.545 OA
ENDBRANCH   4   5
ENDBRANCH   2   3
ENDBRANCH   1   2
BRANCH   1   8
ATOM      8  C   UNL     1      55.321  26.831  50.031  1.00  0.00     0.000 C 
BRANCH   8   9
ATOM      9  C   UNL     1      55.672  28.277  50.400  1.00  0.00    -0.000 C 
BRANCH   9  10
ATOM     10  C   UNL     1      54.422  29.162  50.413  1.00  0.00    -0.003 C 
ATOM     11  C   UNL     1      53.177  28.365  50.035  1.00  0.00     0.004 C 
ENDBRANCH   9  10
ENDBRANCH   8   9
ENDBRANCH   1   8
TORSDOF 6
ENDMDL
MODEL 6
REMARK VINA RESULT:    -3.482      1.338      1.774
REMARK INTER + INTRA:          -5.068
REMARK INTER:                  -4.592
REMARK INTRA:                  -0.476
REMARK UNBOUND:                -0.364
REMARK SMILES CCCCCCC=CC(=O)[O-]
REMARK SMILES IDX 5 1 6 2 7 3 8 4 9 5 10 6 11 7 4 8 3 9 2 10 1 11
REMARK H PARENT
REMARK Flexibility Score: inf
ROOT
ATOM      1  C   UNL     1      61.516  34.412  60.387  1.00  0.00     0.004 C 
ENDROOT
BRANCH   1   2
ATOM      2  C   UNL     1      61.498  32.963  60.900  1.00  0.00     0.027 C 
BRANCH   2   3
ATOM      3  C   UNL     1      61.781  31.966  59.807  1.00  0.00    -0.025 C 
ATOM      4  C   UNL     1      62.736  31.020  59.828  1.00  0.00     0.020 C 
BRANCH   4   5
ATOM      5  C   UNL     1      63.669  30.734  60.936  1.00  0.00     0.064 C 
ATOM      6  O   UNL     1      64.857  31.148  60.936  1.00  0.00    -0.545 OA
ATOM      7  O   UNL     1      63.211  30.005  62.027  1.00  0.00    -0.545 OA
ENDBRANCH   4   5
ENDBRANCH   2   3
ENDBRANCH   1   2
BRANCH   1   8
ATOM      8  C   UNL     1      62.531  35.280  61.146  1.00  0.00     0.000 C 
BRANCH   8   9
ATOM      9  C   UNL     1      63.879  34.562  61.277  1.00  0.00    -0.000 C 
BRANCH   9  10
ATOM     10  C   UNL     1      64.899  35.436  62.016  1.00  0.00    -0.003 C 
ATOM     11  C   UNL     1      64.442  36.890  62.072  1.00  0.00     0.004 C 
ENDBRANCH   9  10
ENDBRANCH   8   9
ENDBRANCH   1   8
TORSDOF 6
ENDMDL
MODEL 7
REMARK VINA RESULT:    -3.482      2.755      5.051
REMARK INTER + INTRA:          -5.067
REMARK INTER:                  -4.641
REMARK INTRA:                  -0.427
REMARK UNBOUND:                -0.364
REMARK SMILES CCCCCCC=CC(=O)[O-]
REMARK SMILES IDX 5 1 6 2 7 3 8 4 9 5 10 6 11 7 4 8 3 9 2 10 1 11
REMARK H PARENT
REMARK Flexibility Score: inf
ROOT
ATOM      1  C   UNL     1      61.068  32.680  59.868  1.00  0.00     0.004 C 
ENDROOT
BRANCH   1   2
ATOM      2  C   UNL     1      62.214  33.336  60.655  1.00  0.00     0.027 C 
BRANCH   2   3
ATOM      3  C   UNL     1      61.943  34.788  60.956  1.00  0.00    -0.025 C 
ATOM      4  C   UNL     1      62.868  35.722  61.238  1.00  0.00     0.020 C 
BRANCH   4   5
ATOM      5  C   UNL     1      64.333  35.532  61.265  1.00  0.00     0.064 C 
ATOM      6  O   UNL     1      64.988  35.528  62.340  1.00  0.00    -0.545 OA
ATOM      7  O   UNL     1      65.004  35.326  60.067  1.00  0.00    -0.545 OA
ENDBRANCH   4   5
ENDBRANCH   2   3
ENDBRANCH   1   2
BRANCH   1   8
ATOM      8  C   UNL     1      60.698  31.300  60.430  1.00  0.00     0.000 C 
BRANCH   8   9
ATOM      9  C   UNL     1      61.181  31.148  61.878  1.00  0.00    -0.000 C 
BRANCH   9  10
ATOM     10  C   UNL     1      61.993  29.860  62.055  1.00  0.00    -0.003 C 
ATOM     11  C   UNL     1      63.473  30.096  61.768  1.00  0.00     0.004 C 
ENDBRANCH   9  10
ENDBRANCH   8   9
ENDBRANCH   1   8
TORSDOF 6
ENDMDL
MODEL 8
REMARK VINA RESULT:    -3.416      1.752      2.587
REMARK INTER + INTRA:          -4.978
REMARK INTER:                  -4.546
REMARK INTRA:                  -0.433
REMARK UNBOUND:                -0.364
REMARK SMILES CCCCCCC=CC(=O)[O-]
REMARK SMILES IDX 5 1 6 2 7 3 8 4 9 5 10 6 11 7 4 8 3 9 2 10 1 11
REMARK H PARENT
REMARK Flexibility Score: inf
ROOT
ATOM      1  C   UNL     1      64.305  32.278  61.285  1.00  0.00     0.004 C 
ENDROOT
BRANCH   1   2
ATOM      2  C   UNL     1      63.897  30.939  60.649  1.00  0.00     0.027 C 
BRANCH   2   3
ATOM      3  C   UNL     1      63.429  29.938  61.674  1.00  0.00    -0.025 C 
ATOM      4  C   UNL     1      62.154  29.712  62.033  1.00  0.00     0.020 C 
BRANCH   4   5
ATOM      5  C   UNL     1      60.951  30.358  61.469  1.00  0.00     0.064 C 
ATOM      6  O   UNL     1      60.235  29.797  60.599  1.00  0.00    -0.545 OA
ATOM      7  O   UNL     1      60.584  31.614  61.934  1.00  0.00    -0.545 OA
ENDBRANCH   4   5
ENDBRANCH   2   3
ENDBRANCH   1   2
BRANCH   1   8
ATOM      8  C   UNL     1      63.584  33.468  60.635  1.00  0.00     0.000 C 
BRANCH   8   9
ATOM      9  C   UNL     1      63.823  34.757  61.430  1.00  0.00    -0.000 C 
BRANCH   9  10
ATOM     10  C   UNL     1      62.711  35.779  61.170  1.00  0.00    -0.003 C 
ATOM     11  C   UNL     1      61.439  35.098  60.675  1.00  0.00     0.004 C 
ENDBRANCH   9  10
ENDBRANCH   8   9
ENDBRANCH   1   8
TORSDOF 6
ENDMDL
MODEL 9
REMARK VINA RESULT:    -3.398     12.494     13.661
REMARK INTER + INTRA:          -4.955
REMARK INTER:                  -4.376
REMARK INTRA:                  -0.579
REMARK UNBOUND:                -0.364
REMARK SMILES CCCCCCC=CC(=O)[O-]
REMARK SMILES IDX 5 1 6 2 7 3 8 4 9 5 10 6 11 7 4 8 3 9 2 10 1 11
REMARK H PARENT
REMARK Flexibility Score: inf
ROOT
ATOM      1  C   UNL     1      58.372  29.255  50.093  1.00  0.00     0.004 C 
ENDROOT
BRANCH   1   2
ATOM      2  C   UNL     1      59.177  28.617  48.949  1.00  0.00     0.027 C 
BRANCH   2   3
ATOM      3  C   UNL     1      59.641  27.223  49.285  1.00  0.00    -0.025 C 
ATOM      4  C   UNL     1      60.899  26.859  49.584  1.00  0.00     0.020 C 
BRANCH   4   5
ATOM      5  C   UNL     1      62.073  27.750  49.691  1.00  0.00     0.064 C 
ATOM      6  O   UNL     1      62.319  28.411  50.734  1.00  0.00    -0.545 OA
ATOM      7  O   UNL     1      62.947  27.840  48.615  1.00  0.00    -0.545 OA
ENDBRANCH   4   5
ENDBRANCH   2   3
ENDBRANCH   1   2
BRANCH   1   8
ATOM      8  C   UNL     1      57.401  28.258  50.741  1.00  0.00     0.000 C 
BRANCH   8   9
ATOM      9  C   UNL     1      55.947  28.599  50.391  1.00  0.00    -0.000 C 
BRANCH   9  10
ATOM     10  C   UNL     1      55.120  27.327  50.173  1.00  0.00    -0.003 C 
ATOM     11  C   UNL     1      56.019  26.110  49.975  1.00  0.00     0.004 C 
ENDBRANCH   9  10
ENDBRANCH   8   9
ENDBRANCH   1   8
TORSDOF 6
ENDMDL
