MODEL 1
REMARK VINA RESULT:    -4.251      0.000      0.000
REMARK INTER + INTRA:          -9.227
REMARK INTER:                  -7.482
REMARK INTRA:                  -1.745
REMARK UNBOUND:                -1.745
REMARK SMILES CCCCCCCCCCCCCCC(=O)[O-]
REMARK SMILES IDX 9 1 10 2 11 3 12 4 13 5 14 6 15 7 16 8 17 9 8 10 7 11 6 12
REMARK SMILES IDX 5 13 4 14 3 15 2 16 1 17
REMARK H PARENT
REMARK Flexibility Score: inf
ROOT
ATOM      1  C   UNL     1     -16.268  19.614 -18.114  1.00  0.00     0.000 C 
ENDROOT
BRANCH   1   2
ATOM      2  C   UNL     1     -15.986  18.368 -17.255  1.00  0.00     0.000 C 
BRANCH   2   3
ATOM      3  C   UNL     1     -14.678  17.661 -17.638  1.00  0.00     0.000 C 
BRANCH   3   4
ATOM      4  C   UNL     1     -14.497  17.630 -19.163  1.00  0.00     0.000 C 
BRANCH   4   5
ATOM      5  C   UNL     1     -13.022  17.686 -19.587  1.00  0.00     0.006 C 
BRANCH   5   6
ATOM      6  C   UNL     1     -12.521  16.353 -20.160  1.00  0.00     0.053 C 
BRANCH   6   7
ATOM      7  C   UNL     1     -12.806  16.275 -21.627  1.00  0.00     0.041 C 
ATOM      8  O   UNL     1     -11.906  16.550 -22.463  1.00  0.00    -0.550 OA
ATOM      9  O   UNL     1     -14.082  15.948 -22.071  1.00  0.00    -0.550 OA
ENDBRANCH   6   7
ENDBRANCH   5   6
ENDBRANCH   4   5
ENDBRANCH   3   4
ENDBRANCH   2   3
ENDBRANCH   1   2
BRANCH   1  10
ATOM     10  C   UNL     1     -16.181  20.958 -17.362  1.00  0.00     0.000 C 
BRANCH  10  11
ATOM     11  C   UNL     1     -15.170  21.967 -17.937  1.00  0.00    -0.000 C 
BRANCH  11  12
ATOM     12  C   UNL     1     -13.840  21.983 -17.165  1.00  0.00    -0.000 C 
BRANCH  12  13
ATOM     13  C   UNL     1     -12.781  21.064 -17.797  1.00  0.00    -0.000 C 
BRANCH  13  14
ATOM     14  C   UNL     1     -12.208  20.050 -16.792  1.00  0.00    -0.000 C 
BRANCH  14  15
ATOM     15  C   UNL     1     -12.491  20.434 -15.328  1.00  0.00    -0.000 C 
BRANCH  15  16
ATOM     16  C   UNL     1     -12.903  19.263 -14.418  1.00  0.00    -0.003 C 
ATOM     17  C   UNL     1     -11.846  18.163 -14.343  1.00  0.00     0.004 C 
ENDBRANCH  15  16
ENDBRANCH  14  15
ENDBRANCH  13  14
ENDBRANCH  12  13
ENDBRANCH  11  12
ENDBRANCH  10  11
ENDBRANCH   1  10
TORSDOF 13
ENDMDL
MODEL 2
REMARK VINA RESULT:    -4.095      4.024      6.417
REMARK INTER + INTRA:          -8.953
REMARK INTER:                  -6.574
REMARK INTRA:                  -2.379
REMARK UNBOUND:                -1.745
REMARK SMILES CCCCCCCCCCCCCCC(=O)[O-]
REMARK SMILES IDX 9 1 10 2 11 3 12 4 13 5 14 6 15 7 16 8 17 9 8 10 7 11 6 12
REMARK SMILES IDX 5 13 4 14 3 15 2 16 1 17
REMARK H PARENT
REMARK Flexibility Score: inf
ROOT
ATOM      1  C   UNL     1     -17.086  17.435 -21.171  1.00  0.00     0.000 C 
ENDROOT
BRANCH   1   2
ATOM      2  C   UNL     1     -16.340  16.828 -19.968  1.00  0.00     0.000 C 
BRANCH   2   3
ATOM      3  C   UNL     1     -15.743  17.891 -19.037  1.00  0.00     0.000 C 
BRANCH   3   4
ATOM      4  C   UNL     1     -16.291  17.741 -17.609  1.00  0.00     0.000 C 
BRANCH   4   5
ATOM      5  C   UNL     1     -16.750  19.077 -17.006  1.00  0.00     0.006 C 
BRANCH   5   6
ATOM      6  C   UNL     1     -16.483  20.268 -17.937  1.00  0.00     0.053 C 
BRANCH   6   7
ATOM      7  C   UNL     1     -15.336  21.083 -17.426  1.00  0.00     0.041 C 
ATOM      8  O   UNL     1     -15.184  22.273 -17.808  1.00  0.00    -0.550 OA
ATOM      9  O   UNL     1     -14.407  20.512 -16.565  1.00  0.00    -0.550 OA
ENDBRANCH   6   7
ENDBRANCH   5   6
ENDBRANCH   4   5
ENDBRANCH   3   4
ENDBRANCH   2   3
ENDBRANCH   1   2
BRANCH   1  10
ATOM     10  C   UNL     1     -18.605  17.616 -20.973  1.00  0.00     0.000 C 
BRANCH  10  11
ATOM     11  C   UNL     1     -19.029  18.960 -20.352  1.00  0.00    -0.000 C 
BRANCH  11  12
ATOM     12  C   UNL     1     -19.933  18.788 -19.120  1.00  0.00    -0.000 C 
BRANCH  12  13
ATOM     13  C   UNL     1     -20.014  17.326 -18.649  1.00  0.00    -0.000 C 
BRANCH  13  14
ATOM     14  C   UNL     1     -19.999  17.202 -17.116  1.00  0.00    -0.000 C 
BRANCH  14  15
ATOM     15  C   UNL     1     -19.391  15.872 -16.631  1.00  0.00    -0.000 C 
BRANCH  15  16
ATOM     16  C   UNL     1     -18.679  15.049 -17.718  1.00  0.00    -0.003 C 
ATOM     17  C   UNL     1     -18.029  13.777 -17.177  1.00  0.00     0.004 C 
ENDBRANCH  15  16
ENDBRANCH  14  15
ENDBRANCH  13  14
ENDBRANCH  12  13
ENDBRANCH  11  12
ENDBRANCH  10  11
ENDBRANCH   1  10
TORSDOF 13
ENDMDL
MODEL 3
REMARK VINA RESULT:    -4.088      5.379      7.362
REMARK INTER + INTRA:          -8.940
REMARK INTER:                  -7.119
REMARK INTRA:                  -1.820
REMARK UNBOUND:                -1.745
REMARK SMILES CCCCCCCCCCCCCCC(=O)[O-]
REMARK SMILES IDX 9 1 10 2 11 3 12 4 13 5 14 6 15 7 16 8 17 9 8 10 7 11 6 12
REMARK SMILES IDX 5 13 4 14 3 15 2 16 1 17
REMARK H PARENT
REMARK Flexibility Score: inf
ROOT
ATOM      1  C   UNL     1     -18.211  17.576 -13.062  1.00  0.00     0.000 C 
ENDROOT
BRANCH   1   2
ATOM      2  C   UNL     1     -18.274  17.565 -14.601  1.00  0.00     0.000 C 
BRANCH   2   3
ATOM      3  C   UNL     1     -19.532  16.873 -15.142  1.00  0.00     0.000 C 
BRANCH   3   4
ATOM      4  C   UNL     1     -19.176  15.881 -16.260  1.00  0.00     0.000 C 
BRANCH   4   5
ATOM      5  C   UNL     1     -17.826  16.194 -16.923  1.00  0.00     0.006 C 
BRANCH   5   6
ATOM      6  C   UNL     1     -17.748  15.690 -18.370  1.00  0.00     0.053 C 
BRANCH   6   7
ATOM      7  C   UNL     1     -18.141  16.775 -19.322  1.00  0.00     0.041 C 
ATOM      8  O   UNL     1     -19.303  16.803 -19.808  1.00  0.00    -0.550 OA
ATOM      9  O   UNL     1     -17.209  17.729 -19.713  1.00  0.00    -0.550 OA
ENDBRANCH   6   7
ENDBRANCH   5   6
ENDBRANCH   4   5
ENDBRANCH   3   4
ENDBRANCH   2   3
ENDBRANCH   1   2
BRANCH   1  10
ATOM     10  C   UNL     1     -17.166  16.624 -12.445  1.00  0.00     0.000 C 
BRANCH  10  11
ATOM     11  C   UNL     1     -16.397  15.751 -13.453  1.00  0.00    -0.000 C 
BRANCH  11  12
ATOM     12  C   UNL     1     -16.844  14.279 -13.429  1.00  0.00    -0.000 C 
BRANCH  12  13
ATOM     13  C   UNL     1     -16.324  13.487 -14.640  1.00  0.00    -0.000 C 
BRANCH  13  14
ATOM     14  C   UNL     1     -16.555  11.973 -14.495  1.00  0.00    -0.000 C 
BRANCH  14  15
ATOM     15  C   UNL     1     -17.404  11.386 -15.638  1.00  0.00    -0.000 C 
BRANCH  15  16
ATOM     16  C   UNL     1     -17.711  12.363 -16.787  1.00  0.00    -0.003 C 
ATOM     17  C   UNL     1     -19.188  12.384 -17.177  1.00  0.00     0.004 C 
ENDBRANCH  15  16
ENDBRANCH  14  15
ENDBRANCH  13  14
ENDBRANCH  12  13
ENDBRANCH  11  12
ENDBRANCH  10  11
ENDBRANCH   1  10
TORSDOF 13
ENDMDL
MODEL 4
REMARK VINA RESULT:    -4.070     14.080     16.151
REMARK INTER + INTRA:          -8.908
REMARK INTER:                  -6.709
REMARK INTRA:                  -2.199
REMARK UNBOUND:                -1.745
REMARK SMILES CCCCCCCCCCCCCCC(=O)[O-]
REMARK SMILES IDX 9 1 10 2 11 3 12 4 13 5 14 6 15 7 16 8 17 9 8 10 7 11 6 12
REMARK SMILES IDX 5 13 4 14 3 15 2 16 1 17
REMARK H PARENT
REMARK Flexibility Score: inf
ROOT
ATOM      1  C   UNL     1      -3.965   9.946  -9.548  1.00  0.00     0.000 C 
ENDROOT
BRANCH   1   2
ATOM      2  C   UNL     1      -4.180  10.415 -10.999  1.00  0.00     0.000 C 
BRANCH   2   3
ATOM      3  C   UNL     1      -4.668  11.868 -11.091  1.00  0.00     0.000 C 
BRANCH   3   4
ATOM      4  C   UNL     1      -5.003  12.424  -9.698  1.00  0.00     0.000 C 
BRANCH   4   5
ATOM      5  C   UNL     1      -4.202  13.688  -9.355  1.00  0.00     0.006 C 
BRANCH   5   6
ATOM      6  C   UNL     1      -3.836  13.770  -7.867  1.00  0.00     0.053 C 
BRANCH   6   7
ATOM      7  C   UNL     1      -5.022  14.200  -7.061  1.00  0.00     0.041 C 
ATOM      8  O   UNL     1      -5.891  14.958  -7.566  1.00  0.00    -0.550 OA
ATOM      9  O   UNL     1      -5.141  13.804  -5.734  1.00  0.00    -0.550 OA
ENDBRANCH   6   7
ENDBRANCH   5   6
ENDBRANCH   4   5
ENDBRANCH   3   4
ENDBRANCH   2   3
ENDBRANCH   1   2
BRANCH   1  10
ATOM     10  C   UNL     1      -2.719   9.064  -9.326  1.00  0.00     0.000 C 
BRANCH  10  11
ATOM     11  C   UNL     1      -1.370   9.749  -9.611  1.00  0.00    -0.000 C 
BRANCH  11  12
ATOM     12  C   UNL     1      -1.270  11.151  -8.987  1.00  0.00    -0.000 C 
BRANCH  12  13
ATOM     13  C   UNL     1      -0.629  12.174  -9.939  1.00  0.00    -0.000 C 
BRANCH  13  14
ATOM     14  C   UNL     1      -0.615  11.690 -11.399  1.00  0.00    -0.000 C 
BRANCH  14  15
ATOM     15  C   UNL     1      -1.306  12.673 -12.361  1.00  0.00    -0.000 C 
BRANCH  15  16
ATOM     16  C   UNL     1      -1.409  14.120 -11.847  1.00  0.00    -0.003 C 
ATOM     17  C   UNL     1      -0.197  14.974 -12.216  1.00  0.00     0.004 C 
ENDBRANCH  15  16
ENDBRANCH  14  15
ENDBRANCH  13  14
ENDBRANCH  12  13
ENDBRANCH  11  12
ENDBRANCH  10  11
ENDBRANCH   1  10
TORSDOF 13
ENDMDL
MODEL 5
REMARK VINA RESULT:    -4.063     13.764     16.457
REMARK INTER + INTRA:          -8.896
REMARK INTER:                  -6.767
REMARK INTRA:                  -2.129
REMARK UNBOUND:                -1.745
REMARK SMILES CCCCCCCCCCCCCCC(=O)[O-]
REMARK SMILES IDX 9 1 10 2 11 3 12 4 13 5 14 6 15 7 16 8 17 9 8 10 7 11 6 12
REMARK SMILES IDX 5 13 4 14 3 15 2 16 1 17
REMARK H PARENT
REMARK Flexibility Score: inf
ROOT
ATOM      1  C   UNL     1      -2.229  10.550 -12.443  1.00  0.00     0.000 C 
ENDROOT
BRANCH   1   2
ATOM      2  C   UNL     1      -3.738  10.855 -12.471  1.00  0.00     0.000 C 
BRANCH   2   3
ATOM      3  C   UNL     1      -4.473  10.349 -11.223  1.00  0.00     0.000 C 
BRANCH   3   4
ATOM      4  C   UNL     1      -4.523  11.435 -10.137  1.00  0.00     0.000 C 
BRANCH   4   5
ATOM      5  C   UNL     1      -4.587  12.855 -10.720  1.00  0.00     0.006 C 
BRANCH   5   6
ATOM      6  C   UNL     1      -3.896  13.893  -9.825  1.00  0.00     0.053 C 
BRANCH   6   7
ATOM      7  C   UNL     1      -4.625  14.029  -8.526  1.00  0.00     0.041 C 
ATOM      8  O   UNL     1      -5.861  14.268  -8.515  1.00  0.00    -0.550 OA
ATOM      9  O   UNL     1      -3.930  13.942  -7.326  1.00  0.00    -0.550 OA
ENDBRANCH   6   7
ENDBRANCH   5   6
ENDBRANCH   4   5
ENDBRANCH   3   4
ENDBRANCH   2   3
ENDBRANCH   1   2
BRANCH   1  10
ATOM     10  C   UNL     1      -1.312  11.772 -12.656  1.00  0.00     0.000 C 
BRANCH  10  11
ATOM     11  C   UNL     1      -0.173  11.924 -11.631  1.00  0.00    -0.000 C 
BRANCH  11  12
ATOM     12  C   UNL     1      -0.685  12.112 -10.194  1.00  0.00    -0.000 C 
BRANCH  12  13
ATOM     13  C   UNL     1      -0.248  10.972  -9.259  1.00  0.00    -0.000 C 
BRANCH  13  14
ATOM     14  C   UNL     1      -1.396  10.472  -8.365  1.00  0.00    -0.000 C 
BRANCH  14  15
ATOM     15  C   UNL     1      -1.964   9.117  -8.825  1.00  0.00    -0.000 C 
BRANCH  15  16
ATOM     16  C   UNL     1      -0.943   8.175  -9.487  1.00  0.00    -0.003 C 
ATOM     17  C   UNL     1      -0.560   6.989  -8.602  1.00  0.00     0.004 C 
ENDBRANCH  15  16
ENDBRANCH  14  15
ENDBRANCH  13  14
ENDBRANCH  12  13
ENDBRANCH  11  12
ENDBRANCH  10  11
ENDBRANCH   1  10
TORSDOF 13
ENDMDL
MODEL 6
REMARK VINA RESULT:    -4.033     12.605     15.575
REMARK INTER + INTRA:          -8.843
REMARK INTER:                  -6.939
REMARK INTRA:                  -1.905
REMARK UNBOUND:                -1.745
REMARK SMILES CCCCCCCCCCCCCCC(=O)[O-]
REMARK SMILES IDX 9 1 10 2 11 3 12 4 13 5 14 6 15 7 16 8 17 9 8 10 7 11 6 12
REMARK SMILES IDX 5 13 4 14 3 15 2 16 1 17
REMARK H PARENT
REMARK Flexibility Score: inf
ROOT
ATOM      1  C   UNL     1      -6.006   8.889 -10.298  1.00  0.00     0.000 C 
ENDROOT
BRANCH   1   2
ATOM      2  C   UNL     1      -6.462   9.512 -11.630  1.00  0.00     0.000 C 
BRANCH   2   3
ATOM      3  C   UNL     1      -7.324  10.768 -11.439  1.00  0.00     0.000 C 
BRANCH   3   4
ATOM      4  C   UNL     1      -7.565  11.047  -9.948  1.00  0.00     0.000 C 
BRANCH   4   5
ATOM      5  C   UNL     1      -6.970  12.388  -9.491  1.00  0.00     0.006 C 
BRANCH   5   6
ATOM      6  C   UNL     1      -6.189  13.097 -10.605  1.00  0.00     0.053 C 
BRANCH   6   7
ATOM      7  C   UNL     1      -5.103  13.946 -10.022  1.00  0.00     0.041 C 
ATOM      8  O   UNL     1      -4.319  14.579 -10.776  1.00  0.00    -0.550 OA
ATOM      9  O   UNL     1      -4.926  13.998  -8.645  1.00  0.00    -0.550 OA
ENDBRANCH   6   7
ENDBRANCH   5   6
ENDBRANCH   4   5
ENDBRANCH   3   4
ENDBRANCH   2   3
ENDBRANCH   1   2
BRANCH   1  10
ATOM     10  C   UNL     1      -4.536   9.161  -9.920  1.00  0.00     0.000 C 
BRANCH  10  11
ATOM     11  C   UNL     1      -3.794  10.150 -10.837  1.00  0.00    -0.000 C 
BRANCH  11  12
ATOM     12  C   UNL     1      -2.869  11.103 -10.063  1.00  0.00    -0.000 C 
BRANCH  12  13
ATOM     13  C   UNL     1      -2.944  10.889  -8.542  1.00  0.00    -0.000 C 
BRANCH  13  14
ATOM     14  C   UNL     1      -1.714  10.148  -7.991  1.00  0.00    -0.000 C 
BRANCH  14  15
ATOM     15  C   UNL     1      -0.639   9.895  -9.064  1.00  0.00    -0.000 C 
BRANCH  15  16
ATOM     16  C   UNL     1      -0.515   8.433  -9.526  1.00  0.00    -0.003 C 
ATOM     17  C   UNL     1      -1.381   7.472  -8.712  1.00  0.00     0.004 C 
ENDBRANCH  15  16
ENDBRANCH  14  15
ENDBRANCH  13  14
ENDBRANCH  12  13
ENDBRANCH  11  12
ENDBRANCH  10  11
ENDBRANCH   1  10
TORSDOF 13
ENDMDL
MODEL 7
REMARK VINA RESULT:    -4.014     12.214     15.126
REMARK INTER + INTRA:          -8.810
REMARK INTER:                  -7.142
REMARK INTRA:                  -1.668
REMARK UNBOUND:                -1.745
REMARK SMILES CCCCCCCCCCCCCCC(=O)[O-]
REMARK SMILES IDX 9 1 10 2 11 3 12 4 13 5 14 6 15 7 16 8 17 9 8 10 7 11 6 12
REMARK SMILES IDX 5 13 4 14 3 15 2 16 1 17
REMARK H PARENT
REMARK Flexibility Score: inf
ROOT
ATOM      1  C   UNL     1      -1.696  10.676 -11.011  1.00  0.00     0.000 C 
ENDROOT
BRANCH   1   2
ATOM      2  C   UNL     1      -1.223  11.629  -9.898  1.00  0.00     0.000 C 
BRANCH   2   3
ATOM      3  C   UNL     1      -1.447  13.108 -10.243  1.00  0.00     0.000 C 
BRANCH   3   4
ATOM      4  C   UNL     1      -0.258  13.673 -11.035  1.00  0.00     0.000 C 
BRANCH   4   5
ATOM      5  C   UNL     1      -0.681  14.316 -12.364  1.00  0.00     0.006 C 
BRANCH   5   6
ATOM      6  C   UNL     1      -2.186  14.612 -12.424  1.00  0.00     0.053 C 
BRANCH   6   7
ATOM      7  C   UNL     1      -2.424  16.019 -12.872  1.00  0.00     0.041 C 
ATOM      8  O   UNL     1      -3.432  16.300 -13.572  1.00  0.00    -0.550 OA
ATOM      9  O   UNL     1      -1.505  17.014 -12.558  1.00  0.00    -0.550 OA
ENDBRANCH   6   7
ENDBRANCH   5   6
ENDBRANCH   4   5
ENDBRANCH   3   4
ENDBRANCH   2   3
ENDBRANCH   1   2
BRANCH   1  10
ATOM     10  C   UNL     1      -3.185  10.806 -11.393  1.00  0.00     0.000 C 
BRANCH  10  11
ATOM     11  C   UNL     1      -3.466  10.944 -12.900  1.00  0.00    -0.000 C 
BRANCH  11  12
ATOM     12  C   UNL     1      -2.183  11.098 -13.734  1.00  0.00    -0.000 C 
BRANCH  12  13
ATOM     13  C   UNL     1      -2.043  10.005 -14.806  1.00  0.00    -0.000 C 
BRANCH  13  14
ATOM     14  C   UNL     1      -2.214  10.556 -16.233  1.00  0.00    -0.000 C 
BRANCH  14  15
ATOM     15  C   UNL     1      -3.493  10.044 -16.921  1.00  0.00    -0.000 C 
BRANCH  15  16
ATOM     16  C   UNL     1      -4.636  11.070 -17.011  1.00  0.00    -0.003 C 
ATOM     17  C   UNL     1      -4.225  12.467 -16.548  1.00  0.00     0.004 C 
ENDBRANCH  15  16
ENDBRANCH  14  15
ENDBRANCH  13  14
ENDBRANCH  12  13
ENDBRANCH  11  12
ENDBRANCH  10  11
ENDBRANCH   1  10
TORSDOF 13
ENDMDL
MODEL 8
REMARK VINA RESULT:    -3.994     13.566     16.124
REMARK INTER + INTRA:          -8.775
REMARK INTER:                  -6.573
REMARK INTRA:                  -2.202
REMARK UNBOUND:                -1.745
REMARK SMILES CCCCCCCCCCCCCCC(=O)[O-]
REMARK SMILES IDX 9 1 10 2 11 3 12 4 13 5 14 6 15 7 16 8 17 9 8 10 7 11 6 12
REMARK SMILES IDX 5 13 4 14 3 15 2 16 1 17
REMARK H PARENT
REMARK Flexibility Score: inf
ROOT
ATOM      1  C   UNL     1      -1.201  12.921 -11.301  1.00  0.00     0.000 C 
ENDROOT
BRANCH   1   2
ATOM      2  C   UNL     1      -2.719  13.179 -11.338  1.00  0.00     0.000 C 
BRANCH   2   3
ATOM      3  C   UNL     1      -3.241  13.857 -10.064  1.00  0.00     0.000 C 
BRANCH   3   4
ATOM      4  C   UNL     1      -4.777  13.858 -10.033  1.00  0.00     0.000 C 
BRANCH   4   5
ATOM      5  C   UNL     1      -5.343  13.333  -8.705  1.00  0.00     0.006 C 
BRANCH   5   6
ATOM      6  C   UNL     1      -4.872  14.153  -7.496  1.00  0.00     0.053 C 
BRANCH   6   7
ATOM      7  C   UNL     1      -5.995  14.981  -6.957  1.00  0.00     0.041 C 
ATOM      8  O   UNL     1      -5.852  15.621  -5.882  1.00  0.00    -0.550 OA
ATOM      9  O   UNL     1      -7.219  15.006  -7.616  1.00  0.00    -0.550 OA
ENDBRANCH   6   7
ENDBRANCH   5   6
ENDBRANCH   4   5
ENDBRANCH   3   4
ENDBRANCH   2   3
ENDBRANCH   1   2
BRANCH   1  10
ATOM     10  C   UNL     1      -0.623  12.622  -9.903  1.00  0.00     0.000 C 
BRANCH  10  11
ATOM     11  C   UNL     1       0.084  11.262  -9.762  1.00  0.00    -0.000 C 
BRANCH  11  12
ATOM     12  C   UNL     1      -0.878  10.125  -9.383  1.00  0.00    -0.000 C 
BRANCH  12  13
ATOM     13  C   UNL     1      -1.796  10.498  -8.207  1.00  0.00    -0.000 C 
BRANCH  13  14
ATOM     14  C   UNL     1      -3.274  10.174  -8.489  1.00  0.00    -0.000 C 
BRANCH  14  15
ATOM     15  C   UNL     1      -3.540   9.841  -9.968  1.00  0.00    -0.000 C 
BRANCH  15  16
ATOM     16  C   UNL     1      -5.004   9.999 -10.415  1.00  0.00    -0.003 C 
ATOM     17  C   UNL     1      -5.141  10.512 -11.848  1.00  0.00     0.004 C 
ENDBRANCH  15  16
ENDBRANCH  14  15
ENDBRANCH  13  14
ENDBRANCH  12  13
ENDBRANCH  11  12
ENDBRANCH  10  11
ENDBRANCH   1  10
TORSDOF 13
ENDMDL
MODEL 9
REMARK VINA RESULT:    -3.940     13.534     15.551
REMARK INTER + INTRA:          -8.680
REMARK INTER:                  -6.791
REMARK INTRA:                  -1.889
REMARK UNBOUND:                -1.745
REMARK SMILES CCCCCCCCCCCCCCC(=O)[O-]
REMARK SMILES IDX 9 1 10 2 11 3 12 4 13 5 14 6 15 7 16 8 17 9 8 10 7 11 6 12
REMARK SMILES IDX 5 13 4 14 3 15 2 16 1 17
REMARK H PARENT
REMARK Flexibility Score: inf
ROOT
ATOM      1  C   UNL     1      -0.298  11.450 -11.010  1.00  0.00     0.000 C 
ENDROOT
BRANCH   1   2
ATOM      2  C   UNL     1      -1.200  12.634 -11.405  1.00  0.00     0.000 C 
BRANCH   2   3
ATOM      3  C   UNL     1      -1.879  12.439 -12.767  1.00  0.00     0.000 C 
BRANCH   3   4
ATOM      4  C   UNL     1      -1.783  10.976 -13.225  1.00  0.00     0.000 C 
BRANCH   4   5
ATOM      5  C   UNL     1      -2.811  10.625 -14.311  1.00  0.00     0.006 C 
BRANCH   5   6
ATOM      6  C   UNL     1      -2.153  10.238 -15.643  1.00  0.00     0.053 C 
BRANCH   6   7
ATOM      7  C   UNL     1      -3.175  10.192 -16.735  1.00  0.00     0.041 C 
ATOM      8  O   UNL     1      -2.976   9.490 -17.761  1.00  0.00    -0.550 OA
ATOM      9  O   UNL     1      -4.327  10.965 -16.643  1.00  0.00    -0.550 OA
ENDBRANCH   6   7
ENDBRANCH   5   6
ENDBRANCH   4   5
ENDBRANCH   3   4
ENDBRANCH   2   3
ENDBRANCH   1   2
BRANCH   1  10
ATOM     10  C   UNL     1      -0.122  11.240  -9.492  1.00  0.00     0.000 C 
BRANCH  10  11
ATOM     11  C   UNL     1      -1.214  10.390  -8.817  1.00  0.00    -0.000 C 
BRANCH  11  12
ATOM     12  C   UNL     1      -1.833   9.351  -9.766  1.00  0.00    -0.000 C 
BRANCH  12  13
ATOM     13  C   UNL     1      -3.001   8.587  -9.121  1.00  0.00    -0.000 C 
BRANCH  13  14
ATOM     14  C   UNL     1      -4.363   8.982  -9.717  1.00  0.00    -0.000 C 
BRANCH  14  15
ATOM     15  C   UNL     1      -4.250  10.087 -10.784  1.00  0.00    -0.000 C 
BRANCH  15  16
ATOM     16  C   UNL     1      -5.047  11.367 -10.480  1.00  0.00    -0.003 C 
ATOM     17  C   UNL     1      -4.364  12.268  -9.452  1.00  0.00     0.004 C 
ENDBRANCH  15  16
ENDBRANCH  14  15
ENDBRANCH  13  14
ENDBRANCH  12  13
ENDBRANCH  11  12
ENDBRANCH  10  11
ENDBRANCH   1  10
TORSDOF 13
ENDMDL
