MODEL 1
REMARK VINA RESULT:    -2.725      0.000      0.000
REMARK INTER + INTRA:          -2.725
REMARK INTER:                  -2.725
REMARK INTRA:                   0.000
REMARK UNBOUND:                 0.000
REMARK SMILES CC(=O)[O-]
REMARK SMILES IDX 1 1 2 2 3 3 4 4
REMARK H PARENT
REMARK Flexibility Score: inf
ROOT
ATOM      1  C   UNL     1      -1.535   9.008   7.463  1.00  0.00     0.063 C 
ATOM      2  C   UNL     1      -2.764   8.292   7.910  1.00  0.00     0.038 C 
ATOM      3  O   UNL     1      -2.673   7.299   8.679  1.00  0.00    -0.550 OA
ATOM      4  O   UNL     1      -4.017   8.751   7.523  1.00  0.00    -0.550 OA
ENDROOT
TORSDOF 0
ENDMDL
MODEL 2
REMARK VINA RESULT:    -2.723      0.144      1.619
REMARK INTER + INTRA:          -2.723
REMARK INTER:                  -2.723
REMARK INTRA:                   0.000
REMARK UNBOUND:                 0.000
REMARK SMILES CC(=O)[O-]
REMARK SMILES IDX 1 1 2 2 3 3 4 4
REMARK H PARENT
REMARK Flexibility Score: inf
ROOT
ATOM      1  C   UNL     1      -1.552   8.974   7.422  1.00  0.00     0.063 C 
ATOM      2  C   UNL     1      -2.787   8.282   7.887  1.00  0.00     0.038 C 
ATOM      3  O   UNL     1      -3.920   8.760   7.616  1.00  0.00    -0.550 OA
ATOM      4  O   UNL     1      -2.694   7.077   8.574  1.00  0.00    -0.550 OA
ENDROOT
TORSDOF 0
ENDMDL
MODEL 3
REMARK VINA RESULT:    -2.571      1.318      1.674
REMARK INTER + INTRA:          -2.571
REMARK INTER:                  -2.571
REMARK INTRA:                   0.000
REMARK UNBOUND:                 0.000
REMARK SMILES CC(=O)[O-]
REMARK SMILES IDX 1 1 2 2 3 3 4 4
REMARK H PARENT
REMARK Flexibility Score: inf
ROOT
ATOM      1  C   UNL     1      -1.908   7.781   8.847  1.00  0.00     0.063 C 
ATOM      2  C   UNL     1      -2.616   8.655   7.868  1.00  0.00     0.038 C 
ATOM      3  O   UNL     1      -1.957   9.376   7.074  1.00  0.00    -0.550 OA
ATOM      4  O   UNL     1      -4.003   8.634   7.792  1.00  0.00    -0.550 OA
ENDROOT
TORSDOF 0
ENDMDL
MODEL 4
REMARK VINA RESULT:    -2.222     20.185     20.302
REMARK INTER + INTRA:          -2.222
REMARK INTER:                  -2.222
REMARK INTRA:                   0.000
REMARK UNBOUND:                 0.000
REMARK SMILES CC(=O)[O-]
REMARK SMILES IDX 1 1 2 2 3 3 4 4
REMARK H PARENT
REMARK Flexibility Score: inf
ROOT
ATOM      1  C   UNL     1       4.697  -3.026  -7.509  1.00  0.00     0.063 C 
ATOM      2  C   UNL     1       4.131  -4.071  -6.610  1.00  0.00     0.038 C 
ATOM      3  O   UNL     1       4.755  -4.418  -5.572  1.00  0.00    -0.550 OA
ATOM      4  O   UNL     1       2.887  -4.626  -6.884  1.00  0.00    -0.550 OA
ENDROOT
TORSDOF 0
ENDMDL
MODEL 5
REMARK VINA RESULT:    -2.205     20.227     20.358
REMARK INTER + INTRA:          -2.205
REMARK INTER:                  -2.205
REMARK INTRA:                   0.000
REMARK UNBOUND:                 0.000
REMARK SMILES CC(=O)[O-]
REMARK SMILES IDX 1 1 2 2 3 3 4 4
REMARK H PARENT
REMARK Flexibility Score: inf
ROOT
ATOM      1  C   UNL     1       4.675  -3.039  -7.539  1.00  0.00     0.063 C 
ATOM      2  C   UNL     1       4.115  -4.061  -6.610  1.00  0.00     0.038 C 
ATOM      3  O   UNL     1       2.971  -4.545  -6.819  1.00  0.00    -0.550 OA
ATOM      4  O   UNL     1       4.875  -4.523  -5.543  1.00  0.00    -0.550 OA
ENDROOT
TORSDOF 0
ENDMDL
MODEL 6
REMARK VINA RESULT:    -2.170     20.501     20.724
REMARK INTER + INTRA:          -2.170
REMARK INTER:                  -2.170
REMARK INTRA:                   0.000
REMARK UNBOUND:                 0.000
REMARK SMILES CC(=O)[O-]
REMARK SMILES IDX 1 1 2 2 3 3 4 4
REMARK H PARENT
REMARK Flexibility Score: inf
ROOT
ATOM      1  C   UNL     1       6.910  -4.127  -6.316  1.00  0.00     0.063 C 
ATOM      2  C   UNL     1       5.747  -4.823  -5.695  1.00  0.00     0.038 C 
ATOM      3  O   UNL     1       5.914  -5.913  -5.086  1.00  0.00    -0.550 OA
ATOM      4  O   UNL     1       4.486  -4.243  -5.737  1.00  0.00    -0.550 OA
ENDROOT
TORSDOF 0
ENDMDL
MODEL 7
REMARK VINA RESULT:    -2.101      1.987      2.274
REMARK INTER + INTRA:          -2.101
REMARK INTER:                  -2.101
REMARK INTRA:                   0.000
REMARK UNBOUND:                 0.000
REMARK SMILES CC(=O)[O-]
REMARK SMILES IDX 1 1 2 2 3 3 4 4
REMARK H PARENT
REMARK Flexibility Score: inf
ROOT
ATOM      1  C   UNL     1      -2.594   8.253   7.885  1.00  0.00     0.063 C 
ATOM      2  C   UNL     1      -1.956   7.461   8.974  1.00  0.00     0.038 C 
ATOM      3  O   UNL     1      -1.043   7.971   9.676  1.00  0.00    -0.550 OA
ATOM      4  O   UNL     1      -2.403   6.176   9.255  1.00  0.00    -0.550 OA
ENDROOT
TORSDOF 0
ENDMDL
MODEL 8
REMARK VINA RESULT:    -2.076     18.616     18.814
REMARK INTER + INTRA:          -2.076
REMARK INTER:                  -2.076
REMARK INTRA:                   0.000
REMARK UNBOUND:                 0.000
REMARK SMILES CC(=O)[O-]
REMARK SMILES IDX 1 1 2 2 3 3 4 4
REMARK H PARENT
REMARK Flexibility Score: inf
ROOT
ATOM      1  C   UNL     1       2.415  -2.713  -4.317  1.00  0.00     0.063 C 
ATOM      2  C   UNL     1       2.818  -3.675  -5.381  1.00  0.00     0.038 C 
ATOM      3  O   UNL     1       1.948  -4.184  -6.136  1.00  0.00    -0.550 OA
ATOM      4  O   UNL     1       4.161  -3.971  -5.580  1.00  0.00    -0.550 OA
ENDROOT
TORSDOF 0
ENDMDL
MODEL 9
REMARK VINA RESULT:    -2.074     22.099     22.399
REMARK INTER + INTRA:          -2.074
REMARK INTER:                  -2.074
REMARK INTRA:                   0.000
REMARK UNBOUND:                 0.000
REMARK SMILES CC(=O)[O-]
REMARK SMILES IDX 1 1 2 2 3 3 4 4
REMARK H PARENT
REMARK Flexibility Score: inf
ROOT
ATOM      1  C   UNL     1       7.871  -2.680  -7.276  1.00  0.00     0.063 C 
ATOM      2  C   UNL     1       8.699  -1.923  -8.257  1.00  0.00     0.038 C 
ATOM      3  O   UNL     1       8.161  -1.074  -9.016  1.00  0.00    -0.550 OA
ATOM      4  O   UNL     1      10.075  -2.110  -8.299  1.00  0.00    -0.550 OA
ENDROOT
TORSDOF 0
ENDMDL
