MODEL 1
REMARK VINA RESULT:    -6.770      0.000      0.000
REMARK INTER + INTRA:         -21.009
REMARK INTER:                 -17.851
REMARK INTRA:                  -3.157
REMARK UNBOUND:                -3.157
REMARK SMILES CCCCCCCCCCCCCCCCCCCCCCCCCCCCCC(=O)[O-]
REMARK SMILES IDX 16 1 17 2 18 3 19 4 20 5 21 6 22 7 23 8 24 9 25 10 26 11
REMARK SMILES IDX 27 12 28 13 29 14 30 15 31 16 32 17 15 18 14 19 13 20 12 21
REMARK SMILES IDX 11 22 10 23 9 24 8 25 7 26 6 27 5 28 4 29 3 30 2 31 1 32
REMARK H PARENT
REMARK Flexibility Score: inf
ROOT
ATOM      1  C   UNL     1      13.039   2.995  15.723  1.00  0.00     0.000 C 
ENDROOT
BRANCH   1   2
ATOM      2  C   UNL     1      12.985   3.533  17.164  1.00  0.00     0.000 C 
BRANCH   2   3
ATOM      3  C   UNL     1      14.329   3.379  17.895  1.00  0.00     0.000 C 
BRANCH   3   4
ATOM      4  C   UNL     1      14.226   2.459  19.123  1.00  0.00     0.000 C 
BRANCH   4   5
ATOM      5  C   UNL     1      14.148   0.967  18.751  1.00  0.00     0.000 C 
BRANCH   5   6
ATOM      6  C   UNL     1      14.784   0.001  19.770  1.00  0.00     0.000 C 
BRANCH   6   7
ATOM      7  C   UNL     1      16.232   0.375  20.133  1.00  0.00     0.000 C 
BRANCH   7   8
ATOM      8  C   UNL     1      17.272  -0.281  19.209  1.00  0.00     0.000 C 
BRANCH   8   9
ATOM      9  C   UNL     1      16.998  -1.753  18.852  1.00  0.00     0.000 C 
BRANCH   9  10
ATOM     10  C   UNL     1      17.249  -2.069  17.371  1.00  0.00     0.000 C 
BRANCH  10  11
ATOM     11  C   UNL     1      16.248  -1.332  16.473  1.00  0.00     0.000 C 
BRANCH  11  12
ATOM     12  C   UNL     1      16.931  -0.204  15.691  1.00  0.00     0.000 C 
BRANCH  12  13
ATOM     13  C   UNL     1      17.252  -0.646  14.259  1.00  0.00     0.006 C 
BRANCH  13  14
ATOM     14  C   UNL     1      18.720  -0.369  13.912  1.00  0.00     0.053 C 
BRANCH  14  15
ATOM     15  C   UNL     1      19.635  -1.095  14.850  1.00  0.00     0.041 C 
ATOM     16  O   UNL     1      19.947  -2.296  14.630  1.00  0.00    -0.550 OA
ATOM     17  O   UNL     1      20.140  -0.445  15.970  1.00  0.00    -0.550 OA
ENDBRANCH  14  15
ENDBRANCH  13  14
ENDBRANCH  12  13
ENDBRANCH  11  12
ENDBRANCH  10  11
ENDBRANCH   9  10
ENDBRANCH   8   9
ENDBRANCH   7   8
ENDBRANCH   6   7
ENDBRANCH   5   6
ENDBRANCH   4   5
ENDBRANCH   3   4
ENDBRANCH   2   3
ENDBRANCH   1   2
BRANCH   1  18
ATOM     18  C   UNL     1      14.444   2.525  15.313  1.00  0.00     0.000 C 
BRANCH  18  19
ATOM     19  C   UNL     1      14.462   1.856  13.928  1.00  0.00     0.000 C 
BRANCH  19  20
ATOM     20  C   UNL     1      15.281   2.646  12.889  1.00  0.00     0.000 C 
BRANCH  20  21
ATOM     21  C   UNL     1      15.866   1.811  11.734  1.00  0.00     0.000 C 
BRANCH  21  22
ATOM     22  C   UNL     1      17.304   2.218  11.368  1.00  0.00     0.000 C 
BRANCH  22  23
ATOM     23  C   UNL     1      18.104   1.058  10.753  1.00  0.00     0.000 C 
BRANCH  23  24
ATOM     24  C   UNL     1      17.299   0.275   9.704  1.00  0.00    -0.000 C 
BRANCH  24  25
ATOM     25  C   UNL     1      18.117   0.082   8.419  1.00  0.00    -0.000 C 
BRANCH  25  26
ATOM     26  C   UNL     1      18.829   1.374   7.971  1.00  0.00    -0.000 C 
BRANCH  26  27
ATOM     27  C   UNL     1      19.892   1.161   6.875  1.00  0.00    -0.000 C 
BRANCH  27  28
ATOM     28  C   UNL     1      20.309  -0.313   6.675  1.00  0.00    -0.000 C 
BRANCH  28  29
ATOM     29  C   UNL     1      21.784  -0.482   6.243  1.00  0.00    -0.000 C 
BRANCH  29  30
ATOM     30  C   UNL     1      22.194  -1.947   6.011  1.00  0.00    -0.000 C 
BRANCH  30  31
ATOM     31  C   UNL     1      23.427  -2.087   5.107  1.00  0.00    -0.003 C 
ATOM     32  C   UNL     1      24.465  -1.013   5.426  1.00  0.00     0.004 C 
ENDBRANCH  30  31
ENDBRANCH  29  30
ENDBRANCH  28  29
ENDBRANCH  27  28
ENDBRANCH  26  27
ENDBRANCH  25  26
ENDBRANCH  24  25
ENDBRANCH  23  24
ENDBRANCH  22  23
ENDBRANCH  21  22
ENDBRANCH  20  21
ENDBRANCH  19  20
ENDBRANCH  18  19
ENDBRANCH   1  18
TORSDOF 28
ENDMDL
MODEL 2
REMARK VINA RESULT:    -6.412      2.590      9.004
REMARK INTER + INTRA:         -20.066
REMARK INTER:                 -16.725
REMARK INTRA:                  -3.341
REMARK UNBOUND:                -3.157
REMARK SMILES CCCCCCCCCCCCCCCCCCCCCCCCCCCCCC(=O)[O-]
REMARK SMILES IDX 16 1 17 2 18 3 19 4 20 5 21 6 22 7 23 8 24 9 25 10 26 11
REMARK SMILES IDX 27 12 28 13 29 14 30 15 31 16 32 17 15 18 14 19 13 20 12 21
REMARK SMILES IDX 11 22 10 23 9 24 8 25 7 26 6 27 5 28 4 29 3 30 2 31 1 32
REMARK H PARENT
REMARK Flexibility Score: inf
ROOT
ATOM      1  C   UNL     1      13.325   3.003  15.824  1.00  0.00     0.000 C 
ENDROOT
BRANCH   1   2
ATOM      2  C   UNL     1      14.824   2.659  15.761  1.00  0.00     0.000 C 
BRANCH   2   3
ATOM      3  C   UNL     1      15.069   1.175  15.441  1.00  0.00     0.000 C 
BRANCH   3   4
ATOM      4  C   UNL     1      15.778   0.975  14.090  1.00  0.00     0.000 C 
BRANCH   4   5
ATOM      5  C   UNL     1      15.151   1.805  12.954  1.00  0.00     0.000 C 
BRANCH   5   6
ATOM      6  C   UNL     1      15.919   1.777  11.618  1.00  0.00     0.000 C 
BRANCH   6   7
ATOM      7  C   UNL     1      17.125   0.821  11.637  1.00  0.00     0.000 C 
BRANCH   7   8
ATOM      8  C   UNL     1      17.379   0.149  10.276  1.00  0.00     0.000 C 
BRANCH   8   9
ATOM      9  C   UNL     1      18.174   0.992   9.264  1.00  0.00     0.000 C 
BRANCH   9  10
ATOM     10  C   UNL     1      18.598   0.197   8.021  1.00  0.00     0.000 C 
BRANCH  10  11
ATOM     11  C   UNL     1      19.012   1.138   6.882  1.00  0.00     0.000 C 
BRANCH  11  12
ATOM     12  C   UNL     1      20.522   1.405   6.906  1.00  0.00     0.000 C 
BRANCH  12  13
ATOM     13  C   UNL     1      21.278   0.354   6.086  1.00  0.00     0.006 C 
BRANCH  13  14
ATOM     14  C   UNL     1      21.615  -0.874   6.940  1.00  0.00     0.053 C 
BRANCH  14  15
ATOM     15  C   UNL     1      21.872  -2.071   6.075  1.00  0.00     0.041 C 
ATOM     16  O   UNL     1      21.413  -3.199   6.401  1.00  0.00    -0.550 OA
ATOM     17  O   UNL     1      22.622  -1.940   4.913  1.00  0.00    -0.550 OA
ENDBRANCH  14  15
ENDBRANCH  13  14
ENDBRANCH  12  13
ENDBRANCH  11  12
ENDBRANCH  10  11
ENDBRANCH   9  10
ENDBRANCH   8   9
ENDBRANCH   7   8
ENDBRANCH   6   7
ENDBRANCH   5   6
ENDBRANCH   4   5
ENDBRANCH   3   4
ENDBRANCH   2   3
ENDBRANCH   1   2
BRANCH   1  18
ATOM     18  C   UNL     1      12.905   3.597  17.178  1.00  0.00     0.000 C 
BRANCH  18  19
ATOM     19  C   UNL     1      14.109   3.918  18.081  1.00  0.00     0.000 C 
BRANCH  19  20
ATOM     20  C   UNL     1      14.080   3.149  19.417  1.00  0.00     0.000 C 
BRANCH  20  21
ATOM     21  C   UNL     1      14.985   1.904  19.482  1.00  0.00     0.000 C 
BRANCH  21  22
ATOM     22  C   UNL     1      14.668   0.997  20.684  1.00  0.00     0.000 C 
BRANCH  22  23
ATOM     23  C   UNL     1      14.196  -0.403  20.255  1.00  0.00     0.000 C 
BRANCH  23  24
ATOM     24  C   UNL     1      13.926  -0.499  18.746  1.00  0.00    -0.000 C 
BRANCH  24  25
ATOM     25  C   UNL     1      14.627  -1.726  18.142  1.00  0.00    -0.000 C 
BRANCH  25  26
ATOM     26  C   UNL     1      15.975  -1.372  17.482  1.00  0.00    -0.000 C 
BRANCH  26  27
ATOM     27  C   UNL     1      17.185  -1.469  18.431  1.00  0.00    -0.000 C 
BRANCH  27  28
ATOM     28  C   UNL     1      17.840  -0.110  18.763  1.00  0.00    -0.000 C 
BRANCH  28  29
ATOM     29  C   UNL     1      17.971   0.826  17.540  1.00  0.00    -0.000 C 
BRANCH  29  30
ATOM     30  C   UNL     1      19.174   0.497  16.638  1.00  0.00    -0.000 C 
BRANCH  30  31
ATOM     31  C   UNL     1      18.790  -0.337  15.407  1.00  0.00    -0.003 C 
ATOM     32  C   UNL     1      19.724  -1.533  15.242  1.00  0.00     0.004 C 
ENDBRANCH  30  31
ENDBRANCH  29  30
ENDBRANCH  28  29
ENDBRANCH  27  28
ENDBRANCH  26  27
ENDBRANCH  25  26
ENDBRANCH  24  25
ENDBRANCH  23  24
ENDBRANCH  22  23
ENDBRANCH  21  22
ENDBRANCH  20  21
ENDBRANCH  19  20
ENDBRANCH  18  19
ENDBRANCH   1  18
TORSDOF 28
ENDMDL
MODEL 3
REMARK VINA RESULT:    -6.216      4.001     10.042
REMARK INTER + INTRA:         -19.547
REMARK INTER:                 -17.558
REMARK INTRA:                  -1.989
REMARK UNBOUND:                -3.157
REMARK SMILES CCCCCCCCCCCCCCCCCCCCCCCCCCCCCC(=O)[O-]
REMARK SMILES IDX 16 1 17 2 18 3 19 4 20 5 21 6 22 7 23 8 24 9 25 10 26 11
REMARK SMILES IDX 27 12 28 13 29 14 30 15 31 16 32 17 15 18 14 19 13 20 12 21
REMARK SMILES IDX 11 22 10 23 9 24 8 25 7 26 6 27 5 28 4 29 3 30 2 31 1 32
REMARK H PARENT
REMARK Flexibility Score: inf
ROOT
ATOM      1  C   UNL     1      21.309  -1.152   6.509  1.00  0.00     0.000 C 
ENDROOT
BRANCH   1   2
ATOM      2  C   UNL     1      21.201   0.383   6.482  1.00  0.00     0.000 C 
BRANCH   2   3
ATOM      3  C   UNL     1      19.771   0.872   6.763  1.00  0.00     0.000 C 
BRANCH   3   4
ATOM      4  C   UNL     1      19.132   0.155   7.965  1.00  0.00     0.000 C 
BRANCH   4   5
ATOM      5  C   UNL     1      18.045   0.997   8.658  1.00  0.00     0.000 C 
BRANCH   5   6
ATOM      6  C   UNL     1      17.684   0.556  10.090  1.00  0.00     0.000 C 
BRANCH   6   7
ATOM      7  C   UNL     1      17.418   1.740  11.037  1.00  0.00     0.000 C 
BRANCH   7   8
ATOM      8  C   UNL     1      15.923   1.950  11.331  1.00  0.00     0.000 C 
BRANCH   8   9
ATOM      9  C   UNL     1      15.606   2.638  12.670  1.00  0.00     0.000 C 
BRANCH   9  10
ATOM     10  C   UNL     1      14.906   1.709  13.673  1.00  0.00     0.000 C 
BRANCH  10  11
ATOM     11  C   UNL     1      15.847   0.589  14.135  1.00  0.00     0.000 C 
BRANCH  11  12
ATOM     12  C   UNL     1      16.527   0.949  15.461  1.00  0.00     0.000 C 
BRANCH  12  13
ATOM     13  C   UNL     1      15.770   0.341  16.648  1.00  0.00     0.006 C 
BRANCH  13  14
ATOM     14  C   UNL     1      15.369   1.422  17.658  1.00  0.00     0.053 C 
BRANCH  14  15
ATOM     15  C   UNL     1      15.385   0.879  19.055  1.00  0.00     0.041 C 
ATOM     16  O   UNL     1      15.126   1.633  20.031  1.00  0.00    -0.550 OA
ATOM     17  O   UNL     1      15.690  -0.458  19.278  1.00  0.00    -0.550 OA
ENDBRANCH  14  15
ENDBRANCH  13  14
ENDBRANCH  12  13
ENDBRANCH  11  12
ENDBRANCH  10  11
ENDBRANCH   9  10
ENDBRANCH   8   9
ENDBRANCH   7   8
ENDBRANCH   6   7
ENDBRANCH   5   6
ENDBRANCH   4   5
ENDBRANCH   3   4
ENDBRANCH   2   3
ENDBRANCH   1   2
BRANCH   1  18
ATOM     18  C   UNL     1      22.325  -1.698   5.493  1.00  0.00     0.000 C 
BRANCH  18  19
ATOM     19  C   UNL     1      23.578  -0.813   5.377  1.00  0.00     0.000 C 
BRANCH  19  20
ATOM     20  C   UNL     1      24.871  -1.544   5.788  1.00  0.00     0.000 C 
BRANCH  20  21
ATOM     21  C   UNL     1      26.145  -0.678   5.800  1.00  0.00     0.000 C 
BRANCH  21  22
ATOM     22  C   UNL     1      27.197  -1.175   6.807  1.00  0.00     0.000 C 
BRANCH  22  23
ATOM     23  C   UNL     1      27.580  -2.646   6.578  1.00  0.00     0.000 C 
BRANCH  23  24
ATOM     24  C   UNL     1      28.594  -2.822   5.437  1.00  0.00    -0.000 C 
BRANCH  24  25
ATOM     25  C   UNL     1      29.960  -2.235   5.824  1.00  0.00    -0.000 C 
BRANCH  25  26
ATOM     26  C   UNL     1      30.628  -3.003   6.982  1.00  0.00    -0.000 C 
BRANCH  26  27
ATOM     27  C   UNL     1      31.248  -2.097   8.064  1.00  0.00    -0.000 C 
BRANCH  27  28
ATOM     28  C   UNL     1      31.565  -0.664   7.585  1.00  0.00    -0.000 C 
BRANCH  28  29
ATOM     29  C   UNL     1      30.611   0.405   8.167  1.00  0.00    -0.000 C 
BRANCH  29  30
ATOM     30  C   UNL     1      29.641  -0.146   9.228  1.00  0.00    -0.000 C 
BRANCH  30  31
ATOM     31  C   UNL     1      28.564   0.868   9.638  1.00  0.00    -0.003 C 
ATOM     32  C   UNL     1      28.894   1.503  10.986  1.00  0.00     0.004 C 
ENDBRANCH  30  31
ENDBRANCH  29  30
ENDBRANCH  28  29
ENDBRANCH  27  28
ENDBRANCH  26  27
ENDBRANCH  25  26
ENDBRANCH  24  25
ENDBRANCH  23  24
ENDBRANCH  22  23
ENDBRANCH  21  22
ENDBRANCH  20  21
ENDBRANCH  19  20
ENDBRANCH  18  19
ENDBRANCH   1  18
TORSDOF 28
ENDMDL
MODEL 4
REMARK VINA RESULT:    -6.209      3.629     11.185
REMARK INTER + INTRA:         -19.529
REMARK INTER:                 -17.098
REMARK INTRA:                  -2.430
REMARK UNBOUND:                -3.157
REMARK SMILES CCCCCCCCCCCCCCCCCCCCCCCCCCCCCC(=O)[O-]
REMARK SMILES IDX 16 1 17 2 18 3 19 4 20 5 21 6 22 7 23 8 24 9 25 10 26 11
REMARK SMILES IDX 27 12 28 13 29 14 30 15 31 16 32 17 15 18 14 19 13 20 12 21
REMARK SMILES IDX 11 22 10 23 9 24 8 25 7 26 6 27 5 28 4 29 3 30 2 31 1 32
REMARK H PARENT
REMARK Flexibility Score: inf
ROOT
ATOM      1  C   UNL     1      17.186   1.879  11.138  1.00  0.00     0.000 C 
ENDROOT
BRANCH   1   2
ATOM      2  C   UNL     1      17.344   0.350  11.063  1.00  0.00     0.000 C 
BRANCH   2   3
ATOM      3  C   UNL     1      17.416  -0.158   9.614  1.00  0.00     0.000 C 
BRANCH   3   4
ATOM      4  C   UNL     1      18.148   0.824   8.684  1.00  0.00     0.000 C 
BRANCH   4   5
ATOM      5  C   UNL     1      19.037   0.118   7.644  1.00  0.00     0.000 C 
BRANCH   5   6
ATOM      6  C   UNL     1      19.852   1.054   6.730  1.00  0.00     0.000 C 
BRANCH   6   7
ATOM      7  C   UNL     1      21.304   0.584   6.528  1.00  0.00     0.000 C 
BRANCH   7   8
ATOM      8  C   UNL     1      21.444  -0.947   6.517  1.00  0.00     0.000 C 
BRANCH   8   9
ATOM      9  C   UNL     1      22.319  -1.520   5.388  1.00  0.00     0.000 C 
BRANCH   9  10
ATOM     10  C   UNL     1      23.732  -0.920   5.358  1.00  0.00     0.000 C 
BRANCH  10  11
ATOM     11  C   UNL     1      24.751  -1.882   5.982  1.00  0.00     0.000 C 
BRANCH  11  12
ATOM     12  C   UNL     1      26.164  -1.286   5.954  1.00  0.00     0.000 C 
BRANCH  12  13
ATOM     13  C   UNL     1      27.158  -2.198   6.683  1.00  0.00     0.006 C 
BRANCH  13  14
ATOM     14  C   UNL     1      28.268  -2.669   5.736  1.00  0.00     0.053 C 
BRANCH  14  15
ATOM     15  C   UNL     1      29.592  -2.694   6.438  1.00  0.00     0.041 C 
ATOM     16  O   UNL     1      30.434  -3.593   6.170  1.00  0.00    -0.550 OA
ATOM     17  O   UNL     1      29.893  -1.728   7.389  1.00  0.00    -0.550 OA
ENDBRANCH  14  15
ENDBRANCH  13  14
ENDBRANCH  12  13
ENDBRANCH  11  12
ENDBRANCH  10  11
ENDBRANCH   9  10
ENDBRANCH   8   9
ENDBRANCH   7   8
ENDBRANCH   6   7
ENDBRANCH   5   6
ENDBRANCH   4   5
ENDBRANCH   3   4
ENDBRANCH   2   3
ENDBRANCH   1   2
BRANCH   1  18
ATOM     18  C   UNL     1      15.879   2.312  11.820  1.00  0.00     0.000 C 
BRANCH  18  19
ATOM     19  C   UNL     1      15.118   1.130  12.445  1.00  0.00     0.000 C 
BRANCH  19  20
ATOM     20  C   UNL     1      14.920   1.279  13.966  1.00  0.00     0.000 C 
BRANCH  20  21
ATOM     21  C   UNL     1      15.434   2.598  14.574  1.00  0.00     0.000 C 
BRANCH  21  22
ATOM     22  C   UNL     1      15.328   2.632  16.108  1.00  0.00     0.000 C 
BRANCH  22  23
ATOM     23  C   UNL     1      14.396   1.539  16.657  1.00  0.00     0.000 C 
BRANCH  23  24
ATOM     24  C   UNL     1      13.661   1.975  17.934  1.00  0.00    -0.000 C 
BRANCH  24  25
ATOM     25  C   UNL     1      13.868   0.951  19.060  1.00  0.00    -0.000 C 
BRANCH  25  26
ATOM     26  C   UNL     1      14.671  -0.281  18.600  1.00  0.00    -0.000 C 
BRANCH  26  27
ATOM     27  C   UNL     1      15.761  -0.730  19.592  1.00  0.00    -0.000 C 
BRANCH  27  28
ATOM     28  C   UNL     1      16.894  -1.564  18.955  1.00  0.00    -0.000 C 
BRANCH  28  29
ATOM     29  C   UNL     1      17.735  -0.774  17.926  1.00  0.00    -0.000 C 
BRANCH  29  30
ATOM     30  C   UNL     1      17.738  -1.400  16.521  1.00  0.00    -0.000 C 
BRANCH  30  31
ATOM     31  C   UNL     1      17.739  -0.353  15.398  1.00  0.00    -0.003 C 
ATOM     32  C   UNL     1      18.683  -0.760  14.269  1.00  0.00     0.004 C 
ENDBRANCH  30  31
ENDBRANCH  29  30
ENDBRANCH  28  29
ENDBRANCH  27  28
ENDBRANCH  26  27
ENDBRANCH  25  26
ENDBRANCH  24  25
ENDBRANCH  23  24
ENDBRANCH  22  23
ENDBRANCH  21  22
ENDBRANCH  20  21
ENDBRANCH  19  20
ENDBRANCH  18  19
ENDBRANCH   1  18
TORSDOF 28
ENDMDL
MODEL 5
REMARK VINA RESULT:    -6.165      4.181     12.518
REMARK INTER + INTRA:         -19.413
REMARK INTER:                 -17.838
REMARK INTRA:                  -1.575
REMARK UNBOUND:                -3.157
REMARK SMILES CCCCCCCCCCCCCCCCCCCCCCCCCCCCCC(=O)[O-]
REMARK SMILES IDX 16 1 17 2 18 3 19 4 20 5 21 6 22 7 23 8 24 9 25 10 26 11
REMARK SMILES IDX 27 12 28 13 29 14 30 15 31 16 32 17 15 18 14 19 13 20 12 21
REMARK SMILES IDX 11 22 10 23 9 24 8 25 7 26 6 27 5 28 4 29 3 30 2 31 1 32
REMARK H PARENT
REMARK Flexibility Score: inf
ROOT
ATOM      1  C   UNL     1      17.865   1.140   9.644  1.00  0.00     0.000 C 
ENDROOT
BRANCH   1   2
ATOM      2  C   UNL     1      18.381   0.369   8.416  1.00  0.00     0.000 C 
BRANCH   2   3
ATOM      3  C   UNL     1      18.883   1.309   7.308  1.00  0.00     0.000 C 
BRANCH   3   4
ATOM      4  C   UNL     1      20.379   1.113   7.007  1.00  0.00     0.000 C 
BRANCH   4   5
ATOM      5  C   UNL     1      20.766  -0.365   6.813  1.00  0.00     0.000 C 
BRANCH   5   6
ATOM      6  C   UNL     1      21.805  -0.634   5.708  1.00  0.00     0.000 C 
BRANCH   6   7
ATOM      7  C   UNL     1      22.396  -2.054   5.769  1.00  0.00     0.000 C 
BRANCH   7   8
ATOM      8  C   UNL     1      23.826  -2.134   5.207  1.00  0.00     0.000 C 
BRANCH   8   9
ATOM      9  C   UNL     1      24.820  -1.115   5.792  1.00  0.00     0.000 C 
BRANCH   9  10
ATOM     10  C   UNL     1      26.204  -1.717   6.073  1.00  0.00     0.000 C 
BRANCH  10  11
ATOM     11  C   UNL     1      27.262  -0.617   6.219  1.00  0.00     0.000 C 
BRANCH  11  12
ATOM     12  C   UNL     1      28.615  -1.203   6.640  1.00  0.00     0.000 C 
BRANCH  12  13
ATOM     13  C   UNL     1      29.190  -2.103   5.540  1.00  0.00     0.006 C 
BRANCH  13  14
ATOM     14  C   UNL     1      29.834  -3.359   6.137  1.00  0.00     0.053 C 
BRANCH  14  15
ATOM     15  C   UNL     1      31.179  -3.045   6.718  1.00  0.00     0.041 C 
ATOM     16  O   UNL     1      31.293  -2.776   7.944  1.00  0.00    -0.550 OA
ATOM     17  O   UNL     1      32.305  -3.045   5.904  1.00  0.00    -0.550 OA
ENDBRANCH  14  15
ENDBRANCH  13  14
ENDBRANCH  12  13
ENDBRANCH  11  12
ENDBRANCH  10  11
ENDBRANCH   9  10
ENDBRANCH   8   9
ENDBRANCH   7   8
ENDBRANCH   6   7
ENDBRANCH   5   6
ENDBRANCH   4   5
ENDBRANCH   3   4
ENDBRANCH   2   3
ENDBRANCH   1   2
BRANCH   1  18
ATOM     18  C   UNL     1      17.378   0.213  10.770  1.00  0.00     0.000 C 
BRANCH  18  19
ATOM     19  C   UNL     1      16.970   0.986  12.037  1.00  0.00     0.000 C 
BRANCH  19  20
ATOM     20  C   UNL     1      16.003   2.150  11.745  1.00  0.00     0.000 C 
BRANCH  20  21
ATOM     21  C   UNL     1      15.200   2.660  12.957  1.00  0.00     0.000 C 
BRANCH  21  22
ATOM     22  C   UNL     1      15.106   1.626  14.092  1.00  0.00     0.000 C 
BRANCH  22  23
ATOM     23  C   UNL     1      14.882   2.279  15.466  1.00  0.00     0.000 C 
BRANCH  23  24
ATOM     24  C   UNL     1      13.454   2.818  15.638  1.00  0.00    -0.000 C 
BRANCH  24  25
ATOM     25  C   UNL     1      13.164   3.137  17.113  1.00  0.00    -0.000 C 
BRANCH  25  26
ATOM     26  C   UNL     1      14.161   2.458  18.072  1.00  0.00    -0.000 C 
BRANCH  26  27
ATOM     27  C   UNL     1      13.733   1.051  18.534  1.00  0.00    -0.000 C 
BRANCH  27  28
ATOM     28  C   UNL     1      14.133   0.712  19.986  1.00  0.00    -0.000 C 
BRANCH  28  29
ATOM     29  C   UNL     1      15.662   0.637  20.202  1.00  0.00    -0.000 C 
BRANCH  29  30
ATOM     30  C   UNL     1      16.371  -0.348  19.257  1.00  0.00    -0.000 C 
BRANCH  30  31
ATOM     31  C   UNL     1      17.768   0.128  18.834  1.00  0.00    -0.003 C 
ATOM     32  C   UNL     1      17.679   1.158  17.710  1.00  0.00     0.004 C 
ENDBRANCH  30  31
ENDBRANCH  29  30
ENDBRANCH  28  29
ENDBRANCH  27  28
ENDBRANCH  26  27
ENDBRANCH  25  26
ENDBRANCH  24  25
ENDBRANCH  23  24
ENDBRANCH  22  23
ENDBRANCH  21  22
ENDBRANCH  20  21
ENDBRANCH  19  20
ENDBRANCH  18  19
ENDBRANCH   1  18
TORSDOF 28
ENDMDL
MODEL 6
REMARK VINA RESULT:    -6.161      2.052      4.587
REMARK INTER + INTRA:         -19.404
REMARK INTER:                 -15.739
REMARK INTRA:                  -3.665
REMARK UNBOUND:                -3.157
REMARK SMILES CCCCCCCCCCCCCCCCCCCCCCCCCCCCCC(=O)[O-]
REMARK SMILES IDX 16 1 17 2 18 3 19 4 20 5 21 6 22 7 23 8 24 9 25 10 26 11
REMARK SMILES IDX 27 12 28 13 29 14 30 15 31 16 32 17 15 18 14 19 13 20 12 21
REMARK SMILES IDX 11 22 10 23 9 24 8 25 7 26 6 27 5 28 4 29 3 30 2 31 1 32
REMARK H PARENT
REMARK Flexibility Score: inf
ROOT
ATOM      1  C   UNL     1      16.138  -0.782  17.172  1.00  0.00     0.000 C 
ENDROOT
BRANCH   1   2
ATOM      2  C   UNL     1      15.606  -2.214  17.362  1.00  0.00     0.000 C 
BRANCH   2   3
ATOM      3  C   UNL     1      14.275  -2.244  18.131  1.00  0.00     0.000 C 
BRANCH   3   4
ATOM      4  C   UNL     1      13.781  -0.835  18.503  1.00  0.00     0.000 C 
BRANCH   4   5
ATOM      5  C   UNL     1      13.184  -0.762  19.920  1.00  0.00     0.000 C 
BRANCH   5   6
ATOM      6  C   UNL     1      14.033   0.003  20.953  1.00  0.00     0.000 C 
BRANCH   6   7
ATOM      7  C   UNL     1      15.195   0.787  20.317  1.00  0.00     0.000 C 
BRANCH   7   8
ATOM      8  C   UNL     1      14.874   2.277  20.113  1.00  0.00     0.000 C 
BRANCH   8   9
ATOM      9  C   UNL     1      13.701   2.573  19.162  1.00  0.00     0.000 C 
BRANCH   9  10
ATOM     10  C   UNL     1      13.977   3.747  18.212  1.00  0.00     0.000 C 
BRANCH  10  11
ATOM     11  C   UNL     1      13.179   3.600  16.910  1.00  0.00     0.000 C 
BRANCH  11  12
ATOM     12  C   UNL     1      13.490   2.267  16.218  1.00  0.00     0.000 C 
BRANCH  12  13
ATOM     13  C   UNL     1      14.910   2.267  15.640  1.00  0.00     0.006 C 
BRANCH  13  14
ATOM     14  C   UNL     1      15.014   1.324  14.436  1.00  0.00     0.053 C 
BRANCH  14  15
ATOM     15  C   UNL     1      15.137   2.100  13.160  1.00  0.00     0.041 C 
ATOM     16  O   UNL     1      15.334   3.345  13.191  1.00  0.00    -0.550 OA
ATOM     17  O   UNL     1      15.030   1.449  11.937  1.00  0.00    -0.550 OA
ENDBRANCH  14  15
ENDBRANCH  13  14
ENDBRANCH  12  13
ENDBRANCH  11  12
ENDBRANCH  10  11
ENDBRANCH   9  10
ENDBRANCH   8   9
ENDBRANCH   7   8
ENDBRANCH   6   7
ENDBRANCH   5   6
ENDBRANCH   4   5
ENDBRANCH   3   4
ENDBRANCH   2   3
ENDBRANCH   1   2
BRANCH   1  18
ATOM     18  C   UNL     1      17.479  -0.544  17.884  1.00  0.00     0.000 C 
BRANCH  18  19
ATOM     19  C   UNL     1      18.163   0.759  17.435  1.00  0.00     0.000 C 
BRANCH  19  20
ATOM     20  C   UNL     1      19.204   0.539  16.320  1.00  0.00     0.000 C 
BRANCH  20  21
ATOM     21  C   UNL     1      19.440  -0.930  15.918  1.00  0.00     0.000 C 
BRANCH  21  22
ATOM     22  C   UNL     1      19.184  -1.190  14.423  1.00  0.00     0.000 C 
BRANCH  22  23
ATOM     23  C   UNL     1      18.027  -0.341  13.869  1.00  0.00     0.000 C 
BRANCH  23  24
ATOM     24  C   UNL     1      18.006  -0.303  12.333  1.00  0.00    -0.000 C 
BRANCH  24  25
ATOM     25  C   UNL     1      18.385   1.094  11.816  1.00  0.00    -0.000 C 
BRANCH  25  26
ATOM     26  C   UNL     1      17.924   1.333  10.365  1.00  0.00    -0.000 C 
BRANCH  26  27
ATOM     27  C   UNL     1      17.610   0.043   9.583  1.00  0.00    -0.000 C 
BRANCH  27  28
ATOM     28  C   UNL     1      18.128   0.042   8.128  1.00  0.00    -0.000 C 
BRANCH  28  29
ATOM     29  C   UNL     1      19.228   1.097   7.866  1.00  0.00    -0.000 C 
BRANCH  29  30
ATOM     30  C   UNL     1      20.057   0.821   6.599  1.00  0.00    -0.000 C 
BRANCH  30  31
ATOM     31  C   UNL     1      20.617  -0.608   6.549  1.00  0.00    -0.003 C 
ATOM     32  C   UNL     1      22.113  -0.600   6.246  1.00  0.00     0.004 C 
ENDBRANCH  30  31
ENDBRANCH  29  30
ENDBRANCH  28  29
ENDBRANCH  27  28
ENDBRANCH  26  27
ENDBRANCH  25  26
ENDBRANCH  24  25
ENDBRANCH  23  24
ENDBRANCH  22  23
ENDBRANCH  21  22
ENDBRANCH  20  21
ENDBRANCH  19  20
ENDBRANCH  18  19
ENDBRANCH   1  18
TORSDOF 28
ENDMDL
MODEL 7
REMARK VINA RESULT:    -6.133      3.763     11.720
REMARK INTER + INTRA:         -19.330
REMARK INTER:                 -16.956
REMARK INTRA:                  -2.374
REMARK UNBOUND:                -3.157
REMARK SMILES CCCCCCCCCCCCCCCCCCCCCCCCCCCCCC(=O)[O-]
REMARK SMILES IDX 16 1 17 2 18 3 19 4 20 5 21 6 22 7 23 8 24 9 25 10 26 11
REMARK SMILES IDX 27 12 28 13 29 14 30 15 31 16 32 17 15 18 14 19 13 20 12 21
REMARK SMILES IDX 11 22 10 23 9 24 8 25 7 26 6 27 5 28 4 29 3 30 2 31 1 32
REMARK H PARENT
REMARK Flexibility Score: inf
ROOT
ATOM      1  C   UNL     1      17.371   1.520  11.635  1.00  0.00     0.000 C 
ENDROOT
BRANCH   1   2
ATOM      2  C   UNL     1      17.372   0.047  11.188  1.00  0.00     0.000 C 
BRANCH   2   3
ATOM      3  C   UNL     1      17.366  -0.098   9.658  1.00  0.00     0.000 C 
BRANCH   3   4
ATOM      4  C   UNL     1      18.325   0.890   8.971  1.00  0.00     0.000 C 
BRANCH   4   5
ATOM      5  C   UNL     1      18.845   0.378   7.615  1.00  0.00     0.000 C 
BRANCH   5   6
ATOM      6  C   UNL     1      20.262   0.849   7.234  1.00  0.00     0.000 C 
BRANCH   6   7
ATOM      7  C   UNL     1      20.855   0.072   6.044  1.00  0.00     0.000 C 
BRANCH   7   8
ATOM      8  C   UNL     1      21.798  -1.063   6.479  1.00  0.00     0.000 C 
BRANCH   8   9
ATOM      9  C   UNL     1      22.647  -1.680   5.353  1.00  0.00     0.000 C 
BRANCH   9  10
ATOM     10  C   UNL     1      24.053  -1.071   5.256  1.00  0.00     0.000 C 
BRANCH  10  11
ATOM     11  C   UNL     1      25.068  -1.903   6.050  1.00  0.00     0.000 C 
BRANCH  11  12
ATOM     12  C   UNL     1      26.439  -1.217   6.085  1.00  0.00     0.000 C 
BRANCH  12  13
ATOM     13  C   UNL     1      27.533  -2.199   6.523  1.00  0.00     0.006 C 
BRANCH  13  14
ATOM     14  C   UNL     1      28.715  -1.459   7.159  1.00  0.00     0.053 C 
BRANCH  14  15
ATOM     15  C   UNL     1      30.015  -2.086   6.758  1.00  0.00     0.041 C 
ATOM     16  O   UNL     1      30.153  -3.339   6.796  1.00  0.00    -0.550 OA
ATOM     17  O   UNL     1      31.075  -1.287   6.347  1.00  0.00    -0.550 OA
ENDBRANCH  14  15
ENDBRANCH  13  14
ENDBRANCH  12  13
ENDBRANCH  11  12
ENDBRANCH  10  11
ENDBRANCH   9  10
ENDBRANCH   8   9
ENDBRANCH   7   8
ENDBRANCH   6   7
ENDBRANCH   5   6
ENDBRANCH   4   5
ENDBRANCH   3   4
ENDBRANCH   2   3
ENDBRANCH   1   2
BRANCH   1  18
ATOM     18  C   UNL     1      15.985   2.176  11.529  1.00  0.00     0.000 C 
BRANCH  18  19
ATOM     19  C   UNL     1      15.431   2.611  12.897  1.00  0.00     0.000 C 
BRANCH  19  20
ATOM     20  C   UNL     1      15.036   1.420  13.792  1.00  0.00     0.000 C 
BRANCH  20  21
ATOM     21  C   UNL     1      15.951   1.176  15.008  1.00  0.00     0.000 C 
BRANCH  21  22
ATOM     22  C   UNL     1      16.437  -0.280  15.108  1.00  0.00     0.000 C 
BRANCH  22  23
ATOM     23  C   UNL     1      17.956  -0.378  15.328  1.00  0.00     0.000 C 
BRANCH  23  24
ATOM     24  C   UNL     1      18.336  -1.464  16.347  1.00  0.00    -0.000 C 
BRANCH  24  25
ATOM     25  C   UNL     1      17.085  -2.028  17.037  1.00  0.00    -0.000 C 
BRANCH  25  26
ATOM     26  C   UNL     1      17.062  -1.738  18.551  1.00  0.00    -0.000 C 
BRANCH  26  27
ATOM     27  C   UNL     1      17.568  -0.333  18.930  1.00  0.00    -0.000 C 
BRANCH  27  28
ATOM     28  C   UNL     1      16.461   0.741  19.007  1.00  0.00    -0.000 C 
BRANCH  28  29
ATOM     29  C   UNL     1      15.178   0.252  19.718  1.00  0.00    -0.000 C 
BRANCH  29  30
ATOM     30  C   UNL     1      13.885   0.851  19.137  1.00  0.00    -0.000 C 
BRANCH  30  31
ATOM     31  C   UNL     1      14.144   1.825  17.979  1.00  0.00    -0.003 C 
ATOM     32  C   UNL     1      13.488   3.179  18.244  1.00  0.00     0.004 C 
ENDBRANCH  30  31
ENDBRANCH  29  30
ENDBRANCH  28  29
ENDBRANCH  27  28
ENDBRANCH  26  27
ENDBRANCH  25  26
ENDBRANCH  24  25
ENDBRANCH  23  24
ENDBRANCH  22  23
ENDBRANCH  21  22
ENDBRANCH  20  21
ENDBRANCH  19  20
ENDBRANCH  18  19
ENDBRANCH   1  18
TORSDOF 28
ENDMDL
MODEL 8
REMARK VINA RESULT:    -6.051      3.507      8.882
REMARK INTER + INTRA:         -19.114
REMARK INTER:                 -17.229
REMARK INTRA:                  -1.885
REMARK UNBOUND:                -3.157
REMARK SMILES CCCCCCCCCCCCCCCCCCCCCCCCCCCCCC(=O)[O-]
REMARK SMILES IDX 16 1 17 2 18 3 19 4 20 5 21 6 22 7 23 8 24 9 25 10 26 11
REMARK SMILES IDX 27 12 28 13 29 14 30 15 31 16 32 17 15 18 14 19 13 20 12 21
REMARK SMILES IDX 11 22 10 23 9 24 8 25 7 26 6 27 5 28 4 29 3 30 2 31 1 32
REMARK H PARENT
REMARK Flexibility Score: inf
ROOT
ATOM      1  C   UNL     1      19.831   0.844   6.564  1.00  0.00     0.000 C 
ENDROOT
BRANCH   1   2
ATOM      2  C   UNL     1      19.037   0.188   7.709  1.00  0.00     0.000 C 
BRANCH   2   3
ATOM      3  C   UNL     1      18.341   1.226   8.604  1.00  0.00     0.000 C 
BRANCH   3   4
ATOM      4  C   UNL     1      17.747   0.598   9.877  1.00  0.00     0.000 C 
BRANCH   4   5
ATOM      5  C   UNL     1      17.466   1.632  10.982  1.00  0.00     0.000 C 
BRANCH   5   6
ATOM      6  C   UNL     1      15.996   1.726  11.436  1.00  0.00     0.000 C 
BRANCH   6   7
ATOM      7  C   UNL     1      15.806   2.610  12.683  1.00  0.00     0.000 C 
BRANCH   7   8
ATOM      8  C   UNL     1      14.847   1.993  13.715  1.00  0.00     0.000 C 
BRANCH   8   9
ATOM      9  C   UNL     1      15.366   0.728  14.420  1.00  0.00     0.000 C 
BRANCH   9  10
ATOM     10  C   UNL     1      16.263   1.036  15.628  1.00  0.00     0.000 C 
BRANCH  10  11
ATOM     11  C   UNL     1      15.694   2.200  16.451  1.00  0.00     0.000 C 
BRANCH  11  12
ATOM     12  C   UNL     1      14.598   1.717  17.409  1.00  0.00     0.000 C 
BRANCH  12  13
ATOM     13  C   UNL     1      15.147   1.549  18.830  1.00  0.00     0.006 C 
BRANCH  13  14
ATOM     14  C   UNL     1      15.292   0.066  19.193  1.00  0.00     0.053 C 
BRANCH  14  15
ATOM     15  C   UNL     1      16.727  -0.362  19.123  1.00  0.00     0.041 C 
ATOM     16  O   UNL     1      17.641   0.499  19.012  1.00  0.00    -0.550 OA
ATOM     17  O   UNL     1      17.053  -1.711  19.178  1.00  0.00    -0.550 OA
ENDBRANCH  14  15
ENDBRANCH  13  14
ENDBRANCH  12  13
ENDBRANCH  11  12
ENDBRANCH  10  11
ENDBRANCH   9  10
ENDBRANCH   8   9
ENDBRANCH   7   8
ENDBRANCH   6   7
ENDBRANCH   5   6
ENDBRANCH   4   5
ENDBRANCH   3   4
ENDBRANCH   2   3
ENDBRANCH   1   2
BRANCH   1  18
ATOM     18  C   UNL     1      21.311   0.430   6.551  1.00  0.00     0.000 C 
BRANCH  18  19
ATOM     19  C   UNL     1      21.499  -1.097   6.544  1.00  0.00     0.000 C 
BRANCH  19  20
ATOM     20  C   UNL     1      22.463  -1.579   5.442  1.00  0.00     0.000 C 
BRANCH  20  21
ATOM     21  C   UNL     1      23.850  -0.910   5.439  1.00  0.00     0.000 C 
BRANCH  21  22
ATOM     22  C   UNL     1      24.981  -1.874   5.835  1.00  0.00     0.000 C 
BRANCH  22  23
ATOM     23  C   UNL     1      26.291  -1.140   6.166  1.00  0.00     0.000 C 
BRANCH  23  24
ATOM     24  C   UNL     1      27.359  -2.074   6.758  1.00  0.00    -0.000 C 
BRANCH  24  25
ATOM     25  C   UNL     1      28.462  -2.364   5.729  1.00  0.00    -0.000 C 
BRANCH  25  26
ATOM     26  C   UNL     1      29.499  -3.381   6.244  1.00  0.00    -0.000 C 
BRANCH  26  27
ATOM     27  C   UNL     1      30.961  -2.913   6.111  1.00  0.00    -0.000 C 
BRANCH  27  28
ATOM     28  C   UNL     1      31.214  -1.475   6.612  1.00  0.00    -0.000 C 
BRANCH  28  29
ATOM     29  C   UNL     1      31.057  -1.319   8.142  1.00  0.00    -0.000 C 
BRANCH  29  30
ATOM     30  C   UNL     1      30.678   0.106   8.582  1.00  0.00    -0.000 C 
BRANCH  30  31
ATOM     31  C   UNL     1      29.164   0.298   8.751  1.00  0.00    -0.003 C 
ATOM     32  C   UNL     1      28.745   0.089  10.205  1.00  0.00     0.004 C 
ENDBRANCH  30  31
ENDBRANCH  29  30
ENDBRANCH  28  29
ENDBRANCH  27  28
ENDBRANCH  26  27
ENDBRANCH  25  26
ENDBRANCH  24  25
ENDBRANCH  23  24
ENDBRANCH  22  23
ENDBRANCH  21  22
ENDBRANCH  20  21
ENDBRANCH  19  20
ENDBRANCH  18  19
ENDBRANCH   1  18
TORSDOF 28
ENDMDL
MODEL 9
REMARK VINA RESULT:    -5.895      4.658     12.779
REMARK INTER + INTRA:         -18.702
REMARK INTER:                 -16.547
REMARK INTRA:                  -2.155
REMARK UNBOUND:                -3.157
REMARK SMILES CCCCCCCCCCCCCCCCCCCCCCCCCCCCCC(=O)[O-]
REMARK SMILES IDX 16 1 17 2 18 3 19 4 20 5 21 6 22 7 23 8 24 9 25 10 26 11
REMARK SMILES IDX 27 12 28 13 29 14 30 15 31 16 32 17 15 18 14 19 13 20 12 21
REMARK SMILES IDX 11 22 10 23 9 24 8 25 7 26 6 27 5 28 4 29 3 30 2 31 1 32
REMARK H PARENT
REMARK Flexibility Score: inf
ROOT
ATOM      1  C   UNL     1      20.342  -0.086   7.112  1.00  0.00     0.000 C 
ENDROOT
BRANCH   1   2
ATOM      2  C   UNL     1      21.544  -0.130   6.150  1.00  0.00     0.000 C 
BRANCH   2   3
ATOM      3  C   UNL     1      22.217  -1.511   6.122  1.00  0.00     0.000 C 
BRANCH   3   4
ATOM      4  C   UNL     1      23.298  -1.614   5.033  1.00  0.00     0.000 C 
BRANCH   4   5
ATOM      5  C   UNL     1      24.629  -0.957   5.444  1.00  0.00     0.000 C 
BRANCH   5   6
ATOM      6  C   UNL     1      25.614  -1.877   6.190  1.00  0.00     0.000 C 
BRANCH   6   7
ATOM      7  C   UNL     1      27.085  -1.461   6.006  1.00  0.00     0.000 C 
BRANCH   7   8
ATOM      8  C   UNL     1      28.049  -2.660   5.979  1.00  0.00     0.000 C 
BRANCH   8   9
ATOM      9  C   UNL     1      29.538  -2.303   5.828  1.00  0.00     0.000 C 
BRANCH   9  10
ATOM     10  C   UNL     1      30.445  -3.083   6.790  1.00  0.00     0.000 C 
BRANCH  10  11
ATOM     11  C   UNL     1      31.878  -2.537   6.761  1.00  0.00     0.000 C 
BRANCH  11  12
ATOM     12  C   UNL     1      32.626  -2.877   8.055  1.00  0.00     0.000 C 
BRANCH  12  13
ATOM     13  C   UNL     1      32.086  -2.058   9.233  1.00  0.00     0.006 C 
BRANCH  13  14
ATOM     14  C   UNL     1      31.750  -0.626   8.800  1.00  0.00     0.053 C 
BRANCH  14  15
ATOM     15  C   UNL     1      30.441  -0.186   9.382  1.00  0.00     0.041 C 
ATOM     16  O   UNL     1      29.395  -0.207   8.679  1.00  0.00    -0.550 OA
ATOM     17  O   UNL     1      30.379   0.252  10.700  1.00  0.00    -0.550 OA
ENDBRANCH  14  15
ENDBRANCH  13  14
ENDBRANCH  12  13
ENDBRANCH  11  12
ENDBRANCH  10  11
ENDBRANCH   9  10
ENDBRANCH   8   9
ENDBRANCH   7   8
ENDBRANCH   6   7
ENDBRANCH   5   6
ENDBRANCH   4   5
ENDBRANCH   3   4
ENDBRANCH   2   3
ENDBRANCH   1   2
BRANCH   1  18
ATOM     18  C   UNL     1      19.476   1.171   6.929  1.00  0.00     0.000 C 
BRANCH  18  19
ATOM     19  C   UNL     1      18.343   1.263   7.966  1.00  0.00     0.000 C 
BRANCH  19  20
ATOM     20  C   UNL     1      18.129  -0.051   8.742  1.00  0.00     0.000 C 
BRANCH  20  21
ATOM     21  C   UNL     1      17.358   0.083  10.069  1.00  0.00     0.000 C 
BRANCH  21  22
ATOM     22  C   UNL     1      17.629   1.416  10.787  1.00  0.00     0.000 C 
BRANCH  22  23
ATOM     23  C   UNL     1      16.343   2.220  11.041  1.00  0.00     0.000 C 
BRANCH  23  24
ATOM     24  C   UNL     1      15.483   1.619  12.164  1.00  0.00    -0.000 C 
BRANCH  24  25
ATOM     25  C   UNL     1      15.657   2.412  13.469  1.00  0.00    -0.000 C 
BRANCH  25  26
ATOM     26  C   UNL     1      14.605   2.039  14.532  1.00  0.00    -0.000 C 
BRANCH  26  27
ATOM     27  C   UNL     1      15.032   2.356  15.979  1.00  0.00    -0.000 C 
BRANCH  27  28
ATOM     28  C   UNL     1      16.183   1.473  16.508  1.00  0.00    -0.000 C 
BRANCH  28  29
ATOM     29  C   UNL     1      15.863  -0.039  16.478  1.00  0.00    -0.000 C 
BRANCH  29  30
ATOM     30  C   UNL     1      16.822  -0.855  15.593  1.00  0.00    -0.000 C 
BRANCH  30  31
ATOM     31  C   UNL     1      17.865   0.016  14.878  1.00  0.00    -0.003 C 
ATOM     32  C   UNL     1      18.497  -0.735  13.708  1.00  0.00     0.004 C 
ENDBRANCH  30  31
ENDBRANCH  29  30
ENDBRANCH  28  29
ENDBRANCH  27  28
ENDBRANCH  26  27
ENDBRANCH  25  26
ENDBRANCH  24  25
ENDBRANCH  23  24
ENDBRANCH  22  23
ENDBRANCH  21  22
ENDBRANCH  20  21
ENDBRANCH  19  20
ENDBRANCH  18  19
ENDBRANCH   1  18
TORSDOF 28
ENDMDL
