MODEL 1
REMARK VINA RESULT:    -5.983      0.000      0.000
REMARK INTER + INTRA:          -7.320
REMARK INTER:                  -7.032
REMARK INTRA:                  -0.287
REMARK UNBOUND:                -0.287
REMARK SMILES O=c1c(O)c(-c2ccc(O)cc2)oc2cc(O)cc(O)c12
REMARK SMILES IDX 5 1 3 2 2 3 1 4 21 5 19 6 18 7 16 8 15 9 14 10 13 11 6 12
REMARK SMILES IDX 7 13 8 14 9 15 12 16 11 17 10 18 4 20 20 22 17 24
REMARK H PARENT 10 19 4 21 20 23 17 25
REMARK Flexibility Score: inf
ROOT
ATOM      1  C   UNL     1     137.337 143.057 123.336  1.00  0.00     0.180 A 
ATOM      2  C   UNL     1     138.067 142.865 124.522  1.00  0.00     0.208 A 
ATOM      3  C   UNL     1     139.439 142.578 124.437  1.00  0.00     0.238 A 
ATOM      4  O   UNL     1     140.075 142.353 125.500  1.00  0.00    -0.285 OA
ATOM      5  C   UNL     1     140.067 142.502 123.171  1.00  0.00     0.111 A 
ATOM      6  C   UNL     1     141.458 142.258 122.970  1.00  0.00     0.134 A 
ATOM      7  C   UNL     1     141.947 142.075 121.670  1.00  0.00     0.093 A 
ATOM      8  C   UNL     1     141.104 142.192 120.561  1.00  0.00     0.123 A 
ATOM      9  C   UNL     1     139.756 142.490 120.745  1.00  0.00     0.094 A 
ATOM     10  C   UNL     1     139.233 142.642 122.031  1.00  0.00     0.146 A 
ATOM     11  O   UNL     1     137.941 142.915 122.161  1.00  0.00    -0.452 OA
ENDROOT
BRANCH   1  12
ATOM     12  C   UNL     1     135.893 143.387 123.343  1.00  0.00     0.021 A 
ATOM     13  C   UNL     1     134.911 142.381 123.293  1.00  0.00     0.016 A 
ATOM     14  C   UNL     1     133.554 142.715 123.326  1.00  0.00     0.047 A 
ATOM     15  C   UNL     1     133.162 144.056 123.424  1.00  0.00     0.115 A 
ATOM     16  C   UNL     1     135.490 144.728 123.463  1.00  0.00     0.016 A 
ATOM     17  C   UNL     1     134.132 145.059 123.495  1.00  0.00     0.047 A 
BRANCH  15  18
ATOM     18  O   UNL     1     131.812 144.402 123.456  1.00  0.00    -0.508 OA
ATOM     19  H   UNL     1     131.467 145.130 124.072  1.00  0.00     0.293 HD
ENDBRANCH  15  18
ENDBRANCH   1  12
BRANCH   2  20
ATOM     20  O   UNL     1     137.423 142.922 125.761  1.00  0.00    -0.502 OA
ATOM     21  H   UNL     1     136.425 142.780 125.862  1.00  0.00     0.293 HD
ENDBRANCH   2  20
BRANCH   6  22
ATOM     22  O   UNL     1     142.400 142.213 124.002  1.00  0.00    -0.507 OA
ATOM     23  H   UNL     1     142.247 141.783 124.902  1.00  0.00     0.293 HD
ENDBRANCH   6  22
BRANCH   8  24
ATOM     24  O   UNL     1     141.602 142.024 119.271  1.00  0.00    -0.508 OA
ATOM     25  H   UNL     1     142.361 142.593 118.916  1.00  0.00     0.293 HD
ENDBRANCH   8  24
TORSDOF 5
ENDMDL
MODEL 2
REMARK VINA RESULT:    -5.859      8.946     10.413
REMARK INTER + INTRA:          -7.174
REMARK INTER:                  -6.908
REMARK INTRA:                  -0.266
REMARK UNBOUND:                -0.287
REMARK SMILES O=c1c(O)c(-c2ccc(O)cc2)oc2cc(O)cc(O)c12
REMARK SMILES IDX 5 1 3 2 2 3 1 4 21 5 19 6 18 7 16 8 15 9 14 10 13 11 6 12
REMARK SMILES IDX 7 13 8 14 9 15 12 16 11 17 10 18 4 20 20 22 17 24
REMARK H PARENT 10 19 4 21 20 23 17 25
REMARK Flexibility Score: inf
ROOT
ATOM      1  C   UNL     1     132.902 135.695 126.411  1.00  0.00     0.180 A 
ATOM      2  C   UNL     1     132.993 135.326 127.764  1.00  0.00     0.208 A 
ATOM      3  C   UNL     1     133.408 134.023 128.087  1.00  0.00     0.238 A 
ATOM      4  O   UNL     1     133.435 133.681 129.299  1.00  0.00    -0.285 OA
ATOM      5  C   UNL     1     133.740 133.113 127.056  1.00  0.00     0.111 A 
ATOM      6  C   UNL     1     134.210 131.782 127.270  1.00  0.00     0.134 A 
ATOM      7  C   UNL     1     134.384 130.927 126.174  1.00  0.00     0.093 A 
ATOM      8  C   UNL     1     134.168 131.376 124.868  1.00  0.00     0.123 A 
ATOM      9  C   UNL     1     133.767 132.691 124.646  1.00  0.00     0.094 A 
ATOM     10  C   UNL     1     133.549 133.556 125.721  1.00  0.00     0.146 A 
ATOM     11  O   UNL     1     133.157 134.798 125.465  1.00  0.00    -0.452 OA
ENDROOT
BRANCH   1  12
ATOM     12  C   UNL     1     132.497 137.056 125.991  1.00  0.00     0.021 A 
ATOM     13  C   UNL     1     133.448 138.014 125.594  1.00  0.00     0.016 A 
ATOM     14  C   UNL     1     133.040 139.285 125.179  1.00  0.00     0.047 A 
ATOM     15  C   UNL     1     131.678 139.610 125.141  1.00  0.00     0.115 A 
ATOM     16  C   UNL     1     131.132 137.385 125.931  1.00  0.00     0.016 A 
ATOM     17  C   UNL     1     130.727 138.657 125.515  1.00  0.00     0.047 A 
BRANCH  15  18
ATOM     18  O   UNL     1     131.260 140.874 124.731  1.00  0.00    -0.508 OA
ATOM     19  H   UNL     1     130.697 141.467 125.333  1.00  0.00     0.293 HD
ENDBRANCH  15  18
ENDBRANCH   1  12
BRANCH   2  20
ATOM     20  O   UNL     1     132.639 136.233 128.766  1.00  0.00    -0.502 OA
ATOM     21  H   UNL     1     133.301 136.887 129.166  1.00  0.00     0.293 HD
ENDBRANCH   2  20
BRANCH   6  22
ATOM     22  O   UNL     1     134.544 131.265 128.524  1.00  0.00    -0.507 OA
ATOM     23  H   UNL     1     135.305 130.625 128.698  1.00  0.00     0.293 HD
ENDBRANCH   6  22
BRANCH   8  24
ATOM     24  O   UNL     1     134.358 130.522 123.784  1.00  0.00    -0.508 OA
ATOM     25  H   UNL     1     134.623 129.552 123.912  1.00  0.00     0.293 HD
ENDBRANCH   8  24
TORSDOF 5
ENDMDL
MODEL 3
REMARK VINA RESULT:    -5.796     10.260     11.818
REMARK INTER + INTRA:          -7.100
REMARK INTER:                  -6.990
REMARK INTRA:                  -0.110
REMARK UNBOUND:                -0.287
REMARK SMILES O=c1c(O)c(-c2ccc(O)cc2)oc2cc(O)cc(O)c12
REMARK SMILES IDX 5 1 3 2 2 3 1 4 21 5 19 6 18 7 16 8 15 9 14 10 13 11 6 12
REMARK SMILES IDX 7 13 8 14 9 15 12 16 11 17 10 18 4 20 20 22 17 24
REMARK H PARENT 10 19 4 21 20 23 17 25
REMARK Flexibility Score: inf
ROOT
ATOM      1  C   UNL     1     131.752 134.414 126.515  1.00  0.00     0.180 A 
ATOM      2  C   UNL     1     130.969 133.481 127.218  1.00  0.00     0.208 A 
ATOM      3  C   UNL     1     131.284 132.116 127.116  1.00  0.00     0.238 A 
ATOM      4  O   UNL     1     130.546 131.281 127.703  1.00  0.00    -0.285 OA
ATOM      5  C   UNL     1     132.383 131.703 126.326  1.00  0.00     0.111 A 
ATOM      6  C   UNL     1     132.816 130.351 126.184  1.00  0.00     0.134 A 
ATOM      7  C   UNL     1     133.836 130.043 125.275  1.00  0.00     0.093 A 
ATOM      8  C   UNL     1     134.482 131.049 124.551  1.00  0.00     0.123 A 
ATOM      9  C   UNL     1     134.107 132.379 124.728  1.00  0.00     0.094 A 
ATOM     10  C   UNL     1     133.069 132.712 125.600  1.00  0.00     0.146 A 
ATOM     11  O   UNL     1     132.736 133.990 125.731  1.00  0.00    -0.452 OA
ENDROOT
BRANCH   1  12
ATOM     12  C   UNL     1     131.499 135.872 126.592  1.00  0.00     0.021 A 
ATOM     13  C   UNL     1     131.559 136.562 127.817  1.00  0.00     0.016 A 
ATOM     14  C   UNL     1     131.341 137.942 127.862  1.00  0.00     0.047 A 
ATOM     15  C   UNL     1     131.073 138.651 126.684  1.00  0.00     0.115 A 
ATOM     16  C   UNL     1     131.250 136.595 125.414  1.00  0.00     0.016 A 
ATOM     17  C   UNL     1     131.032 137.975 125.462  1.00  0.00     0.047 A 
BRANCH  15  18
ATOM     18  O   UNL     1     130.852 140.026 126.716  1.00  0.00    -0.508 OA
ATOM     19  H   UNL     1     130.166 140.466 126.112  1.00  0.00     0.293 HD
ENDBRANCH  15  18
ENDBRANCH   1  12
BRANCH   2  20
ATOM     20  O   UNL     1     129.874 133.909 127.974  1.00  0.00    -0.502 OA
ATOM     21  H   UNL     1     129.759 134.871 128.268  1.00  0.00     0.293 HD
ENDBRANCH   2  20
BRANCH   6  22
ATOM     22  O   UNL     1     132.301 129.284 126.926  1.00  0.00    -0.507 OA
ATOM     23  H   UNL     1     131.835 129.375 127.817  1.00  0.00     0.293 HD
ENDBRANCH   6  22
BRANCH   8  24
ATOM     24  O   UNL     1     135.506 130.736 123.660  1.00  0.00    -0.508 OA
ATOM     25  H   UNL     1     135.311 130.427 122.715  1.00  0.00     0.293 HD
ENDBRANCH   8  24
TORSDOF 5
ENDMDL
MODEL 4
REMARK VINA RESULT:    -5.734      9.888     12.121
REMARK INTER + INTRA:          -7.028
REMARK INTER:                  -6.819
REMARK INTRA:                  -0.209
REMARK UNBOUND:                -0.287
REMARK SMILES O=c1c(O)c(-c2ccc(O)cc2)oc2cc(O)cc(O)c12
REMARK SMILES IDX 5 1 3 2 2 3 1 4 21 5 19 6 18 7 16 8 15 9 14 10 13 11 6 12
REMARK SMILES IDX 7 13 8 14 9 15 12 16 11 17 10 18 4 20 20 22 17 24
REMARK H PARENT 10 19 4 21 20 23 17 25
REMARK Flexibility Score: inf
ROOT
ATOM      1  C   UNL     1     131.492 135.419 126.612  1.00  0.00     0.180 A 
ATOM      2  C   UNL     1     132.512 134.893 125.801  1.00  0.00     0.208 A 
ATOM      3  C   UNL     1     132.664 133.499 125.718  1.00  0.00     0.238 A 
ATOM      4  O   UNL     1     133.614 133.035 125.033  1.00  0.00    -0.285 OA
ATOM      5  C   UNL     1     131.787 132.651 126.433  1.00  0.00     0.111 A 
ATOM      6  C   UNL     1     131.825 131.224 126.389  1.00  0.00     0.134 A 
ATOM      7  C   UNL     1     130.991 130.485 127.239  1.00  0.00     0.093 A 
ATOM      8  C   UNL     1     130.076 131.121 128.082  1.00  0.00     0.123 A 
ATOM      9  C   UNL     1     129.991 132.511 128.088  1.00  0.00     0.094 A 
ATOM     10  C   UNL     1     130.834 133.276 127.279  1.00  0.00     0.146 A 
ATOM     11  O   UNL     1     130.726 134.598 127.322  1.00  0.00    -0.452 OA
ENDROOT
BRANCH   1  12
ATOM     12  C   UNL     1     131.253 136.876 126.732  1.00  0.00     0.021 A 
ATOM     13  C   UNL     1     130.730 137.623 125.660  1.00  0.00     0.016 A 
ATOM     14  C   UNL     1     130.490 138.993 125.805  1.00  0.00     0.047 A 
ATOM     15  C   UNL     1     130.755 139.629 127.024  1.00  0.00     0.115 A 
ATOM     16  C   UNL     1     131.495 137.519 127.957  1.00  0.00     0.016 A 
ATOM     17  C   UNL     1     131.254 138.889 128.098  1.00  0.00     0.047 A 
BRANCH  15  18
ATOM     18  O   UNL     1     130.521 140.994 127.179  1.00  0.00    -0.508 OA
ATOM     19  H   UNL     1     130.151 141.557 126.421  1.00  0.00     0.293 HD
ENDBRANCH  15  18
ENDBRANCH   1  12
BRANCH   2  20
ATOM     20  O   UNL     1     133.382 135.750 125.121  1.00  0.00    -0.502 OA
ATOM     21  H   UNL     1     134.283 135.446 124.773  1.00  0.00     0.293 HD
ENDBRANCH   2  20
BRANCH   6  22
ATOM     22  O   UNL     1     132.635 130.491 125.519  1.00  0.00    -0.507 OA
ATOM     23  H   UNL     1     132.885 130.781 124.585  1.00  0.00     0.293 HD
ENDBRANCH   6  22
BRANCH   8  24
ATOM     24  O   UNL     1     129.241 130.377 128.913  1.00  0.00    -0.508 OA
ATOM     25  H   UNL     1     128.677 130.818 129.631  1.00  0.00     0.293 HD
ENDBRANCH   8  24
TORSDOF 5
ENDMDL
MODEL 5
REMARK VINA RESULT:    -5.730     10.247     11.743
REMARK INTER + INTRA:          -7.022
REMARK INTER:                  -6.798
REMARK INTRA:                  -0.224
REMARK UNBOUND:                -0.287
REMARK SMILES O=c1c(O)c(-c2ccc(O)cc2)oc2cc(O)cc(O)c12
REMARK SMILES IDX 5 1 3 2 2 3 1 4 21 5 19 6 18 7 16 8 15 9 14 10 13 11 6 12
REMARK SMILES IDX 7 13 8 14 9 15 12 16 11 17 10 18 4 20 20 22 17 24
REMARK H PARENT 10 19 4 21 20 23 17 25
REMARK Flexibility Score: inf
ROOT
ATOM      1  C   UNL     1     134.308 134.143 127.981  1.00  0.00     0.180 A 
ATOM      2  C   UNL     1     133.135 134.508 128.665  1.00  0.00     0.208 A 
ATOM      3  C   UNL     1     133.223 135.426 129.725  1.00  0.00     0.238 A 
ATOM      4  O   UNL     1     132.178 135.707 130.369  1.00  0.00    -0.285 OA
ATOM      5  C   UNL     1     134.478 135.978 130.076  1.00  0.00     0.111 A 
ATOM      6  C   UNL     1     134.677 136.946 131.106  1.00  0.00     0.134 A 
ATOM      7  C   UNL     1     135.980 137.325 131.455  1.00  0.00     0.093 A 
ATOM      8  C   UNL     1     137.086 136.819 130.766  1.00  0.00     0.123 A 
ATOM      9  C   UNL     1     136.897 135.920 129.720  1.00  0.00     0.094 A 
ATOM     10  C   UNL     1     135.613 135.495 129.373  1.00  0.00     0.146 A 
ATOM     11  O   UNL     1     135.479 134.628 128.377  1.00  0.00    -0.452 OA
ENDROOT
BRANCH   1  12
ATOM     12  C   UNL     1     134.292 133.201 126.838  1.00  0.00     0.021 A 
ATOM     13  C   UNL     1     133.763 133.573 125.589  1.00  0.00     0.016 A 
ATOM     14  C   UNL     1     133.781 132.675 124.517  1.00  0.00     0.047 A 
ATOM     15  C   UNL     1     134.340 131.401 124.676  1.00  0.00     0.115 A 
ATOM     16  C   UNL     1     134.870 131.929 126.982  1.00  0.00     0.016 A 
ATOM     17  C   UNL     1     134.886 131.033 125.909  1.00  0.00     0.047 A 
BRANCH  15  18
ATOM     18  O   UNL     1     134.363 130.497 123.616  1.00  0.00    -0.508 OA
ATOM     19  H   UNL     1     133.882 129.606 123.671  1.00  0.00     0.293 HD
ENDBRANCH  15  18
ENDBRANCH   1  12
BRANCH   2  20
ATOM     20  O   UNL     1     131.909 133.934 128.316  1.00  0.00    -0.502 OA
ATOM     21  H   UNL     1     131.427 134.164 127.456  1.00  0.00     0.293 HD
ENDBRANCH   2  20
BRANCH   6  22
ATOM     22  O   UNL     1     133.639 137.580 131.792  1.00  0.00    -0.507 OA
ATOM     23  H   UNL     1     132.826 137.113 132.166  1.00  0.00     0.293 HD
ENDBRANCH   6  22
BRANCH   8  24
ATOM     24  O   UNL     1     138.377 137.214 131.109  1.00  0.00    -0.508 OA
ATOM     25  H   UNL     1     138.748 137.064 132.040  1.00  0.00     0.293 HD
ENDBRANCH   8  24
TORSDOF 5
ENDMDL
MODEL 6
REMARK VINA RESULT:    -5.712     10.528     13.069
REMARK INTER + INTRA:          -7.001
REMARK INTER:                  -6.733
REMARK INTRA:                  -0.268
REMARK UNBOUND:                -0.287
REMARK SMILES O=c1c(O)c(-c2ccc(O)cc2)oc2cc(O)cc(O)c12
REMARK SMILES IDX 5 1 3 2 2 3 1 4 21 5 19 6 18 7 16 8 15 9 14 10 13 11 6 12
REMARK SMILES IDX 7 13 8 14 9 15 12 16 11 17 10 18 4 20 20 22 17 24
REMARK H PARENT 10 19 4 21 20 23 17 25
REMARK Flexibility Score: inf
ROOT
ATOM      1  C   UNL     1     131.640 134.681 126.840  1.00  0.00     0.180 A 
ATOM      2  C   UNL     1     131.449 133.515 126.078  1.00  0.00     0.208 A 
ATOM      3  C   UNL     1     130.934 132.369 126.706  1.00  0.00     0.238 A 
ATOM      4  O   UNL     1     130.818 131.312 126.032  1.00  0.00    -0.285 OA
ATOM      5  C   UNL     1     130.603 132.408 128.081  1.00  0.00     0.111 A 
ATOM      6  C   UNL     1     130.038 131.318 128.809  1.00  0.00     0.134 A 
ATOM      7  C   UNL     1     129.870 131.426 130.196  1.00  0.00     0.093 A 
ATOM      8  C   UNL     1     130.188 132.608 130.869  1.00  0.00     0.123 A 
ATOM      9  C   UNL     1     130.685 133.698 130.158  1.00  0.00     0.094 A 
ATOM     10  C   UNL     1     130.897 133.608 128.780  1.00  0.00     0.146 A 
ATOM     11  O   UNL     1     131.381 134.666 128.143  1.00  0.00    -0.452 OA
ENDROOT
BRANCH   1  12
ATOM     12  C   UNL     1     132.155 135.936 126.245  1.00  0.00     0.021 A 
ATOM     13  C   UNL     1     131.290 136.990 125.896  1.00  0.00     0.016 A 
ATOM     14  C   UNL     1     131.802 138.175 125.358  1.00  0.00     0.047 A 
ATOM     15  C   UNL     1     133.182 138.327 125.176  1.00  0.00     0.115 A 
ATOM     16  C   UNL     1     133.539 136.106 126.078  1.00  0.00     0.016 A 
ATOM     17  C   UNL     1     134.048 137.292 125.539  1.00  0.00     0.047 A 
BRANCH  15  18
ATOM     18  O   UNL     1     133.703 139.502 124.639  1.00  0.00    -0.508 OA
ATOM     19  H   UNL     1     134.015 140.263 125.233  1.00  0.00     0.293 HD
ENDBRANCH  15  18
ENDBRANCH   1  12
BRANCH   2  20
ATOM     20  O   UNL     1     131.804 133.492 124.727  1.00  0.00    -0.502 OA
ATOM     21  H   UNL     1     131.133 133.308 123.992  1.00  0.00     0.293 HD
ENDBRANCH   2  20
BRANCH   6  22
ATOM     22  O   UNL     1     129.601 130.128 128.220  1.00  0.00    -0.507 OA
ATOM     23  H   UNL     1     128.635 129.846 128.142  1.00  0.00     0.293 HD
ENDBRANCH   6  22
BRANCH   8  24
ATOM     24  O   UNL     1     130.005 132.712 132.247  1.00  0.00    -0.508 OA
ATOM     25  H   UNL     1     130.776 132.606 132.894  1.00  0.00     0.293 HD
ENDBRANCH   8  24
TORSDOF 5
ENDMDL
MODEL 7
REMARK VINA RESULT:    -5.699      9.710     12.230
REMARK INTER + INTRA:          -6.986
REMARK INTER:                  -6.686
REMARK INTRA:                  -0.300
REMARK UNBOUND:                -0.287
REMARK SMILES O=c1c(O)c(-c2ccc(O)cc2)oc2cc(O)cc(O)c12
REMARK SMILES IDX 5 1 3 2 2 3 1 4 21 5 19 6 18 7 16 8 15 9 14 10 13 11 6 12
REMARK SMILES IDX 7 13 8 14 9 15 12 16 11 17 10 18 4 20 20 22 17 24
REMARK H PARENT 10 19 4 21 20 23 17 25
REMARK Flexibility Score: inf
ROOT
ATOM      1  C   UNL     1     131.082 136.056 127.067  1.00  0.00     0.180 A 
ATOM      2  C   UNL     1     131.816 135.450 126.032  1.00  0.00     0.208 A 
ATOM      3  C   UNL     1     131.775 134.052 125.898  1.00  0.00     0.238 A 
ATOM      4  O   UNL     1     132.477 133.510 125.004  1.00  0.00    -0.285 OA
ATOM      5  C   UNL     1     130.989 133.281 126.787  1.00  0.00     0.111 A 
ATOM      6  C   UNL     1     130.842 131.863 126.718  1.00  0.00     0.134 A 
ATOM      7  C   UNL     1     130.144 131.191 127.729  1.00  0.00     0.093 A 
ATOM      8  C   UNL     1     129.532 131.893 128.771  1.00  0.00     0.123 A 
ATOM      9  C   UNL     1     129.620 133.282 128.814  1.00  0.00     0.094 A 
ATOM     10  C   UNL     1     130.340 133.978 127.840  1.00  0.00     0.146 A 
ATOM     11  O   UNL     1     130.407 135.300 127.925  1.00  0.00    -0.452 OA
ENDROOT
BRANCH   1  12
ATOM     12  C   UNL     1     131.056 137.524 127.258  1.00  0.00     0.021 A 
ATOM     13  C   UNL     1     130.101 138.331 126.611  1.00  0.00     0.016 A 
ATOM     14  C   UNL     1     130.080 139.712 126.826  1.00  0.00     0.047 A 
ATOM     15  C   UNL     1     131.002 140.303 127.699  1.00  0.00     0.115 A 
ATOM     16  C   UNL     1     131.963 138.123 128.148  1.00  0.00     0.016 A 
ATOM     17  C   UNL     1     131.940 139.505 128.360  1.00  0.00     0.047 A 
BRANCH  15  18
ATOM     18  O   UNL     1     130.992 141.678 127.919  1.00  0.00    -0.508 OA
ATOM     19  H   UNL     1     130.777 142.332 127.174  1.00  0.00     0.293 HD
ENDBRANCH  15  18
ENDBRANCH   1  12
BRANCH   2  20
ATOM     20  O   UNL     1     132.604 136.228 125.179  1.00  0.00    -0.502 OA
ATOM     21  H   UNL     1     132.399 137.201 124.988  1.00  0.00     0.293 HD
ENDBRANCH   2  20
BRANCH   6  22
ATOM     22  O   UNL     1     131.334 131.078 125.672  1.00  0.00    -0.507 OA
ATOM     23  H   UNL     1     130.785 130.420 125.139  1.00  0.00     0.293 HD
ENDBRANCH   6  22
BRANCH   8  24
ATOM     24  O   UNL     1     128.826 131.217 129.764  1.00  0.00    -0.508 OA
ATOM     25  H   UNL     1     127.952 131.575 130.131  1.00  0.00     0.293 HD
ENDBRANCH   8  24
TORSDOF 5
ENDMDL
MODEL 8
REMARK VINA RESULT:    -5.671      7.036     10.197
REMARK INTER + INTRA:          -6.953
REMARK INTER:                  -6.792
REMARK INTRA:                  -0.161
REMARK UNBOUND:                -0.287
REMARK SMILES O=c1c(O)c(-c2ccc(O)cc2)oc2cc(O)cc(O)c12
REMARK SMILES IDX 5 1 3 2 2 3 1 4 21 5 19 6 18 7 16 8 15 9 14 10 13 11 6 12
REMARK SMILES IDX 7 13 8 14 9 15 12 16 11 17 10 18 4 20 20 22 17 24
REMARK H PARENT 10 19 4 21 20 23 17 25
REMARK Flexibility Score: inf
ROOT
ATOM      1  C   UNL     1     131.803 139.086 125.631  1.00  0.00     0.180 A 
ATOM      2  C   UNL     1     132.352 140.061 124.781  1.00  0.00     0.208 A 
ATOM      3  C   UNL     1     131.797 141.351 124.779  1.00  0.00     0.238 A 
ATOM      4  O   UNL     1     132.257 142.205 123.976  1.00  0.00    -0.285 OA
ATOM      5  C   UNL     1     130.711 141.653 125.635  1.00  0.00     0.111 A 
ATOM      6  C   UNL     1     130.097 142.937 125.743  1.00  0.00     0.134 A 
ATOM      7  C   UNL     1     128.946 143.089 126.527  1.00  0.00     0.093 A 
ATOM      8  C   UNL     1     128.427 142.016 127.258  1.00  0.00     0.123 A 
ATOM      9  C   UNL     1     129.054 140.774 127.205  1.00  0.00     0.094 A 
ATOM     10  C   UNL     1     130.182 140.583 126.404  1.00  0.00     0.146 A 
ATOM     11  O   UNL     1     130.743 139.381 126.375  1.00  0.00    -0.452 OA
ENDROOT
BRANCH   1  12
ATOM     12  C   UNL     1     132.349 137.711 125.709  1.00  0.00     0.021 A 
ATOM     13  C   UNL     1     133.649 137.465 126.190  1.00  0.00     0.016 A 
ATOM     14  C   UNL     1     134.134 136.156 126.277  1.00  0.00     0.047 A 
ATOM     15  C   UNL     1     133.324 135.079 125.899  1.00  0.00     0.115 A 
ATOM     16  C   UNL     1     131.536 136.622 125.352  1.00  0.00     0.016 A 
ATOM     17  C   UNL     1     132.025 135.315 125.440  1.00  0.00     0.047 A 
BRANCH  15  18
ATOM     18  O   UNL     1     133.797 133.770 125.980  1.00  0.00    -0.508 OA
ATOM     19  H   UNL     1     134.759 133.541 125.754  1.00  0.00     0.293 HD
ENDBRANCH  15  18
ENDBRANCH   1  12
BRANCH   2  20
ATOM     20  O   UNL     1     133.410 139.736 123.928  1.00  0.00    -0.502 OA
ATOM     21  H   UNL     1     134.367 139.668 124.250  1.00  0.00     0.293 HD
ENDBRANCH   2  20
BRANCH   6  22
ATOM     22  O   UNL     1     130.589 144.092 125.129  1.00  0.00    -0.507 OA
ATOM     23  H   UNL     1     130.390 144.367 124.179  1.00  0.00     0.293 HD
ENDBRANCH   6  22
BRANCH   8  24
ATOM     24  O   UNL     1     127.290 142.180 128.047  1.00  0.00    -0.508 OA
ATOM     25  H   UNL     1     127.076 141.545 128.807  1.00  0.00     0.293 HD
ENDBRANCH   8  24
TORSDOF 5
ENDMDL
MODEL 9
REMARK VINA RESULT:    -5.576      6.827      9.776
REMARK INTER + INTRA:          -6.841
REMARK INTER:                  -6.556
REMARK INTRA:                  -0.285
REMARK UNBOUND:                -0.287
REMARK SMILES O=c1c(O)c(-c2ccc(O)cc2)oc2cc(O)cc(O)c12
REMARK SMILES IDX 5 1 3 2 2 3 1 4 21 5 19 6 18 7 16 8 15 9 14 10 13 11 6 12
REMARK SMILES IDX 7 13 8 14 9 15 12 16 11 17 10 18 4 20 20 22 17 24
REMARK H PARENT 10 19 4 21 20 23 17 25
REMARK Flexibility Score: inf
ROOT
ATOM      1  C   UNL     1     132.077 137.654 126.254  1.00  0.00     0.180 A 
ATOM      2  C   UNL     1     131.398 138.170 127.372  1.00  0.00     0.208 A 
ATOM      3  C   UNL     1     131.005 139.518 127.366  1.00  0.00     0.238 A 
ATOM      4  O   UNL     1     130.446 139.989 128.391  1.00  0.00    -0.285 OA
ATOM      5  C   UNL     1     131.282 140.329 126.239  1.00  0.00     0.111 A 
ATOM      6  C   UNL     1     130.895 141.696 126.110  1.00  0.00     0.134 A 
ATOM      7  C   UNL     1     131.336 142.438 125.006  1.00  0.00     0.093 A 
ATOM      8  C   UNL     1     132.096 141.842 123.996  1.00  0.00     0.123 A 
ATOM      9  C   UNL     1     132.428 140.492 124.084  1.00  0.00     0.094 A 
ATOM     10  C   UNL     1     132.034 139.736 125.191  1.00  0.00     0.146 A 
ATOM     11  O   UNL     1     132.381 138.456 125.240  1.00  0.00    -0.452 OA
ENDROOT
BRANCH   1  12
ATOM     12  C   UNL     1     132.501 136.237 126.175  1.00  0.00     0.021 A 
ATOM     13  C   UNL     1     131.710 135.271 125.527  1.00  0.00     0.016 A 
ATOM     14  C   UNL     1     132.142 133.944 125.443  1.00  0.00     0.047 A 
ATOM     15  C   UNL     1     133.375 133.569 125.992  1.00  0.00     0.115 A 
ATOM     16  C   UNL     1     133.746 135.856 126.704  1.00  0.00     0.016 A 
ATOM     17  C   UNL     1     134.175 134.528 126.619  1.00  0.00     0.047 A 
BRANCH  15  18
ATOM     18  O   UNL     1     133.816 132.250 125.917  1.00  0.00    -0.508 OA
ATOM     19  H   UNL     1     133.862 131.659 126.740  1.00  0.00     0.293 HD
ENDBRANCH  15  18
ENDBRANCH   1  12
BRANCH   2  20
ATOM     20  O   UNL     1     131.154 137.358 128.483  1.00  0.00    -0.502 OA
ATOM     21  H   UNL     1     131.339 136.363 128.480  1.00  0.00     0.293 HD
ENDBRANCH   2  20
BRANCH   6  22
ATOM     22  O   UNL     1     130.063 142.361 127.015  1.00  0.00    -0.507 OA
ATOM     23  H   UNL     1     129.844 142.032 127.944  1.00  0.00     0.293 HD
ENDBRANCH   6  22
BRANCH   8  24
ATOM     24  O   UNL     1     132.517 142.583 122.894  1.00  0.00    -0.508 OA
ATOM     25  H   UNL     1     132.905 143.513 122.997  1.00  0.00     0.293 HD
ENDBRANCH   8  24
TORSDOF 5
ENDMDL
