MODEL 1
REMARK VINA RESULT:    -2.213      0.000      0.000
REMARK INTER + INTRA:          -2.213
REMARK INTER:                  -2.213
REMARK INTRA:                   0.000
REMARK UNBOUND:                 0.000
REMARK SMILES CC(=O)[O-]
REMARK SMILES IDX 1 1 2 2 3 3 4 4
REMARK H PARENT
REMARK Flexibility Score: inf
ROOT
ATOM      1  C   UNL     1      13.905 -19.982  37.255  1.00  0.00     0.063 C 
ATOM      2  C   UNL     1      14.309 -20.871  36.129  1.00  0.00     0.038 C 
ATOM      3  O   UNL     1      15.396 -21.504  36.181  1.00  0.00    -0.550 OA
ATOM      4  O   UNL     1      13.513 -20.962  34.994  1.00  0.00    -0.550 OA
ENDROOT
TORSDOF 0
ENDMDL
MODEL 2
REMARK VINA RESULT:    -2.194      0.171      1.624
REMARK INTER + INTRA:          -2.194
REMARK INTER:                  -2.194
REMARK INTRA:                   0.000
REMARK UNBOUND:                 0.000
REMARK SMILES CC(=O)[O-]
REMARK SMILES IDX 1 1 2 2 3 3 4 4
REMARK H PARENT
REMARK Flexibility Score: inf
ROOT
ATOM      1  C   UNL     1      13.867 -20.106  37.309  1.00  0.00     0.063 C 
ATOM      2  C   UNL     1      14.347 -20.907  36.146  1.00  0.00     0.038 C 
ATOM      3  O   UNL     1      13.595 -21.094  35.153  1.00  0.00    -0.550 OA
ATOM      4  O   UNL     1      15.605 -21.495  36.178  1.00  0.00    -0.550 OA
ENDROOT
TORSDOF 0
ENDMDL
MODEL 3
REMARK VINA RESULT:    -2.117     21.586     21.773
REMARK INTER + INTRA:          -2.117
REMARK INTER:                  -2.117
REMARK INTRA:                   0.000
REMARK UNBOUND:                 0.000
REMARK SMILES CC(=O)[O-]
REMARK SMILES IDX 1 1 2 2 3 3 4 4
REMARK H PARENT
REMARK Flexibility Score: inf
ROOT
ATOM      1  C   UNL     1       2.765 -27.908  52.383  1.00  0.00     0.063 C 
ATOM      2  C   UNL     1       2.457 -29.365  52.305  1.00  0.00     0.038 C 
ATOM      3  O   UNL     1       1.782 -29.918  53.212  1.00  0.00    -0.550 OA
ATOM      4  O   UNL     1       2.961 -30.128  51.259  1.00  0.00    -0.550 OA
ENDROOT
TORSDOF 0
ENDMDL
MODEL 4
REMARK VINA RESULT:    -2.090     17.373     17.591
REMARK INTER + INTRA:          -2.090
REMARK INTER:                  -2.090
REMARK INTRA:                   0.000
REMARK UNBOUND:                 0.000
REMARK SMILES CC(=O)[O-]
REMARK SMILES IDX 1 1 2 2 3 3 4 4
REMARK H PARENT
REMARK Flexibility Score: inf
ROOT
ATOM      1  C   UNL     1      11.093 -32.391  49.662  1.00  0.00     0.063 C 
ATOM      2  C   UNL     1      10.415 -32.763  48.387  1.00  0.00     0.038 C 
ATOM      3  O   UNL     1      11.043 -32.704  47.297  1.00  0.00    -0.550 OA
ATOM      4  O   UNL     1       9.074 -33.125  48.390  1.00  0.00    -0.550 OA
ENDROOT
TORSDOF 0
ENDMDL
MODEL 5
REMARK VINA RESULT:    -2.040      1.887      2.625
REMARK INTER + INTRA:          -2.040
REMARK INTER:                  -2.040
REMARK INTRA:                   0.000
REMARK UNBOUND:                 0.000
REMARK SMILES CC(=O)[O-]
REMARK SMILES IDX 1 1 2 2 3 3 4 4
REMARK H PARENT
REMARK Flexibility Score: inf
ROOT
ATOM      1  C   UNL     1      14.328 -18.782  34.943  1.00  0.00     0.063 C 
ATOM      2  C   UNL     1      13.399 -19.929  34.733  1.00  0.00     0.038 C 
ATOM      3  O   UNL     1      12.277 -19.743  34.194  1.00  0.00    -0.550 OA
ATOM      4  O   UNL     1      13.747 -21.198  35.180  1.00  0.00    -0.550 OA
ENDROOT
TORSDOF 0
ENDMDL
MODEL 6
REMARK VINA RESULT:    -2.019      2.184      2.420
REMARK INTER + INTRA:          -2.019
REMARK INTER:                  -2.019
REMARK INTRA:                   0.000
REMARK UNBOUND:                 0.000
REMARK SMILES CC(=O)[O-]
REMARK SMILES IDX 1 1 2 2 3 3 4 4
REMARK H PARENT
REMARK Flexibility Score: inf
ROOT
ATOM      1  C   UNL     1      13.623 -21.688  38.417  1.00  0.00     0.063 C 
ATOM      2  C   UNL     1      13.884 -22.474  37.177  1.00  0.00     0.038 C 
ATOM      3  O   UNL     1      14.108 -21.883  36.089  1.00  0.00    -0.550 OA
ATOM      4  O   UNL     1      13.827 -23.862  37.209  1.00  0.00    -0.550 OA
ENDROOT
TORSDOF 0
ENDMDL
MODEL 7
REMARK VINA RESULT:    -2.004     22.183     22.358
REMARK INTER + INTRA:          -2.004
REMARK INTER:                  -2.004
REMARK INTRA:                   0.000
REMARK UNBOUND:                 0.000
REMARK SMILES CC(=O)[O-]
REMARK SMILES IDX 1 1 2 2 3 3 4 4
REMARK H PARENT
REMARK Flexibility Score: inf
ROOT
ATOM      1  C   UNL     1       2.246 -31.628  53.040  1.00  0.00     0.063 C 
ATOM      2  C   UNL     1       2.533 -30.246  52.559  1.00  0.00     0.038 C 
ATOM      3  O   UNL     1       2.322 -29.258  53.311  1.00  0.00    -0.550 OA
ATOM      4  O   UNL     1       2.985 -30.040  51.262  1.00  0.00    -0.550 OA
ENDROOT
TORSDOF 0
ENDMDL
MODEL 8
REMARK VINA RESULT:    -1.935     13.694     14.024
REMARK INTER + INTRA:          -1.935
REMARK INTER:                  -1.935
REMARK INTRA:                   0.000
REMARK UNBOUND:                 0.000
REMARK SMILES CC(=O)[O-]
REMARK SMILES IDX 1 1 2 2 3 3 4 4
REMARK H PARENT
REMARK Flexibility Score: inf
ROOT
ATOM      1  C   UNL     1       3.572 -26.419  41.469  1.00  0.00     0.063 C 
ATOM      2  C   UNL     1       2.649 -27.168  40.568  1.00  0.00     0.038 C 
ATOM      3  O   UNL     1       1.403 -27.074  40.721  1.00  0.00    -0.550 OA
ATOM      4  O   UNL     1       3.162 -28.013  39.593  1.00  0.00    -0.550 OA
ENDROOT
TORSDOF 0
ENDMDL
MODEL 9
REMARK VINA RESULT:    -1.896      6.515      6.948
REMARK INTER + INTRA:          -1.896
REMARK INTER:                  -1.896
REMARK INTRA:                   0.000
REMARK UNBOUND:                 0.000
REMARK SMILES CC(=O)[O-]
REMARK SMILES IDX 1 1 2 2 3 3 4 4
REMARK H PARENT
REMARK Flexibility Score: inf
ROOT
ATOM      1  C   UNL     1      15.849 -26.514  39.612  1.00  0.00     0.063 C 
ATOM      2  C   UNL     1      15.853 -27.116  38.248  1.00  0.00     0.038 C 
ATOM      3  O   UNL     1      16.125 -26.407  37.244  1.00  0.00    -0.550 OA
ATOM      4  O   UNL     1      15.504 -28.450  38.075  1.00  0.00    -0.550 OA
ENDROOT
TORSDOF 0
ENDMDL
