MODEL 1
REMARK VINA RESULT:    -4.218      0.000      0.000
REMARK INTER + INTRA:          -4.341
REMARK INTER:                  -4.341
REMARK INTRA:                   0.000
REMARK UNBOUND:                 0.000
REMARK SMILES Oc1ccc2[nH]ccc2c1
REMARK SMILES IDX 3 1 4 2 5 3 9 4 8 5 7 6 6 7 10 8 2 9 1 11
REMARK H PARENT 6 10 1 12
REMARK Flexibility Score: inf
ROOT
ATOM      1  C   UNL     1     136.242 127.329 130.595  1.00  0.00     0.048 A 
ATOM      2  C   UNL     1     137.101 127.740 131.630  1.00  0.00     0.030 A 
ATOM      3  C   UNL     1     138.430 128.009 131.305  1.00  0.00     0.046 A 
ATOM      4  C   UNL     1     138.896 127.881 130.024  1.00  0.00     0.003 A 
ATOM      5  C   UNL     1     140.233 128.217 130.038  1.00  0.00     0.028 A 
ATOM      6  C   UNL     1     140.513 128.539 131.363  1.00  0.00     0.083 A 
ATOM      7  N   UNL     1     139.408 128.410 132.132  1.00  0.00    -0.361 N 
ATOM      8  C   UNL     1     138.073 127.476 128.976  1.00  0.00     0.056 A 
ATOM      9  C   UNL     1     136.722 127.196 129.271  1.00  0.00     0.116 A 
ATOM     10  H   UNL     1     139.335 128.588 133.158  1.00  0.00     0.166 HD
ENDROOT
BRANCH   9  11
ATOM     11  O   UNL     1     135.850 126.786 128.265  1.00  0.00    -0.508 OA
ATOM     12  H   UNL     1     135.982 125.909 127.776  1.00  0.00     0.293 HD
ENDBRANCH   9  11
TORSDOF 1
ENDMDL
MODEL 2
REMARK VINA RESULT:    -4.101      2.446      3.571
REMARK INTER + INTRA:          -4.221
REMARK INTER:                  -4.221
REMARK INTRA:                   0.000
REMARK UNBOUND:                 0.000
REMARK SMILES Oc1ccc2[nH]ccc2c1
REMARK SMILES IDX 3 1 4 2 5 3 9 4 8 5 7 6 6 7 10 8 2 9 1 11
REMARK H PARENT 6 10 1 12
REMARK Flexibility Score: inf
ROOT
ATOM      1  C   UNL     1     139.598 128.170 132.004  1.00  0.00     0.048 A 
ATOM      2  C   UNL     1     138.241 127.823 132.136  1.00  0.00     0.030 A 
ATOM      3  C   UNL     1     137.512 127.592 130.971  1.00  0.00     0.046 A 
ATOM      4  C   UNL     1     138.085 127.697 129.732  1.00  0.00     0.003 A 
ATOM      5  C   UNL     1     137.109 127.410 128.802  1.00  0.00     0.028 A 
ATOM      6  C   UNL     1     135.965 127.139 129.548  1.00  0.00     0.083 A 
ATOM      7  N   UNL     1     136.217 127.252 130.871  1.00  0.00    -0.361 N 
ATOM      8  C   UNL     1     139.425 128.039 129.565  1.00  0.00     0.056 A 
ATOM      9  C   UNL     1     140.192 128.279 130.724  1.00  0.00     0.116 A 
ATOM     10  H   UNL     1     135.541 127.104 131.652  1.00  0.00     0.166 HD
ENDROOT
BRANCH   9  11
ATOM     11  O   UNL     1     141.537 128.625 130.622  1.00  0.00    -0.508 OA
ATOM     12  H   UNL     1     142.101 128.326 129.835  1.00  0.00     0.293 HD
ENDBRANCH   9  11
TORSDOF 1
ENDMDL
MODEL 3
REMARK VINA RESULT:    -2.394      1.197      2.026
REMARK INTER + INTRA:          -2.464
REMARK INTER:                  -2.464
REMARK INTRA:                   0.000
REMARK UNBOUND:                 0.000
REMARK SMILES Oc1ccc2[nH]ccc2c1
REMARK SMILES IDX 3 1 4 2 5 3 9 4 8 5 7 6 6 7 10 8 2 9 1 11
REMARK H PARENT 6 10 1 12
REMARK Flexibility Score: inf
ROOT
ATOM      1  C   UNL     1     136.754 127.548 128.977  1.00  0.00     0.048 A 
ATOM      2  C   UNL     1     138.136 127.714 128.770  1.00  0.00     0.030 A 
ATOM      3  C   UNL     1     138.942 127.924 129.888  1.00  0.00     0.046 A 
ATOM      4  C   UNL     1     138.419 127.969 131.152  1.00  0.00     0.003 A 
ATOM      5  C   UNL     1     139.465 128.188 132.022  1.00  0.00     0.028 A 
ATOM      6  C   UNL     1     140.597 128.266 131.216  1.00  0.00     0.083 A 
ATOM      7  N   UNL     1     140.272 128.104 129.914  1.00  0.00    -0.361 N 
ATOM      8  C   UNL     1     137.056 127.809 131.393  1.00  0.00     0.056 A 
ATOM      9  C   UNL     1     136.212 127.595 130.283  1.00  0.00     0.116 A 
ATOM     10  H   UNL     1     140.924 128.116 129.099  1.00  0.00     0.166 HD
ENDROOT
BRANCH   9  11
ATOM     11  O   UNL     1     134.841 127.429 130.460  1.00  0.00    -0.508 OA
ATOM     12  H   UNL     1     134.338 126.672 130.012  1.00  0.00     0.293 HD
ENDBRANCH   9  11
TORSDOF 1
ENDMDL
MODEL 4
REMARK VINA RESULT:    -2.161      2.599      4.011
REMARK INTER + INTRA:          -2.225
REMARK INTER:                  -2.225
REMARK INTRA:                   0.000
REMARK UNBOUND:                 0.000
REMARK SMILES Oc1ccc2[nH]ccc2c1
REMARK SMILES IDX 3 1 4 2 5 3 9 4 8 5 7 6 6 7 10 8 2 9 1 11
REMARK H PARENT 6 10 1 12
REMARK Flexibility Score: inf
ROOT
ATOM      1  C   UNL     1     140.265 128.168 129.520  1.00  0.00     0.048 A 
ATOM      2  C   UNL     1     139.023 127.835 128.950  1.00  0.00     0.030 A 
ATOM      3  C   UNL     1     137.950 127.613 129.812  1.00  0.00     0.046 A 
ATOM      4  C   UNL     1     138.087 127.711 131.170  1.00  0.00     0.003 A 
ATOM      5  C   UNL     1     136.857 127.435 131.728  1.00  0.00     0.028 A 
ATOM      6  C   UNL     1     136.017 127.178 130.648  1.00  0.00     0.083 A 
ATOM      7  N   UNL     1     136.690 127.288 129.480  1.00  0.00    -0.361 N 
ATOM      8  C   UNL     1     139.302 128.037 131.768  1.00  0.00     0.056 A 
ATOM      9  C   UNL     1     140.409 128.269 130.924  1.00  0.00     0.116 A 
ATOM     10  H   UNL     1     136.305 127.148 128.520  1.00  0.00     0.166 HD
ENDROOT
BRANCH   9  11
ATOM     11  O   UNL     1     141.650 128.599 131.463  1.00  0.00    -0.508 OA
ATOM     12  H   UNL     1     142.407 128.934 130.879  1.00  0.00     0.293 HD
ENDBRANCH   9  11
TORSDOF 1
ENDMDL
MODEL 5
REMARK VINA RESULT:    -2.095      2.598      4.071
REMARK INTER + INTRA:          -2.156
REMARK INTER:                  -2.156
REMARK INTRA:                   0.000
REMARK UNBOUND:                 0.000
REMARK SMILES Oc1ccc2[nH]ccc2c1
REMARK SMILES IDX 3 1 4 2 5 3 9 4 8 5 7 6 6 7 10 8 2 9 1 11
REMARK H PARENT 6 10 1 12
REMARK Flexibility Score: inf
ROOT
ATOM      1  C   UNL     1     139.762 128.470 130.396  1.00  0.00     0.048 A 
ATOM      2  C   UNL     1     139.056 128.096 129.237  1.00  0.00     0.030 A 
ATOM      3  C   UNL     1     137.732 127.686 129.385  1.00  0.00     0.046 A 
ATOM      4  C   UNL     1     137.125 127.645 130.611  1.00  0.00     0.003 A 
ATOM      5  C   UNL     1     135.835 127.204 130.416  1.00  0.00     0.028 A 
ATOM      6  C   UNL     1     135.725 126.995 129.044  1.00  0.00     0.083 A 
ATOM      7  N   UNL     1     136.887 127.292 128.420  1.00  0.00    -0.361 N 
ATOM      8  C   UNL     1     137.794 128.008 131.779  1.00  0.00     0.056 A 
ATOM      9  C   UNL     1     139.136 128.427 131.664  1.00  0.00     0.116 A 
ATOM     10  H   UNL     1     137.082 127.227 127.396  1.00  0.00     0.166 HD
ENDROOT
BRANCH   9  11
ATOM     11  O   UNL     1     139.857 128.802 132.795  1.00  0.00    -0.508 OA
ATOM     12  H   UNL     1     140.861 128.933 132.763  1.00  0.00     0.293 HD
ENDBRANCH   9  11
TORSDOF 1
ENDMDL
