MODEL 1
REMARK VINA RESULT:    -6.878      0.000      0.000
REMARK INTER + INTRA:         -13.590
REMARK INTER:                 -12.507
REMARK INTRA:                  -1.083
REMARK UNBOUND:                -1.083
REMARK SMILES CCCCCCCCCCCCCCCC(=O)[O-]
REMARK SMILES IDX 9 1 10 2 11 3 12 4 13 5 14 6 15 7 16 8 17 9 18 10 8 11 7 12
REMARK SMILES IDX 6 13 5 14 4 15 3 16 2 17 1 18
REMARK H PARENT
REMARK Flexibility Score: inf
ROOT
ATOM      1  C   UNL     1     -21.839 -23.380  28.844  1.00  0.00     0.000 C 
ENDROOT
BRANCH   1   2
ATOM      2  C   UNL     1     -22.935 -24.328  29.372  1.00  0.00     0.000 C 
BRANCH   2   3
ATOM      3  C   UNL     1     -23.094 -24.356  30.905  1.00  0.00     0.000 C 
BRANCH   3   4
ATOM      4  C   UNL     1     -23.831 -25.589  31.456  1.00  0.00     0.000 C 
BRANCH   4   5
ATOM      5  C   UNL     1     -25.192 -25.821  30.776  1.00  0.00     0.000 C 
BRANCH   5   6
ATOM      6  C   UNL     1     -25.281 -27.189  30.074  1.00  0.00     0.006 C 
BRANCH   6   7
ATOM      7  C   UNL     1     -25.517 -27.105  28.558  1.00  0.00     0.053 C 
BRANCH   7   8
ATOM      8  C   UNL     1     -26.366 -28.234  28.060  1.00  0.00     0.041 C 
ATOM      9  O   UNL     1     -26.562 -28.384  26.825  1.00  0.00    -0.550 OA
ATOM     10  O   UNL     1     -26.966 -29.103  28.962  1.00  0.00    -0.550 OA
ENDBRANCH   7   8
ENDBRANCH   6   7
ENDBRANCH   5   6
ENDBRANCH   4   5
ENDBRANCH   3   4
ENDBRANCH   2   3
ENDBRANCH   1   2
BRANCH   1  11
ATOM     11  C   UNL     1     -22.354 -22.057  28.249  1.00  0.00     0.000 C 
BRANCH  11  12
ATOM     12  C   UNL     1     -21.655 -20.825  28.843  1.00  0.00    -0.000 C 
BRANCH  12  13
ATOM     13  C   UNL     1     -22.117 -20.576  30.286  1.00  0.00    -0.000 C 
BRANCH  13  14
ATOM     14  C   UNL     1     -20.951 -20.281  31.242  1.00  0.00    -0.000 C 
BRANCH  14  15
ATOM     15  C   UNL     1     -20.547 -18.797  31.241  1.00  0.00    -0.000 C 
BRANCH  15  16
ATOM     16  C   UNL     1     -19.106 -18.568  30.746  1.00  0.00    -0.000 C 
BRANCH  16  17
ATOM     17  C   UNL     1     -18.993 -17.920  29.355  1.00  0.00    -0.003 C 
ATOM     18  C   UNL     1     -20.349 -17.567  28.745  1.00  0.00     0.004 C 
ENDBRANCH  16  17
ENDBRANCH  15  16
ENDBRANCH  14  15
ENDBRANCH  13  14
ENDBRANCH  12  13
ENDBRANCH  11  12
ENDBRANCH   1  11
TORSDOF 14
ENDMDL
MODEL 2
REMARK VINA RESULT:    -6.833      1.924      3.060
REMARK INTER + INTRA:         -13.508
REMARK INTER:                 -12.720
REMARK INTRA:                  -0.788
REMARK UNBOUND:                -1.083
REMARK SMILES CCCCCCCCCCCCCCCC(=O)[O-]
REMARK SMILES IDX 9 1 10 2 11 3 12 4 13 5 14 6 15 7 16 8 17 9 18 10 8 11 7 12
REMARK SMILES IDX 6 13 5 14 4 15 3 16 2 17 1 18
REMARK H PARENT
REMARK Flexibility Score: inf
ROOT
ATOM      1  C   UNL     1     -21.261 -21.294  31.558  1.00  0.00     0.000 C 
ENDROOT
BRANCH   1   2
ATOM      2  C   UNL     1     -22.407 -22.291  31.295  1.00  0.00     0.000 C 
BRANCH   2   3
ATOM      3  C   UNL     1     -21.992 -23.591  30.577  1.00  0.00     0.000 C 
BRANCH   3   4
ATOM      4  C   UNL     1     -22.229 -23.596  29.057  1.00  0.00     0.000 C 
BRANCH   4   5
ATOM      5  C   UNL     1     -23.156 -24.738  28.604  1.00  0.00     0.000 C 
BRANCH   5   6
ATOM      6  C   UNL     1     -23.957 -25.351  29.768  1.00  0.00     0.006 C 
BRANCH   6   7
ATOM      7  C   UNL     1     -24.983 -26.411  29.336  1.00  0.00     0.053 C 
BRANCH   7   8
ATOM      8  C   UNL     1     -25.492 -27.204  30.500  1.00  0.00     0.041 C 
ATOM      9  O   UNL     1     -25.275 -26.813  31.678  1.00  0.00    -0.550 OA
ATOM     10  O   UNL     1     -26.179 -28.391  30.285  1.00  0.00    -0.550 OA
ENDBRANCH   7   8
ENDBRANCH   6   7
ENDBRANCH   5   6
ENDBRANCH   4   5
ENDBRANCH   3   4
ENDBRANCH   2   3
ENDBRANCH   1   2
BRANCH   1  11
ATOM     11  C   UNL     1     -21.445 -19.907  30.915  1.00  0.00     0.000 C 
BRANCH  11  12
ATOM     12  C   UNL     1     -21.535 -19.969  29.383  1.00  0.00    -0.000 C 
BRANCH  12  13
ATOM     13  C   UNL     1     -20.672 -18.873  28.740  1.00  0.00    -0.000 C 
BRANCH  13  14
ATOM     14  C   UNL     1     -19.387 -18.585  29.533  1.00  0.00    -0.000 C 
BRANCH  14  15
ATOM     15  C   UNL     1     -18.929 -17.122  29.406  1.00  0.00    -0.000 C 
BRANCH  15  16
ATOM     16  C   UNL     1     -18.797 -16.661  27.942  1.00  0.00    -0.000 C 
BRANCH  16  17
ATOM     17  C   UNL     1     -17.629 -15.696  27.669  1.00  0.00    -0.003 C 
ATOM     18  C   UNL     1     -17.282 -15.578  26.185  1.00  0.00     0.004 C 
ENDBRANCH  16  17
ENDBRANCH  15  16
ENDBRANCH  14  15
ENDBRANCH  13  14
ENDBRANCH  12  13
ENDBRANCH  11  12
ENDBRANCH   1  11
TORSDOF 14
ENDMDL
MODEL 3
REMARK VINA RESULT:    -6.805      1.081      2.130
REMARK INTER + INTRA:         -13.457
REMARK INTER:                 -12.406
REMARK INTRA:                  -1.050
REMARK UNBOUND:                -1.083
REMARK SMILES CCCCCCCCCCCCCCCC(=O)[O-]
REMARK SMILES IDX 9 1 10 2 11 3 12 4 13 5 14 6 15 7 16 8 17 9 18 10 8 11 7 12
REMARK SMILES IDX 6 13 5 14 4 15 3 16 2 17 1 18
REMARK H PARENT
REMARK Flexibility Score: inf
ROOT
ATOM      1  C   UNL     1     -22.818 -22.761  31.362  1.00  0.00     0.000 C 
ENDROOT
BRANCH   1   2
ATOM      2  C   UNL     1     -22.569 -24.129  30.695  1.00  0.00     0.000 C 
BRANCH   2   3
ATOM      3  C   UNL     1     -22.739 -24.152  29.163  1.00  0.00     0.000 C 
BRANCH   3   4
ATOM      4  C   UNL     1     -23.431 -25.409  28.607  1.00  0.00     0.000 C 
BRANCH   4   5
ATOM      5  C   UNL     1     -23.848 -26.394  29.712  1.00  0.00     0.000 C 
BRANCH   5   6
ATOM      6  C   UNL     1     -25.371 -26.617  29.766  1.00  0.00     0.006 C 
BRANCH   6   7
ATOM      7  C   UNL     1     -26.048 -26.679  28.387  1.00  0.00     0.053 C 
BRANCH   7   8
ATOM      8  C   UNL     1     -26.455 -28.074  28.026  1.00  0.00     0.041 C 
ATOM      9  O   UNL     1     -26.639 -28.935  28.926  1.00  0.00    -0.550 OA
ATOM     10  O   UNL     1     -26.603 -28.432  26.692  1.00  0.00    -0.550 OA
ENDBRANCH   7   8
ENDBRANCH   6   7
ENDBRANCH   5   6
ENDBRANCH   4   5
ENDBRANCH   3   4
ENDBRANCH   2   3
ENDBRANCH   1   2
BRANCH   1  11
ATOM     11  C   UNL     1     -21.566 -21.880  31.526  1.00  0.00     0.000 C 
BRANCH  11  12
ATOM     12  C   UNL     1     -21.707 -20.511  30.846  1.00  0.00    -0.000 C 
BRANCH  12  13
ATOM     13  C   UNL     1     -21.986 -20.673  29.344  1.00  0.00    -0.000 C 
BRANCH  13  14
ATOM     14  C   UNL     1     -21.306 -19.589  28.492  1.00  0.00    -0.000 C 
BRANCH  14  15
ATOM     15  C   UNL     1     -20.049 -19.012  29.164  1.00  0.00    -0.000 C 
BRANCH  15  16
ATOM     16  C   UNL     1     -20.108 -17.482  29.332  1.00  0.00    -0.000 C 
BRANCH  16  17
ATOM     17  C   UNL     1     -19.328 -16.932  30.539  1.00  0.00    -0.003 C 
ATOM     18  C   UNL     1     -18.747 -18.029  31.431  1.00  0.00     0.004 C 
ENDBRANCH  16  17
ENDBRANCH  15  16
ENDBRANCH  14  15
ENDBRANCH  13  14
ENDBRANCH  12  13
ENDBRANCH  11  12
ENDBRANCH   1  11
TORSDOF 14
ENDMDL
MODEL 4
REMARK VINA RESULT:    -6.731      5.043      9.748
REMARK INTER + INTRA:         -13.323
REMARK INTER:                 -12.645
REMARK INTRA:                  -0.678
REMARK UNBOUND:                -1.083
REMARK SMILES CCCCCCCCCCCCCCCC(=O)[O-]
REMARK SMILES IDX 9 1 10 2 11 3 12 4 13 5 14 6 15 7 16 8 17 9 18 10 8 11 7 12
REMARK SMILES IDX 6 13 5 14 4 15 3 16 2 17 1 18
REMARK H PARENT
REMARK Flexibility Score: inf
ROOT
ATOM      1  C   UNL     1     -22.375 -23.490  30.640  1.00  0.00     0.000 C 
ENDROOT
BRANCH   1   2
ATOM      2  C   UNL     1     -21.996 -22.107  31.205  1.00  0.00     0.000 C 
BRANCH   2   3
ATOM      3  C   UNL     1     -22.355 -20.909  30.302  1.00  0.00     0.000 C 
BRANCH   3   4
ATOM      4  C   UNL     1     -21.264 -19.830  30.194  1.00  0.00     0.000 C 
BRANCH   4   5
ATOM      5  C   UNL     1     -21.141 -19.250  28.774  1.00  0.00     0.000 C 
BRANCH   5   6
ATOM      6  C   UNL     1     -20.392 -17.905  28.745  1.00  0.00     0.006 C 
BRANCH   6   7
ATOM      7  C   UNL     1     -18.945 -17.977  29.258  1.00  0.00     0.053 C 
BRANCH   7   8
ATOM      8  C   UNL     1     -18.722 -17.078  30.435  1.00  0.00     0.041 C 
ATOM      9  O   UNL     1     -18.249 -15.923  30.270  1.00  0.00    -0.550 OA
ATOM     10  O   UNL     1     -19.009 -17.528  31.717  1.00  0.00    -0.550 OA
ENDBRANCH   7   8
ENDBRANCH   6   7
ENDBRANCH   5   6
ENDBRANCH   4   5
ENDBRANCH   3   4
ENDBRANCH   2   3
ENDBRANCH   1   2
BRANCH   1  11
ATOM     11  C   UNL     1     -22.121 -23.670  29.132  1.00  0.00     0.000 C 
BRANCH  11  12
ATOM     12  C   UNL     1     -22.982 -24.779  28.511  1.00  0.00    -0.000 C 
BRANCH  12  13
ATOM     13  C   UNL     1     -23.710 -25.582  29.600  1.00  0.00    -0.000 C 
BRANCH  13  14
ATOM     14  C   UNL     1     -25.140 -25.972  29.195  1.00  0.00    -0.000 C 
BRANCH  14  15
ATOM     15  C   UNL     1     -25.181 -27.230  28.311  1.00  0.00    -0.000 C 
BRANCH  15  16
ATOM     16  C   UNL     1     -26.512 -27.998  28.424  1.00  0.00    -0.000 C 
BRANCH  16  17
ATOM     17  C   UNL     1     -26.746 -29.056  27.330  1.00  0.00    -0.003 C 
ATOM     18  C   UNL     1     -26.938 -28.450  25.940  1.00  0.00     0.004 C 
ENDBRANCH  16  17
ENDBRANCH  15  16
ENDBRANCH  14  15
ENDBRANCH  13  14
ENDBRANCH  12  13
ENDBRANCH  11  12
ENDBRANCH   1  11
TORSDOF 14
ENDMDL
MODEL 5
REMARK VINA RESULT:    -6.723      5.468      9.960
REMARK INTER + INTRA:         -13.309
REMARK INTER:                 -12.612
REMARK INTRA:                  -0.697
REMARK UNBOUND:                -1.083
REMARK SMILES CCCCCCCCCCCCCCCC(=O)[O-]
REMARK SMILES IDX 9 1 10 2 11 3 12 4 13 5 14 6 15 7 16 8 17 9 18 10 8 11 7 12
REMARK SMILES IDX 6 13 5 14 4 15 3 16 2 17 1 18
REMARK H PARENT
REMARK Flexibility Score: inf
ROOT
ATOM      1  C   UNL     1     -21.676 -21.859  31.362  1.00  0.00     0.000 C 
ENDROOT
BRANCH   1   2
ATOM      2  C   UNL     1     -22.035 -20.554  30.625  1.00  0.00     0.000 C 
BRANCH   2   3
ATOM      3  C   UNL     1     -21.621 -20.504  29.141  1.00  0.00     0.000 C 
BRANCH   3   4
ATOM      4  C   UNL     1     -20.942 -19.194  28.703  1.00  0.00     0.000 C 
BRANCH   4   5
ATOM      5  C   UNL     1     -20.382 -18.390  29.889  1.00  0.00     0.000 C 
BRANCH   5   6
ATOM      6  C   UNL     1     -19.084 -17.640  29.539  1.00  0.00     0.006 C 
BRANCH   6   7
ATOM      7  C   UNL     1     -19.085 -16.995  28.143  1.00  0.00     0.053 C 
BRANCH   7   8
ATOM      8  C   UNL     1     -17.960 -16.021  27.975  1.00  0.00     0.041 C 
ATOM      9  O   UNL     1     -17.497 -15.407  28.972  1.00  0.00    -0.550 OA
ATOM     10  O   UNL     1     -17.442 -15.769  26.711  1.00  0.00    -0.550 OA
ENDBRANCH   7   8
ENDBRANCH   6   7
ENDBRANCH   5   6
ENDBRANCH   4   5
ENDBRANCH   3   4
ENDBRANCH   2   3
ENDBRANCH   1   2
BRANCH   1  11
ATOM     11  C   UNL     1     -22.187 -23.148  30.692  1.00  0.00     0.000 C 
BRANCH  11  12
ATOM     12  C   UNL     1     -23.320 -23.820  31.481  1.00  0.00    -0.000 C 
BRANCH  12  13
ATOM     13  C   UNL     1     -23.931 -24.979  30.680  1.00  0.00    -0.000 C 
BRANCH  13  14
ATOM     14  C   UNL     1     -23.342 -25.101  29.265  1.00  0.00    -0.000 C 
BRANCH  14  15
ATOM     15  C   UNL     1     -23.840 -26.353  28.524  1.00  0.00    -0.000 C 
BRANCH  15  16
ATOM     16  C   UNL     1     -25.074 -26.992  29.189  1.00  0.00    -0.000 C 
BRANCH  16  17
ATOM     17  C   UNL     1     -26.017 -27.737  28.229  1.00  0.00    -0.003 C 
ATOM     18  C   UNL     1     -26.790 -28.870  28.904  1.00  0.00     0.004 C 
ENDBRANCH  16  17
ENDBRANCH  15  16
ENDBRANCH  14  15
ENDBRANCH  13  14
ENDBRANCH  12  13
ENDBRANCH  11  12
ENDBRANCH   1  11
TORSDOF 14
ENDMDL
MODEL 6
REMARK VINA RESULT:    -6.636      5.386      9.975
REMARK INTER + INTRA:         -13.149
REMARK INTER:                 -12.430
REMARK INTRA:                  -0.720
REMARK UNBOUND:                -1.083
REMARK SMILES CCCCCCCCCCCCCCCC(=O)[O-]
REMARK SMILES IDX 9 1 10 2 11 3 12 4 13 5 14 6 15 7 16 8 17 9 18 10 8 11 7 12
REMARK SMILES IDX 6 13 5 14 4 15 3 16 2 17 1 18
REMARK H PARENT
REMARK Flexibility Score: inf
ROOT
ATOM      1  C   UNL     1     -21.914 -21.747  31.039  1.00  0.00     0.000 C 
ENDROOT
BRANCH   1   2
ATOM      2  C   UNL     1     -22.267 -20.715  29.949  1.00  0.00     0.000 C 
BRANCH   2   3
ATOM      3  C   UNL     1     -21.216 -19.610  29.727  1.00  0.00     0.000 C 
BRANCH   3   4
ATOM      4  C   UNL     1     -20.518 -19.114  31.005  1.00  0.00     0.000 C 
BRANCH   4   5
ATOM      5  C   UNL     1     -19.478 -18.015  30.725  1.00  0.00     0.000 C 
BRANCH   5   6
ATOM      6  C   UNL     1     -19.645 -17.378  29.333  1.00  0.00     0.006 C 
BRANCH   6   7
ATOM      7  C   UNL     1     -18.383 -17.436  28.458  1.00  0.00     0.053 C 
BRANCH   7   8
ATOM      8  C   UNL     1     -17.884 -16.069  28.104  1.00  0.00     0.041 C 
ATOM      9  O   UNL     1     -17.771 -15.728  26.897  1.00  0.00    -0.550 OA
ATOM     10  O   UNL     1     -17.514 -15.182  29.106  1.00  0.00    -0.550 OA
ENDBRANCH   7   8
ENDBRANCH   6   7
ENDBRANCH   5   6
ENDBRANCH   4   5
ENDBRANCH   3   4
ENDBRANCH   2   3
ENDBRANCH   1   2
BRANCH   1  11
ATOM     11  C   UNL     1     -22.370 -23.187  30.745  1.00  0.00     0.000 C 
BRANCH  11  12
ATOM     12  C   UNL     1     -22.344 -23.526  29.247  1.00  0.00    -0.000 C 
BRANCH  12  13
ATOM     13  C   UNL     1     -22.957 -24.911  28.989  1.00  0.00    -0.000 C 
BRANCH  13  14
ATOM     14  C   UNL     1     -23.887 -25.371  30.123  1.00  0.00    -0.000 C 
BRANCH  14  15
ATOM     15  C   UNL     1     -25.182 -26.014  29.601  1.00  0.00    -0.000 C 
BRANCH  15  16
ATOM     16  C   UNL     1     -24.923 -27.216  28.673  1.00  0.00    -0.000 C 
BRANCH  16  17
ATOM     17  C   UNL     1     -26.163 -27.740  27.927  1.00  0.00    -0.003 C 
ATOM     18  C   UNL     1     -26.849 -28.901  28.646  1.00  0.00     0.004 C 
ENDBRANCH  16  17
ENDBRANCH  15  16
ENDBRANCH  14  15
ENDBRANCH  13  14
ENDBRANCH  12  13
ENDBRANCH  11  12
ENDBRANCH   1  11
TORSDOF 14
ENDMDL
MODEL 7
REMARK VINA RESULT:    -6.532      5.790     10.309
REMARK INTER + INTRA:         -12.960
REMARK INTER:                 -12.281
REMARK INTRA:                  -0.679
REMARK UNBOUND:                -1.083
REMARK SMILES CCCCCCCCCCCCCCCC(=O)[O-]
REMARK SMILES IDX 9 1 10 2 11 3 12 4 13 5 14 6 15 7 16 8 17 9 18 10 8 11 7 12
REMARK SMILES IDX 6 13 5 14 4 15 3 16 2 17 1 18
REMARK H PARENT
REMARK Flexibility Score: inf
ROOT
ATOM      1  C   UNL     1     -21.387 -19.824  28.554  1.00  0.00     0.000 C 
ENDROOT
BRANCH   1   2
ATOM      2  C   UNL     1     -20.582 -18.925  29.514  1.00  0.00     0.000 C 
BRANCH   2   3
ATOM      3  C   UNL     1     -20.111 -17.584  28.916  1.00  0.00     0.000 C 
BRANCH   3   4
ATOM      4  C   UNL     1     -18.587 -17.442  28.764  1.00  0.00     0.000 C 
BRANCH   4   5
ATOM      5  C   UNL     1     -18.091 -16.015  29.056  1.00  0.00     0.000 C 
BRANCH   5   6
ATOM      6  C   UNL     1     -17.694 -15.251  27.779  1.00  0.00     0.006 C 
BRANCH   6   7
ATOM      7  C   UNL     1     -17.275 -16.156  26.609  1.00  0.00     0.053 C 
BRANCH   7   8
ATOM      8  C   UNL     1     -17.302 -15.428  25.300  1.00  0.00     0.041 C 
ATOM      9  O   UNL     1     -16.229 -15.034  24.771  1.00  0.00    -0.550 OA
ATOM     10  O   UNL     1     -18.514 -15.158  24.679  1.00  0.00    -0.550 OA
ENDBRANCH   7   8
ENDBRANCH   6   7
ENDBRANCH   5   6
ENDBRANCH   4   5
ENDBRANCH   3   4
ENDBRANCH   2   3
ENDBRANCH   1   2
BRANCH   1  11
ATOM     11  C   UNL     1     -22.224 -20.920  29.238  1.00  0.00     0.000 C 
BRANCH  11  12
ATOM     12  C   UNL     1     -22.076 -20.916  30.766  1.00  0.00    -0.000 C 
BRANCH  12  13
ATOM     13  C   UNL     1     -22.258 -22.331  31.337  1.00  0.00    -0.000 C 
BRANCH  13  14
ATOM     14  C   UNL     1     -22.096 -23.428  30.272  1.00  0.00    -0.000 C 
BRANCH  14  15
ATOM     15  C   UNL     1     -22.952 -24.670  30.569  1.00  0.00    -0.000 C 
BRANCH  15  16
ATOM     16  C   UNL     1     -23.564 -25.293  29.300  1.00  0.00    -0.000 C 
BRANCH  16  17
ATOM     17  C   UNL     1     -24.906 -26.016  29.515  1.00  0.00    -0.003 C 
ATOM     18  C   UNL     1     -25.404 -25.944  30.958  1.00  0.00     0.004 C 
ENDBRANCH  16  17
ENDBRANCH  15  16
ENDBRANCH  14  15
ENDBRANCH  13  14
ENDBRANCH  12  13
ENDBRANCH  11  12
ENDBRANCH   1  11
TORSDOF 14
ENDMDL
MODEL 8
REMARK VINA RESULT:    -6.372      4.826      9.801
REMARK INTER + INTRA:         -12.670
REMARK INTER:                 -12.060
REMARK INTRA:                  -0.610
REMARK UNBOUND:                -1.083
REMARK SMILES CCCCCCCCCCCCCCCC(=O)[O-]
REMARK SMILES IDX 9 1 10 2 11 3 12 4 13 5 14 6 15 7 16 8 17 9 18 10 8 11 7 12
REMARK SMILES IDX 6 13 5 14 4 15 3 16 2 17 1 18
REMARK H PARENT
REMARK Flexibility Score: inf
ROOT
ATOM      1  C   UNL     1     -23.124 -24.466  30.559  1.00  0.00     0.000 C 
ENDROOT
BRANCH   1   2
ATOM      2  C   UNL     1     -22.073 -23.357  30.347  1.00  0.00     0.000 C 
BRANCH   2   3
ATOM      3  C   UNL     1     -22.058 -22.729  28.939  1.00  0.00     0.000 C 
BRANCH   3   4
ATOM      4  C   UNL     1     -22.031 -21.191  28.916  1.00  0.00     0.000 C 
BRANCH   4   5
ATOM      5  C   UNL     1     -22.024 -20.577  30.327  1.00  0.00     0.000 C 
BRANCH   5   6
ATOM      6  C   UNL     1     -21.033 -19.405  30.460  1.00  0.00     0.006 C 
BRANCH   6   7
ATOM      7  C   UNL     1     -20.646 -18.752  29.123  1.00  0.00     0.053 C 
BRANCH   7   8
ATOM      8  C   UNL     1     -19.720 -17.590  29.315  1.00  0.00     0.041 C 
ATOM      9  O   UNL     1     -19.291 -16.951  28.318  1.00  0.00    -0.550 OA
ATOM     10  O   UNL     1     -19.308 -17.233  30.591  1.00  0.00    -0.550 OA
ENDBRANCH   7   8
ENDBRANCH   6   7
ENDBRANCH   5   6
ENDBRANCH   4   5
ENDBRANCH   3   4
ENDBRANCH   2   3
ENDBRANCH   1   2
BRANCH   1  11
ATOM     11  C   UNL     1     -23.519 -25.239  29.288  1.00  0.00     0.000 C 
BRANCH  11  12
ATOM     12  C   UNL     1     -24.949 -25.796  29.350  1.00  0.00    -0.000 C 
BRANCH  12  13
ATOM     13  C   UNL     1     -25.122 -26.968  28.372  1.00  0.00    -0.000 C 
BRANCH  13  14
ATOM     14  C   UNL     1     -26.236 -27.938  28.798  1.00  0.00    -0.000 C 
BRANCH  14  15
ATOM     15  C   UNL     1     -26.591 -28.950  27.695  1.00  0.00    -0.000 C 
BRANCH  15  16
ATOM     16  C   UNL     1     -26.669 -28.310  26.297  1.00  0.00    -0.000 C 
BRANCH  16  17
ATOM     17  C   UNL     1     -27.545 -29.068  25.283  1.00  0.00    -0.003 C 
ATOM     18  C   UNL     1     -28.262 -28.143  24.301  1.00  0.00     0.004 C 
ENDBRANCH  16  17
ENDBRANCH  15  16
ENDBRANCH  14  15
ENDBRANCH  13  14
ENDBRANCH  12  13
ENDBRANCH  11  12
ENDBRANCH   1  11
TORSDOF 14
ENDMDL
MODEL 9
REMARK VINA RESULT:    -6.369      4.681      9.142
REMARK INTER + INTRA:         -12.665
REMARK INTER:                 -11.621
REMARK INTRA:                  -1.044
REMARK UNBOUND:                -1.083
REMARK SMILES CCCCCCCCCCCCCCCC(=O)[O-]
REMARK SMILES IDX 9 1 10 2 11 3 12 4 13 5 14 6 15 7 16 8 17 9 18 10 8 11 7 12
REMARK SMILES IDX 6 13 5 14 4 15 3 16 2 17 1 18
REMARK H PARENT
REMARK Flexibility Score: inf
ROOT
ATOM      1  C   UNL     1     -22.109 -23.414  29.018  1.00  0.00     0.000 C 
ENDROOT
BRANCH   1   2
ATOM      2  C   UNL     1     -22.133 -22.006  28.392  1.00  0.00     0.000 C 
BRANCH   2   3
ATOM      3  C   UNL     1     -22.056 -20.840  29.397  1.00  0.00     0.000 C 
BRANCH   3   4
ATOM      4  C   UNL     1     -21.993 -21.263  30.875  1.00  0.00     0.000 C 
BRANCH   4   5
ATOM      5  C   UNL     1     -20.878 -20.540  31.652  1.00  0.00     0.000 C 
BRANCH   5   6
ATOM      6  C   UNL     1     -20.745 -19.057  31.260  1.00  0.00     0.006 C 
BRANCH   6   7
ATOM      7  C   UNL     1     -19.326 -18.641  30.843  1.00  0.00     0.053 C 
BRANCH   7   8
ATOM      8  C   UNL     1     -19.335 -17.445  29.940  1.00  0.00     0.041 C 
ATOM      9  O   UNL     1     -18.612 -16.448  30.202  1.00  0.00    -0.550 OA
ATOM     10  O   UNL     1     -20.165 -17.420  28.828  1.00  0.00    -0.550 OA
ENDBRANCH   7   8
ENDBRANCH   6   7
ENDBRANCH   5   6
ENDBRANCH   4   5
ENDBRANCH   3   4
ENDBRANCH   2   3
ENDBRANCH   1   2
BRANCH   1  11
ATOM     11  C   UNL     1     -22.787 -24.512  28.179  1.00  0.00     0.000 C 
BRANCH  11  12
ATOM     12  C   UNL     1     -23.397 -25.629  29.038  1.00  0.00    -0.000 C 
BRANCH  12  13
ATOM     13  C   UNL     1     -23.616 -25.150  30.481  1.00  0.00    -0.000 C 
BRANCH  13  14
ATOM     14  C   UNL     1     -24.466 -26.128  31.310  1.00  0.00    -0.000 C 
BRANCH  14  15
ATOM     15  C   UNL     1     -25.751 -26.556  30.582  1.00  0.00    -0.000 C 
BRANCH  15  16
ATOM     16  C   UNL     1     -25.978 -28.079  30.611  1.00  0.00    -0.000 C 
BRANCH  16  17
ATOM     17  C   UNL     1     -26.498 -28.683  29.294  1.00  0.00    -0.003 C 
ATOM     18  C   UNL     1     -26.138 -27.848  28.066  1.00  0.00     0.004 C 
ENDBRANCH  16  17
ENDBRANCH  15  16
ENDBRANCH  14  15
ENDBRANCH  13  14
ENDBRANCH  12  13
ENDBRANCH  11  12
ENDBRANCH   1  11
TORSDOF 14
ENDMDL
