MODEL 1
REMARK VINA RESULT:    -6.793      0.000      0.000
REMARK INTER + INTRA:         -17.594
REMARK INTER:                 -14.735
REMARK INTRA:                  -2.859
REMARK UNBOUND:                -2.859
REMARK SMILES CCCCCCCCCCCCCCCCCCCCCC(=O)[O-]
REMARK SMILES IDX 12 1 11 2 10 3 9 4 8 5 7 6 6 7 5 8 4 9 3 10 2 11 1 12 13 13
REMARK SMILES IDX 14 14 15 15 16 16 17 17 18 18 19 19 20 20 21 21 22 22 23 23
REMARK SMILES IDX 24 24
REMARK H PARENT
REMARK Flexibility Score: inf
ROOT
ATOM      1  C   UNL     1      20.409  70.192  75.811  1.00  0.00     0.000 C 
ENDROOT
BRANCH   1   2
ATOM      2  C   UNL     1      19.510  71.385  75.439  1.00  0.00     0.000 C 
BRANCH   2   3
ATOM      3  C   UNL     1      18.200  71.487  76.246  1.00  0.00     0.000 C 
BRANCH   3   4
ATOM      4  C   UNL     1      16.949  71.841  75.418  1.00  0.00    -0.000 C 
BRANCH   4   5
ATOM      5  C   UNL     1      17.069  71.568  73.906  1.00  0.00    -0.000 C 
BRANCH   5   6
ATOM      6  C   UNL     1      16.772  72.778  73.002  1.00  0.00    -0.000 C 
BRANCH   6   7
ATOM      7  C   UNL     1      15.636  72.514  72.005  1.00  0.00    -0.000 C 
BRANCH   7   8
ATOM      8  C   UNL     1      14.274  72.868  72.620  1.00  0.00    -0.000 C 
BRANCH   8   9
ATOM      9  C   UNL     1      13.349  71.647  72.772  1.00  0.00    -0.000 C 
BRANCH   9  10
ATOM     10  C   UNL     1      13.136  71.164  74.221  1.00  0.00    -0.000 C 
BRANCH  10  11
ATOM     11  C   UNL     1      14.011  69.969  74.640  1.00  0.00    -0.003 C 
ATOM     12  C   UNL     1      13.904  69.645  76.130  1.00  0.00     0.004 C 
ENDBRANCH  10  11
ENDBRANCH   9  10
ENDBRANCH   8   9
ENDBRANCH   7   8
ENDBRANCH   6   7
ENDBRANCH   5   6
ENDBRANCH   4   5
ENDBRANCH   3   4
ENDBRANCH   2   3
ENDBRANCH   1   2
BRANCH   1  13
ATOM     13  C   UNL     1      21.613  70.035  74.872  1.00  0.00     0.000 C 
BRANCH  13  14
ATOM     14  C   UNL     1      22.842  70.776  75.422  1.00  0.00     0.000 C 
BRANCH  14  15
ATOM     15  C   UNL     1      23.458  71.739  74.385  1.00  0.00     0.000 C 
BRANCH  15  16
ATOM     16  C   UNL     1      22.411  72.555  73.606  1.00  0.00     0.000 C 
BRANCH  16  17
ATOM     17  C   UNL     1      22.868  72.904  72.183  1.00  0.00     0.000 C 
BRANCH  17  18
ATOM     18  C   UNL     1      22.014  72.177  71.133  1.00  0.00     0.000 C 
BRANCH  18  19
ATOM     19  C   UNL     1      20.514  72.212  71.465  1.00  0.00     0.000 C 
BRANCH  19  20
ATOM     20  C   UNL     1      19.925  70.814  71.717  1.00  0.00     0.006 C 
BRANCH  20  21
ATOM     21  C   UNL     1      20.875  69.695  71.269  1.00  0.00     0.053 C 
BRANCH  21  22
ATOM     22  C   UNL     1      20.462  69.109  69.953  1.00  0.00     0.041 C 
ATOM     23  O   UNL     1      19.726  68.088  69.917  1.00  0.00    -0.550 OA
ATOM     24  O   UNL     1      20.864  69.712  68.767  1.00  0.00    -0.550 OA
ENDBRANCH  21  22
ENDBRANCH  20  21
ENDBRANCH  19  20
ENDBRANCH  18  19
ENDBRANCH  17  18
ENDBRANCH  16  17
ENDBRANCH  15  16
ENDBRANCH  14  15
ENDBRANCH  13  14
ENDBRANCH   1  13
TORSDOF 20
ENDMDL
MODEL 2
REMARK VINA RESULT:    -6.758      1.169      1.624
REMARK INTER + INTRA:         -17.520
REMARK INTER:                 -14.958
REMARK INTRA:                  -2.561
REMARK UNBOUND:                -2.859
REMARK SMILES CCCCCCCCCCCCCCCCCCCCCC(=O)[O-]
REMARK SMILES IDX 12 1 11 2 10 3 9 4 8 5 7 6 6 7 5 8 4 9 3 10 2 11 1 12 13 13
REMARK SMILES IDX 14 14 15 15 16 16 17 17 18 18 19 19 20 20 21 21 22 22 23 23
REMARK SMILES IDX 24 24
REMARK H PARENT
REMARK Flexibility Score: inf
ROOT
ATOM      1  C   UNL     1      19.793  70.622  75.327  1.00  0.00     0.000 C 
ENDROOT
BRANCH   1   2
ATOM      2  C   UNL     1      19.183  71.836  74.603  1.00  0.00     0.000 C 
BRANCH   2   3
ATOM      3  C   UNL     1      18.699  71.559  73.166  1.00  0.00     0.000 C 
BRANCH   3   4
ATOM      4  C   UNL     1      18.487  72.813  72.295  1.00  0.00    -0.000 C 
BRANCH   4   5
ATOM      5  C   UNL     1      17.018  73.127  71.949  1.00  0.00    -0.000 C 
BRANCH   5   6
ATOM      6  C   UNL     1      16.009  72.824  73.071  1.00  0.00    -0.000 C 
BRANCH   6   7
ATOM      7  C   UNL     1      14.738  72.131  72.560  1.00  0.00    -0.000 C 
BRANCH   7   8
ATOM      8  C   UNL     1      14.973  70.625  72.373  1.00  0.00    -0.000 C 
BRANCH   8   9
ATOM      9  C   UNL     1      14.214  69.768  73.402  1.00  0.00    -0.000 C 
BRANCH   9  10
ATOM     10  C   UNL     1      13.554  70.557  74.551  1.00  0.00    -0.000 C 
BRANCH  10  11
ATOM     11  C   UNL     1      13.995  70.136  75.964  1.00  0.00    -0.003 C 
ATOM     12  C   UNL     1      15.366  70.691  76.350  1.00  0.00     0.004 C 
ENDBRANCH  10  11
ENDBRANCH   9  10
ENDBRANCH   8   9
ENDBRANCH   7   8
ENDBRANCH   6   7
ENDBRANCH   5   6
ENDBRANCH   4   5
ENDBRANCH   3   4
ENDBRANCH   2   3
ENDBRANCH   1   2
BRANCH   1  13
ATOM     13  C   UNL     1      21.031  70.062  74.614  1.00  0.00     0.000 C 
BRANCH  13  14
ATOM     14  C   UNL     1      22.316  70.416  75.381  1.00  0.00     0.000 C 
BRANCH  14  15
ATOM     15  C   UNL     1      23.194  71.428  74.615  1.00  0.00     0.000 C 
BRANCH  15  16
ATOM     16  C   UNL     1      23.017  71.363  73.087  1.00  0.00     0.000 C 
BRANCH  16  17
ATOM     17  C   UNL     1      22.927  72.751  72.439  1.00  0.00     0.000 C 
BRANCH  17  18
ATOM     18  C   UNL     1      22.743  72.641  70.918  1.00  0.00     0.000 C 
BRANCH  18  19
ATOM     19  C   UNL     1      21.307  72.261  70.523  1.00  0.00     0.000 C 
BRANCH  19  20
ATOM     20  C   UNL     1      21.235  70.943  69.732  1.00  0.00     0.006 C 
BRANCH  20  21
ATOM     21  C   UNL     1      20.829  69.758  70.617  1.00  0.00     0.053 C 
BRANCH  21  22
ATOM     22  C   UNL     1      20.292  68.617  69.806  1.00  0.00     0.041 C 
ATOM     23  O   UNL     1      19.202  68.071  70.125  1.00  0.00    -0.550 OA
ATOM     24  O   UNL     1      20.978  68.181  68.679  1.00  0.00    -0.550 OA
ENDBRANCH  21  22
ENDBRANCH  20  21
ENDBRANCH  19  20
ENDBRANCH  18  19
ENDBRANCH  17  18
ENDBRANCH  16  17
ENDBRANCH  15  16
ENDBRANCH  14  15
ENDBRANCH  13  14
ENDBRANCH   1  13
TORSDOF 20
ENDMDL
MODEL 3
REMARK VINA RESULT:    -6.738      2.814      5.687
REMARK INTER + INTRA:         -17.476
REMARK INTER:                 -15.164
REMARK INTRA:                  -2.312
REMARK UNBOUND:                -2.859
REMARK SMILES CCCCCCCCCCCCCCCCCCCCCC(=O)[O-]
REMARK SMILES IDX 12 1 11 2 10 3 9 4 8 5 7 6 6 7 5 8 4 9 3 10 2 11 1 12 13 13
REMARK SMILES IDX 14 14 15 15 16 16 17 17 18 18 19 19 20 20 21 21 22 22 23 23
REMARK SMILES IDX 24 24
REMARK H PARENT
REMARK Flexibility Score: inf
ROOT
ATOM      1  C   UNL     1      15.352  71.054  72.247  1.00  0.00     0.000 C 
ENDROOT
BRANCH   1   2
ATOM      2  C   UNL     1      14.044  70.414  72.746  1.00  0.00     0.000 C 
BRANCH   2   3
ATOM      3  C   UNL     1      14.159  69.664  74.088  1.00  0.00     0.000 C 
BRANCH   3   4
ATOM      4  C   UNL     1      13.819  70.502  75.336  1.00  0.00    -0.000 C 
BRANCH   4   5
ATOM      5  C   UNL     1      14.933  70.570  76.399  1.00  0.00    -0.000 C 
BRANCH   5   6
ATOM      6  C   UNL     1      16.273  71.140  75.901  1.00  0.00    -0.000 C 
BRANCH   6   7
ATOM      7  C   UNL     1      17.242  71.473  77.044  1.00  0.00    -0.000 C 
BRANCH   7   8
ATOM      8  C   UNL     1      16.632  71.105  78.404  1.00  0.00    -0.000 C 
BRANCH   8   9
ATOM      9  C   UNL     1      17.563  70.228  79.260  1.00  0.00    -0.000 C 
BRANCH   9  10
ATOM     10  C   UNL     1      18.995  70.063  78.711  1.00  0.00    -0.000 C 
BRANCH  10  11
ATOM     11  C   UNL     1      19.644  68.696  78.992  1.00  0.00    -0.003 C 
ATOM     12  C   UNL     1      18.651  67.662  79.522  1.00  0.00     0.004 C 
ENDBRANCH  10  11
ENDBRANCH   9  10
ENDBRANCH   8   9
ENDBRANCH   7   8
ENDBRANCH   6   7
ENDBRANCH   5   6
ENDBRANCH   4   5
ENDBRANCH   3   4
ENDBRANCH   2   3
ENDBRANCH   1   2
BRANCH   1  13
ATOM     13  C   UNL     1      15.437  72.555  72.554  1.00  0.00     0.000 C 
BRANCH  13  14
ATOM     14  C   UNL     1      16.869  72.957  72.946  1.00  0.00     0.000 C 
BRANCH  14  15
ATOM     15  C   UNL     1      17.620  73.649  71.790  1.00  0.00     0.000 C 
BRANCH  15  16
ATOM     16  C   UNL     1      18.974  72.997  71.458  1.00  0.00     0.000 C 
BRANCH  16  17
ATOM     17  C   UNL     1      18.965  71.474  71.654  1.00  0.00     0.000 C 
BRANCH  17  18
ATOM     18  C   UNL     1      20.393  70.906  71.638  1.00  0.00     0.000 C 
BRANCH  18  19
ATOM     19  C   UNL     1      20.719  70.094  72.902  1.00  0.00     0.000 C 
BRANCH  19  20
ATOM     20  C   UNL     1      20.438  70.872  74.199  1.00  0.00     0.006 C 
BRANCH  20  21
ATOM     21  C   UNL     1      20.712  70.030  75.451  1.00  0.00     0.053 C 
BRANCH  21  22
ATOM     22  C   UNL     1      22.173  69.987  75.783  1.00  0.00     0.041 C 
ATOM     23  O   UNL     1      22.997  70.654  75.102  1.00  0.00    -0.550 OA
ATOM     24  O   UNL     1      22.619  69.238  76.865  1.00  0.00    -0.550 OA
ENDBRANCH  21  22
ENDBRANCH  20  21
ENDBRANCH  19  20
ENDBRANCH  18  19
ENDBRANCH  17  18
ENDBRANCH  16  17
ENDBRANCH  15  16
ENDBRANCH  14  15
ENDBRANCH  13  14
ENDBRANCH   1  13
TORSDOF 20
ENDMDL
MODEL 4
REMARK VINA RESULT:    -6.726      3.470      7.085
REMARK INTER + INTRA:         -17.450
REMARK INTER:                 -15.228
REMARK INTRA:                  -2.222
REMARK UNBOUND:                -2.859
REMARK SMILES CCCCCCCCCCCCCCCCCCCCCC(=O)[O-]
REMARK SMILES IDX 12 1 11 2 10 3 9 4 8 5 7 6 6 7 5 8 4 9 3 10 2 11 1 12 13 13
REMARK SMILES IDX 14 14 15 15 16 16 17 17 18 18 19 19 20 20 21 21 22 22 23 23
REMARK SMILES IDX 24 24
REMARK H PARENT
REMARK Flexibility Score: inf
ROOT
ATOM      1  C   UNL     1      13.752  70.700  74.609  1.00  0.00     0.000 C 
ENDROOT
BRANCH   1   2
ATOM      2  C   UNL     1      13.968  69.892  73.317  1.00  0.00     0.000 C 
BRANCH   2   3
ATOM      3  C   UNL     1      14.957  70.520  72.315  1.00  0.00     0.000 C 
BRANCH   3   4
ATOM      4  C   UNL     1      15.484  71.915  72.705  1.00  0.00    -0.000 C 
BRANCH   4   5
ATOM      5  C   UNL     1      16.664  72.427  71.857  1.00  0.00    -0.000 C 
BRANCH   5   6
ATOM      6  C   UNL     1      18.030  71.809  72.206  1.00  0.00    -0.000 C 
BRANCH   6   7
ATOM      7  C   UNL     1      19.196  72.791  72.019  1.00  0.00    -0.000 C 
BRANCH   7   8
ATOM      8  C   UNL     1      20.485  72.045  71.643  1.00  0.00    -0.000 C 
BRANCH   8   9
ATOM      9  C   UNL     1      20.609  70.676  72.335  1.00  0.00    -0.000 C 
BRANCH   9  10
ATOM     10  C   UNL     1      20.952  69.499  71.400  1.00  0.00    -0.000 C 
BRANCH  10  11
ATOM     11  C   UNL     1      19.829  69.094  70.429  1.00  0.00    -0.003 C 
ATOM     12  C   UNL     1      20.355  68.579  69.089  1.00  0.00     0.004 C 
ENDBRANCH  10  11
ENDBRANCH   9  10
ENDBRANCH   8   9
ENDBRANCH   7   8
ENDBRANCH   6   7
ENDBRANCH   5   6
ENDBRANCH   4   5
ENDBRANCH   3   4
ENDBRANCH   2   3
ENDBRANCH   1   2
BRANCH   1  13
ATOM     13  C   UNL     1      14.033  69.884  75.878  1.00  0.00     0.000 C 
BRANCH  13  14
ATOM     14  C   UNL     1      15.128  70.548  76.729  1.00  0.00     0.000 C 
BRANCH  14  15
ATOM     15  C   UNL     1      16.217  71.216  75.863  1.00  0.00     0.000 C 
BRANCH  15  16
ATOM     16  C   UNL     1      17.542  71.446  76.612  1.00  0.00     0.000 C 
BRANCH  16  17
ATOM     17  C   UNL     1      18.774  71.233  75.721  1.00  0.00     0.000 C 
BRANCH  17  18
ATOM     18  C   UNL     1      20.001  70.840  76.558  1.00  0.00     0.000 C 
BRANCH  18  19
ATOM     19  C   UNL     1      20.020  69.345  76.912  1.00  0.00     0.000 C 
BRANCH  19  20
ATOM     20  C   UNL     1      20.449  69.083  78.366  1.00  0.00     0.006 C 
BRANCH  20  21
ATOM     21  C   UNL     1      19.448  69.654  79.379  1.00  0.00     0.053 C 
BRANCH  21  22
ATOM     22  C   UNL     1      18.213  68.812  79.476  1.00  0.00     0.041 C 
ATOM     23  O   UNL     1      17.074  69.345  79.395  1.00  0.00    -0.550 OA
ATOM     24  O   UNL     1      18.319  67.434  79.622  1.00  0.00    -0.550 OA
ENDBRANCH  21  22
ENDBRANCH  20  21
ENDBRANCH  19  20
ENDBRANCH  18  19
ENDBRANCH  17  18
ENDBRANCH  16  17
ENDBRANCH  15  16
ENDBRANCH  14  15
ENDBRANCH  13  14
ENDBRANCH   1  13
TORSDOF 20
ENDMDL
MODEL 5
REMARK VINA RESULT:    -6.713      2.686      4.084
REMARK INTER + INTRA:         -17.421
REMARK INTER:                 -14.747
REMARK INTRA:                  -2.675
REMARK UNBOUND:                -2.859
REMARK SMILES CCCCCCCCCCCCCCCCCCCCCC(=O)[O-]
REMARK SMILES IDX 12 1 11 2 10 3 9 4 8 5 7 6 6 7 5 8 4 9 3 10 2 11 1 12 13 13
REMARK SMILES IDX 14 14 15 15 16 16 17 17 18 18 19 19 20 20 21 21 22 22 23 23
REMARK SMILES IDX 24 24
REMARK H PARENT
REMARK Flexibility Score: inf
ROOT
ATOM      1  C   UNL     1      17.241  69.248  79.937  1.00  0.00     0.000 C 
ENDROOT
BRANCH   1   2
ATOM      2  C   UNL     1      17.388  70.662  79.347  1.00  0.00     0.000 C 
BRANCH   2   3
ATOM      3  C   UNL     1      16.645  70.891  78.015  1.00  0.00     0.000 C 
BRANCH   3   4
ATOM      4  C   UNL     1      17.433  71.684  76.955  1.00  0.00    -0.000 C 
BRANCH   4   5
ATOM      5  C   UNL     1      17.267  71.182  75.507  1.00  0.00    -0.000 C 
BRANCH   5   6
ATOM      6  C   UNL     1      16.741  72.232  74.512  1.00  0.00    -0.000 C 
BRANCH   6   7
ATOM      7  C   UNL     1      17.127  71.923  73.058  1.00  0.00    -0.000 C 
BRANCH   7   8
ATOM      8  C   UNL     1      15.948  71.296  72.300  1.00  0.00    -0.000 C 
BRANCH   8   9
ATOM      9  C   UNL     1      14.584  71.626  72.935  1.00  0.00    -0.000 C 
BRANCH   9  10
ATOM     10  C   UNL     1      13.689  70.406  73.233  1.00  0.00    -0.000 C 
BRANCH  10  11
ATOM     11  C   UNL     1      14.060  69.625  74.506  1.00  0.00    -0.003 C 
ATOM     12  C   UNL     1      13.643  70.343  75.789  1.00  0.00     0.004 C 
ENDBRANCH  10  11
ENDBRANCH   9  10
ENDBRANCH   8   9
ENDBRANCH   7   8
ENDBRANCH   6   7
ENDBRANCH   5   6
ENDBRANCH   4   5
ENDBRANCH   3   4
ENDBRANCH   2   3
ENDBRANCH   1   2
BRANCH   1  13
ATOM     13  C   UNL     1      18.590  68.552  80.162  1.00  0.00     0.000 C 
BRANCH  13  14
ATOM     14  C   UNL     1      19.338  68.357  78.833  1.00  0.00     0.000 C 
BRANCH  14  15
ATOM     15  C   UNL     1      20.846  68.660  78.959  1.00  0.00     0.000 C 
BRANCH  15  16
ATOM     16  C   UNL     1      21.497  69.105  77.638  1.00  0.00     0.000 C 
BRANCH  16  17
ATOM     17  C   UNL     1      20.481  69.669  76.634  1.00  0.00     0.000 C 
BRANCH  17  18
ATOM     18  C   UNL     1      21.190  70.367  75.463  1.00  0.00     0.000 C 
BRANCH  18  19
ATOM     19  C   UNL     1      20.455  70.172  74.128  1.00  0.00     0.000 C 
BRANCH  19  20
ATOM     20  C   UNL     1      20.798  71.258  73.094  1.00  0.00     0.006 C 
BRANCH  20  21
ATOM     21  C   UNL     1      21.794  72.288  73.643  1.00  0.00     0.053 C 
BRANCH  21  22
ATOM     22  C   UNL     1      23.171  72.078  73.090  1.00  0.00     0.041 C 
ATOM     23  O   UNL     1      23.698  72.956  72.356  1.00  0.00    -0.550 OA
ATOM     24  O   UNL     1      23.884  70.931  73.413  1.00  0.00    -0.550 OA
ENDBRANCH  21  22
ENDBRANCH  20  21
ENDBRANCH  19  20
ENDBRANCH  18  19
ENDBRANCH  17  18
ENDBRANCH  16  17
ENDBRANCH  15  16
ENDBRANCH  14  15
ENDBRANCH  13  14
ENDBRANCH   1  13
TORSDOF 20
ENDMDL
MODEL 6
REMARK VINA RESULT:    -6.526      3.049      4.738
REMARK INTER + INTRA:         -17.014
REMARK INTER:                 -14.764
REMARK INTRA:                  -2.250
REMARK UNBOUND:                -2.859
REMARK SMILES CCCCCCCCCCCCCCCCCCCCCC(=O)[O-]
REMARK SMILES IDX 12 1 11 2 10 3 9 4 8 5 7 6 6 7 5 8 4 9 3 10 2 11 1 12 13 13
REMARK SMILES IDX 14 14 15 15 16 16 17 17 18 18 19 19 20 20 21 21 22 22 23 23
REMARK SMILES IDX 24 24
REMARK H PARENT
REMARK Flexibility Score: inf
ROOT
ATOM      1  C   UNL     1      21.125  71.158  70.834  1.00  0.00     0.000 C 
ENDROOT
BRANCH   1   2
ATOM      2  C   UNL     1      19.679  71.117  71.361  1.00  0.00     0.000 C 
BRANCH   2   3
ATOM      3  C   UNL     1      19.264  72.334  72.212  1.00  0.00     0.000 C 
BRANCH   3   4
ATOM      4  C   UNL     1      18.204  73.250  71.569  1.00  0.00    -0.000 C 
BRANCH   4   5
ATOM      5  C   UNL     1      16.751  72.970  72.001  1.00  0.00    -0.000 C 
BRANCH   5   6
ATOM      6  C   UNL     1      16.561  71.706  72.859  1.00  0.00    -0.000 C 
BRANCH   6   7
ATOM      7  C   UNL     1      15.381  70.842  72.396  1.00  0.00    -0.000 C 
BRANCH   7   8
ATOM      8  C   UNL     1      14.043  71.534  72.695  1.00  0.00    -0.000 C 
BRANCH   8   9
ATOM      9  C   UNL     1      13.245  70.838  73.812  1.00  0.00    -0.000 C 
BRANCH   9  10
ATOM     10  C   UNL     1      14.014  69.747  74.584  1.00  0.00    -0.000 C 
BRANCH  10  11
ATOM     11  C   UNL     1      14.050  69.935  76.111  1.00  0.00    -0.003 C 
ATOM     12  C   UNL     1      15.293  70.682  76.591  1.00  0.00     0.004 C 
ENDBRANCH  10  11
ENDBRANCH   9  10
ENDBRANCH   8   9
ENDBRANCH   7   8
ENDBRANCH   6   7
ENDBRANCH   5   6
ENDBRANCH   4   5
ENDBRANCH   3   4
ENDBRANCH   2   3
ENDBRANCH   1   2
BRANCH   1  13
ATOM     13  C   UNL     1      21.673  72.586  70.705  1.00  0.00     0.000 C 
BRANCH  13  14
ATOM     14  C   UNL     1      22.969  72.754  71.514  1.00  0.00     0.000 C 
BRANCH  14  15
ATOM     15  C   UNL     1      22.732  72.613  73.033  1.00  0.00     0.000 C 
BRANCH  15  16
ATOM     16  C   UNL     1      23.473  71.420  73.663  1.00  0.00     0.000 C 
BRANCH  16  17
ATOM     17  C   UNL     1      22.556  70.532  74.515  1.00  0.00     0.000 C 
BRANCH  17  18
ATOM     18  C   UNL     1      21.313  71.307  74.981  1.00  0.00     0.000 C 
BRANCH  18  19
ATOM     19  C   UNL     1      20.083  70.402  75.150  1.00  0.00     0.000 C 
BRANCH  19  20
ATOM     20  C   UNL     1      19.643  70.262  76.617  1.00  0.00     0.006 C 
BRANCH  20  21
ATOM     21  C   UNL     1      20.496  69.243  77.384  1.00  0.00     0.053 C 
BRANCH  21  22
ATOM     22  C   UNL     1      19.958  68.991  78.760  1.00  0.00     0.041 C 
ATOM     23  O   UNL     1      19.062  68.124  78.941  1.00  0.00    -0.550 OA
ATOM     24  O   UNL     1      20.470  69.689  79.846  1.00  0.00    -0.550 OA
ENDBRANCH  21  22
ENDBRANCH  20  21
ENDBRANCH  19  20
ENDBRANCH  18  19
ENDBRANCH  17  18
ENDBRANCH  16  17
ENDBRANCH  15  16
ENDBRANCH  14  15
ENDBRANCH  13  14
ENDBRANCH   1  13
TORSDOF 20
ENDMDL
MODEL 7
REMARK VINA RESULT:    -6.487      2.803      6.001
REMARK INTER + INTRA:         -16.930
REMARK INTER:                 -14.554
REMARK INTRA:                  -2.376
REMARK UNBOUND:                -2.859
REMARK SMILES CCCCCCCCCCCCCCCCCCCCCC(=O)[O-]
REMARK SMILES IDX 12 1 11 2 10 3 9 4 8 5 7 6 6 7 5 8 4 9 3 10 2 11 1 12 13 13
REMARK SMILES IDX 14 14 15 15 16 16 17 17 18 18 19 19 20 20 21 21 22 22 23 23
REMARK SMILES IDX 24 24
REMARK H PARENT
REMARK Flexibility Score: inf
ROOT
ATOM      1  C   UNL     1      14.093  70.849  74.845  1.00  0.00     0.000 C 
ENDROOT
BRANCH   1   2
ATOM      2  C   UNL     1      14.396  70.031  76.114  1.00  0.00     0.000 C 
BRANCH   2   3
ATOM      3  C   UNL     1      15.474  70.636  77.035  1.00  0.00     0.000 C 
BRANCH   3   4
ATOM      4  C   UNL     1      16.744  71.132  76.316  1.00  0.00    -0.000 C 
BRANCH   4   5
ATOM      5  C   UNL     1      17.675  72.014  77.170  1.00  0.00    -0.000 C 
BRANCH   5   6
ATOM      6  C   UNL     1      18.848  71.268  77.832  1.00  0.00    -0.000 C 
BRANCH   6   7
ATOM      7  C   UNL     1      19.553  70.296  76.876  1.00  0.00    -0.000 C 
BRANCH   7   8
ATOM      8  C   UNL     1      20.285  69.194  77.657  1.00  0.00    -0.000 C 
BRANCH   8   9
ATOM      9  C   UNL     1      19.888  69.149  79.144  1.00  0.00    -0.000 C 
BRANCH   9  10
ATOM     10  C   UNL     1      18.820  68.095  79.504  1.00  0.00    -0.000 C 
BRANCH  10  11
ATOM     11  C   UNL     1      17.890  68.485  80.665  1.00  0.00    -0.003 C 
ATOM     12  C   UNL     1      16.881  69.567  80.283  1.00  0.00     0.004 C 
ENDBRANCH  10  11
ENDBRANCH   9  10
ENDBRANCH   8   9
ENDBRANCH   7   8
ENDBRANCH   6   7
ENDBRANCH   5   6
ENDBRANCH   4   5
ENDBRANCH   3   4
ENDBRANCH   2   3
ENDBRANCH   1   2
BRANCH   1  13
ATOM     13  C   UNL     1      14.104  69.997  73.569  1.00  0.00     0.000 C 
BRANCH  13  14
ATOM     14  C   UNL     1      14.871  70.706  72.440  1.00  0.00     0.000 C 
BRANCH  14  15
ATOM     15  C   UNL     1      15.547  72.008  72.920  1.00  0.00     0.000 C 
BRANCH  15  16
ATOM     16  C   UNL     1      16.370  72.712  71.827  1.00  0.00     0.000 C 
BRANCH  16  17
ATOM     17  C   UNL     1      17.797  73.050  72.282  1.00  0.00     0.000 C 
BRANCH  17  18
ATOM     18  C   UNL     1      18.717  71.824  72.176  1.00  0.00     0.000 C 
BRANCH  18  19
ATOM     19  C   UNL     1      19.498  71.559  73.472  1.00  0.00     0.000 C 
BRANCH  19  20
ATOM     20  C   UNL     1      20.703  70.626  73.261  1.00  0.00     0.006 C 
BRANCH  20  21
ATOM     21  C   UNL     1      21.707  71.194  72.249  1.00  0.00     0.053 C 
BRANCH  21  22
ATOM     22  C   UNL     1      22.914  71.769  72.926  1.00  0.00     0.041 C 
ATOM     23  O   UNL     1      23.143  73.006  72.867  1.00  0.00    -0.550 OA
ATOM     24  O   UNL     1      23.766  70.944  73.649  1.00  0.00    -0.550 OA
ENDBRANCH  21  22
ENDBRANCH  20  21
ENDBRANCH  19  20
ENDBRANCH  18  19
ENDBRANCH  17  18
ENDBRANCH  16  17
ENDBRANCH  15  16
ENDBRANCH  14  15
ENDBRANCH  13  14
ENDBRANCH   1  13
TORSDOF 20
ENDMDL
MODEL 8
REMARK VINA RESULT:    -6.454      3.346      7.906
REMARK INTER + INTRA:         -16.858
REMARK INTER:                 -14.345
REMARK INTRA:                  -2.513
REMARK UNBOUND:                -2.859
REMARK SMILES CCCCCCCCCCCCCCCCCCCCCC(=O)[O-]
REMARK SMILES IDX 12 1 11 2 10 3 9 4 8 5 7 6 6 7 5 8 4 9 3 10 2 11 1 12 13 13
REMARK SMILES IDX 14 14 15 15 16 16 17 17 18 18 19 19 20 20 21 21 22 22 23 23
REMARK SMILES IDX 24 24
REMARK H PARENT
REMARK Flexibility Score: inf
ROOT
ATOM      1  C   UNL     1      16.635  72.386  71.999  1.00  0.00     0.000 C 
ENDROOT
BRANCH   1   2
ATOM      2  C   UNL     1      17.979  72.672  72.693  1.00  0.00     0.000 C 
BRANCH   2   3
ATOM      3  C   UNL     1      18.609  71.462  73.411  1.00  0.00     0.000 C 
BRANCH   3   4
ATOM      4  C   UNL     1      19.493  71.810  74.625  1.00  0.00    -0.000 C 
BRANCH   4   5
ATOM      5  C   UNL     1      20.944  71.298  74.543  1.00  0.00    -0.000 C 
BRANCH   5   6
ATOM      6  C   UNL     1      21.937  72.266  73.873  1.00  0.00    -0.000 C 
BRANCH   6   7
ATOM      7  C   UNL     1      22.720  71.617  72.723  1.00  0.00    -0.000 C 
BRANCH   7   8
ATOM      8  C   UNL     1      22.257  72.168  71.366  1.00  0.00    -0.000 C 
BRANCH   8   9
ATOM      9  C   UNL     1      21.040  71.415  70.798  1.00  0.00    -0.000 C 
BRANCH   9  10
ATOM     10  C   UNL     1      20.983  69.912  71.137  1.00  0.00    -0.000 C 
BRANCH  10  11
ATOM     11  C   UNL     1      19.896  69.119  70.390  1.00  0.00    -0.003 C 
ATOM     12  C   UNL     1      20.362  68.604  69.029  1.00  0.00     0.004 C 
ENDBRANCH  10  11
ENDBRANCH   9  10
ENDBRANCH   8   9
ENDBRANCH   7   8
ENDBRANCH   6   7
ENDBRANCH   5   6
ENDBRANCH   4   5
ENDBRANCH   3   4
ENDBRANCH   2   3
ENDBRANCH   1   2
BRANCH   1  13
ATOM     13  C   UNL     1      15.425  72.659  72.903  1.00  0.00     0.000 C 
BRANCH  13  14
ATOM     14  C   UNL     1      14.136  72.095  72.285  1.00  0.00     0.000 C 
BRANCH  14  15
ATOM     15  C   UNL     1      13.783  70.699  72.841  1.00  0.00     0.000 C 
BRANCH  15  16
ATOM     16  C   UNL     1      14.714  70.235  73.976  1.00  0.00     0.000 C 
BRANCH  16  17
ATOM     17  C   UNL     1      13.958  69.924  75.275  1.00  0.00     0.000 C 
BRANCH  17  18
ATOM     18  C   UNL     1      14.761  70.375  76.505  1.00  0.00     0.000 C 
BRANCH  18  19
ATOM     19  C   UNL     1      16.027  71.161  76.127  1.00  0.00     0.000 C 
BRANCH  19  20
ATOM     20  C   UNL     1      17.095  71.137  77.234  1.00  0.00     0.006 C 
BRANCH  20  21
ATOM     21  C   UNL     1      16.477  71.116  78.637  1.00  0.00     0.053 C 
BRANCH  21  22
ATOM     22  C   UNL     1      17.268  70.262  79.581  1.00  0.00     0.041 C 
ATOM     23  O   UNL     1      18.472  70.538  79.827  1.00  0.00    -0.550 OA
ATOM     24  O   UNL     1      16.666  69.182  80.214  1.00  0.00    -0.550 OA
ENDBRANCH  21  22
ENDBRANCH  20  21
ENDBRANCH  19  20
ENDBRANCH  18  19
ENDBRANCH  17  18
ENDBRANCH  16  17
ENDBRANCH  15  16
ENDBRANCH  14  15
ENDBRANCH  13  14
ENDBRANCH   1  13
TORSDOF 20
ENDMDL
MODEL 9
REMARK VINA RESULT:    -6.419      2.739      6.584
REMARK INTER + INTRA:         -16.783
REMARK INTER:                 -14.516
REMARK INTRA:                  -2.267
REMARK UNBOUND:                -2.859
REMARK SMILES CCCCCCCCCCCCCCCCCCCCCC(=O)[O-]
REMARK SMILES IDX 12 1 11 2 10 3 9 4 8 5 7 6 6 7 5 8 4 9 3 10 2 11 1 12 13 13
REMARK SMILES IDX 14 14 15 15 16 16 17 17 18 18 19 19 20 20 21 21 22 22 23 23
REMARK SMILES IDX 24 24
REMARK H PARENT
REMARK Flexibility Score: inf
ROOT
ATOM      1  C   UNL     1      14.678  70.379  76.101  1.00  0.00     0.000 C 
ENDROOT
BRANCH   1   2
ATOM      2  C   UNL     1      16.023  71.123  76.017  1.00  0.00     0.000 C 
BRANCH   2   3
ATOM      3  C   UNL     1      16.840  71.139  77.325  1.00  0.00     0.000 C 
BRANCH   3   4
ATOM      4  C   UNL     1      16.262  70.279  78.466  1.00  0.00    -0.000 C 
BRANCH   4   5
ATOM      5  C   UNL     1      16.821  70.594  79.867  1.00  0.00    -0.000 C 
BRANCH   5   6
ATOM      6  C   UNL     1      17.589  69.439  80.535  1.00  0.00    -0.000 C 
BRANCH   6   7
ATOM      7  C   UNL     1      19.094  69.716  80.659  1.00  0.00    -0.000 C 
BRANCH   7   8
ATOM      8  C   UNL     1      19.914  68.514  80.169  1.00  0.00    -0.000 C 
BRANCH   8   9
ATOM      9  C   UNL     1      20.776  68.839  78.936  1.00  0.00    -0.000 C 
BRANCH   9  10
ATOM     10  C   UNL     1      19.991  69.050  77.625  1.00  0.00    -0.000 C 
BRANCH  10  11
ATOM     11  C   UNL     1      20.784  69.732  76.497  1.00  0.00    -0.003 C 
ATOM     12  C   UNL     1      19.965  70.777  75.740  1.00  0.00     0.004 C 
ENDBRANCH  10  11
ENDBRANCH   9  10
ENDBRANCH   8   9
ENDBRANCH   7   8
ENDBRANCH   6   7
ENDBRANCH   5   6
ENDBRANCH   4   5
ENDBRANCH   3   4
ENDBRANCH   2   3
ENDBRANCH   1   2
BRANCH   1  13
ATOM     13  C   UNL     1      13.807  70.576  74.853  1.00  0.00     0.000 C 
BRANCH  13  14
ATOM     14  C   UNL     1      14.342  69.750  73.672  1.00  0.00     0.000 C 
BRANCH  14  15
ATOM     15  C   UNL     1      14.502  70.597  72.391  1.00  0.00     0.000 C 
BRANCH  15  16
ATOM     16  C   UNL     1      14.866  72.067  72.666  1.00  0.00     0.000 C 
BRANCH  16  17
ATOM     17  C   UNL     1      16.204  72.476  72.036  1.00  0.00     0.000 C 
BRANCH  17  18
ATOM     18  C   UNL     1      17.323  71.497  72.425  1.00  0.00     0.000 C 
BRANCH  18  19
ATOM     19  C   UNL     1      18.714  72.148  72.394  1.00  0.00     0.000 C 
BRANCH  19  20
ATOM     20  C   UNL     1      19.704  71.395  71.489  1.00  0.00     0.006 C 
BRANCH  20  21
ATOM     21  C   UNL     1      20.501  70.333  72.258  1.00  0.00     0.053 C 
BRANCH  21  22
ATOM     22  C   UNL     1      21.850  70.839  72.669  1.00  0.00     0.041 C 
ATOM     23  O   UNL     1      22.155  72.048  72.488  1.00  0.00    -0.550 OA
ATOM     24  O   UNL     1      22.757  69.984  73.281  1.00  0.00    -0.550 OA
ENDBRANCH  21  22
ENDBRANCH  20  21
ENDBRANCH  19  20
ENDBRANCH  18  19
ENDBRANCH  17  18
ENDBRANCH  16  17
ENDBRANCH  15  16
ENDBRANCH  14  15
ENDBRANCH  13  14
ENDBRANCH   1  13
TORSDOF 20
ENDMDL
