MODEL 1
REMARK VINA RESULT:    -5.112      0.000      0.000
REMARK INTER + INTRA:          -5.681
REMARK INTER:                  -5.411
REMARK INTRA:                  -0.270
REMARK UNBOUND:                -0.270
REMARK SMILES CC1=CC[C@H]2[C@H]3[C@@H]1[C@]2(C)CC[C@H]3C(C)C
REMARK SMILES IDX 1 1 2 2 3 3 4 4 5 5 6 6 7 7 8 8 10 9 11 10 12 11 9 12 13 13
REMARK SMILES IDX 14 14 15 15
REMARK H PARENT
REMARK Flexibility Score: inf
ROOT
ATOM      1  C   UNL     1     132.977 134.898 140.126  1.00  0.00     0.039 C 
ATOM      2  C   UNL     1     133.457 135.125 138.723  1.00  0.00    -0.073 C 
ATOM      3  C   UNL     1     133.697 136.378 138.256  1.00  0.00    -0.027 C 
ATOM      4  C   UNL     1     134.162 136.549 136.808  1.00  0.00     0.031 C 
ATOM      5  C   UNL     1     134.314 135.157 136.114  1.00  0.00     0.003 C 
ATOM      6  C   UNL     1     135.083 134.229 137.093  1.00  0.00     0.004 C 
ATOM      7  C   UNL     1     133.714 133.961 137.761  1.00  0.00     0.024 C 
ATOM      8  C   UNL     1     133.084 134.253 136.380  1.00  0.00    -0.022 C 
ATOM      9  C   UNL     1     133.153 132.964 135.505  1.00  0.00     0.008 C 
ATOM     10  C   UNL     1     134.611 132.487 135.262  1.00  0.00     0.005 C 
ATOM     11  C   UNL     1     135.582 132.924 136.400  1.00  0.00    -0.005 C 
ATOM     12  C   UNL     1     131.668 134.874 136.332  1.00  0.00     0.012 C 
ENDROOT
BRANCH  11  13
ATOM     13  C   UNL     1     137.064 132.993 135.916  1.00  0.00    -0.014 C 
ATOM     14  C   UNL     1     137.923 131.799 136.365  1.00  0.00     0.007 C 
ATOM     15  C   UNL     1     137.147 133.154 134.390  1.00  0.00     0.007 C 
ENDBRANCH  11  13
TORSDOF 1
ENDMDL
MODEL 2
REMARK VINA RESULT:    -5.088      3.220      5.030
REMARK INTER + INTRA:          -5.655
REMARK INTER:                  -5.396
REMARK INTRA:                  -0.259
REMARK UNBOUND:                -0.270
REMARK SMILES CC1=CC[C@H]2[C@H]3[C@@H]1[C@]2(C)CC[C@H]3C(C)C
REMARK SMILES IDX 1 1 2 2 3 3 4 4 5 5 6 6 7 7 8 8 10 9 11 10 12 11 9 12 13 13
REMARK SMILES IDX 14 14 15 15
REMARK H PARENT
REMARK Flexibility Score: inf
ROOT
ATOM      1  C   UNL     1     137.582 132.960 139.878  1.00  0.00     0.039 C 
ATOM      2  C   UNL     1     137.408 133.460 138.474  1.00  0.00    -0.073 C 
ATOM      3  C   UNL     1     136.178 133.756 137.979  1.00  0.00    -0.027 C 
ATOM      4  C   UNL     1     136.060 134.239 136.532  1.00  0.00     0.031 C 
ATOM      5  C   UNL     1     137.474 134.338 135.873  1.00  0.00     0.003 C 
ATOM      6  C   UNL     1     138.409 135.060 136.879  1.00  0.00     0.004 C 
ATOM      7  C   UNL     1     138.604 133.676 137.542  1.00  0.00     0.024 C 
ATOM      8  C   UNL     1     138.320 133.069 136.148  1.00  0.00    -0.022 C 
ATOM      9  C   UNL     1     139.631 133.091 135.305  1.00  0.00     0.008 C 
ATOM     10  C   UNL     1     140.173 134.530 135.086  1.00  0.00     0.005 C 
ATOM     11  C   UNL     1     139.751 135.509 136.222  1.00  0.00    -0.005 C 
ATOM     12  C   UNL     1     137.642 131.680 136.074  1.00  0.00     0.012 C 
ENDROOT
BRANCH  11  13
ATOM     13  C   UNL     1     139.755 136.996 135.750  1.00  0.00    -0.014 C 
ATOM     14  C   UNL     1     140.872 137.847 136.377  1.00  0.00     0.007 C 
ATOM     15  C   UNL     1     139.817 137.097 134.218  1.00  0.00     0.007 C 
ENDBRANCH  11  13
TORSDOF 1
ENDMDL
MODEL 3
REMARK VINA RESULT:    -5.082      2.747      4.988
REMARK INTER + INTRA:          -5.649
REMARK INTER:                  -5.356
REMARK INTRA:                  -0.293
REMARK UNBOUND:                -0.270
REMARK SMILES CC1=CC[C@H]2[C@H]3[C@@H]1[C@]2(C)CC[C@H]3C(C)C
REMARK SMILES IDX 1 1 2 2 3 3 4 4 5 5 6 6 7 7 8 8 10 9 11 10 12 11 9 12 13 13
REMARK SMILES IDX 14 14 15 15
REMARK H PARENT
REMARK Flexibility Score: inf
ROOT
ATOM      1  C   UNL     1     134.905 139.752 140.145  1.00  0.00     0.039 C 
ATOM      2  C   UNL     1     135.141 139.236 138.757  1.00  0.00    -0.073 C 
ATOM      3  C   UNL     1     136.398 139.006 138.295  1.00  0.00    -0.027 C 
ATOM      4  C   UNL     1     136.578 138.504 136.861  1.00  0.00     0.031 C 
ATOM      5  C   UNL     1     135.189 138.306 136.173  1.00  0.00     0.003 C 
ATOM      6  C   UNL     1     134.276 137.548 137.174  1.00  0.00     0.004 C 
ATOM      7  C   UNL     1     133.982 138.930 137.803  1.00  0.00     0.024 C 
ATOM      8  C   UNL     1     134.262 139.526 136.404  1.00  0.00    -0.022 C 
ATOM      9  C   UNL     1     132.974 139.407 135.533  1.00  0.00     0.008 C 
ATOM     10  C   UNL     1     132.525 137.934 135.331  1.00  0.00     0.005 C 
ATOM     11  C   UNL     1     132.980 137.005 136.497  1.00  0.00    -0.005 C 
ATOM     12  C   UNL     1     134.856 140.952 136.316  1.00  0.00     0.012 C 
ENDROOT
BRANCH  11  13
ATOM     13  C   UNL     1     133.077 135.511 136.055  1.00  0.00    -0.014 C 
ATOM     14  C   UNL     1     134.249 134.747 136.693  1.00  0.00     0.007 C 
ATOM     15  C   UNL     1     131.760 134.764 136.314  1.00  0.00     0.007 C 
ENDBRANCH  11  13
TORSDOF 1
ENDMDL
MODEL 4
REMARK VINA RESULT:    -5.049      4.952      7.159
REMARK INTER + INTRA:          -5.614
REMARK INTER:                  -5.362
REMARK INTRA:                  -0.252
REMARK UNBOUND:                -0.270
REMARK SMILES CC1=CC[C@H]2[C@H]3[C@@H]1[C@]2(C)CC[C@H]3C(C)C
REMARK SMILES IDX 1 1 2 2 3 3 4 4 5 5 6 6 7 7 8 8 10 9 11 10 12 11 9 12 13 13
REMARK SMILES IDX 14 14 15 15
REMARK H PARENT
REMARK Flexibility Score: inf
ROOT
ATOM      1  C   UNL     1     139.616 137.574 139.846  1.00  0.00     0.039 C 
ATOM      2  C   UNL     1     139.110 137.399 138.445  1.00  0.00    -0.073 C 
ATOM      3  C   UNL     1     138.789 136.171 137.961  1.00  0.00    -0.027 C 
ATOM      4  C   UNL     1     138.301 136.050 136.516  1.00  0.00     0.031 C 
ATOM      5  C   UNL     1     138.227 137.460 135.845  1.00  0.00     0.003 C 
ATOM      6  C   UNL     1     137.526 138.417 136.846  1.00  0.00     0.004 C 
ATOM      7  C   UNL     1     138.915 138.591 137.504  1.00  0.00     0.024 C 
ATOM      8  C   UNL     1     139.513 138.284 136.112  1.00  0.00    -0.022 C 
ATOM      9  C   UNL     1     139.514 139.589 135.257  1.00  0.00     0.008 C 
ATOM     10  C   UNL     1     138.085 140.156 135.037  1.00  0.00     0.005 C 
ATOM     11  C   UNL     1     137.101 139.762 136.179  1.00  0.00    -0.005 C 
ATOM     12  C   UNL     1     140.888 137.579 136.039  1.00  0.00     0.012 C 
ENDROOT
BRANCH  11  13
ATOM     13  C   UNL     1     135.613 139.790 135.709  1.00  0.00    -0.014 C 
ATOM     14  C   UNL     1     134.756 140.855 136.415  1.00  0.00     0.007 C 
ATOM     15  C   UNL     1     135.510 139.960 134.186  1.00  0.00     0.007 C 
ENDBRANCH  11  13
TORSDOF 1
ENDMDL
MODEL 5
REMARK VINA RESULT:    -5.001      1.825      2.664
REMARK INTER + INTRA:          -5.563
REMARK INTER:                  -5.158
REMARK INTRA:                  -0.405
REMARK UNBOUND:                -0.270
REMARK SMILES CC1=CC[C@H]2[C@H]3[C@@H]1[C@]2(C)CC[C@H]3C(C)C
REMARK SMILES IDX 1 1 2 2 3 3 4 4 5 5 6 6 7 7 8 8 10 9 11 10 12 11 9 12 13 13
REMARK SMILES IDX 14 14 15 15
REMARK H PARENT
REMARK Flexibility Score: inf
ROOT
ATOM      1  C   UNL     1     131.857 134.587 136.366  1.00  0.00     0.039 C 
ATOM      2  C   UNL     1     133.208 134.742 135.733  1.00  0.00    -0.073 C 
ATOM      3  C   UNL     1     133.866 135.930 135.760  1.00  0.00    -0.027 C 
ATOM      4  C   UNL     1     135.231 136.035 135.077  1.00  0.00     0.031 C 
ATOM      5  C   UNL     1     135.647 134.654 134.472  1.00  0.00     0.003 C 
ATOM      6  C   UNL     1     135.377 133.572 135.551  1.00  0.00     0.004 C 
ATOM      7  C   UNL     1     133.916 133.570 135.046  1.00  0.00     0.024 C 
ATOM      8  C   UNL     1     134.484 134.009 133.677  1.00  0.00    -0.022 C 
ATOM      9  C   UNL     1     134.982 132.750 132.903  1.00  0.00     0.008 C 
ATOM     10  C   UNL     1     136.111 131.997 133.657  1.00  0.00     0.005 C 
ATOM     11  C   UNL     1     136.046 132.207 135.200  1.00  0.00    -0.005 C 
ATOM     12  C   UNL     1     133.606 134.902 132.767  1.00  0.00     0.012 C 
ENDROOT
BRANCH  11  13
ATOM     13  C   UNL     1     137.431 131.988 135.883  1.00  0.00    -0.014 C 
ATOM     14  C   UNL     1     138.625 132.473 135.042  1.00  0.00     0.007 C 
ATOM     15  C   UNL     1     137.476 132.633 137.277  1.00  0.00     0.007 C 
ENDBRANCH  11  13
TORSDOF 1
ENDMDL
MODEL 6
REMARK VINA RESULT:    -4.988      4.880      7.431
REMARK INTER + INTRA:          -5.549
REMARK INTER:                  -5.135
REMARK INTRA:                  -0.414
REMARK UNBOUND:                -0.270
REMARK SMILES CC1=CC[C@H]2[C@H]3[C@@H]1[C@]2(C)CC[C@H]3C(C)C
REMARK SMILES IDX 1 1 2 2 3 3 4 4 5 5 6 6 7 7 8 8 10 9 11 10 12 11 9 12 13 13
REMARK SMILES IDX 14 14 15 15
REMARK H PARENT
REMARK Flexibility Score: inf
ROOT
ATOM      1  C   UNL     1     140.870 137.890 136.378  1.00  0.00     0.039 C 
ATOM      2  C   UNL     1     139.513 137.771 135.751  1.00  0.00    -0.073 C 
ATOM      3  C   UNL     1     138.837 136.594 135.755  1.00  0.00    -0.027 C 
ATOM      4  C   UNL     1     137.466 136.526 135.078  1.00  0.00     0.031 C 
ATOM      5  C   UNL     1     137.069 137.926 134.507  1.00  0.00     0.003 C 
ATOM      6  C   UNL     1     137.362 138.980 135.608  1.00  0.00     0.004 C 
ATOM      7  C   UNL     1     138.821 138.970 135.094  1.00  0.00     0.024 C 
ATOM      8  C   UNL     1     138.238 138.570 133.719  1.00  0.00    -0.022 C 
ATOM      9  C   UNL     1     137.756 139.854 132.977  1.00  0.00     0.008 C 
ATOM     10  C   UNL     1     136.643 140.608 133.754  1.00  0.00     0.005 C 
ATOM     11  C   UNL     1     136.714 140.362 135.291  1.00  0.00    -0.005 C 
ATOM     12  C   UNL     1     139.096 137.684 132.784  1.00  0.00     0.012 C 
ENDROOT
BRANCH  11  13
ATOM     13  C   UNL     1     135.336 140.588 135.988  1.00  0.00    -0.014 C 
ATOM     14  C   UNL     1     134.127 140.227 135.108  1.00  0.00     0.007 C 
ATOM     15  C   UNL     1     135.255 139.836 137.325  1.00  0.00     0.007 C 
ENDBRANCH  11  13
TORSDOF 1
ENDMDL
MODEL 7
REMARK VINA RESULT:    -4.985      2.967      5.144
REMARK INTER + INTRA:          -5.546
REMARK INTER:                  -5.131
REMARK INTRA:                  -0.415
REMARK UNBOUND:                -0.270
REMARK SMILES CC1=CC[C@H]2[C@H]3[C@@H]1[C@]2(C)CC[C@H]3C(C)C
REMARK SMILES IDX 1 1 2 2 3 3 4 4 5 5 6 6 7 7 8 8 10 9 11 10 12 11 9 12 13 13
REMARK SMILES IDX 14 14 15 15
REMARK H PARENT
REMARK Flexibility Score: inf
ROOT
ATOM      1  C   UNL     1     134.532 140.849 136.366  1.00  0.00     0.039 C 
ATOM      2  C   UNL     1     134.713 139.489 135.762  1.00  0.00    -0.073 C 
ATOM      3  C   UNL     1     135.912 138.853 135.804  1.00  0.00    -0.027 C 
ATOM      4  C   UNL     1     136.043 137.477 135.149  1.00  0.00     0.031 C 
ATOM      5  C   UNL     1     134.672 137.025 134.549  1.00  0.00     0.003 C 
ATOM      6  C   UNL     1     133.582 137.296 135.620  1.00  0.00     0.004 C 
ATOM      7  C   UNL     1     133.556 138.747 135.086  1.00  0.00     0.024 C 
ATOM      8  C   UNL     1     134.009 138.160 133.729  1.00  0.00    -0.022 C 
ATOM      9  C   UNL     1     132.761 137.624 132.962  1.00  0.00     0.008 C 
ATOM     10  C   UNL     1     132.026 136.497 133.736  1.00  0.00     0.005 C 
ATOM     11  C   UNL     1     132.231 136.597 135.278  1.00  0.00    -0.005 C 
ATOM     12  C   UNL     1     134.889 139.035 132.804  1.00  0.00     0.012 C 
ENDROOT
BRANCH  11  13
ATOM     13  C   UNL     1     132.034 135.222 135.989  1.00  0.00    -0.014 C 
ATOM     14  C   UNL     1     132.439 134.012 135.129  1.00  0.00     0.007 C 
ATOM     15  C   UNL     1     132.771 135.177 137.336  1.00  0.00     0.007 C 
ENDBRANCH  11  13
TORSDOF 1
ENDMDL
MODEL 8
REMARK VINA RESULT:    -4.984      3.563      5.916
REMARK INTER + INTRA:          -5.546
REMARK INTER:                  -5.135
REMARK INTRA:                  -0.411
REMARK UNBOUND:                -0.270
REMARK SMILES CC1=CC[C@H]2[C@H]3[C@@H]1[C@]2(C)CC[C@H]3C(C)C
REMARK SMILES IDX 1 1 2 2 3 3 4 4 5 5 6 6 7 7 8 8 10 9 11 10 12 11 9 12 13 13
REMARK SMILES IDX 14 14 15 15
REMARK H PARENT
REMARK Flexibility Score: inf
ROOT
ATOM      1  C   UNL     1     137.886 131.861 136.382  1.00  0.00     0.039 C 
ATOM      2  C   UNL     1     137.772 133.226 135.773  1.00  0.00    -0.073 C 
ATOM      3  C   UNL     1     136.599 133.910 135.792  1.00  0.00    -0.027 C 
ATOM      4  C   UNL     1     136.536 135.290 135.133  1.00  0.00     0.031 C 
ATOM      5  C   UNL     1     137.935 135.685 134.559  1.00  0.00     0.003 C 
ATOM      6  C   UNL     1     138.993 135.371 135.651  1.00  0.00     0.004 C 
ATOM      7  C   UNL     1     138.971 133.919 135.118  1.00  0.00     0.024 C 
ATOM      8  C   UNL     1     138.567 134.522 133.753  1.00  0.00    -0.022 C 
ATOM      9  C   UNL     1     139.850 135.006 133.009  1.00  0.00     0.008 C 
ATOM     10  C   UNL     1     140.616 136.104 133.796  1.00  0.00     0.005 C 
ATOM     11  C   UNL     1     140.378 136.015 135.334  1.00  0.00    -0.005 C 
ATOM     12  C   UNL     1     137.671 133.682 132.812  1.00  0.00     0.012 C 
ENDROOT
BRANCH  11  13
ATOM     13  C   UNL     1     140.617 137.382 136.047  1.00  0.00    -0.014 C 
ATOM     14  C   UNL     1     140.216 138.604 135.202  1.00  0.00     0.007 C 
ATOM     15  C   UNL     1     139.911 137.434 137.410  1.00  0.00     0.007 C 
ENDBRANCH  11  13
TORSDOF 1
ENDMDL
MODEL 9
REMARK VINA RESULT:    -4.929      1.513      4.866
REMARK INTER + INTRA:          -5.487
REMARK INTER:                  -5.214
REMARK INTRA:                  -0.273
REMARK UNBOUND:                -0.270
REMARK SMILES CC1=CC[C@H]2[C@H]3[C@@H]1[C@]2(C)CC[C@H]3C(C)C
REMARK SMILES IDX 1 1 2 2 3 3 4 4 5 5 6 6 7 7 8 8 10 9 11 10 12 11 9 12 13 13
REMARK SMILES IDX 14 14 15 15
REMARK H PARENT
REMARK Flexibility Score: inf
ROOT
ATOM      1  C   UNL     1     139.230 135.393 135.818  1.00  0.00     0.039 C 
ATOM      2  C   UNL     1     138.294 134.222 135.760  1.00  0.00    -0.073 C 
ATOM      3  C   UNL     1     138.616 133.034 136.333  1.00  0.00    -0.027 C 
ATOM      4  C   UNL     1     137.632 131.868 136.220  1.00  0.00     0.031 C 
ATOM      5  C   UNL     1     136.347 132.310 135.447  1.00  0.00     0.003 C 
ATOM      6  C   UNL     1     135.899 133.677 136.030  1.00  0.00     0.004 C 
ATOM      7  C   UNL     1     136.930 134.315 135.070  1.00  0.00     0.024 C 
ATOM      8  C   UNL     1     136.702 133.089 134.155  1.00  0.00    -0.022 C 
ATOM      9  C   UNL     1     135.426 133.327 133.292  1.00  0.00     0.008 C 
ATOM     10  C   UNL     1     134.148 133.509 134.155  1.00  0.00     0.005 C 
ATOM     11  C   UNL     1     134.460 134.070 135.576  1.00  0.00    -0.005 C 
ATOM     12  C   UNL     1     137.876 132.597 133.276  1.00  0.00     0.012 C 
ENDROOT
BRANCH  11  13
ATOM     13  C   UNL     1     133.350 133.705 136.610  1.00  0.00    -0.014 C 
ATOM     14  C   UNL     1     133.817 133.764 138.074  1.00  0.00     0.007 C 
ATOM     15  C   UNL     1     132.101 134.579 136.422  1.00  0.00     0.007 C 
ENDBRANCH  11  13
TORSDOF 1
ENDMDL
