MODEL 1
REMARK VINA RESULT:    -5.957      0.000      0.000
REMARK INTER + INTRA:          -6.392
REMARK INTER:                  -6.305
REMARK INTRA:                  -0.087
REMARK UNBOUND:                -0.087
REMARK SMILES C=C(C)[C@@H]1CC=C(C)C(=O)C1
REMARK SMILES IDX 8 1 7 2 6 3 5 4 4 5 11 6 9 7 10 8 2 9 1 10 3 11
REMARK H PARENT
REMARK Flexibility Score: inf
ROOT
ATOM      1  C   UNL     1     -11.749  72.687  32.594  1.00  0.00     0.048 C 
ATOM      2  C   UNL     1     -11.318  73.012  31.191  1.00  0.00    -0.012 C 
ATOM      3  C   UNL     1     -11.671  72.209  30.172  1.00  0.00    -0.019 C 
ATOM      4  C   UNL     1     -11.332  72.537  28.742  1.00  0.00     0.036 C 
ATOM      5  C   UNL     1     -10.018  73.335  28.651  1.00  0.00     0.025 C 
ATOM      6  C   UNL     1     -10.093  74.593  29.534  1.00  0.00     0.089 C 
ATOM      7  C   UNL     1     -10.519  74.236  30.932  1.00  0.00     0.158 C 
ATOM      8  O   UNL     1     -10.229  75.014  31.881  1.00  0.00    -0.295 OA
ENDROOT
BRANCH   5   9
ATOM      9  C   UNL     1      -9.679  73.688  27.209  1.00  0.00    -0.077 C 
ATOM     10  C   UNL     1      -8.816  72.929  26.515  1.00  0.00     0.008 C 
ATOM     11  C   UNL     1     -10.293  74.886  26.527  1.00  0.00     0.039 C 
ENDBRANCH   5   9
TORSDOF 1
ENDMDL
MODEL 2
REMARK VINA RESULT:    -5.739      1.819      4.460
REMARK INTER + INTRA:          -6.162
REMARK INTER:                  -6.065
REMARK INTRA:                  -0.097
REMARK UNBOUND:                -0.087
REMARK SMILES C=C(C)[C@@H]1CC=C(C)C(=O)C1
REMARK SMILES IDX 8 1 7 2 6 3 5 4 4 5 11 6 9 7 10 8 2 9 1 10 3 11
REMARK H PARENT
REMARK Flexibility Score: inf
ROOT
ATOM      1  C   UNL     1      -8.779  72.758  26.460  1.00  0.00     0.048 C 
ATOM      2  C   UNL     1      -9.300  73.096  27.829  1.00  0.00    -0.012 C 
ATOM      3  C   UNL     1      -9.004  72.308  28.877  1.00  0.00    -0.019 C 
ATOM      4  C   UNL     1      -9.435  72.648  30.280  1.00  0.00     0.036 C 
ATOM      5  C   UNL     1     -10.758  73.436  30.279  1.00  0.00     0.025 C 
ATOM      6  C   UNL     1     -10.638  74.685  29.387  1.00  0.00     0.089 C 
ATOM      7  C   UNL     1     -10.122  74.315  28.023  1.00  0.00     0.158 C 
ATOM      8  O   UNL     1     -10.359  75.080  27.049  1.00  0.00    -0.295 OA
ENDROOT
BRANCH   5   9
ATOM      9  C   UNL     1     -11.189  73.803  31.693  1.00  0.00    -0.077 C 
ATOM     10  C   UNL     1     -10.880  75.007  32.199  1.00  0.00     0.008 C 
ATOM     11  C   UNL     1     -11.963  72.837  32.555  1.00  0.00     0.039 C 
ENDBRANCH   5   9
TORSDOF 1
ENDMDL
MODEL 3
REMARK VINA RESULT:    -5.727      1.778      4.985
REMARK INTER + INTRA:          -6.149
REMARK INTER:                  -6.053
REMARK INTRA:                  -0.096
REMARK UNBOUND:                -0.087
REMARK SMILES C=C(C)[C@@H]1CC=C(C)C(=O)C1
REMARK SMILES IDX 8 1 7 2 6 3 5 4 4 5 11 6 9 7 10 8 2 9 1 10 3 11
REMARK H PARENT
REMARK Flexibility Score: inf
ROOT
ATOM      1  C   UNL     1      -9.958  74.635  27.843  1.00  0.00     0.048 C 
ATOM      2  C   UNL     1     -10.292  74.201  29.243  1.00  0.00    -0.012 C 
ATOM      3  C   UNL     1      -9.697  74.791  30.294  1.00  0.00    -0.019 C 
ATOM      4  C   UNL     1     -10.058  74.447  31.715  1.00  0.00     0.036 C 
ATOM      5  C   UNL     1     -10.514  72.981  31.833  1.00  0.00     0.025 C 
ATOM      6  C   UNL     1     -11.667  72.697  30.854  1.00  0.00     0.089 C 
ATOM      7  C   UNL     1     -11.301  73.134  29.462  1.00  0.00     0.158 C 
ATOM      8  O   UNL     1     -11.895  72.614  28.478  1.00  0.00    -0.295 OA
ENDROOT
BRANCH   5   9
ATOM      9  C   UNL     1     -10.902  72.631  33.264  1.00  0.00    -0.077 C 
ATOM     10  C   UNL     1     -11.945  73.244  33.847  1.00  0.00     0.008 C 
ATOM     11  C   UNL     1     -10.137  71.601  34.058  1.00  0.00     0.039 C 
ENDBRANCH   5   9
TORSDOF 1
ENDMDL
MODEL 4
REMARK VINA RESULT:    -5.664      2.648      5.214
REMARK INTER + INTRA:          -6.082
REMARK INTER:                  -5.984
REMARK INTRA:                  -0.098
REMARK UNBOUND:                -0.087
REMARK SMILES C=C(C)[C@@H]1CC=C(C)C(=O)C1
REMARK SMILES IDX 8 1 7 2 6 3 5 4 4 5 11 6 9 7 10 8 2 9 1 10 3 11
REMARK H PARENT
REMARK Flexibility Score: inf
ROOT
ATOM      1  C   UNL     1      -8.985  73.906  23.666  1.00  0.00     0.048 C 
ATOM      2  C   UNL     1      -9.372  73.883  25.118  1.00  0.00    -0.012 C 
ATOM      3  C   UNL     1     -10.359  74.679  25.566  1.00  0.00    -0.019 C 
ATOM      4  C   UNL     1     -10.836  74.633  26.994  1.00  0.00     0.036 C 
ATOM      5  C   UNL     1      -9.695  74.236  27.949  1.00  0.00     0.025 C 
ATOM      6  C   UNL     1      -9.061  72.906  27.504  1.00  0.00     0.089 C 
ATOM      7  C   UNL     1      -8.677  72.962  26.051  1.00  0.00     0.158 C 
ATOM      8  O   UNL     1      -7.785  72.181  25.621  1.00  0.00    -0.295 OA
ENDROOT
BRANCH   5   9
ATOM      9  C   UNL     1     -10.175  74.167  29.393  1.00  0.00    -0.077 C 
ATOM     10  C   UNL     1     -11.459  73.881  29.662  1.00  0.00     0.008 C 
ATOM     11  C   UNL     1      -9.236  74.414  30.548  1.00  0.00     0.039 C 
ENDBRANCH   5   9
TORSDOF 1
ENDMDL
MODEL 5
REMARK VINA RESULT:    -5.588      1.576      1.794
REMARK INTER + INTRA:          -6.002
REMARK INTER:                  -5.904
REMARK INTRA:                  -0.098
REMARK UNBOUND:                -0.087
REMARK SMILES C=C(C)[C@@H]1CC=C(C)C(=O)C1
REMARK SMILES IDX 8 1 7 2 6 3 5 4 4 5 11 6 9 7 10 8 2 9 1 10 3 11
REMARK H PARENT
REMARK Flexibility Score: inf
ROOT
ATOM      1  C   UNL     1     -11.554  72.734  31.796  1.00  0.00     0.048 C 
ATOM      2  C   UNL     1     -10.999  72.997  30.425  1.00  0.00    -0.012 C 
ATOM      3  C   UNL     1     -11.652  73.812  29.577  1.00  0.00    -0.019 C 
ATOM      4  C   UNL     1     -11.095  74.169  28.224  1.00  0.00     0.036 C 
ATOM      5  C   UNL     1     -10.233  73.026  27.657  1.00  0.00     0.025 C 
ATOM      6  C   UNL     1      -9.129  72.639  28.658  1.00  0.00     0.089 C 
ATOM      7  C   UNL     1      -9.715  72.374  30.018  1.00  0.00     0.158 C 
ATOM      8  O   UNL     1      -9.078  71.650  30.830  1.00  0.00    -0.295 OA
ENDROOT
BRANCH   5   9
ATOM      9  C   UNL     1      -9.648  73.389  26.298  1.00  0.00    -0.077 C 
ATOM     10  C   UNL     1      -8.598  72.707  25.814  1.00  0.00     0.008 C 
ATOM     11  C   UNL     1     -10.224  74.509  25.468  1.00  0.00     0.039 C 
ENDBRANCH   5   9
TORSDOF 1
ENDMDL
MODEL 6
REMARK VINA RESULT:    -5.575      1.825      2.821
REMARK INTER + INTRA:          -5.988
REMARK INTER:                  -5.891
REMARK INTRA:                  -0.097
REMARK UNBOUND:                -0.087
REMARK SMILES C=C(C)[C@@H]1CC=C(C)C(=O)C1
REMARK SMILES IDX 8 1 7 2 6 3 5 4 4 5 11 6 9 7 10 8 2 9 1 10 3 11
REMARK H PARENT
REMARK Flexibility Score: inf
ROOT
ATOM      1  C   UNL     1     -10.903  73.372  34.659  1.00  0.00     0.048 C 
ATOM      2  C   UNL     1     -10.877  73.505  33.162  1.00  0.00    -0.012 C 
ATOM      3  C   UNL     1     -10.958  74.719  32.590  1.00  0.00    -0.019 C 
ATOM      4  C   UNL     1     -10.855  74.908  31.099  1.00  0.00     0.036 C 
ATOM      5  C   UNL     1     -11.399  73.682  30.344  1.00  0.00     0.025 C 
ATOM      6  C   UNL     1     -10.690  72.401  30.818  1.00  0.00     0.089 C 
ATOM      7  C   UNL     1     -10.739  72.292  32.318  1.00  0.00     0.158 C 
ATOM      8  O   UNL     1     -10.615  71.158  32.855  1.00  0.00    -0.295 OA
ENDROOT
BRANCH   5   9
ATOM      9  C   UNL     1     -11.278  73.858  28.835  1.00  0.00    -0.077 C 
ATOM     10  C   UNL     1     -10.129  74.297  28.299  1.00  0.00     0.008 C 
ATOM     11  C   UNL     1     -12.431  73.549  27.912  1.00  0.00     0.039 C 
ENDBRANCH   5   9
TORSDOF 1
ENDMDL
MODEL 7
REMARK VINA RESULT:    -5.516      1.876      4.847
REMARK INTER + INTRA:          -5.926
REMARK INTER:                  -5.828
REMARK INTRA:                  -0.098
REMARK UNBOUND:                -0.087
REMARK SMILES C=C(C)[C@@H]1CC=C(C)C(=O)C1
REMARK SMILES IDX 8 1 7 2 6 3 5 4 4 5 11 6 9 7 10 8 2 9 1 10 3 11
REMARK H PARENT
REMARK Flexibility Score: inf
ROOT
ATOM      1  C   UNL     1      -9.344  73.890  27.445  1.00  0.00     0.048 C 
ATOM      2  C   UNL     1      -9.841  73.530  28.818  1.00  0.00    -0.012 C 
ATOM      3  C   UNL     1     -10.819  74.251  29.393  1.00  0.00    -0.019 C 
ATOM      4  C   UNL     1     -11.404  73.880  30.731  1.00  0.00     0.036 C 
ATOM      5  C   UNL     1     -10.359  73.182  31.621  1.00  0.00     0.025 C 
ATOM      6  C   UNL     1      -9.758  71.967  30.891  1.00  0.00     0.089 C 
ATOM      7  C   UNL     1      -9.263  72.360  29.525  1.00  0.00     0.158 C 
ATOM      8  O   UNL     1      -8.380  71.655  28.965  1.00  0.00    -0.295 OA
ENDROOT
BRANCH   5   9
ATOM      9  C   UNL     1     -10.949  72.784  32.967  1.00  0.00    -0.077 C 
ATOM     10  C   UNL     1     -12.066  73.380  33.414  1.00  0.00     0.008 C 
ATOM     11  C   UNL     1     -10.305  71.726  33.827  1.00  0.00     0.039 C 
ENDBRANCH   5   9
TORSDOF 1
ENDMDL
MODEL 8
REMARK VINA RESULT:    -5.436      1.946      4.418
REMARK INTER + INTRA:          -5.841
REMARK INTER:                  -5.745
REMARK INTRA:                  -0.096
REMARK UNBOUND:                -0.087
REMARK SMILES C=C(C)[C@@H]1CC=C(C)C(=O)C1
REMARK SMILES IDX 8 1 7 2 6 3 5 4 4 5 11 6 9 7 10 8 2 9 1 10 3 11
REMARK H PARENT
REMARK Flexibility Score: inf
ROOT
ATOM      1  C   UNL     1     -10.497  73.938  25.342  1.00  0.00     0.048 C 
ATOM      2  C   UNL     1     -10.652  73.828  26.833  1.00  0.00    -0.012 C 
ATOM      3  C   UNL     1     -11.877  73.834  27.387  1.00  0.00    -0.019 C 
ATOM      4  C   UNL     1     -12.085  73.646  28.867  1.00  0.00     0.036 C 
ATOM      5  C   UNL     1     -10.892  74.194  29.671  1.00  0.00     0.025 C 
ATOM      6  C   UNL     1      -9.578  73.558  29.182  1.00  0.00     0.089 C 
ATOM      7  C   UNL     1      -9.448  73.690  27.690  1.00  0.00     0.158 C 
ATOM      8  O   UNL     1      -8.302  73.636  27.166  1.00  0.00    -0.295 OA
ENDROOT
BRANCH   5   9
ATOM      9  C   UNL     1     -11.086  73.988  31.167  1.00  0.00    -0.077 C 
ATOM     10  C   UNL     1     -11.422  72.777  31.642  1.00  0.00     0.008 C 
ATOM     11  C   UNL     1     -10.910  75.121  32.147  1.00  0.00     0.039 C 
ENDBRANCH   5   9
TORSDOF 1
ENDMDL
MODEL 9
REMARK VINA RESULT:    -5.348      2.123      5.476
REMARK INTER + INTRA:          -5.748
REMARK INTER:                  -5.657
REMARK INTRA:                  -0.091
REMARK UNBOUND:                -0.087
REMARK SMILES C=C(C)[C@@H]1CC=C(C)C(=O)C1
REMARK SMILES IDX 8 1 7 2 6 3 5 4 4 5 11 6 9 7 10 8 2 9 1 10 3 11
REMARK H PARENT
REMARK Flexibility Score: inf
ROOT
ATOM      1  C   UNL     1     -11.469  73.803  29.483  1.00  0.00     0.048 C 
ATOM      2  C   UNL     1     -11.174  73.408  30.903  1.00  0.00    -0.012 C 
ATOM      3  C   UNL     1     -11.057  72.110  31.233  1.00  0.00    -0.019 C 
ATOM      4  C   UNL     1     -10.683  71.669  32.624  1.00  0.00     0.036 C 
ATOM      5  C   UNL     1     -11.184  72.672  33.679  1.00  0.00     0.025 C 
ATOM      6  C   UNL     1     -10.671  74.088  33.359  1.00  0.00     0.089 C 
ATOM      7  C   UNL     1     -10.988  74.458  31.936  1.00  0.00     0.158 C 
ATOM      8  O   UNL     1     -11.049  75.676  31.617  1.00  0.00    -0.295 OA
ENDROOT
BRANCH   5   9
ATOM      9  C   UNL     1     -10.791  72.244  35.087  1.00  0.00    -0.077 C 
ATOM     10  C   UNL     1     -11.470  72.711  36.147  1.00  0.00     0.008 C 
ATOM     11  C   UNL     1      -9.641  71.298  35.329  1.00  0.00     0.039 C 
ENDBRANCH   5   9
TORSDOF 1
ENDMDL
