MODEL 1
REMARK VINA RESULT:    -6.031      0.000      0.000
REMARK INTER + INTRA:          -6.757
REMARK INTER:                  -6.559
REMARK INTRA:                  -0.198
REMARK UNBOUND:                -0.198
REMARK SMILES Cc1ccc(C(C)C)c(O)c1
REMARK SMILES IDX 1 1 2 2 11 3 9 4 5 5 4 6 3 7 10 8 6 10 7 11 8 12
REMARK H PARENT 10 9
REMARK Flexibility Score: inf
ROOT
ATOM      1  C   UNL     1      10.613  19.909  -5.081  1.00  0.00     0.044 C 
ATOM      2  C   UNL     1      10.865  20.748  -3.864  1.00  0.00    -0.047 A 
ATOM      3  C   UNL     1      11.747  21.836  -3.926  1.00  0.00     0.049 A 
ATOM      4  C   UNL     1      12.016  22.604  -2.784  1.00  0.00     0.119 A 
ATOM      5  C   UNL     1      11.406  22.278  -1.551  1.00  0.00    -0.004 A 
ATOM      6  C   UNL     1      10.536  21.170  -1.498  1.00  0.00     0.008 A 
ATOM      7  C   UNL     1      10.275  20.412  -2.640  1.00  0.00     0.004 A 
ENDROOT
BRANCH   4   8
ATOM      8  O   UNL     1      12.892  23.686  -2.875  1.00  0.00    -0.508 OA
ATOM      9  H   UNL     1      12.668  24.588  -2.471  1.00  0.00     0.293 HD
ENDBRANCH   4   8
BRANCH   5  10
ATOM     10  C   UNL     1      11.683  23.095  -0.298  1.00  0.00     0.017 C 
ATOM     11  C   UNL     1      10.463  23.938   0.093  1.00  0.00     0.012 C 
ATOM     12  C   UNL     1      12.125  22.194   0.861  1.00  0.00     0.012 C 
ENDBRANCH   5  10
TORSDOF 2
ENDMDL
MODEL 2
REMARK VINA RESULT:    -5.731      1.869      2.659
REMARK INTER + INTRA:          -6.432
REMARK INTER:                  -6.262
REMARK INTRA:                  -0.170
REMARK UNBOUND:                -0.198
REMARK SMILES Cc1ccc(C(C)C)c(O)c1
REMARK SMILES IDX 1 1 2 2 11 3 9 4 5 5 4 6 3 7 10 8 6 10 7 11 8 12
REMARK H PARENT 10 9
REMARK Flexibility Score: inf
ROOT
ATOM      1  C   UNL     1       9.770  19.875  -4.213  1.00  0.00     0.044 C 
ATOM      2  C   UNL     1      10.648  20.776  -3.396  1.00  0.00    -0.047 A 
ATOM      3  C   UNL     1      10.620  20.709  -1.996  1.00  0.00     0.049 A 
ATOM      4  C   UNL     1      11.411  21.572  -1.224  1.00  0.00     0.119 A 
ATOM      5  C   UNL     1      12.237  22.530  -1.855  1.00  0.00    -0.004 A 
ATOM      6  C   UNL     1      12.242  22.600  -3.262  1.00  0.00     0.008 A 
ATOM      7  C   UNL     1      11.451  21.737  -4.022  1.00  0.00     0.004 A 
ENDROOT
BRANCH   4   8
ATOM      8  O   UNL     1      11.371  21.479   0.167  1.00  0.00    -0.508 OA
ATOM      9  H   UNL     1      11.365  22.304   0.756  1.00  0.00     0.293 HD
ENDBRANCH   4   8
BRANCH   5  10
ATOM     10  C   UNL     1      13.104  23.478  -1.038  1.00  0.00     0.017 C 
ATOM     11  C   UNL     1      14.427  22.812  -0.638  1.00  0.00     0.012 C 
ATOM     12  C   UNL     1      13.354  24.787  -1.797  1.00  0.00     0.012 C 
ENDBRANCH   5  10
TORSDOF 2
ENDMDL
MODEL 3
REMARK VINA RESULT:    -5.539      1.710      2.233
REMARK INTER + INTRA:          -6.222
REMARK INTER:                  -6.075
REMARK INTRA:                  -0.147
REMARK UNBOUND:                -0.198
REMARK SMILES Cc1ccc(C(C)C)c(O)c1
REMARK SMILES IDX 1 1 2 2 11 3 9 4 5 5 4 6 3 7 10 8 6 10 7 11 8 12
REMARK H PARENT 10 9
REMARK Flexibility Score: inf
ROOT
ATOM      1  C   UNL     1       9.488  19.875  -2.117  1.00  0.00     0.044 C 
ATOM      2  C   UNL     1      10.583  20.882  -1.929  1.00  0.00    -0.047 A 
ATOM      3  C   UNL     1      11.025  21.657  -3.011  1.00  0.00     0.049 A 
ATOM      4  C   UNL     1      12.073  22.575  -2.852  1.00  0.00     0.119 A 
ATOM      5  C   UNL     1      12.704  22.719  -1.595  1.00  0.00    -0.004 A 
ATOM      6  C   UNL     1      12.263  21.922  -0.521  1.00  0.00     0.008 A 
ATOM      7  C   UNL     1      11.220  21.010  -0.688  1.00  0.00     0.004 A 
ENDROOT
BRANCH   4   8
ATOM      8  O   UNL     1      12.487  23.339  -3.943  1.00  0.00    -0.508 OA
ATOM      9  H   UNL     1      13.135  22.975  -4.632  1.00  0.00     0.293 HD
ENDBRANCH   4   8
BRANCH   5  10
ATOM     10  C   UNL     1      13.843  23.709  -1.398  1.00  0.00     0.017 C 
ATOM     11  C   UNL     1      13.311  25.135  -1.211  1.00  0.00     0.012 C 
ATOM     12  C   UNL     1      14.734  23.294  -0.221  1.00  0.00     0.012 C 
ENDBRANCH   5  10
TORSDOF 2
ENDMDL
MODEL 4
REMARK VINA RESULT:    -5.509      1.041      4.135
REMARK INTER + INTRA:          -6.190
REMARK INTER:                  -5.996
REMARK INTRA:                  -0.193
REMARK UNBOUND:                -0.198
REMARK SMILES Cc1ccc(C(C)C)c(O)c1
REMARK SMILES IDX 1 1 2 2 11 3 9 4 5 5 4 6 3 7 10 8 6 10 7 11 8 12
REMARK H PARENT 10 9
REMARK Flexibility Score: inf
ROOT
ATOM      1  C   UNL     1      11.816  22.852   0.745  1.00  0.00     0.044 C 
ATOM      2  C   UNL     1      11.623  22.300  -0.637  1.00  0.00    -0.047 A 
ATOM      3  C   UNL     1      12.007  23.050  -1.757  1.00  0.00     0.049 A 
ATOM      4  C   UNL     1      11.797  22.557  -3.054  1.00  0.00     0.119 A 
ATOM      5  C   UNL     1      11.181  21.299  -3.241  1.00  0.00    -0.004 A 
ATOM      6  C   UNL     1      10.782  20.563  -2.107  1.00  0.00     0.008 A 
ATOM      7  C   UNL     1      10.996  21.062  -0.821  1.00  0.00     0.004 A 
ENDROOT
BRANCH   4   8
ATOM      8  O   UNL     1      12.196  23.320  -4.151  1.00  0.00    -0.508 OA
ATOM      9  H   UNL     1      13.010  23.923  -4.113  1.00  0.00     0.293 HD
ENDBRANCH   4   8
BRANCH   5  10
ATOM     10  C   UNL     1      10.942  20.743  -4.637  1.00  0.00     0.017 C 
ATOM     11  C   UNL     1      12.149  19.932  -5.125  1.00  0.00     0.012 C 
ATOM     12  C   UNL     1       9.659  19.904  -4.684  1.00  0.00     0.012 C 
ENDBRANCH   5  10
TORSDOF 2
ENDMDL
MODEL 5
REMARK VINA RESULT:    -5.003      1.964      4.169
REMARK INTER + INTRA:          -5.640
REMARK INTER:                  -5.440
REMARK INTRA:                  -0.200
REMARK UNBOUND:                -0.198
REMARK SMILES Cc1ccc(C(C)C)c(O)c1
REMARK SMILES IDX 1 1 2 2 11 3 9 4 5 5 4 6 3 7 10 8 6 10 7 11 8 12
REMARK H PARENT 10 9
REMARK Flexibility Score: inf
ROOT
ATOM      1  C   UNL     1      14.040  25.490  -1.070  1.00  0.00     0.044 C 
ATOM      2  C   UNL     1      13.105  24.357  -1.373  1.00  0.00    -0.047 A 
ATOM      3  C   UNL     1      11.796  24.366  -0.869  1.00  0.00     0.049 A 
ATOM      4  C   UNL     1      10.927  23.293  -1.118  1.00  0.00     0.119 A 
ATOM      5  C   UNL     1      11.371  22.183  -1.872  1.00  0.00    -0.004 A 
ATOM      6  C   UNL     1      12.694  22.178  -2.357  1.00  0.00     0.008 A 
ATOM      7  C   UNL     1      13.551  23.249  -2.104  1.00  0.00     0.004 A 
ENDROOT
BRANCH   4   8
ATOM      8  O   UNL     1       9.628  23.331  -0.612  1.00  0.00    -0.508 OA
ATOM      9  H   UNL     1       9.309  24.089  -0.019  1.00  0.00     0.293 HD
ENDBRANCH   4   8
BRANCH   5  10
ATOM     10  C   UNL     1      10.447  21.008  -2.155  1.00  0.00     0.017 C 
ATOM     11  C   UNL     1      10.619  20.501  -3.593  1.00  0.00     0.012 C 
ATOM     12  C   UNL     1      10.667  19.878  -1.142  1.00  0.00     0.012 C 
ENDBRANCH   5  10
TORSDOF 2
ENDMDL
MODEL 6
REMARK VINA RESULT:    -4.885      1.395      3.983
REMARK INTER + INTRA:          -5.511
REMARK INTER:                  -5.464
REMARK INTRA:                  -0.047
REMARK UNBOUND:                -0.198
REMARK SMILES Cc1ccc(C(C)C)c(O)c1
REMARK SMILES IDX 1 1 2 2 11 3 9 4 5 5 4 6 3 7 10 8 6 10 7 11 8 12
REMARK H PARENT 10 9
REMARK Flexibility Score: inf
ROOT
ATOM      1  C   UNL     1      12.844  25.292  -0.631  1.00  0.00     0.044 C 
ATOM      2  C   UNL     1      12.300  24.016  -1.202  1.00  0.00    -0.047 A 
ATOM      3  C   UNL     1      13.024  23.312  -2.174  1.00  0.00     0.049 A 
ATOM      4  C   UNL     1      12.506  22.137  -2.740  1.00  0.00     0.119 A 
ATOM      5  C   UNL     1      11.238  21.659  -2.340  1.00  0.00    -0.004 A 
ATOM      6  C   UNL     1      10.512  22.386  -1.376  1.00  0.00     0.008 A 
ATOM      7  C   UNL     1      11.035  23.554  -0.819  1.00  0.00     0.004 A 
ENDROOT
BRANCH   4   8
ATOM      8  O   UNL     1      13.251  21.451  -3.699  1.00  0.00    -0.508 OA
ATOM      9  H   UNL     1      12.939  21.373  -4.660  1.00  0.00     0.293 HD
ENDBRANCH   4   8
BRANCH   5  10
ATOM     10  C   UNL     1      10.655  20.387  -2.939  1.00  0.00     0.017 C 
ATOM     11  C   UNL     1       9.472  19.875  -2.108  1.00  0.00     0.012 C 
ATOM     12  C   UNL     1      10.247  20.604  -4.402  1.00  0.00     0.012 C 
ENDBRANCH   5  10
TORSDOF 2
ENDMDL
MODEL 7
REMARK VINA RESULT:    -4.598      2.296      3.510
REMARK INTER + INTRA:          -5.199
REMARK INTER:                  -5.002
REMARK INTRA:                  -0.197
REMARK UNBOUND:                -0.198
REMARK SMILES Cc1ccc(C(C)C)c(O)c1
REMARK SMILES IDX 1 1 2 2 11 3 9 4 5 5 4 6 3 7 10 8 6 10 7 11 8 12
REMARK H PARENT 10 9
REMARK Flexibility Score: inf
ROOT
ATOM      1  C   UNL     1      11.574  25.870  -5.125  1.00  0.00     0.044 C 
ATOM      2  C   UNL     1      11.963  24.937  -4.017  1.00  0.00    -0.047 A 
ATOM      3  C   UNL     1      11.766  23.556  -4.153  1.00  0.00     0.049 A 
ATOM      4  C   UNL     1      12.094  22.680  -3.107  1.00  0.00     0.119 A 
ATOM      5  C   UNL     1      12.617  23.188  -1.897  1.00  0.00    -0.004 A 
ATOM      6  C   UNL     1      12.793  24.580  -1.765  1.00  0.00     0.008 A 
ATOM      7  C   UNL     1      12.464  25.444  -2.811  1.00  0.00     0.004 A 
ENDROOT
BRANCH   4   8
ATOM      8  O   UNL     1      11.895  21.310  -3.272  1.00  0.00    -0.508 OA
ATOM      9  H   UNL     1      11.327  20.941  -4.026  1.00  0.00     0.293 HD
ENDBRANCH   4   8
BRANCH   5  10
ATOM     10  C   UNL     1      12.980  22.259  -0.748  1.00  0.00     0.017 C 
ATOM     11  C   UNL     1      14.439  22.456  -0.316  1.00  0.00     0.012 C 
ATOM     12  C   UNL     1      12.024  22.447   0.436  1.00  0.00     0.012 C 
ENDBRANCH   5  10
TORSDOF 2
ENDMDL
MODEL 8
REMARK VINA RESULT:    -4.280      1.425      4.079
REMARK INTER + INTRA:          -4.853
REMARK INTER:                  -4.760
REMARK INTRA:                  -0.093
REMARK UNBOUND:                -0.198
REMARK SMILES Cc1ccc(C(C)C)c(O)c1
REMARK SMILES IDX 1 1 2 2 11 3 9 4 5 5 4 6 3 7 10 8 6 10 7 11 8 12
REMARK H PARENT 10 9
REMARK Flexibility Score: inf
ROOT
ATOM      1  C   UNL     1      11.863  22.279   1.541  1.00  0.00     0.044 C 
ATOM      2  C   UNL     1      11.998  22.427   0.055  1.00  0.00    -0.047 A 
ATOM      3  C   UNL     1      13.053  23.174  -0.489  1.00  0.00     0.049 A 
ATOM      4  C   UNL     1      13.166  23.346  -1.876  1.00  0.00     0.119 A 
ATOM      5  C   UNL     1      12.204  22.776  -2.741  1.00  0.00    -0.004 A 
ATOM      6  C   UNL     1      11.139  22.043  -2.181  1.00  0.00     0.008 A 
ATOM      7  C   UNL     1      11.035  21.877  -0.800  1.00  0.00     0.004 A 
ENDROOT
BRANCH   4   8
ATOM      8  O   UNL     1      14.229  24.088  -2.391  1.00  0.00    -0.508 OA
ATOM      9  H   UNL     1      14.145  24.610  -3.255  1.00  0.00     0.293 HD
ENDBRANCH   4   8
BRANCH   5  10
ATOM     10  C   UNL     1      12.305  22.949  -4.249  1.00  0.00     0.017 C 
ATOM     11  C   UNL     1      11.461  21.901  -4.985  1.00  0.00     0.012 C 
ATOM     12  C   UNL     1      11.907  24.370  -4.668  1.00  0.00     0.012 C 
ENDBRANCH   5  10
TORSDOF 2
ENDMDL
