MODEL 1
REMARK VINA RESULT:    -4.516      0.000      0.000
REMARK INTER + INTRA:         -13.285
REMARK INTER:                 -10.324
REMARK INTRA:                  -2.961
REMARK UNBOUND:                -2.961
REMARK SMILES CCCCCCCCCCCCCCCCCCCCCCCC(=O)[O-]
REMARK SMILES IDX 13 1 14 2 15 3 16 4 17 5 18 6 19 7 20 8 21 9 22 10 23 11
REMARK SMILES IDX 24 12 25 13 26 14 12 15 11 16 10 17 9 18 8 19 7 20 6 21 5 22
REMARK SMILES IDX 4 23 3 24 2 25 1 26
REMARK H PARENT
REMARK Flexibility Score: inf
ROOT
ATOM      1  C   UNL     1      18.248   6.028   1.164  1.00  0.00     0.000 C 
ENDROOT
BRANCH   1   2
ATOM      2  C   UNL     1      19.644   6.077   1.813  1.00  0.00     0.000 C 
BRANCH   2   3
ATOM      3  C   UNL     1      19.898   5.014   2.900  1.00  0.00     0.000 C 
BRANCH   3   4
ATOM      4  C   UNL     1      19.688   5.493   4.351  1.00  0.00     0.000 C 
BRANCH   4   5
ATOM      5  C   UNL     1      18.556   4.786   5.119  1.00  0.00     0.000 C 
BRANCH   5   6
ATOM      6  C   UNL     1      17.437   4.275   4.198  1.00  0.00     0.000 C 
BRANCH   6   7
ATOM      7  C   UNL     1      16.772   2.987   4.719  1.00  0.00     0.000 C 
BRANCH   7   8
ATOM      8  C   UNL     1      17.587   1.695   4.520  1.00  0.00     0.000 C 
BRANCH   8   9
ATOM      9  C   UNL     1      18.568   1.780   3.338  1.00  0.00     0.000 C 
BRANCH   9  10
ATOM     10  C   UNL     1      17.960   1.273   2.016  1.00  0.00     0.006 C 
BRANCH  10  11
ATOM     11  C   UNL     1      17.810   2.360   0.937  1.00  0.00     0.053 C 
BRANCH  11  12
ATOM     12  C   UNL     1      16.380   2.734   0.693  1.00  0.00     0.041 C 
ATOM     13  O   UNL     1      15.476   2.316   1.463  1.00  0.00    -0.550 OA
ATOM     14  O   UNL     1      16.043   3.529  -0.395  1.00  0.00    -0.550 OA
ENDBRANCH  11  12
ENDBRANCH  10  11
ENDBRANCH   9  10
ENDBRANCH   8   9
ENDBRANCH   7   8
ENDBRANCH   6   7
ENDBRANCH   5   6
ENDBRANCH   4   5
ENDBRANCH   3   4
ENDBRANCH   2   3
ENDBRANCH   1   2
BRANCH   1  15
ATOM     15  C   UNL     1      18.305   6.034  -0.373  1.00  0.00     0.000 C 
BRANCH  15  16
ATOM     16  C   UNL     1      19.357   5.060  -0.927  1.00  0.00     0.000 C 
BRANCH  16  17
ATOM     17  C   UNL     1      19.764   5.381  -2.373  1.00  0.00     0.000 C 
BRANCH  17  18
ATOM     18  C   UNL     1      19.413   4.219  -3.313  1.00  0.00    -0.000 C 
BRANCH  18  19
ATOM     19  C   UNL     1      18.847   2.994  -2.572  1.00  0.00    -0.000 C 
BRANCH  19  20
ATOM     20  C   UNL     1      17.694   2.273  -3.293  1.00  0.00    -0.000 C 
BRANCH  20  21
ATOM     21  C   UNL     1      17.819   2.329  -4.823  1.00  0.00    -0.000 C 
BRANCH  21  22
ATOM     22  C   UNL     1      16.482   1.998  -5.500  1.00  0.00    -0.000 C 
BRANCH  22  23
ATOM     23  C   UNL     1      16.023   3.092  -6.480  1.00  0.00    -0.000 C 
BRANCH  23  24
ATOM     24  C   UNL     1      16.802   4.417  -6.334  1.00  0.00    -0.000 C 
BRANCH  24  25
ATOM     25  C   UNL     1      16.067   5.598  -6.988  1.00  0.00    -0.003 C 
ATOM     26  C   UNL     1      14.595   5.619  -6.588  1.00  0.00     0.004 C 
ENDBRANCH  24  25
ENDBRANCH  23  24
ENDBRANCH  22  23
ENDBRANCH  21  22
ENDBRANCH  20  21
ENDBRANCH  19  20
ENDBRANCH  18  19
ENDBRANCH  17  18
ENDBRANCH  16  17
ENDBRANCH  15  16
ENDBRANCH   1  15
TORSDOF 22
ENDMDL
MODEL 2
REMARK VINA RESULT:    -4.247      2.892      7.936
REMARK INTER + INTRA:         -12.670
REMARK INTER:                  -9.460
REMARK INTRA:                  -3.211
REMARK UNBOUND:                -2.961
REMARK SMILES CCCCCCCCCCCCCCCCCCCCCCCC(=O)[O-]
REMARK SMILES IDX 13 1 14 2 15 3 16 4 17 5 18 6 19 7 20 8 21 9 22 10 23 11
REMARK SMILES IDX 24 12 25 13 26 14 12 15 11 16 10 17 9 18 8 19 7 20 6 21 5 22
REMARK SMILES IDX 4 23 3 24 2 25 1 26
REMARK H PARENT
REMARK Flexibility Score: inf
ROOT
ATOM      1  C   UNL     1      18.179   5.804  -0.317  1.00  0.00     0.000 C 
ENDROOT
BRANCH   1   2
ATOM      2  C   UNL     1      19.357   5.125  -1.040  1.00  0.00     0.000 C 
BRANCH   2   3
ATOM      3  C   UNL     1      19.564   5.559  -2.504  1.00  0.00     0.000 C 
BRANCH   3   4
ATOM      4  C   UNL     1      19.367   4.448  -3.555  1.00  0.00     0.000 C 
BRANCH   4   5
ATOM      5  C   UNL     1      18.653   3.182  -3.046  1.00  0.00     0.000 C 
BRANCH   5   6
ATOM      6  C   UNL     1      17.241   3.016  -3.630  1.00  0.00     0.000 C 
BRANCH   6   7
ATOM      7  C   UNL     1      17.177   1.966  -4.755  1.00  0.00     0.000 C 
BRANCH   7   8
ATOM      8  C   UNL     1      16.537   2.445  -6.072  1.00  0.00     0.000 C 
BRANCH   8   9
ATOM      9  C   UNL     1      15.764   3.767  -5.917  1.00  0.00     0.000 C 
BRANCH   9  10
ATOM     10  C   UNL     1      16.304   4.887  -6.826  1.00  0.00     0.006 C 
BRANCH  10  11
ATOM     11  C   UNL     1      17.841   4.963  -6.882  1.00  0.00     0.053 C 
BRANCH  11  12
ATOM     12  C   UNL     1      18.374   4.794  -8.271  1.00  0.00     0.041 C 
ATOM     13  O   UNL     1      17.645   4.309  -9.176  1.00  0.00    -0.550 OA
ATOM     14  O   UNL     1      19.683   5.157  -8.564  1.00  0.00    -0.550 OA
ENDBRANCH  11  12
ENDBRANCH  10  11
ENDBRANCH   9  10
ENDBRANCH   8   9
ENDBRANCH   7   8
ENDBRANCH   6   7
ENDBRANCH   5   6
ENDBRANCH   4   5
ENDBRANCH   3   4
ENDBRANCH   2   3
ENDBRANCH   1   2
BRANCH   1  15
ATOM     15  C   UNL     1      18.562   6.342   1.072  1.00  0.00     0.000 C 
BRANCH  15  16
ATOM     16  C   UNL     1      18.218   5.357   2.200  1.00  0.00     0.000 C 
BRANCH  16  17
ATOM     17  C   UNL     1      19.205   5.429   3.376  1.00  0.00     0.000 C 
BRANCH  17  18
ATOM     18  C   UNL     1      18.613   4.769   4.630  1.00  0.00    -0.000 C 
BRANCH  18  19
ATOM     19  C   UNL     1      17.243   4.112   4.375  1.00  0.00    -0.000 C 
BRANCH  19  20
ATOM     20  C   UNL     1      17.232   2.575   4.459  1.00  0.00    -0.000 C 
BRANCH  20  21
ATOM     21  C   UNL     1      18.638   1.963   4.386  1.00  0.00    -0.000 C 
BRANCH  21  22
ATOM     22  C   UNL     1      19.032   1.652   2.936  1.00  0.00    -0.000 C 
BRANCH  22  23
ATOM     23  C   UNL     1      17.816   1.538   2.000  1.00  0.00    -0.000 C 
BRANCH  23  24
ATOM     24  C   UNL     1      18.060   2.136   0.597  1.00  0.00    -0.000 C 
BRANCH  24  25
ATOM     25  C   UNL     1      16.780   2.728  -0.013  1.00  0.00    -0.003 C 
ATOM     26  C   UNL     1      15.623   2.677   0.980  1.00  0.00     0.004 C 
ENDBRANCH  24  25
ENDBRANCH  23  24
ENDBRANCH  22  23
ENDBRANCH  21  22
ENDBRANCH  20  21
ENDBRANCH  19  20
ENDBRANCH  18  19
ENDBRANCH  17  18
ENDBRANCH  16  17
ENDBRANCH  15  16
ENDBRANCH   1  15
TORSDOF 22
ENDMDL
MODEL 3
REMARK VINA RESULT:    -4.136      1.231      3.118
REMARK INTER + INTRA:         -12.417
REMARK INTER:                  -9.699
REMARK INTRA:                  -2.718
REMARK UNBOUND:                -2.961
REMARK SMILES CCCCCCCCCCCCCCCCCCCCCCCC(=O)[O-]
REMARK SMILES IDX 13 1 14 2 15 3 16 4 17 5 18 6 19 7 20 8 21 9 22 10 23 11
REMARK SMILES IDX 24 12 25 13 26 14 12 15 11 16 10 17 9 18 8 19 7 20 6 21 5 22
REMARK SMILES IDX 4 23 3 24 2 25 1 26
REMARK H PARENT
REMARK Flexibility Score: inf
ROOT
ATOM      1  C   UNL     1      17.641   2.117   0.733  1.00  0.00     0.000 C 
ENDROOT
BRANCH   1   2
ATOM      2  C   UNL     1      16.782   2.233   2.005  1.00  0.00     0.000 C 
BRANCH   2   3
ATOM      3  C   UNL     1      17.180   1.283   3.152  1.00  0.00     0.000 C 
BRANCH   3   4
ATOM      4  C   UNL     1      17.533   1.973   4.486  1.00  0.00     0.000 C 
BRANCH   4   5
ATOM      5  C   UNL     1      16.615   3.144   4.883  1.00  0.00     0.000 C 
BRANCH   5   6
ATOM      6  C   UNL     1      17.214   4.517   4.538  1.00  0.00     0.000 C 
BRANCH   6   7
ATOM      7  C   UNL     1      18.554   4.782   5.249  1.00  0.00     0.000 C 
BRANCH   7   8
ATOM      8  C   UNL     1      19.608   5.535   4.415  1.00  0.00     0.000 C 
BRANCH   8   9
ATOM      9  C   UNL     1      19.734   4.996   2.979  1.00  0.00     0.000 C 
BRANCH   9  10
ATOM     10  C   UNL     1      19.668   6.107   1.914  1.00  0.00     0.006 C 
BRANCH  10  11
ATOM     11  C   UNL     1      18.283   6.268   1.262  1.00  0.00     0.053 C 
BRANCH  11  12
ATOM     12  C   UNL     1      18.246   5.753  -0.144  1.00  0.00     0.041 C 
ATOM     13  O   UNL     1      17.217   5.171  -0.578  1.00  0.00    -0.550 OA
ATOM     14  O   UNL     1      19.353   5.900  -0.970  1.00  0.00    -0.550 OA
ENDBRANCH  11  12
ENDBRANCH  10  11
ENDBRANCH   9  10
ENDBRANCH   8   9
ENDBRANCH   7   8
ENDBRANCH   6   7
ENDBRANCH   5   6
ENDBRANCH   4   5
ENDBRANCH   3   4
ENDBRANCH   2   3
ENDBRANCH   1   2
BRANCH   1  15
ATOM     15  C   UNL     1      19.149   2.067   1.035  1.00  0.00     0.000 C 
BRANCH  15  16
ATOM     16  C   UNL     1      20.006   2.435  -0.186  1.00  0.00     0.000 C 
BRANCH  16  17
ATOM     17  C   UNL     1      19.453   1.859  -1.499  1.00  0.00     0.000 C 
BRANCH  17  18
ATOM     18  C   UNL     1      19.784   2.778  -2.683  1.00  0.00    -0.000 C 
BRANCH  18  19
ATOM     19  C   UNL     1      18.543   3.476  -3.270  1.00  0.00    -0.000 C 
BRANCH  19  20
ATOM     20  C   UNL     1      17.381   2.537  -3.640  1.00  0.00    -0.000 C 
BRANCH  20  21
ATOM     21  C   UNL     1      17.503   1.968  -5.061  1.00  0.00    -0.000 C 
BRANCH  21  22
ATOM     22  C   UNL     1      16.153   2.007  -5.790  1.00  0.00    -0.000 C 
BRANCH  22  23
ATOM     23  C   UNL     1      16.109   3.066  -6.906  1.00  0.00    -0.000 C 
BRANCH  23  24
ATOM     24  C   UNL     1      16.772   4.404  -6.513  1.00  0.00    -0.000 C 
BRANCH  24  25
ATOM     25  C   UNL     1      16.026   5.616  -7.094  1.00  0.00    -0.003 C 
ATOM     26  C   UNL     1      14.605   5.700  -6.547  1.00  0.00     0.004 C 
ENDBRANCH  24  25
ENDBRANCH  23  24
ENDBRANCH  22  23
ENDBRANCH  21  22
ENDBRANCH  20  21
ENDBRANCH  19  20
ENDBRANCH  18  19
ENDBRANCH  17  18
ENDBRANCH  16  17
ENDBRANCH  15  16
ENDBRANCH   1  15
TORSDOF 22
ENDMDL
MODEL 4
REMARK VINA RESULT:    -4.076      2.289      8.477
REMARK INTER + INTRA:         -12.279
REMARK INTER:                  -9.804
REMARK INTRA:                  -2.475
REMARK UNBOUND:                -2.961
REMARK SMILES CCCCCCCCCCCCCCCCCCCCCCCC(=O)[O-]
REMARK SMILES IDX 13 1 14 2 15 3 16 4 17 5 18 6 19 7 20 8 21 9 22 10 23 11
REMARK SMILES IDX 24 12 25 13 26 14 12 15 11 16 10 17 9 18 8 19 7 20 6 21 5 22
REMARK SMILES IDX 4 23 3 24 2 25 1 26
REMARK H PARENT
REMARK Flexibility Score: inf
ROOT
ATOM      1  C   UNL     1      17.544   5.001  -0.745  1.00  0.00     0.000 C 
ENDROOT
BRANCH   1   2
ATOM      2  C   UNL     1      18.124   3.817  -1.540  1.00  0.00     0.000 C 
BRANCH   2   3
ATOM      3  C   UNL     1      17.130   3.115  -2.487  1.00  0.00     0.000 C 
BRANCH   3   4
ATOM      4  C   UNL     1      17.740   2.027  -3.394  1.00  0.00     0.000 C 
BRANCH   4   5
ATOM      5  C   UNL     1      17.111   1.911  -4.794  1.00  0.00     0.000 C 
BRANCH   5   6
ATOM      6  C   UNL     1      18.040   2.412  -5.911  1.00  0.00     0.000 C 
BRANCH   6   7
ATOM      7  C   UNL     1      18.951   3.569  -5.460  1.00  0.00     0.000 C 
BRANCH   7   8
ATOM      8  C   UNL     1      18.812   4.874  -6.266  1.00  0.00     0.000 C 
BRANCH   8   9
ATOM      9  C   UNL     1      18.474   4.631  -7.747  1.00  0.00     0.000 C 
BRANCH   9  10
ATOM     10  C   UNL     1      17.057   5.105  -8.124  1.00  0.00     0.006 C 
BRANCH  10  11
ATOM     11  C   UNL     1      16.365   5.940  -7.032  1.00  0.00     0.053 C 
BRANCH  11  12
ATOM     12  C   UNL     1      15.027   5.387  -6.648  1.00  0.00     0.041 C 
ATOM     13  O   UNL     1      14.016   6.138  -6.618  1.00  0.00    -0.550 OA
ATOM     14  O   UNL     1      14.897   4.047  -6.307  1.00  0.00    -0.550 OA
ENDBRANCH  11  12
ENDBRANCH  10  11
ENDBRANCH   9  10
ENDBRANCH   8   9
ENDBRANCH   7   8
ENDBRANCH   6   7
ENDBRANCH   5   6
ENDBRANCH   4   5
ENDBRANCH   3   4
ENDBRANCH   2   3
ENDBRANCH   1   2
BRANCH   1  15
ATOM     15  C   UNL     1      18.576   6.114  -0.496  1.00  0.00     0.000 C 
BRANCH  15  16
ATOM     16  C   UNL     1      18.683   6.497   0.988  1.00  0.00     0.000 C 
BRANCH  16  17
ATOM     17  C   UNL     1      18.256   5.360   1.930  1.00  0.00     0.000 C 
BRANCH  17  18
ATOM     18  C   UNL     1      19.422   4.929   2.831  1.00  0.00    -0.000 C 
BRANCH  18  19
ATOM     19  C   UNL     1      19.235   5.351   4.300  1.00  0.00    -0.000 C 
BRANCH  19  20
ATOM     20  C   UNL     1      18.557   4.301   5.199  1.00  0.00    -0.000 C 
BRANCH  20  21
ATOM     21  C   UNL     1      17.068   4.113   4.877  1.00  0.00    -0.000 C 
BRANCH  21  22
ATOM     22  C   UNL     1      16.627   2.664   5.124  1.00  0.00    -0.000 C 
BRANCH  22  23
ATOM     23  C   UNL     1      16.074   1.985   3.859  1.00  0.00    -0.000 C 
BRANCH  23  24
ATOM     24  C   UNL     1      17.170   1.394   2.947  1.00  0.00    -0.000 C 
BRANCH  24  25
ATOM     25  C   UNL     1      17.169   2.031   1.549  1.00  0.00    -0.003 C 
ATOM     26  C   UNL     1      15.781   2.545   1.180  1.00  0.00     0.004 C 
ENDBRANCH  24  25
ENDBRANCH  23  24
ENDBRANCH  22  23
ENDBRANCH  21  22
ENDBRANCH  20  21
ENDBRANCH  19  20
ENDBRANCH  18  19
ENDBRANCH  17  18
ENDBRANCH  16  17
ENDBRANCH  15  16
ENDBRANCH   1  15
TORSDOF 22
ENDMDL
MODEL 5
REMARK VINA RESULT:    -4.052      1.595      4.044
REMARK INTER + INTRA:         -12.225
REMARK INTER:                  -9.281
REMARK INTRA:                  -2.944
REMARK UNBOUND:                -2.961
REMARK SMILES CCCCCCCCCCCCCCCCCCCCCCCC(=O)[O-]
REMARK SMILES IDX 13 1 14 2 15 3 16 4 17 5 18 6 19 7 20 8 21 9 22 10 23 11
REMARK SMILES IDX 24 12 25 13 26 14 12 15 11 16 10 17 9 18 8 19 7 20 6 21 5 22
REMARK SMILES IDX 4 23 3 24 2 25 1 26
REMARK H PARENT
REMARK Flexibility Score: inf
ROOT
ATOM      1  C   UNL     1      18.092   2.315  -2.195  1.00  0.00     0.000 C 
ENDROOT
BRANCH   1   2
ATOM      2  C   UNL     1      17.932   3.292  -1.016  1.00  0.00     0.000 C 
BRANCH   2   3
ATOM      3  C   UNL     1      19.224   3.583  -0.227  1.00  0.00     0.000 C 
BRANCH   3   4
ATOM      4  C   UNL     1      19.678   5.057  -0.229  1.00  0.00     0.000 C 
BRANCH   4   5
ATOM      5  C   UNL     1      18.579   6.084   0.100  1.00  0.00     0.000 C 
BRANCH   5   6
ATOM      6  C   UNL     1      18.103   6.002   1.560  1.00  0.00     0.000 C 
BRANCH   6   7
ATOM      7  C   UNL     1      19.253   5.747   2.552  1.00  0.00     0.000 C 
BRANCH   7   8
ATOM      8  C   UNL     1      19.084   4.512   3.456  1.00  0.00     0.000 C 
BRANCH   8   9
ATOM      9  C   UNL     1      17.677   4.405   4.070  1.00  0.00     0.000 C 
BRANCH   9  10
ATOM     10  C   UNL     1      17.372   3.002   4.629  1.00  0.00     0.006 C 
BRANCH  10  11
ATOM     11  C   UNL     1      16.234   2.269   3.895  1.00  0.00     0.053 C 
BRANCH  11  12
ATOM     12  C   UNL     1      16.548   2.020   2.451  1.00  0.00     0.041 C 
ATOM     13  O   UNL     1      15.734   2.370   1.556  1.00  0.00    -0.550 OA
ATOM     14  O   UNL     1      17.732   1.388   2.094  1.00  0.00    -0.550 OA
ENDBRANCH  11  12
ENDBRANCH  10  11
ENDBRANCH   9  10
ENDBRANCH   8   9
ENDBRANCH   7   8
ENDBRANCH   6   7
ENDBRANCH   5   6
ENDBRANCH   4   5
ENDBRANCH   3   4
ENDBRANCH   2   3
ENDBRANCH   1   2
BRANCH   1  15
ATOM     15  C   UNL     1      19.119   2.798  -3.233  1.00  0.00     0.000 C 
BRANCH  15  16
ATOM     16  C   UNL     1      18.542   2.842  -4.657  1.00  0.00     0.000 C 
BRANCH  16  17
ATOM     17  C   UNL     1      17.075   2.390  -4.719  1.00  0.00     0.000 C 
BRANCH  17  18
ATOM     18  C   UNL     1      16.687   1.983  -6.148  1.00  0.00    -0.000 C 
BRANCH  18  19
ATOM     19  C   UNL     1      15.650   2.928  -6.783  1.00  0.00    -0.000 C 
BRANCH  19  20
ATOM     20  C   UNL     1      15.402   4.237  -6.011  1.00  0.00    -0.000 C 
BRANCH  20  21
ATOM     21  C   UNL     1      15.659   5.489  -6.862  1.00  0.00    -0.000 C 
BRANCH  21  22
ATOM     22  C   UNL     1      16.815   5.262  -7.846  1.00  0.00    -0.000 C 
BRANCH  22  23
ATOM     23  C   UNL     1      18.180   5.674  -7.267  1.00  0.00    -0.000 C 
BRANCH  23  24
ATOM     24  C   UNL     1      19.344   4.772  -7.733  1.00  0.00    -0.000 C 
BRANCH  24  25
ATOM     25  C   UNL     1      18.869   3.644  -8.663  1.00  0.00    -0.003 C 
ATOM     26  C   UNL     1      19.570   2.330  -8.334  1.00  0.00     0.004 C 
ENDBRANCH  24  25
ENDBRANCH  23  24
ENDBRANCH  22  23
ENDBRANCH  21  22
ENDBRANCH  20  21
ENDBRANCH  19  20
ENDBRANCH  18  19
ENDBRANCH  17  18
ENDBRANCH  16  17
ENDBRANCH  15  16
ENDBRANCH   1  15
TORSDOF 22
ENDMDL
MODEL 6
REMARK VINA RESULT:    -3.816      2.262      8.821
REMARK INTER + INTRA:         -11.685
REMARK INTER:                  -9.311
REMARK INTRA:                  -2.374
REMARK UNBOUND:                -2.961
REMARK SMILES CCCCCCCCCCCCCCCCCCCCCCCC(=O)[O-]
REMARK SMILES IDX 13 1 14 2 15 3 16 4 17 5 18 6 19 7 20 8 21 9 22 10 23 11
REMARK SMILES IDX 24 12 25 13 26 14 12 15 11 16 10 17 9 18 8 19 7 20 6 21 5 22
REMARK SMILES IDX 4 23 3 24 2 25 1 26
REMARK H PARENT
REMARK Flexibility Score: inf
ROOT
ATOM      1  C   UNL     1      16.590   3.758  -1.039  1.00  0.00     0.000 C 
ENDROOT
BRANCH   1   2
ATOM      2  C   UNL     1      17.528   2.888  -1.894  1.00  0.00     0.000 C 
BRANCH   2   3
ATOM      3  C   UNL     1      18.799   3.598  -2.400  1.00  0.00     0.000 C 
BRANCH   3   4
ATOM      4  C   UNL     1      18.831   3.895  -3.913  1.00  0.00     0.000 C 
BRANCH   4   5
ATOM      5  C   UNL     1      18.615   2.674  -4.826  1.00  0.00     0.000 C 
BRANCH   5   6
ATOM      6  C   UNL     1      19.581   2.642  -6.021  1.00  0.00     0.000 C 
BRANCH   6   7
ATOM      7  C   UNL     1      18.857   2.533  -7.376  1.00  0.00     0.000 C 
BRANCH   7   8
ATOM      8  C   UNL     1      18.989   3.760  -8.298  1.00  0.00     0.000 C 
BRANCH   8   9
ATOM      9  C   UNL     1      17.696   4.589  -8.383  1.00  0.00     0.000 C 
BRANCH   9  10
ATOM     10  C   UNL     1      17.345   5.290  -7.057  1.00  0.00     0.006 C 
BRANCH  10  11
ATOM     11  C   UNL     1      16.058   6.134  -7.116  1.00  0.00     0.053 C 
BRANCH  11  12
ATOM     12  C   UNL     1      14.857   5.384  -6.626  1.00  0.00     0.041 C 
ATOM     13  O   UNL     1      14.978   4.208  -6.192  1.00  0.00    -0.550 OA
ATOM     14  O   UNL     1      13.602   5.978  -6.662  1.00  0.00    -0.550 OA
ENDBRANCH  11  12
ENDBRANCH  10  11
ENDBRANCH   9  10
ENDBRANCH   8   9
ENDBRANCH   7   8
ENDBRANCH   6   7
ENDBRANCH   5   6
ENDBRANCH   4   5
ENDBRANCH   3   4
ENDBRANCH   2   3
ENDBRANCH   1   2
BRANCH   1  15
ATOM     15  C   UNL     1      16.954   3.736   0.455  1.00  0.00     0.000 C 
BRANCH  15  16
ATOM     16  C   UNL     1      16.621   2.393   1.123  1.00  0.00     0.000 C 
BRANCH  16  17
ATOM     17  C   UNL     1      17.870   1.643   1.612  1.00  0.00     0.000 C 
BRANCH  17  18
ATOM     18  C   UNL     1      17.899   1.568   3.145  1.00  0.00    -0.000 C 
BRANCH  18  19
ATOM     19  C   UNL     1      16.562   1.969   3.794  1.00  0.00    -0.000 C 
BRANCH  19  20
ATOM     20  C   UNL     1      16.648   3.132   4.799  1.00  0.00    -0.000 C 
BRANCH  20  21
ATOM     21  C   UNL     1      17.345   4.371   4.220  1.00  0.00    -0.000 C 
BRANCH  21  22
ATOM     22  C   UNL     1      18.523   4.807   5.101  1.00  0.00    -0.000 C 
BRANCH  22  23
ATOM     23  C   UNL     1      19.854   4.864   4.333  1.00  0.00    -0.000 C 
BRANCH  23  24
ATOM     24  C   UNL     1      19.692   4.708   2.805  1.00  0.00    -0.000 C 
BRANCH  24  25
ATOM     25  C   UNL     1      19.864   6.042   2.062  1.00  0.00    -0.003 C 
ATOM     26  C   UNL     1      18.562   6.471   1.393  1.00  0.00     0.004 C 
ENDBRANCH  24  25
ENDBRANCH  23  24
ENDBRANCH  22  23
ENDBRANCH  21  22
ENDBRANCH  20  21
ENDBRANCH  19  20
ENDBRANCH  18  19
ENDBRANCH  17  18
ENDBRANCH  16  17
ENDBRANCH  15  16
ENDBRANCH   1  15
TORSDOF 22
ENDMDL
MODEL 7
REMARK VINA RESULT:    -3.812      2.530      8.673
REMARK INTER + INTRA:         -11.676
REMARK INTER:                  -9.041
REMARK INTRA:                  -2.635
REMARK UNBOUND:                -2.961
REMARK SMILES CCCCCCCCCCCCCCCCCCCCCCCC(=O)[O-]
REMARK SMILES IDX 13 1 14 2 15 3 16 4 17 5 18 6 19 7 20 8 21 9 22 10 23 11
REMARK SMILES IDX 24 12 25 13 26 14 12 15 11 16 10 17 9 18 8 19 7 20 6 21 5 22
REMARK SMILES IDX 4 23 3 24 2 25 1 26
REMARK H PARENT
REMARK Flexibility Score: inf
ROOT
ATOM      1  C   UNL     1      16.937   3.115   1.003  1.00  0.00     0.000 C 
ENDROOT
BRANCH   1   2
ATOM      2  C   UNL     1      16.104   3.135  -0.292  1.00  0.00     0.000 C 
BRANCH   2   3
ATOM      3  C   UNL     1      16.736   3.912  -1.464  1.00  0.00     0.000 C 
BRANCH   3   4
ATOM      4  C   UNL     1      17.533   3.056  -2.469  1.00  0.00     0.000 C 
BRANCH   4   5
ATOM      5  C   UNL     1      18.985   3.509  -2.711  1.00  0.00     0.000 C 
BRANCH   5   6
ATOM      6  C   UNL     1      19.300   3.739  -4.198  1.00  0.00     0.000 C 
BRANCH   6   7
ATOM      7  C   UNL     1      18.836   2.577  -5.096  1.00  0.00     0.000 C 
BRANCH   7   8
ATOM      8  C   UNL     1      18.307   2.985  -6.484  1.00  0.00     0.000 C 
BRANCH   8   9
ATOM      9  C   UNL     1      17.082   2.164  -6.924  1.00  0.00     0.000 C 
BRANCH   9  10
ATOM     10  C   UNL     1      15.758   2.715  -6.362  1.00  0.00     0.006 C 
BRANCH  10  11
ATOM     11  C   UNL     1      15.879   4.114  -5.732  1.00  0.00     0.053 C 
BRANCH  11  12
ATOM     12  C   UNL     1      15.464   5.205  -6.671  1.00  0.00     0.041 C 
ATOM     13  O   UNL     1      16.274   5.645  -7.529  1.00  0.00    -0.550 OA
ATOM     14  O   UNL     1      14.188   5.748  -6.588  1.00  0.00    -0.550 OA
ENDBRANCH  11  12
ENDBRANCH  10  11
ENDBRANCH   9  10
ENDBRANCH   8   9
ENDBRANCH   7   8
ENDBRANCH   6   7
ENDBRANCH   5   6
ENDBRANCH   4   5
ENDBRANCH   3   4
ENDBRANCH   2   3
ENDBRANCH   1   2
BRANCH   1  15
ATOM     15  C   UNL     1      17.992   1.996   1.015  1.00  0.00     0.000 C 
BRANCH  15  16
ATOM     16  C   UNL     1      19.417   2.527   0.790  1.00  0.00     0.000 C 
BRANCH  16  17
ATOM     17  C   UNL     1      19.977   3.267   2.015  1.00  0.00     0.000 C 
BRANCH  17  18
ATOM     18  C   UNL     1      19.896   4.788   1.822  1.00  0.00    -0.000 C 
BRANCH  18  19
ATOM     19  C   UNL     1      19.102   5.495   2.936  1.00  0.00    -0.000 C 
BRANCH  19  20
ATOM     20  C   UNL     1      19.663   5.304   4.357  1.00  0.00    -0.000 C 
BRANCH  20  21
ATOM     21  C   UNL     1      18.691   4.562   5.287  1.00  0.00    -0.000 C 
BRANCH  21  22
ATOM     22  C   UNL     1      17.312   4.404   4.633  1.00  0.00    -0.000 C 
BRANCH  22  23
ATOM     23  C   UNL     1      16.907   2.931   4.445  1.00  0.00    -0.000 C 
BRANCH  23  24
ATOM     24  C   UNL     1      17.750   1.948   5.285  1.00  0.00    -0.000 C 
BRANCH  24  25
ATOM     25  C   UNL     1      16.883   1.091   6.222  1.00  0.00    -0.003 C 
ATOM     26  C   UNL     1      15.443   1.018   5.722  1.00  0.00     0.004 C 
ENDBRANCH  24  25
ENDBRANCH  23  24
ENDBRANCH  22  23
ENDBRANCH  21  22
ENDBRANCH  20  21
ENDBRANCH  19  20
ENDBRANCH  18  19
ENDBRANCH  17  18
ENDBRANCH  16  17
ENDBRANCH  15  16
ENDBRANCH   1  15
TORSDOF 22
ENDMDL
MODEL 8
REMARK VINA RESULT:    -3.755      4.220      7.970
REMARK INTER + INTRA:         -11.545
REMARK INTER:                  -9.210
REMARK INTRA:                  -2.335
REMARK UNBOUND:                -2.961
REMARK SMILES CCCCCCCCCCCCCCCCCCCCCCCC(=O)[O-]
REMARK SMILES IDX 13 1 14 2 15 3 16 4 17 5 18 6 19 7 20 8 21 9 22 10 23 11
REMARK SMILES IDX 24 12 25 13 26 14 12 15 11 16 10 17 9 18 8 19 7 20 6 21 5 22
REMARK SMILES IDX 4 23 3 24 2 25 1 26
REMARK H PARENT
REMARK Flexibility Score: inf
ROOT
ATOM      1  C   UNL     1      15.462   5.376  -7.085  1.00  0.00     0.000 C 
ENDROOT
BRANCH   1   2
ATOM      2  C   UNL     1      15.274   4.289  -6.010  1.00  0.00     0.000 C 
BRANCH   2   3
ATOM      3  C   UNL     1      15.634   2.858  -6.457  1.00  0.00     0.000 C 
BRANCH   3   4
ATOM      4  C   UNL     1      16.827   2.217  -5.720  1.00  0.00     0.000 C 
BRANCH   4   5
ATOM      5  C   UNL     1      18.180   2.316  -6.450  1.00  0.00     0.000 C 
BRANCH   5   6
ATOM      6  C   UNL     1      19.292   2.910  -5.570  1.00  0.00     0.000 C 
BRANCH   6   7
ATOM      7  C   UNL     1      18.754   3.566  -4.284  1.00  0.00     0.000 C 
BRANCH   7   8
ATOM      8  C   UNL     1      19.068   2.815  -2.977  1.00  0.00     0.000 C 
BRANCH   8   9
ATOM      9  C   UNL     1      17.812   2.510  -2.143  1.00  0.00     0.000 C 
BRANCH   9  10
ATOM     10  C   UNL     1      17.188   3.772  -1.516  1.00  0.00     0.006 C 
BRANCH  10  11
ATOM     11  C   UNL     1      17.806   4.170  -0.163  1.00  0.00     0.053 C 
BRANCH  11  12
ATOM     12  C   UNL     1      18.212   5.611  -0.119  1.00  0.00     0.041 C 
ATOM     13  O   UNL     1      18.606   6.191  -1.165  1.00  0.00    -0.550 OA
ATOM     14  O   UNL     1      18.173   6.311   1.081  1.00  0.00    -0.550 OA
ENDBRANCH  11  12
ENDBRANCH  10  11
ENDBRANCH   9  10
ENDBRANCH   8   9
ENDBRANCH   7   8
ENDBRANCH   6   7
ENDBRANCH   5   6
ENDBRANCH   4   5
ENDBRANCH   3   4
ENDBRANCH   2   3
ENDBRANCH   1   2
BRANCH   1  15
ATOM     15  C   UNL     1      16.862   5.347  -7.722  1.00  0.00     0.000 C 
BRANCH  15  16
ATOM     16  C   UNL     1      17.895   6.144  -6.910  1.00  0.00     0.000 C 
BRANCH  16  17
ATOM     17  C   UNL     1      19.296   6.122  -7.541  1.00  0.00     0.000 C 
BRANCH  17  18
ATOM     18  C   UNL     1      20.125   7.328  -7.078  1.00  0.00    -0.000 C 
BRANCH  18  19
ATOM     19  C   UNL     1      19.555   8.674  -7.564  1.00  0.00    -0.000 C 
BRANCH  19  20
ATOM     20  C   UNL     1      19.919   9.889  -6.691  1.00  0.00    -0.000 C 
BRANCH  20  21
ATOM     21  C   UNL     1      18.945  11.063  -6.866  1.00  0.00    -0.000 C 
BRANCH  21  22
ATOM     22  C   UNL     1      19.288  12.213  -5.910  1.00  0.00    -0.000 C 
BRANCH  22  23
ATOM     23  C   UNL     1      18.039  12.933  -5.371  1.00  0.00    -0.000 C 
BRANCH  23  24
ATOM     24  C   UNL     1      16.721  12.439  -6.005  1.00  0.00    -0.000 C 
BRANCH  24  25
ATOM     25  C   UNL     1      15.927  13.580  -6.661  1.00  0.00    -0.003 C 
ATOM     26  C   UNL     1      15.131  13.076  -7.860  1.00  0.00     0.004 C 
ENDBRANCH  24  25
ENDBRANCH  23  24
ENDBRANCH  22  23
ENDBRANCH  21  22
ENDBRANCH  20  21
ENDBRANCH  19  20
ENDBRANCH  18  19
ENDBRANCH  17  18
ENDBRANCH  16  17
ENDBRANCH  15  16
ENDBRANCH   1  15
TORSDOF 22
ENDMDL
MODEL 9
REMARK VINA RESULT:    -3.682      4.054      7.354
REMARK INTER + INTRA:         -11.378
REMARK INTER:                  -9.484
REMARK INTRA:                  -1.894
REMARK UNBOUND:                -2.961
REMARK SMILES CCCCCCCCCCCCCCCCCCCCCCCC(=O)[O-]
REMARK SMILES IDX 13 1 14 2 15 3 16 4 17 5 18 6 19 7 20 8 21 9 22 10 23 11
REMARK SMILES IDX 24 12 25 13 26 14 12 15 11 16 10 17 9 18 8 19 7 20 6 21 5 22
REMARK SMILES IDX 4 23 3 24 2 25 1 26
REMARK H PARENT
REMARK Flexibility Score: inf
ROOT
ATOM      1  C   UNL     1      15.531   4.778  -6.667  1.00  0.00     0.000 C 
ENDROOT
BRANCH   1   2
ATOM      2  C   UNL     1      15.907   3.879  -5.475  1.00  0.00     0.000 C 
BRANCH   2   3
ATOM      3  C   UNL     1      16.432   2.479  -5.851  1.00  0.00     0.000 C 
BRANCH   3   4
ATOM      4  C   UNL     1      17.488   1.892  -4.893  1.00  0.00     0.000 C 
BRANCH   4   5
ATOM      5  C   UNL     1      17.819   2.763  -3.666  1.00  0.00     0.000 C 
BRANCH   5   6
ATOM      6  C   UNL     1      19.249   3.325  -3.700  1.00  0.00     0.000 C 
BRANCH   6   7
ATOM      7  C   UNL     1      19.340   4.764  -3.159  1.00  0.00     0.000 C 
BRANCH   7   8
ATOM      8  C   UNL     1      19.602   4.886  -1.646  1.00  0.00     0.000 C 
BRANCH   8   9
ATOM      9  C   UNL     1      18.439   5.549  -0.888  1.00  0.00     0.000 C 
BRANCH   9  10
ATOM     10  C   UNL     1      17.218   4.623  -0.735  1.00  0.00     0.006 C 
BRANCH  10  11
ATOM     11  C   UNL     1      17.521   3.301  -0.007  1.00  0.00     0.053 C 
BRANCH  11  12
ATOM     12  C   UNL     1      16.531   3.002   1.077  1.00  0.00     0.041 C 
ATOM     13  O   UNL     1      16.907   2.935   2.277  1.00  0.00    -0.550 OA
ATOM     14  O   UNL     1      15.196   2.782   0.761  1.00  0.00    -0.550 OA
ENDBRANCH  11  12
ENDBRANCH  10  11
ENDBRANCH   9  10
ENDBRANCH   8   9
ENDBRANCH   7   8
ENDBRANCH   6   7
ENDBRANCH   5   6
ENDBRANCH   4   5
ENDBRANCH   3   4
ENDBRANCH   2   3
ENDBRANCH   1   2
BRANCH   1  15
ATOM     15  C   UNL     1      16.654   5.755  -7.053  1.00  0.00     0.000 C 
BRANCH  15  16
ATOM     16  C   UNL     1      17.846   5.050  -7.719  1.00  0.00     0.000 C 
BRANCH  16  17
ATOM     17  C   UNL     1      19.188   5.383  -7.049  1.00  0.00     0.000 C 
BRANCH  17  18
ATOM     18  C   UNL     1      19.880   6.554  -7.760  1.00  0.00    -0.000 C 
BRANCH  18  19
ATOM     19  C   UNL     1      20.125   7.761  -6.837  1.00  0.00    -0.000 C 
BRANCH  19  20
ATOM     20  C   UNL     1      20.036   9.136  -7.524  1.00  0.00    -0.000 C 
BRANCH  20  21
ATOM     21  C   UNL     1      19.702  10.272  -6.546  1.00  0.00    -0.000 C 
BRANCH  21  22
ATOM     22  C   UNL     1      18.497  11.087  -7.035  1.00  0.00    -0.000 C 
BRANCH  22  23
ATOM     23  C   UNL     1      17.540  11.479  -5.896  1.00  0.00    -0.000 C 
BRANCH  23  24
ATOM     24  C   UNL     1      16.865  12.852  -6.102  1.00  0.00    -0.000 C 
BRANCH  24  25
ATOM     25  C   UNL     1      17.753  14.013  -5.628  1.00  0.00    -0.003 C 
ATOM     26  C   UNL     1      16.910  15.206  -5.190  1.00  0.00     0.004 C 
ENDBRANCH  24  25
ENDBRANCH  23  24
ENDBRANCH  22  23
ENDBRANCH  21  22
ENDBRANCH  20  21
ENDBRANCH  19  20
ENDBRANCH  18  19
ENDBRANCH  17  18
ENDBRANCH  16  17
ENDBRANCH  15  16
ENDBRANCH   1  15
TORSDOF 22
ENDMDL
