MODEL 1
REMARK VINA RESULT:     4.043      0.000      0.000
REMARK INTER + INTRA:           4.191
REMARK INTER:                   4.753
REMARK INTRA:                  -0.561
REMARK UNBOUND:                -0.561
REMARK SMILES C=C(C)[C@H]1CC[C@]2(C(=O)[O-])CC[C@]3(C)[C@H](CC[C@H]4[C@]5(C)C[C@H](O)[C@H](O)C(C)(C)[C@@H]5CC[C@]43C)[C@H]12
REMARK SMILES IDX 7 1 6 2 34 3 11 4 5 5 15 6 4 7 12 8 16 9 13 10 17 11 32 12
REMARK SMILES IDX 14 13 18 14 31 15 33 16 19 17 30 18 29 19 21 20 20 21 26 22
REMARK SMILES IDX 22 23 24 24 27 25 28 26 8 27 9 28 10 29 2 30 3 31 1 32 23 33
REMARK SMILES IDX 25 35
REMARK H PARENT 23 34 25 36
REMARK Flexibility Score: inf
ROOT
ATOM      1  C   UNL     1      15.470  -7.591  16.444  1.00  0.00     0.014 C 
ATOM      2  C   UNL     1      16.966  -7.408  16.135  1.00  0.00     0.014 C 
ATOM      3  C   UNL     1      14.945  -6.137  16.574  1.00  0.00     0.012 C 
ATOM      4  C   UNL     1      14.792  -8.345  15.274  1.00  0.00     0.014 C 
ATOM      5  C   UNL     1      17.082  -6.132  15.315  1.00  0.00     0.009 C 
ATOM      6  C   UNL     1      13.386  -5.972  16.394  1.00  0.00     0.000 C 
ATOM      7  C   UNL     1      15.879  -5.256  15.692  1.00  0.00     0.018 C 
ATOM      8  C   UNL     1      13.263  -8.287  15.371  1.00  0.00     0.008 C 
ATOM      9  C   UNL     1      12.968  -4.494  16.306  1.00  0.00     0.005 C 
ATOM     10  C   UNL     1      12.658  -6.837  15.313  1.00  0.00    -0.024 C 
ATOM     11  C   UNL     1      11.479  -4.279  15.987  1.00  0.00     0.005 C 
ATOM     12  C   UNL     1      11.036  -6.811  15.635  1.00  0.00    -0.024 C 
ATOM     13  C   UNL     1      12.984  -6.299  13.875  1.00  0.00     0.012 C 
ATOM     14  C   UNL     1      10.553  -5.471  16.384  1.00  0.00     0.002 C 
ATOM     15  C   UNL     1      10.232  -6.950  14.320  1.00  0.00     0.008 C 
ATOM     16  C   UNL     1      10.678  -8.037  16.539  1.00  0.00     0.012 C 
ATOM     17  C   UNL     1       8.957  -5.102  16.357  1.00  0.00    -0.023 C 
ATOM     18  C   UNL     1       8.724  -6.917  14.498  1.00  0.00     0.005 C 
ATOM     19  C   UNL     1       8.212  -5.553  15.021  1.00  0.00     0.004 C 
ATOM     20  C   UNL     1       8.258  -5.724  17.616  1.00  0.00     0.042 C 
ATOM     21  C   UNL     1       8.791  -3.555  16.520  1.00  0.00     0.012 C 
ATOM     22  C   UNL     1       6.607  -5.507  15.077  1.00  0.00    -0.003 C 
ATOM     23  C   UNL     1       6.727  -5.570  17.666  1.00  0.00     0.144 C 
ATOM     24  C   UNL     1       6.064  -6.144  16.399  1.00  0.00     0.149 C 
ATOM     25  C   UNL     1       5.966  -6.280  13.881  1.00  0.00     0.014 C 
ATOM     26  C   UNL     1       6.069  -4.043  14.925  1.00  0.00     0.014 C 
ENDROOT
BRANCH   1  27
ATOM     27  C   UNL     1      15.308  -8.392  17.728  1.00  0.00     0.048 C 
ATOM     28  O   UNL     1      15.594  -7.869  18.838  1.00  0.00    -0.550 OA
ATOM     29  O   UNL     1      14.910  -9.724  17.697  1.00  0.00    -0.550 OA
ENDBRANCH   1  27
BRANCH   7  30
ATOM     30  C   UNL     1      16.328  -3.972  16.393  1.00  0.00    -0.077 C 
ATOM     31  C   UNL     1      16.331  -3.860  17.899  1.00  0.00     0.039 C 
ATOM     32  C   UNL     1      16.778  -2.929  15.676  1.00  0.00     0.008 C 
ENDBRANCH   7  30
BRANCH  23  33
ATOM     33  O   UNL     1       6.226  -6.253  18.789  1.00  0.00    -0.390 OA
ATOM     34  H   UNL     1       5.266  -6.012  18.874  1.00  0.00     0.211 HD
ENDBRANCH  23  33
BRANCH  24  35
ATOM     35  O   UNL     1       6.240  -7.542  16.380  1.00  0.00    -0.390 OA
ATOM     36  H   UNL     1       6.880  -7.752  15.651  1.00  0.00     0.211 HD
ENDBRANCH  24  35
TORSDOF 4
ENDMDL
MODEL 2
REMARK VINA RESULT:     6.820      1.623      8.141
REMARK INTER + INTRA:           7.455
REMARK INTER:                   7.091
REMARK INTRA:                   0.364
REMARK UNBOUND:                -0.561
REMARK SMILES C=C(C)[C@H]1CC[C@]2(C(=O)[O-])CC[C@]3(C)[C@H](CC[C@H]4[C@]5(C)C[C@H](O)[C@H](O)C(C)(C)[C@@H]5CC[C@]43C)[C@H]12
REMARK SMILES IDX 7 1 6 2 34 3 11 4 5 5 15 6 4 7 12 8 16 9 13 10 17 11 32 12
REMARK SMILES IDX 14 13 18 14 31 15 33 16 19 17 30 18 29 19 21 20 20 21 26 22
REMARK SMILES IDX 22 23 24 24 27 25 28 26 8 27 9 28 10 29 2 30 3 31 1 32 23 33
REMARK SMILES IDX 25 35
REMARK H PARENT 23 34 25 36
REMARK Flexibility Score: inf
ROOT
ATOM      1  C   UNL     1       7.158  -5.362  16.460  1.00  0.00     0.014 C 
ATOM      2  C   UNL     1       5.715  -5.585  15.975  1.00  0.00     0.014 C 
ATOM      3  C   UNL     1       7.972  -6.433  15.687  1.00  0.00     0.012 C 
ATOM      4  C   UNL     1       7.607  -3.926  16.097  1.00  0.00     0.014 C 
ATOM      5  C   UNL     1       5.815  -6.038  14.527  1.00  0.00     0.009 C 
ATOM      6  C   UNL     1       9.520  -6.148  15.581  1.00  0.00     0.000 C 
ATOM      7  C   UNL     1       7.188  -6.707  14.368  1.00  0.00     0.018 C 
ATOM      8  C   UNL     1       9.119  -3.742  16.270  1.00  0.00     0.008 C 
ATOM      9  C   UNL     1      10.221  -7.118  14.614  1.00  0.00     0.005 C 
ATOM     10  C   UNL     1       9.999  -4.675  15.361  1.00  0.00    -0.024 C 
ATOM     11  C   UNL     1      11.703  -6.794  14.365  1.00  0.00     0.005 C 
ATOM     12  C   UNL     1      11.608  -4.593  15.735  1.00  0.00    -0.024 C 
ATOM     13  C   UNL     1       9.712  -4.224  13.886  1.00  0.00     0.012 C 
ATOM     14  C   UNL     1      12.391  -5.981  15.506  1.00  0.00     0.002 C 
ATOM     15  C   UNL     1      12.296  -3.500  14.882  1.00  0.00     0.008 C 
ATOM     16  C   UNL     1      11.760  -4.185  17.239  1.00  0.00     0.012 C 
ATOM     17  C   UNL     1      14.024  -5.938  15.393  1.00  0.00    -0.023 C 
ATOM     18  C   UNL     1      13.788  -3.354  15.132  1.00  0.00     0.005 C 
ATOM     19  C   UNL     1      14.591  -4.610  14.716  1.00  0.00     0.004 C 
ATOM     20  C   UNL     1      14.650  -6.143  16.816  1.00  0.00     0.042 C 
ATOM     21  C   UNL     1      14.507  -7.168  14.554  1.00  0.00     0.012 C 
ATOM     22  C   UNL     1      16.173  -4.377  14.871  1.00  0.00    -0.003 C 
ATOM     23  C   UNL     1      16.182  -6.001  16.892  1.00  0.00     0.144 C 
ATOM     24  C   UNL     1      16.646  -4.640  16.339  1.00  0.00     0.149 C 
ATOM     25  C   UNL     1      16.580  -2.917  14.497  1.00  0.00     0.014 C 
ATOM     26  C   UNL     1      16.986  -5.273  13.876  1.00  0.00     0.014 C 
ENDROOT
BRANCH   1  27
ATOM     27  C   UNL     1       7.223  -5.550  17.969  1.00  0.00     0.048 C 
ATOM     28  O   UNL     1       8.315  -5.853  18.520  1.00  0.00    -0.550 OA
ATOM     29  O   UNL     1       6.079  -5.458  18.754  1.00  0.00    -0.550 OA
ENDBRANCH   1  27
BRANCH   7  30
ATOM     30  C   UNL     1       7.044  -8.198  14.055  1.00  0.00    -0.077 C 
ATOM     31  C   UNL     1       5.687  -8.836  13.885  1.00  0.00     0.039 C 
ATOM     32  C   UNL     1       8.134  -8.962  13.879  1.00  0.00     0.008 C 
ENDBRANCH   7  30
BRANCH  23  33
ATOM     33  O   UNL     1      16.594  -6.110  18.233  1.00  0.00    -0.390 OA
ATOM     34  H   UNL     1      15.899  -5.667  18.789  1.00  0.00     0.211 HD
ENDBRANCH  23  33
BRANCH  24  35
ATOM     35  O   UNL     1      16.192  -3.616  17.193  1.00  0.00    -0.390 OA
ATOM     36  H   UNL     1      16.959  -3.334  17.756  1.00  0.00     0.211 HD
ENDBRANCH  24  35
TORSDOF 4
ENDMDL
MODEL 3
REMARK VINA RESULT:     6.993     13.843     17.925
REMARK INTER + INTRA:           7.658
REMARK INTER:                   7.925
REMARK INTRA:                  -0.266
REMARK UNBOUND:                -0.561
REMARK SMILES C=C(C)[C@H]1CC[C@]2(C(=O)[O-])CC[C@]3(C)[C@H](CC[C@H]4[C@]5(C)C[C@H](O)[C@H](O)C(C)(C)[C@@H]5CC[C@]43C)[C@H]12
REMARK SMILES IDX 7 1 6 2 34 3 11 4 5 5 15 6 4 7 12 8 16 9 13 10 17 11 32 12
REMARK SMILES IDX 14 13 18 14 31 15 33 16 19 17 30 18 29 19 21 20 20 21 26 22
REMARK SMILES IDX 22 23 24 24 27 25 28 26 8 27 9 28 10 29 2 30 3 31 1 32 23 33
REMARK SMILES IDX 25 35
REMARK H PARENT 23 34 25 36
REMARK Flexibility Score: inf
ROOT
ATOM      1  C   UNL     1      -0.774 -18.641  16.698  1.00  0.00     0.014 C 
ATOM      2  C   UNL     1      -2.258 -18.848  16.352  1.00  0.00     0.014 C 
ATOM      3  C   UNL     1      -0.139 -20.031  16.429  1.00  0.00     0.012 C 
ATOM      4  C   UNL     1      -0.178 -17.549  15.777  1.00  0.00     0.014 C 
ATOM      5  C   UNL     1      -2.296 -19.859  15.216  1.00  0.00     0.009 C 
ATOM      6  C   UNL     1       1.423 -20.020  16.211  1.00  0.00     0.000 C 
ATOM      7  C   UNL     1      -1.024 -20.709  15.341  1.00  0.00     0.018 C 
ATOM      8  C   UNL     1       1.353 -17.512  15.855  1.00  0.00     0.008 C 
ATOM      9  C   UNL     1       1.948 -21.382  15.724  1.00  0.00     0.005 C 
ATOM     10  C   UNL     1       2.062 -18.841  15.405  1.00  0.00    -0.024 C 
ATOM     11  C   UNL     1       3.441 -21.387  15.359  1.00  0.00     0.005 C 
ATOM     12  C   UNL     1       3.688 -18.827  15.707  1.00  0.00    -0.024 C 
ATOM     13  C   UNL     1       1.746 -18.994  13.875  1.00  0.00     0.012 C 
ATOM     14  C   UNL     1       4.285 -20.279  16.064  1.00  0.00     0.002 C 
ATOM     15  C   UNL     1       4.452 -18.276  14.479  1.00  0.00     0.008 C 
ATOM     16  C   UNL     1       3.973 -17.868  16.911  1.00  0.00     0.012 C 
ATOM     17  C   UNL     1       5.903 -20.502  15.938  1.00  0.00    -0.023 C 
ATOM     18  C   UNL     1       5.961 -18.240  14.642  1.00  0.00     0.005 C 
ATOM     19  C   UNL     1       6.584 -19.651  14.775  1.00  0.00     0.004 C 
ATOM     20  C   UNL     1       6.580 -20.192  17.319  1.00  0.00     0.042 C 
ATOM     21  C   UNL     1       6.187 -22.019  15.675  1.00  0.00     0.012 C 
ATOM     22  C   UNL     1       8.189 -19.586  14.816  1.00  0.00    -0.003 C 
ATOM     23  C   UNL     1       8.120 -20.236  17.325  1.00  0.00     0.144 C 
ATOM     24  C   UNL     1       8.710 -19.291  16.261  1.00  0.00     0.149 C 
ATOM     25  C   UNL     1       8.745 -18.471  13.875  1.00  0.00     0.014 C 
ATOM     26  C   UNL     1       8.831 -20.908  14.272  1.00  0.00     0.014 C 
ENDROOT
BRANCH   1  27
ATOM     27  C   UNL     1      -0.645 -18.207  18.152  1.00  0.00     0.048 C 
ATOM     28  O   UNL     1       0.192 -17.321  18.473  1.00  0.00    -0.550 OA
ATOM     29  O   UNL     1      -1.391 -18.819  19.153  1.00  0.00    -0.550 OA
ENDBRANCH   1  27
BRANCH   7  30
ATOM     30  C   UNL     1      -1.362 -22.166  15.668  1.00  0.00    -0.077 C 
ATOM     31  C   UNL     1      -1.767 -22.584  17.060  1.00  0.00     0.039 C 
ATOM     32  C   UNL     1      -1.350 -23.098  14.701  1.00  0.00     0.008 C 
ENDBRANCH   7  30
BRANCH  23  33
ATOM     33  O   UNL     1       8.592 -19.845  18.591  1.00  0.00    -0.390 OA
ATOM     34  H   UNL     1       9.408 -19.299  18.442  1.00  0.00     0.211 HD
ENDBRANCH  23  33
BRANCH  24  35
ATOM     35  O   UNL     1       8.431 -17.958  16.622  1.00  0.00    -0.390 OA
ATOM     36  H   UNL     1       8.118 -17.488  15.806  1.00  0.00     0.211 HD
ENDBRANCH  24  35
TORSDOF 4
ENDMDL
