MODEL 1
REMARK VINA RESULT:    -4.389      0.000      0.000
REMARK INTER + INTRA:          -5.510
REMARK INTER:                  -6.186
REMARK INTRA:                   0.676
REMARK UNBOUND:                 0.676
REMARK SMILES CC1=CCC(=C(C)C)C(=O)CC(C)=CCC1
REMARK SMILES IDX 12 1 14 2 13 3 15 4 16 5 2 6 1 7 3 8 11 10 9 11 10 12 5 13
REMARK SMILES IDX 6 14 7 15 8 16 4 17
REMARK H PARENT
REMARK Flexibility Score: 60.00
ROOT
ATOM      1  C   UNL     1      -0.544  38.063  34.693  1.00  0.00    -0.070 C 
ATOM      2  C   UNL     1       0.751  37.781  34.970  1.00  0.00    -0.027 C 
ATOM      3  C   UNL     1      -1.428  36.918  34.262  1.00  0.00     0.039 C 
ENDROOT
BRANCH   2   4
ATOM      4  C   UNL     1       1.779  38.743  35.514  1.00  0.00     0.032 C 
BRANCH   4   5
ATOM      5  C   UNL     1       2.809  39.174  34.453  1.00  0.00     0.034 C 
BRANCH   5   6
ATOM      6  C   UNL     1       2.479  40.526  33.850  1.00  0.00    -0.077 C 
ATOM      7  C   UNL     1       3.086  41.755  34.476  1.00  0.00     0.039 C 
ATOM      8  C   UNL     1       1.648  40.695  32.797  1.00  0.00    -0.023 CG0
ATOM      9  G   UNL     1       0.919  39.596  32.062  1.00  0.00     0.000 G0
ENDBRANCH   5   6
ENDBRANCH   4   5
ENDBRANCH   2   4
BRANCH   1  10
ATOM     10  C   UNL     1      -1.163  39.441  34.858  1.00  0.00     0.111 C 
BRANCH  10  11
ATOM     11  C   UNL     1      -1.001  40.276  33.612  1.00  0.00     0.163 C 
ATOM     12  O   UNL     1      -1.281  41.503  33.679  1.00  0.00    -0.294 OA
BRANCH  11  13
ATOM     13  C   UNL     1      -0.575  39.678  32.308  1.00  0.00    -0.002 C 
ATOM     14  C   UNL     1      -1.487  39.281  31.368  1.00  0.00    -0.069 C 
ATOM     15  C   UNL     1      -2.971  39.492  31.565  1.00  0.00     0.039 C 
ATOM     16  C   UNL     1      -1.050  38.643  30.067  1.00  0.00     0.039 C 
BRANCH  13  17
ATOM     17  C   UNL     1       0.916  39.598  32.038  1.00  0.00     0.066 CG0
ATOM     18  G   UNL     1       1.632  40.694  32.791  1.00  0.00     0.000 G0
ENDBRANCH  13  17
ENDBRANCH  11  13
ENDBRANCH  10  11
ENDBRANCH   1  10
TORSDOF 0
ENDMDL
MODEL 2
REMARK VINA RESULT:    -4.171      1.855      4.432
REMARK INTER + INTRA:          -5.203
REMARK INTER:                  -5.932
REMARK INTRA:                   0.729
REMARK UNBOUND:                 0.676
REMARK SMILES CC1=CCC(=C(C)C)C(=O)CC(C)=CCC1
REMARK SMILES IDX 12 1 14 2 13 3 15 4 16 5 2 6 1 7 3 8 11 10 9 11 10 12 5 13
REMARK SMILES IDX 6 14 7 15 8 16 4 17
REMARK H PARENT
REMARK Flexibility Score: 60.00
ROOT
ATOM      1  C   UNL     1       0.590  38.287  31.953  1.00  0.00    -0.070 C 
ATOM      2  C   UNL     1      -0.728  37.995  31.858  1.00  0.00    -0.027 C 
ATOM      3  C   UNL     1       1.526  37.165  32.331  1.00  0.00     0.039 C 
ENDROOT
BRANCH   2   4
ATOM      4  C   UNL     1      -1.820  38.930  31.396  1.00  0.00     0.032 C 
BRANCH   4   5
ATOM      5  C   UNL     1      -2.621  39.531  32.567  1.00  0.00     0.034 C 
BRANCH   5   6
ATOM      6  C   UNL     1      -2.173  40.940  32.904  1.00  0.00    -0.077 C 
ATOM      7  C   UNL     1      -2.761  42.084  32.118  1.00  0.00     0.039 C 
ATOM      8  C   UNL     1      -1.256  41.229  33.854  1.00  0.00    -0.023 CG0
ATOM      9  G   UNL     1      -0.532  40.224  34.719  1.00  0.00     0.000 G0
ENDBRANCH   5   6
ENDBRANCH   4   5
ENDBRANCH   2   4
BRANCH   1  10
ATOM     10  C   UNL     1       1.179  39.652  31.638  1.00  0.00     0.111 C 
BRANCH  10  11
ATOM     11  C   UNL     1       1.219  40.537  32.860  1.00  0.00     0.163 C 
ATOM     12  O   UNL     1       1.584  41.735  32.714  1.00  0.00    -0.294 OA
BRANCH  11  13
ATOM     13  C   UNL     1       0.895  40.016  34.224  1.00  0.00    -0.002 C 
ATOM     14  C   UNL     1       1.848  39.437  35.018  1.00  0.00    -0.069 C 
ATOM     15  C   UNL     1       3.295  39.356  34.587  1.00  0.00     0.039 C 
ATOM     16  C   UNL     1       1.504  38.879  36.382  1.00  0.00     0.039 C 
BRANCH  13  17
ATOM     17  C   UNL     1      -0.522  40.226  34.725  1.00  0.00     0.066 CG0
ATOM     18  G   UNL     1      -1.238  41.216  33.837  1.00  0.00     0.000 G0
ENDBRANCH  13  17
ENDBRANCH  11  13
ENDBRANCH  10  11
ENDBRANCH   1  10
TORSDOF 0
ENDMDL
MODEL 3
REMARK VINA RESULT:    -3.910      1.618      4.045
REMARK INTER + INTRA:          -4.834
REMARK INTER:                  -6.097
REMARK INTRA:                   1.263
REMARK UNBOUND:                 0.676
REMARK SMILES CC1=CCC(=C(C)C)C(=O)CC(C)=CCC1
REMARK SMILES IDX 12 1 14 2 13 3 15 4 16 5 2 6 1 7 3 8 11 10 9 11 10 12 5 13
REMARK SMILES IDX 6 14 7 15 8 16 4 17
REMARK H PARENT
REMARK Flexibility Score: 60.00
ROOT
ATOM      1  C   UNL     1       0.831  37.328  33.384  1.00  0.00    -0.070 C 
ATOM      2  C   UNL     1      -0.438  37.201  32.928  1.00  0.00    -0.027 C 
ATOM      3  C   UNL     1       1.948  36.921  32.454  1.00  0.00     0.039 C 
ENDROOT
BRANCH   2   4
ATOM      4  C   UNL     1      -1.693  37.642  33.642  1.00  0.00     0.032 C 
BRANCH   4   5
ATOM      5  C   UNL     1      -2.384  38.830  32.946  1.00  0.00     0.034 C 
BRANCH   5   6
ATOM      6  C   UNL     1      -1.515  39.446  31.867  1.00  0.00    -0.077 C 
ATOM      7  C   UNL     1      -1.613  38.894  30.467  1.00  0.00     0.039 C 
ATOM      8  C   UNL     1      -0.636  40.448  32.093  1.00  0.00    -0.023 CG0
ATOM      9  G   UNL     1      -0.370  41.105  33.426  1.00  0.00     0.000 G0
ENDBRANCH   5   6
ENDBRANCH   4   5
ENDBRANCH   2   4
BRANCH   1  10
ATOM     10  C   UNL     1       1.187  37.916  34.739  1.00  0.00     0.111 C 
BRANCH  10  11
ATOM     11  C   UNL     1       0.504  39.242  34.968  1.00  0.00     0.163 C 
ATOM     12  O   UNL     1      -0.385  39.306  35.860  1.00  0.00    -0.294 OA
BRANCH  11  13
ATOM     13  C   UNL     1       0.814  40.446  34.136  1.00  0.00    -0.002 C 
ATOM     14  C   UNL     1       2.098  40.884  33.956  1.00  0.00    -0.069 C 
ATOM     15  C   UNL     1       3.279  40.133  34.530  1.00  0.00     0.039 C 
ATOM     16  C   UNL     1       2.401  42.125  33.144  1.00  0.00     0.039 C 
BRANCH  13  17
ATOM     17  C   UNL     1      -0.350  41.120  33.435  1.00  0.00     0.066 CG0
ATOM     18  G   UNL     1      -0.630  40.426  32.123  1.00  0.00     0.000 G0
ENDBRANCH  13  17
ENDBRANCH  11  13
ENDBRANCH  10  11
ENDBRANCH   1  10
TORSDOF 0
ENDMDL
MODEL 4
REMARK VINA RESULT:    -3.474      1.899      4.852
REMARK INTER + INTRA:          -4.220
REMARK INTER:                  -5.607
REMARK INTRA:                   1.388
REMARK UNBOUND:                 0.676
REMARK SMILES CC1=CCC(=C(C)C)C(=O)CC(C)=CCC1
REMARK SMILES IDX 12 1 14 2 13 3 15 4 16 5 2 6 1 7 3 8 11 10 9 11 10 12 5 13
REMARK SMILES IDX 6 14 7 15 8 16 4 17
REMARK H PARENT
REMARK Flexibility Score: 60.00
ROOT
ATOM      1  C   UNL     1       0.290  41.763  33.412  1.00  0.00    -0.070 C 
ATOM      2  C   UNL     1      -1.014  42.125  33.388  1.00  0.00    -0.027 C 
ATOM      3  C   UNL     1       1.063  42.032  34.681  1.00  0.00     0.039 C 
ENDROOT
BRANCH   2   4
ATOM      4  C   UNL     1      -1.995  41.857  32.272  1.00  0.00     0.032 C 
BRANCH   4   5
ATOM      5  C   UNL     1      -2.854  40.604  32.527  1.00  0.00     0.034 C 
BRANCH   5   6
ATOM      6  C   UNL     1      -2.305  39.380  31.819  1.00  0.00    -0.077 C 
ATOM      7  C   UNL     1      -2.742  39.117  30.401  1.00  0.00     0.039 C 
ATOM      8  C   UNL     1      -1.464  38.494  32.398  1.00  0.00    -0.023 CG0
ATOM      9  G   UNL     1      -0.943  38.565  33.814  1.00  0.00     0.000 G0
ENDBRANCH   5   6
ENDBRANCH   4   5
ENDBRANCH   2   4
BRANCH   1  10
ATOM     10  C   UNL     1       0.991  41.047  32.270  1.00  0.00     0.111 C 
BRANCH  10  11
ATOM     11  C   UNL     1       1.055  39.557  32.503  1.00  0.00     0.163 C 
ATOM     12  O   UNL     1       1.512  38.831  31.579  1.00  0.00    -0.294 OA
BRANCH  11  13
ATOM     13  C   UNL     1       0.544  38.931  33.761  1.00  0.00    -0.002 C 
ATOM     14  C   UNL     1       1.346  38.762  34.857  1.00  0.00    -0.069 C 
ATOM     15  C   UNL     1       2.772  39.267  34.880  1.00  0.00     0.039 C 
ATOM     16  C   UNL     1       0.833  38.093  36.114  1.00  0.00     0.039 C 
BRANCH  13  17
ATOM     17  C   UNL     1      -0.926  38.555  33.799  1.00  0.00     0.066 CG0
ATOM     18  G   UNL     1      -1.473  38.486  32.394  1.00  0.00     0.000 G0
ENDBRANCH  13  17
ENDBRANCH  11  13
ENDBRANCH  10  11
ENDBRANCH   1  10
TORSDOF 0
ENDMDL
MODEL 5
REMARK VINA RESULT:    -3.439     12.708     14.695
REMARK INTER + INTRA:          -4.170
REMARK INTER:                  -4.529
REMARK INTRA:                   0.359
REMARK UNBOUND:                 0.676
REMARK SMILES CC1=CCC(=C(C)C)C(=O)CC(C)=CCC1
REMARK SMILES IDX 12 1 14 2 13 3 15 4 16 5 2 6 1 7 3 8 11 10 9 11 10 12 5 13
REMARK SMILES IDX 6 14 7 15 8 16 4 17
REMARK H PARENT
REMARK Flexibility Score: 60.00
ROOT
ATOM      1  C   UNL     1      -1.694  25.649  39.940  1.00  0.00    -0.070 C 
ATOM      2  C   UNL     1      -0.790  24.733  40.362  1.00  0.00    -0.027 C 
ATOM      3  C   UNL     1      -2.986  25.757  40.711  1.00  0.00     0.039 C 
ENDROOT
BRANCH   2   4
ATOM      4  C   UNL     1       0.600  24.528  39.809  1.00  0.00     0.032 C 
BRANCH   4   5
ATOM      5  C   UNL     1       0.595  23.820  38.442  1.00  0.00     0.034 C 
BRANCH   5   6
ATOM      6  C   UNL     1       1.428  24.559  37.411  1.00  0.00    -0.077 C 
ATOM      7  C   UNL     1       2.887  24.793  37.706  1.00  0.00     0.039 C 
ATOM      8  C   UNL     1       0.929  25.044  36.252  1.00  0.00    -0.023 CG0
ATOM      9  G   UNL     1      -0.507  24.942  35.797  1.00  0.00     0.000 G0
ENDBRANCH   5   6
ENDBRANCH   4   5
ENDBRANCH   2   4
BRANCH   1  10
ATOM     10  C   UNL     1      -1.450  26.608  38.787  1.00  0.00     0.111 C 
BRANCH  10  11
ATOM     11  C   UNL     1      -2.041  26.091  37.499  1.00  0.00     0.163 C 
ATOM     12  O   UNL     1      -3.175  25.542  37.544  1.00  0.00    -0.294 OA
BRANCH  11  13
ATOM     13  C   UNL     1      -1.299  26.164  36.202  1.00  0.00    -0.002 C 
ATOM     14  C   UNL     1      -1.275  27.308  35.451  1.00  0.00    -0.069 C 
ATOM     15  C   UNL     1      -1.937  28.581  35.926  1.00  0.00     0.039 C 
ATOM     16  C   UNL     1      -0.554  27.363  34.122  1.00  0.00     0.039 C 
BRANCH  13  17
ATOM     17  C   UNL     1      -0.509  24.937  35.787  1.00  0.00     0.066 CG0
ATOM     18  G   UNL     1       0.918  25.061  36.267  1.00  0.00     0.000 G0
ENDBRANCH  13  17
ENDBRANCH  11  13
ENDBRANCH  10  11
ENDBRANCH   1  10
TORSDOF 0
ENDMDL
MODEL 6
REMARK VINA RESULT:    -3.213     13.614     15.492
REMARK INTER + INTRA:          -3.853
REMARK INTER:                  -4.238
REMARK INTRA:                   0.385
REMARK UNBOUND:                 0.676
REMARK SMILES CC1=CCC(=C(C)C)C(=O)CC(C)=CCC1
REMARK SMILES IDX 12 1 14 2 13 3 15 4 16 5 2 6 1 7 3 8 11 10 9 11 10 12 5 13
REMARK SMILES IDX 6 14 7 15 8 16 4 17
REMARK H PARENT
REMARK Flexibility Score: 60.00
ROOT
ATOM      1  C   UNL     1       1.563  24.370  38.595  1.00  0.00    -0.070 C 
ATOM      2  C   UNL     1       1.120  24.179  39.860  1.00  0.00    -0.027 C 
ATOM      3  C   UNL     1       2.691  23.489  38.113  1.00  0.00     0.039 C 
ENDROOT
BRANCH   2   4
ATOM      4  C   UNL     1      -0.057  24.868  40.508  1.00  0.00     0.032 C 
BRANCH   4   5
ATOM      5  C   UNL     1      -1.410  24.351  39.982  1.00  0.00     0.034 C 
BRANCH   5   6
ATOM      6  C   UNL     1      -2.362  25.482  39.643  1.00  0.00    -0.077 C 
ATOM      7  C   UNL     1      -2.781  26.419  40.747  1.00  0.00     0.039 C 
ATOM      8  C   UNL     1      -2.880  25.683  38.410  1.00  0.00    -0.023 CG0
ATOM      9  G   UNL     1      -2.610  24.835  37.190  1.00  0.00     0.000 G0
ENDBRANCH   5   6
ENDBRANCH   4   5
ENDBRANCH   2   4
BRANCH   1  10
ATOM     10  C   UNL     1       0.949  25.364  37.624  1.00  0.00     0.111 C 
BRANCH  10  11
ATOM     11  C   UNL     1      -0.079  24.710  36.734  1.00  0.00     0.163 C 
ATOM     12  O   UNL     1       0.215  23.606  36.200  1.00  0.00    -0.294 OA
BRANCH  11  13
ATOM     13  C   UNL     1      -1.392  25.359  36.432  1.00  0.00    -0.002 C 
ATOM     14  C   UNL     1      -1.510  26.338  35.484  1.00  0.00    -0.069 C 
ATOM     15  C   UNL     1      -0.331  26.767  34.638  1.00  0.00     0.039 C 
ATOM     16  C   UNL     1      -2.835  27.016  35.210  1.00  0.00     0.039 C 
BRANCH  13  17
ATOM     17  C   UNL     1      -2.609  24.832  37.171  1.00  0.00     0.066 CG0
ATOM     18  G   UNL     1      -2.867  25.674  38.398  1.00  0.00     0.000 G0
ENDBRANCH  13  17
ENDBRANCH  11  13
ENDBRANCH  10  11
ENDBRANCH   1  10
TORSDOF 0
ENDMDL
MODEL 7
REMARK VINA RESULT:    -3.101     14.512     16.311
REMARK INTER + INTRA:          -3.694
REMARK INTER:                  -4.087
REMARK INTRA:                   0.393
REMARK UNBOUND:                 0.676
REMARK SMILES CC1=CCC(=C(C)C)C(=O)CC(C)=CCC1
REMARK SMILES IDX 12 1 14 2 13 3 15 4 16 5 2 6 1 7 3 8 11 10 9 11 10 12 5 13
REMARK SMILES IDX 6 14 7 15 8 16 4 17
REMARK H PARENT
REMARK Flexibility Score: 60.00
ROOT
ATOM      1  C   UNL     1       3.082  23.331  25.995  1.00  0.00    -0.070 C 
ATOM      2  C   UNL     1       1.816  23.028  25.622  1.00  0.00    -0.027 C 
ATOM      3  C   UNL     1       4.144  23.320  24.923  1.00  0.00     0.039 C 
ENDROOT
BRANCH   2   4
ATOM      4  C   UNL     1       0.589  23.081  26.500  1.00  0.00     0.032 C 
BRANCH   4   5
ATOM      5  C   UNL     1       0.074  24.517  26.713  1.00  0.00     0.034 C 
BRANCH   5   6
ATOM      6  C   UNL     1      -0.264  24.795  28.166  1.00  0.00    -0.077 C 
ATOM      7  C   UNL     1      -1.400  24.029  28.794  1.00  0.00     0.039 C 
ATOM      8  C   UNL     1       0.380  25.710  28.924  1.00  0.00    -0.023 CG0
ATOM      9  G   UNL     1       1.514  26.596  28.466  1.00  0.00     0.000 G0
ENDBRANCH   5   6
ENDBRANCH   4   5
ENDBRANCH   2   4
BRANCH   1  10
ATOM     10  C   UNL     1       3.473  23.742  27.404  1.00  0.00     0.111 C 
BRANCH  10  11
ATOM     11  C   UNL     1       3.490  25.243  27.561  1.00  0.00     0.163 C 
ATOM     12  O   UNL     1       4.111  25.923  26.700  1.00  0.00    -0.294 OA
BRANCH  11  13
ATOM     13  C   UNL     1       2.844  25.924  28.725  1.00  0.00    -0.002 C 
ATOM     14  C   UNL     1       3.453  25.990  29.949  1.00  0.00    -0.069 C 
ATOM     15  C   UNL     1       4.844  25.440  30.172  1.00  0.00     0.039 C 
ATOM     16  C   UNL     1       2.777  26.649  31.132  1.00  0.00     0.039 C 
BRANCH  13  17
ATOM     17  C   UNL     1       1.513  26.608  28.474  1.00  0.00     0.066 CG0
ATOM     18  G   UNL     1       0.385  25.724  28.951  1.00  0.00     0.000 G0
ENDBRANCH  13  17
ENDBRANCH  11  13
ENDBRANCH  10  11
ENDBRANCH   1  10
TORSDOF 0
ENDMDL
MODEL 8
REMARK VINA RESULT:    -2.977     12.606     14.463
REMARK INTER + INTRA:          -3.519
REMARK INTER:                  -4.094
REMARK INTRA:                   0.575
REMARK UNBOUND:                 0.676
REMARK SMILES CC1=CCC(=C(C)C)C(=O)CC(C)=CCC1
REMARK SMILES IDX 12 1 14 2 13 3 15 4 16 5 2 6 1 7 3 8 11 10 9 11 10 12 5 13
REMARK SMILES IDX 6 14 7 15 8 16 4 17
REMARK H PARENT
REMARK Flexibility Score: 60.00
ROOT
ATOM      1  C   UNL     1       1.034  27.565  32.430  1.00  0.00    -0.070 C 
ATOM      2  C   UNL     1       0.143  26.913  33.214  1.00  0.00    -0.027 C 
ATOM      3  C   UNL     1       1.124  29.065  32.579  1.00  0.00     0.039 C 
ENDROOT
BRANCH   2   4
ATOM      4  C   UNL     1      -0.039  25.417  33.307  1.00  0.00     0.032 C 
BRANCH   4   5
ATOM      5  C   UNL     1      -1.152  24.897  32.379  1.00  0.00     0.034 C 
BRANCH   5   6
ATOM      6  C   UNL     1      -0.621  23.942  31.327  1.00  0.00    -0.077 C 
ATOM      7  C   UNL     1      -0.433  22.495  31.704  1.00  0.00     0.039 C 
ATOM      8  C   UNL     1      -0.281  24.320  30.074  1.00  0.00    -0.023 CG0
ATOM      9  G   UNL     1      -0.364  25.723  29.521  1.00  0.00     0.000 G0
ENDBRANCH   5   6
ENDBRANCH   4   5
ENDBRANCH   2   4
BRANCH   1  10
ATOM     10  C   UNL     1       1.984  26.869  31.470  1.00  0.00     0.111 C 
BRANCH  10  11
ATOM     11  C   UNL     1       1.667  27.204  30.033  1.00  0.00     0.163 C 
ATOM     12  O   UNL     1       1.933  28.366  29.623  1.00  0.00    -0.294 OA
BRANCH  11  13
ATOM     13  C   UNL     1       1.006  26.223  29.119  1.00  0.00    -0.002 C 
ATOM     14  C   UNL     1       1.640  25.732  28.011  1.00  0.00    -0.069 C 
ATOM     15  C   UNL     1       3.072  26.099  27.690  1.00  0.00     0.039 C 
ATOM     16  C   UNL     1       0.951  24.768  27.070  1.00  0.00     0.039 C 
BRANCH  13  17
ATOM     17  C   UNL     1      -0.376  25.735  29.513  1.00  0.00     0.066 CG0
ATOM     18  G   UNL     1      -0.285  24.331  30.064  1.00  0.00     0.000 G0
ENDBRANCH  13  17
ENDBRANCH  11  13
ENDBRANCH  10  11
ENDBRANCH   1  10
TORSDOF 0
ENDMDL
MODEL 9
REMARK VINA RESULT:    -2.949     13.219     15.342
REMARK INTER + INTRA:          -3.480
REMARK INTER:                  -3.886
REMARK INTRA:                   0.406
REMARK UNBOUND:                 0.676
REMARK SMILES CC1=CCC(=C(C)C)C(=O)CC(C)=CCC1
REMARK SMILES IDX 12 1 14 2 13 3 15 4 16 5 2 6 1 7 3 8 11 10 9 11 10 12 5 13
REMARK SMILES IDX 6 14 7 15 8 16 4 17
REMARK H PARENT
REMARK Flexibility Score: 60.00
ROOT
ATOM      1  C   UNL     1       0.227  24.609  40.161  1.00  0.00    -0.070 C 
ATOM      2  C   UNL     1      -0.844  25.386  40.446  1.00  0.00    -0.027 C 
ATOM      3  C   UNL     1       0.449  23.387  41.020  1.00  0.00     0.039 C 
ENDROOT
BRANCH   2   4
ATOM      4  C   UNL     1      -1.312  26.586  39.659  1.00  0.00     0.032 C 
BRANCH   4   5
ATOM      5  C   UNL     1      -1.966  26.197  38.319  1.00  0.00     0.034 C 
BRANCH   5   6
ATOM      6  C   UNL     1      -1.380  26.968  37.151  1.00  0.00    -0.077 C 
ATOM      7  C   UNL     1      -1.513  28.469  37.147  1.00  0.00     0.039 C 
ATOM      8  C   UNL     1      -0.767  26.382  36.098  1.00  0.00    -0.023 CG0
ATOM      9  G   UNL     1      -0.569  24.898  35.905  1.00  0.00     0.000 G0
ENDBRANCH   5   6
ENDBRANCH   4   5
ENDBRANCH   2   4
BRANCH   1  10
ATOM     10  C   UNL     1       1.167  24.859  38.994  1.00  0.00     0.111 C 
BRANCH  10  11
ATOM     11  C   UNL     1       0.847  23.966  37.820  1.00  0.00     0.163 C 
ATOM     12  O   UNL     1       0.668  22.738  38.041  1.00  0.00    -0.294 OA
BRANCH  11  13
ATOM     13  C   UNL     1       0.794  24.488  36.420  1.00  0.00    -0.002 C 
ATOM     14  C   UNL     1       1.907  24.532  35.626  1.00  0.00    -0.069 C 
ATOM     15  C   UNL     1       3.238  23.989  36.097  1.00  0.00     0.039 C 
ATOM     16  C   UNL     1       1.854  25.096  34.222  1.00  0.00     0.039 C 
BRANCH  13  17
ATOM     17  C   UNL     1      -0.566  24.898  35.886  1.00  0.00     0.066 CG0
ATOM     18  G   UNL     1      -0.771  26.381  36.092  1.00  0.00     0.000 G0
ENDBRANCH  13  17
ENDBRANCH  11  13
ENDBRANCH  10  11
ENDBRANCH   1  10
TORSDOF 0
ENDMDL
