MODEL 1
REMARK VINA RESULT:    -5.503      0.000      0.000
REMARK INTER + INTRA:          -6.729
REMARK INTER:                  -6.629
REMARK INTRA:                  -0.100
REMARK UNBOUND:                -0.100
REMARK SMILES O=c1c(O)c(-c2ccc(O)c(O)c2)oc2cc(O)cc(O)c12
REMARK SMILES IDX 5 1 3 2 2 3 1 4 22 5 20 6 19 7 17 8 16 9 15 10 14 11 6 12
REMARK SMILES IDX 7 13 8 14 9 15 13 16 11 17 10 18 12 20 4 22 21 24 18 26
REMARK H PARENT 10 19 12 21 4 23 21 25 18 27
REMARK Flexibility Score: inf
ROOT
ATOM      1  C   UNL     1      43.110 -41.690  31.396  1.00  0.00     0.180 A 
ATOM      2  C   UNL     1      42.482 -41.964  32.625  1.00  0.00     0.208 A 
ATOM      3  C   UNL     1      41.695 -43.121  32.744  1.00  0.00     0.238 A 
ATOM      4  O   UNL     1      41.181 -43.389  33.861  1.00  0.00    -0.285 OA
ATOM      5  C   UNL     1      41.532 -43.980  31.630  1.00  0.00     0.111 A 
ATOM      6  C   UNL     1      40.725 -45.156  31.627  1.00  0.00     0.134 A 
ATOM      7  C   UNL     1      40.741 -46.001  30.510  1.00  0.00     0.093 A 
ATOM      8  C   UNL     1      41.481 -45.679  29.374  1.00  0.00     0.123 A 
ATOM      9  C   UNL     1      42.227 -44.500  29.344  1.00  0.00     0.094 A 
ATOM     10  C   UNL     1      42.261 -43.656  30.457  1.00  0.00     0.146 A 
ATOM     11  O   UNL     1      42.991 -42.549  30.391  1.00  0.00    -0.452 OA
ENDROOT
BRANCH   1  12
ATOM     12  C   UNL     1      43.934 -40.478  31.187  1.00  0.00     0.025 A 
ATOM     13  C   UNL     1      43.359 -39.211  31.378  1.00  0.00     0.016 A 
ATOM     14  C   UNL     1      44.124 -38.054  31.208  1.00  0.00     0.051 A 
ATOM     15  C   UNL     1      45.474 -38.144  30.858  1.00  0.00     0.157 A 
ATOM     16  C   UNL     1      45.297 -40.567  30.855  1.00  0.00     0.062 A 
ATOM     17  C   UNL     1      46.067 -39.406  30.685  1.00  0.00     0.158 A 
BRANCH  15  18
ATOM     18  O   UNL     1      46.211 -36.972  30.691  1.00  0.00    -0.504 OA
ATOM     19  H   UNL     1      46.953 -36.707  31.327  1.00  0.00     0.293 HD
ENDBRANCH  15  18
BRANCH  17  20
ATOM     20  O   UNL     1      47.417 -39.503  30.350  1.00  0.00    -0.504 OA
ATOM     21  H   UNL     1      48.147 -39.339  31.033  1.00  0.00     0.293 HD
ENDBRANCH  17  20
ENDBRANCH   1  12
BRANCH   2  22
ATOM     22  O   UNL     1      42.675 -41.115  33.717  1.00  0.00    -0.502 OA
ATOM     23  H   UNL     1      43.475 -40.499  33.793  1.00  0.00     0.293 HD
ENDBRANCH   2  22
BRANCH   6  24
ATOM     24  O   UNL     1      39.876 -45.524  32.675  1.00  0.00    -0.507 OA
ATOM     25  H   UNL     1      39.012 -46.032  32.564  1.00  0.00     0.293 HD
ENDBRANCH   6  24
BRANCH   8  26
ATOM     26  O   UNL     1      41.461 -46.535  28.275  1.00  0.00    -0.508 OA
ATOM     27  H   UNL     1      42.316 -46.911  27.880  1.00  0.00     0.293 HD
ENDBRANCH   8  26
TORSDOF 6
ENDMDL
MODEL 2
REMARK VINA RESULT:    -5.434      1.356      6.572
REMARK INTER + INTRA:          -6.645
REMARK INTER:                  -6.341
REMARK INTRA:                  -0.305
REMARK UNBOUND:                -0.100
REMARK SMILES O=c1c(O)c(-c2ccc(O)c(O)c2)oc2cc(O)cc(O)c12
REMARK SMILES IDX 5 1 3 2 2 3 1 4 22 5 20 6 19 7 17 8 16 9 15 10 14 11 6 12
REMARK SMILES IDX 7 13 8 14 9 15 13 16 11 17 10 18 12 20 4 22 21 24 18 26
REMARK H PARENT 10 19 12 21 4 23 21 25 18 27
REMARK Flexibility Score: inf
ROOT
ATOM      1  C   UNL     1      42.699 -42.773  31.102  1.00  0.00     0.180 A 
ATOM      2  C   UNL     1      42.014 -42.329  32.248  1.00  0.00     0.208 A 
ATOM      3  C   UNL     1      42.417 -41.132  32.860  1.00  0.00     0.238 A 
ATOM      4  O   UNL     1      41.765 -40.712  33.851  1.00  0.00    -0.285 OA
ATOM      5  C   UNL     1      43.509 -40.402  32.332  1.00  0.00     0.111 A 
ATOM      6  C   UNL     1      44.027 -39.199  32.895  1.00  0.00     0.134 A 
ATOM      7  C   UNL     1      45.026 -38.491  32.215  1.00  0.00     0.093 A 
ATOM      8  C   UNL     1      45.571 -38.978  31.028  1.00  0.00     0.123 A 
ATOM      9  C   UNL     1      45.113 -40.185  30.498  1.00  0.00     0.094 A 
ATOM     10  C   UNL     1      44.091 -40.894  31.135  1.00  0.00     0.146 A 
ATOM     11  O   UNL     1      43.676 -42.033  30.593  1.00  0.00    -0.452 OA
ENDROOT
BRANCH   1  12
ATOM     12  C   UNL     1      42.349 -44.038  30.416  1.00  0.00     0.025 A 
ATOM     13  C   UNL     1      41.619 -43.993  29.217  1.00  0.00     0.016 A 
ATOM     14  C   UNL     1      41.297 -45.172  28.542  1.00  0.00     0.051 A 
ATOM     15  C   UNL     1      41.708 -46.410  29.043  1.00  0.00     0.157 A 
ATOM     16  C   UNL     1      42.780 -45.282  30.909  1.00  0.00     0.062 A 
ATOM     17  C   UNL     1      42.458 -46.467  30.230  1.00  0.00     0.158 A 
BRANCH  15  18
ATOM     18  O   UNL     1      41.368 -47.571  28.349  1.00  0.00    -0.504 OA
ATOM     19  H   UNL     1      40.425 -47.747  28.023  1.00  0.00     0.293 HD
ENDBRANCH  15  18
BRANCH  17  20
ATOM     20  O   UNL     1      42.884 -47.698  30.729  1.00  0.00    -0.504 OA
ATOM     21  H   UNL     1      43.378 -48.364  30.147  1.00  0.00     0.293 HD
ENDBRANCH  17  20
ENDBRANCH   1  12
BRANCH   2  22
ATOM     22  O   UNL     1      40.924 -43.053  32.739  1.00  0.00    -0.502 OA
ATOM     23  H   UNL     1      41.029 -43.811  33.401  1.00  0.00     0.293 HD
ENDBRANCH   2  22
BRANCH   6  24
ATOM     24  O   UNL     1      43.618 -38.673  34.125  1.00  0.00    -0.507 OA
ATOM     25  H   UNL     1      44.240 -38.426  34.880  1.00  0.00     0.293 HD
ENDBRANCH   6  24
BRANCH   8  26
ATOM     26  O   UNL     1      46.575 -38.256  30.385  1.00  0.00    -0.508 OA
ATOM     27  H   UNL     1      47.435 -38.007  30.860  1.00  0.00     0.293 HD
ENDBRANCH   8  26
TORSDOF 6
ENDMDL
MODEL 3
REMARK VINA RESULT:    -5.345      5.643      8.593
REMARK INTER + INTRA:          -6.538
REMARK INTER:                  -6.219
REMARK INTRA:                  -0.319
REMARK UNBOUND:                -0.100
REMARK SMILES O=c1c(O)c(-c2ccc(O)c(O)c2)oc2cc(O)cc(O)c12
REMARK SMILES IDX 5 1 3 2 2 3 1 4 22 5 20 6 19 7 17 8 16 9 15 10 14 11 6 12
REMARK SMILES IDX 7 13 8 14 9 15 13 16 11 17 10 18 12 20 4 22 21 24 18 26
REMARK H PARENT 10 19 12 21 4 23 21 25 18 27
REMARK Flexibility Score: inf
ROOT
ATOM      1  C   UNL     1      38.242 -44.330  26.982  1.00  0.00     0.180 A 
ATOM      2  C   UNL     1      37.967 -42.969  26.764  1.00  0.00     0.208 A 
ATOM      3  C   UNL     1      37.559 -42.553  25.486  1.00  0.00     0.238 A 
ATOM      4  O   UNL     1      37.261 -41.343  25.311  1.00  0.00    -0.285 OA
ATOM      5  C   UNL     1      37.447 -43.500  24.439  1.00  0.00     0.111 A 
ATOM      6  C   UNL     1      37.082 -43.184  23.097  1.00  0.00     0.134 A 
ATOM      7  C   UNL     1      36.875 -44.218  22.176  1.00  0.00     0.093 A 
ATOM      8  C   UNL     1      37.085 -45.550  22.529  1.00  0.00     0.123 A 
ATOM      9  C   UNL     1      37.500 -45.866  23.824  1.00  0.00     0.094 A 
ATOM     10  C   UNL     1      37.679 -44.859  24.775  1.00  0.00     0.146 A 
ATOM     11  O   UNL     1      38.065 -45.203  25.998  1.00  0.00    -0.452 OA
ENDROOT
BRANCH   1  12
ATOM     12  C   UNL     1      38.701 -44.840  28.295  1.00  0.00     0.025 A 
ATOM     13  C   UNL     1      37.752 -45.208  29.262  1.00  0.00     0.016 A 
ATOM     14  C   UNL     1      38.162 -45.712  30.499  1.00  0.00     0.051 A 
ATOM     15  C   UNL     1      39.522 -45.869  30.783  1.00  0.00     0.157 A 
ATOM     16  C   UNL     1      40.067 -45.018  28.575  1.00  0.00     0.062 A 
ATOM     17  C   UNL     1      40.480 -45.525  29.816  1.00  0.00     0.158 A 
BRANCH  15  18
ATOM     18  O   UNL     1      39.901 -46.371  32.028  1.00  0.00    -0.504 OA
ATOM     19  H   UNL     1      39.316 -46.273  32.849  1.00  0.00     0.293 HD
ENDBRANCH  15  18
BRANCH  17  20
ATOM     20  O   UNL     1      41.838 -45.693  30.087  1.00  0.00    -0.504 OA
ATOM     21  H   UNL     1      42.235 -45.442  30.986  1.00  0.00     0.293 HD
ENDBRANCH  17  20
ENDBRANCH   1  12
BRANCH   2  22
ATOM     22  O   UNL     1      38.062 -42.055  27.817  1.00  0.00    -0.502 OA
ATOM     23  H   UNL     1      37.387 -41.313  27.956  1.00  0.00     0.293 HD
ENDBRANCH   2  22
BRANCH   6  24
ATOM     24  O   UNL     1      36.936 -41.879  22.614  1.00  0.00    -0.507 OA
ATOM     25  H   UNL     1      37.653 -41.364  22.127  1.00  0.00     0.293 HD
ENDBRANCH   6  24
BRANCH   8  26
ATOM     26  O   UNL     1      36.885 -46.552  21.582  1.00  0.00    -0.508 OA
ATOM     27  H   UNL     1      36.176 -46.468  20.863  1.00  0.00     0.293 HD
ENDBRANCH   8  26
TORSDOF 6
ENDMDL
MODEL 4
REMARK VINA RESULT:    -4.908      2.080      3.248
REMARK INTER + INTRA:          -6.012
REMARK INTER:                  -5.909
REMARK INTRA:                  -0.103
REMARK UNBOUND:                -0.100
REMARK SMILES O=c1c(O)c(-c2ccc(O)c(O)c2)oc2cc(O)cc(O)c12
REMARK SMILES IDX 5 1 3 2 2 3 1 4 22 5 20 6 19 7 17 8 16 9 15 10 14 11 6 12
REMARK SMILES IDX 7 13 8 14 9 15 13 16 11 17 10 18 12 20 4 22 21 24 18 26
REMARK H PARENT 10 19 12 21 4 23 21 25 18 27
REMARK Flexibility Score: inf
ROOT
ATOM      1  C   UNL     1      41.129 -43.575  31.552  1.00  0.00     0.180 A 
ATOM      2  C   UNL     1      40.558 -44.013  32.761  1.00  0.00     0.208 A 
ATOM      3  C   UNL     1      39.480 -44.911  32.719  1.00  0.00     0.238 A 
ATOM      4  O   UNL     1      39.010 -45.341  33.804  1.00  0.00    -0.285 OA
ATOM      5  C   UNL     1      38.975 -45.348  31.470  1.00  0.00     0.111 A 
ATOM      6  C   UNL     1      37.861 -46.225  31.310  1.00  0.00     0.134 A 
ATOM      7  C   UNL     1      37.530 -46.695  30.033  1.00  0.00     0.093 A 
ATOM      8  C   UNL     1      38.230 -46.268  28.905  1.00  0.00     0.123 A 
ATOM      9  C   UNL     1      39.284 -45.363  29.044  1.00  0.00     0.094 A 
ATOM     10  C   UNL     1      39.661 -44.906  30.310  1.00  0.00     0.146 A 
ATOM     11  O   UNL     1      40.675 -44.055  30.400  1.00  0.00    -0.452 OA
ENDROOT
BRANCH   1  12
ATOM     12  C   UNL     1      42.251 -42.610  31.514  1.00  0.00     0.025 A 
ATOM     13  C   UNL     1      43.422 -42.939  30.813  1.00  0.00     0.016 A 
ATOM     14  C   UNL     1      44.484 -42.035  30.746  1.00  0.00     0.051 A 
ATOM     15  C   UNL     1      44.389 -40.785  31.365  1.00  0.00     0.157 A 
ATOM     16  C   UNL     1      42.148 -41.344  32.118  1.00  0.00     0.062 A 
ATOM     17  C   UNL     1      43.214 -40.434  32.051  1.00  0.00     0.158 A 
BRANCH  15  18
ATOM     18  O   UNL     1      45.467 -39.904  31.285  1.00  0.00    -0.504 OA
ATOM     19  H   UNL     1      46.226 -40.040  30.628  1.00  0.00     0.293 HD
ENDBRANCH  15  18
BRANCH  17  20
ATOM     20  O   UNL     1      43.107 -39.183  32.658  1.00  0.00    -0.504 OA
ATOM     21  H   UNL     1      43.923 -38.679  32.983  1.00  0.00     0.293 HD
ENDBRANCH  17  20
ENDBRANCH   1  12
BRANCH   2  22
ATOM     22  O   UNL     1      41.087 -43.586  33.982  1.00  0.00    -0.502 OA
ATOM     23  H   UNL     1      40.556 -43.031  34.641  1.00  0.00     0.293 HD
ENDBRANCH   2  22
BRANCH   6  24
ATOM     24  O   UNL     1      37.037 -46.641  32.361  1.00  0.00    -0.507 OA
ATOM     25  H   UNL     1      36.935 -46.154  33.238  1.00  0.00     0.293 HD
ENDBRANCH   6  24
BRANCH   8  26
ATOM     26  O   UNL     1      37.863 -46.743  27.648  1.00  0.00    -0.508 OA
ATOM     27  H   UNL     1      36.894 -46.769  27.353  1.00  0.00     0.293 HD
ENDBRANCH   8  26
TORSDOF 6
ENDMDL
MODEL 5
REMARK VINA RESULT:    -4.892      1.733      7.184
REMARK INTER + INTRA:          -5.993
REMARK INTER:                  -6.099
REMARK INTRA:                   0.106
REMARK UNBOUND:                -0.100
REMARK SMILES O=c1c(O)c(-c2ccc(O)c(O)c2)oc2cc(O)cc(O)c12
REMARK SMILES IDX 5 1 3 2 2 3 1 4 22 5 20 6 19 7 17 8 16 9 15 10 14 11 6 12
REMARK SMILES IDX 7 13 8 14 9 15 13 16 11 17 10 18 12 20 4 22 21 24 18 26
REMARK H PARENT 10 19 12 21 4 23 21 25 18 27
REMARK Flexibility Score: inf
ROOT
ATOM      1  C   UNL     1      42.133 -42.956  31.800  1.00  0.00     0.180 A 
ATOM      2  C   UNL     1      43.128 -43.482  30.956  1.00  0.00     0.208 A 
ATOM      3  C   UNL     1      44.180 -42.649  30.543  1.00  0.00     0.238 A 
ATOM      4  O   UNL     1      45.095 -43.141  29.833  1.00  0.00    -0.285 OA
ATOM      5  C   UNL     1      44.215 -41.298  30.963  1.00  0.00     0.111 A 
ATOM      6  C   UNL     1      45.212 -40.355  30.572  1.00  0.00     0.134 A 
ATOM      7  C   UNL     1      45.222 -39.080  31.152  1.00  0.00     0.093 A 
ATOM      8  C   UNL     1      44.235 -38.694  32.058  1.00  0.00     0.123 A 
ATOM      9  C   UNL     1      43.221 -39.589  32.403  1.00  0.00     0.094 A 
ATOM     10  C   UNL     1      43.206 -40.880  31.868  1.00  0.00     0.146 A 
ATOM     11  O   UNL     1      42.231 -41.704  32.230  1.00  0.00    -0.452 OA
ENDROOT
BRANCH   1  12
ATOM     12  C   UNL     1      40.980 -43.765  32.258  1.00  0.00     0.025 A 
ATOM     13  C   UNL     1      40.499 -43.603  33.567  1.00  0.00     0.016 A 
ATOM     14  C   UNL     1      39.399 -44.339  34.013  1.00  0.00     0.051 A 
ATOM     15  C   UNL     1      38.756 -45.237  33.157  1.00  0.00     0.157 A 
ATOM     16  C   UNL     1      40.319 -44.653  31.392  1.00  0.00     0.062 A 
ATOM     17  C   UNL     1      39.213 -45.393  31.838  1.00  0.00     0.158 A 
BRANCH  15  18
ATOM     18  O   UNL     1      37.662 -45.961  33.631  1.00  0.00    -0.504 OA
ATOM     19  H   UNL     1      37.655 -46.974  33.653  1.00  0.00     0.293 HD
ENDBRANCH  15  18
BRANCH  17  20
ATOM     20  O   UNL     1      38.566 -46.276  30.974  1.00  0.00    -0.504 OA
ATOM     21  H   UNL     1      39.022 -47.114  30.633  1.00  0.00     0.293 HD
ENDBRANCH  17  20
ENDBRANCH   1  12
BRANCH   2  22
ATOM     22  O   UNL     1      43.085 -44.825  30.572  1.00  0.00    -0.502 OA
ATOM     23  H   UNL     1      43.818 -45.258  30.024  1.00  0.00     0.293 HD
ENDBRANCH   2  22
BRANCH   6  24
ATOM     24  O   UNL     1      46.190 -40.607  29.605  1.00  0.00    -0.507 OA
ATOM     25  H   UNL     1      46.418 -39.988  28.842  1.00  0.00     0.293 HD
ENDBRANCH   6  24
BRANCH   8  26
ATOM     26  O   UNL     1      44.267 -37.412  32.604  1.00  0.00    -0.508 OA
ATOM     27  H   UNL     1      43.681 -36.668  32.244  1.00  0.00     0.293 HD
ENDBRANCH   8  26
TORSDOF 6
ENDMDL
MODEL 6
REMARK VINA RESULT:    -4.785      2.641      6.886
REMARK INTER + INTRA:          -5.864
REMARK INTER:                  -5.647
REMARK INTRA:                  -0.217
REMARK UNBOUND:                -0.100
REMARK SMILES O=c1c(O)c(-c2ccc(O)c(O)c2)oc2cc(O)cc(O)c12
REMARK SMILES IDX 5 1 3 2 2 3 1 4 22 5 20 6 19 7 17 8 16 9 15 10 14 11 6 12
REMARK SMILES IDX 7 13 8 14 9 15 13 16 11 17 10 18 12 20 4 22 21 24 18 26
REMARK H PARENT 10 19 12 21 4 23 21 25 18 27
REMARK Flexibility Score: inf
ROOT
ATOM      1  C   UNL     1      41.621 -42.955  31.534  1.00  0.00     0.180 A 
ATOM      2  C   UNL     1      42.945 -43.130  31.974  1.00  0.00     0.208 A 
ATOM      3  C   UNL     1      43.554 -42.111  32.723  1.00  0.00     0.238 A 
ATOM      4  O   UNL     1      44.720 -42.297  33.160  1.00  0.00    -0.285 OA
ATOM      5  C   UNL     1      42.839 -40.923  33.009  1.00  0.00     0.111 A 
ATOM      6  C   UNL     1      43.372 -39.809  33.725  1.00  0.00     0.134 A 
ATOM      7  C   UNL     1      42.533 -38.740  34.063  1.00  0.00     0.093 A 
ATOM      8  C   UNL     1      41.200 -38.714  33.655  1.00  0.00     0.123 A 
ATOM      9  C   UNL     1      40.684 -39.771  32.903  1.00  0.00     0.094 A 
ATOM     10  C   UNL     1      41.487 -40.868  32.582  1.00  0.00     0.146 A 
ATOM     11  O   UNL     1      40.955 -41.857  31.875  1.00  0.00    -0.452 OA
ENDROOT
BRANCH   1  12
ATOM     12  C   UNL     1      40.921 -43.973  30.719  1.00  0.00     0.025 A 
ATOM     13  C   UNL     1      39.792 -44.622  31.245  1.00  0.00     0.016 A 
ATOM     14  C   UNL     1      39.103 -45.570  30.486  1.00  0.00     0.051 A 
ATOM     15  C   UNL     1      39.521 -45.875  29.187  1.00  0.00     0.157 A 
ATOM     16  C   UNL     1      41.327 -44.266  29.405  1.00  0.00     0.062 A 
ATOM     17  C   UNL     1      40.635 -45.217  28.641  1.00  0.00     0.158 A 
BRANCH  15  18
ATOM     18  O   UNL     1      38.815 -46.829  28.454  1.00  0.00    -0.504 OA
ATOM     19  H   UNL     1      39.062 -47.812  28.470  1.00  0.00     0.293 HD
ENDBRANCH  15  18
BRANCH  17  20
ATOM     20  O   UNL     1      41.048 -45.506  27.340  1.00  0.00    -0.504 OA
ATOM     21  H   UNL     1      40.656 -46.281  26.818  1.00  0.00     0.293 HD
ENDBRANCH  17  20
ENDBRANCH   1  12
BRANCH   2  22
ATOM     22  O   UNL     1      43.625 -44.320  31.700  1.00  0.00    -0.502 OA
ATOM     23  H   UNL     1      44.043 -44.888  32.427  1.00  0.00     0.293 HD
ENDBRANCH   2  22
BRANCH   6  24
ATOM     24  O   UNL     1      44.714 -39.692  34.100  1.00  0.00    -0.507 OA
ATOM     25  H   UNL     1      45.436 -40.355  33.865  1.00  0.00     0.293 HD
ENDBRANCH   6  24
BRANCH   8  26
ATOM     26  O   UNL     1      40.398 -37.627  33.996  1.00  0.00    -0.508 OA
ATOM     27  H   UNL     1      40.407 -37.234  34.930  1.00  0.00     0.293 HD
ENDBRANCH   8  26
TORSDOF 6
ENDMDL
MODEL 7
REMARK VINA RESULT:    -4.726      7.832     10.972
REMARK INTER + INTRA:          -5.793
REMARK INTER:                  -6.107
REMARK INTRA:                   0.314
REMARK UNBOUND:                -0.100
REMARK SMILES O=c1c(O)c(-c2ccc(O)c(O)c2)oc2cc(O)cc(O)c12
REMARK SMILES IDX 5 1 3 2 2 3 1 4 22 5 20 6 19 7 17 8 16 9 15 10 14 11 6 12
REMARK SMILES IDX 7 13 8 14 9 15 13 16 11 17 10 18 12 20 4 22 21 24 18 26
REMARK H PARENT 10 19 12 21 4 23 21 25 18 27
REMARK Flexibility Score: inf
ROOT
ATOM      1  C   UNL     1      38.005 -43.155  23.913  1.00  0.00     0.180 A 
ATOM      2  C   UNL     1      37.895 -44.055  22.839  1.00  0.00     0.208 A 
ATOM      3  C   UNL     1      38.139 -43.593  21.535  1.00  0.00     0.238 A 
ATOM      4  O   UNL     1      38.093 -44.416  20.585  1.00  0.00    -0.285 OA
ATOM      5  C   UNL     1      38.473 -42.234  21.321  1.00  0.00     0.111 A 
ATOM      6  C   UNL     1      38.701 -41.649  20.040  1.00  0.00     0.134 A 
ATOM      7  C   UNL     1      39.154 -40.327  19.955  1.00  0.00     0.093 A 
ATOM      8  C   UNL     1      39.322 -39.549  21.099  1.00  0.00     0.123 A 
ATOM      9  C   UNL     1      39.045 -40.093  22.355  1.00  0.00     0.094 A 
ATOM     10  C   UNL     1      38.628 -41.421  22.473  1.00  0.00     0.146 A 
ATOM     11  O   UNL     1      38.384 -41.903  23.685  1.00  0.00    -0.452 OA
ENDROOT
BRANCH   1  12
ATOM     12  C   UNL     1      37.739 -43.562  25.312  1.00  0.00     0.025 A 
ATOM     13  C   UNL     1      37.231 -42.619  26.220  1.00  0.00     0.016 A 
ATOM     14  C   UNL     1      36.952 -42.986  27.539  1.00  0.00     0.051 A 
ATOM     15  C   UNL     1      37.161 -44.300  27.966  1.00  0.00     0.157 A 
ATOM     16  C   UNL     1      37.928 -44.888  25.738  1.00  0.00     0.062 A 
ATOM     17  C   UNL     1      37.646 -45.259  27.061  1.00  0.00     0.158 A 
BRANCH  15  18
ATOM     18  O   UNL     1      36.876 -44.637  29.289  1.00  0.00    -0.504 OA
ATOM     19  H   UNL     1      37.166 -44.056  30.067  1.00  0.00     0.293 HD
ENDBRANCH  15  18
BRANCH  17  20
ATOM     20  O   UNL     1      37.843 -46.575  27.477  1.00  0.00    -0.504 OA
ATOM     21  H   UNL     1      38.619 -47.130  27.135  1.00  0.00     0.293 HD
ENDBRANCH  17  20
ENDBRANCH   1  12
BRANCH   2  22
ATOM     22  O   UNL     1      37.586 -45.398  23.075  1.00  0.00    -0.502 OA
ATOM     23  H   UNL     1      36.719 -45.688  23.510  1.00  0.00     0.293 HD
ENDBRANCH   2  22
BRANCH   6  24
ATOM     24  O   UNL     1      38.474 -42.310  18.828  1.00  0.00    -0.507 OA
ATOM     25  H   UNL     1      39.081 -43.013  18.435  1.00  0.00     0.293 HD
ENDBRANCH   6  24
BRANCH   8  26
ATOM     26  O   UNL     1      39.759 -38.232  20.977  1.00  0.00    -0.508 OA
ATOM     27  H   UNL     1      40.401 -37.952  20.244  1.00  0.00     0.293 HD
ENDBRANCH   8  26
TORSDOF 6
ENDMDL
MODEL 8
REMARK VINA RESULT:    -4.582      2.579      4.843
REMARK INTER + INTRA:          -5.620
REMARK INTER:                  -5.369
REMARK INTRA:                  -0.251
REMARK UNBOUND:                -0.100
REMARK SMILES O=c1c(O)c(-c2ccc(O)c(O)c2)oc2cc(O)cc(O)c12
REMARK SMILES IDX 5 1 3 2 2 3 1 4 22 5 20 6 19 7 17 8 16 9 15 10 14 11 6 12
REMARK SMILES IDX 7 13 8 14 9 15 13 16 11 17 10 18 12 20 4 22 21 24 18 26
REMARK H PARENT 10 19 12 21 4 23 21 25 18 27
REMARK Flexibility Score: inf
ROOT
ATOM      1  C   UNL     1      40.541 -44.164  30.708  1.00  0.00     0.180 A 
ATOM      2  C   UNL     1      40.081 -44.206  29.380  1.00  0.00     0.208 A 
ATOM      3  C   UNL     1      39.060 -45.108  29.041  1.00  0.00     0.238 A 
ATOM      4  O   UNL     1      38.615 -45.102  27.864  1.00  0.00    -0.285 OA
ATOM      5  C   UNL     1      38.524 -45.969  30.029  1.00  0.00     0.111 A 
ATOM      6  C   UNL     1      37.517 -46.950  29.787  1.00  0.00     0.134 A 
ATOM      7  C   UNL     1      36.968 -47.656  30.865  1.00  0.00     0.093 A 
ATOM      8  C   UNL     1      37.436 -47.465  32.164  1.00  0.00     0.123 A 
ATOM      9  C   UNL     1      38.463 -46.550  32.403  1.00  0.00     0.094 A 
ATOM     10  C   UNL     1      39.004 -45.804  31.353  1.00  0.00     0.146 A 
ATOM     11  O   UNL     1      39.973 -44.938  31.625  1.00  0.00    -0.452 OA
ENDROOT
BRANCH   1  12
ATOM     12  C   UNL     1      41.631 -43.257  31.135  1.00  0.00     0.025 A 
ATOM     13  C   UNL     1      42.952 -43.534  30.746  1.00  0.00     0.016 A 
ATOM     14  C   UNL     1      43.992 -42.681  31.120  1.00  0.00     0.051 A 
ATOM     15  C   UNL     1      43.730 -41.533  31.874  1.00  0.00     0.157 A 
ATOM     16  C   UNL     1      41.366 -42.092  31.876  1.00  0.00     0.062 A 
ATOM     17  C   UNL     1      42.411 -41.233  32.250  1.00  0.00     0.158 A 
BRANCH  15  18
ATOM     18  O   UNL     1      44.790 -40.702  32.235  1.00  0.00    -0.504 OA
ATOM     19  H   UNL     1      45.708 -40.786  31.814  1.00  0.00     0.293 HD
ENDBRANCH  15  18
BRANCH  17  20
ATOM     20  O   UNL     1      42.141 -40.082  32.990  1.00  0.00    -0.504 OA
ATOM     21  H   UNL     1      42.874 -39.433  33.249  1.00  0.00     0.293 HD
ENDBRANCH  17  20
ENDBRANCH   1  12
BRANCH   2  22
ATOM     22  O   UNL     1      40.608 -43.331  28.426  1.00  0.00    -0.502 OA
ATOM     23  H   UNL     1      40.114 -42.504  28.113  1.00  0.00     0.293 HD
ENDBRANCH   2  22
BRANCH   6  24
ATOM     24  O   UNL     1      37.042 -47.286  28.515  1.00  0.00    -0.507 OA
ATOM     25  H   UNL     1      36.493 -48.105  28.305  1.00  0.00     0.293 HD
ENDBRANCH   6  24
BRANCH   8  26
ATOM     26  O   UNL     1      36.878 -48.196  33.211  1.00  0.00    -0.508 OA
ATOM     27  H   UNL     1      37.423 -48.871  33.735  1.00  0.00     0.293 HD
ENDBRANCH   8  26
TORSDOF 6
ENDMDL
MODEL 9
REMARK VINA RESULT:    -4.494      2.514      3.255
REMARK INTER + INTRA:          -5.514
REMARK INTER:                  -5.374
REMARK INTRA:                  -0.140
REMARK UNBOUND:                -0.100
REMARK SMILES O=c1c(O)c(-c2ccc(O)c(O)c2)oc2cc(O)cc(O)c12
REMARK SMILES IDX 5 1 3 2 2 3 1 4 22 5 20 6 19 7 17 8 16 9 15 10 14 11 6 12
REMARK SMILES IDX 7 13 8 14 9 15 13 16 11 17 10 18 12 20 4 22 21 24 18 26
REMARK H PARENT 10 19 12 21 4 23 21 25 18 27
REMARK Flexibility Score: inf
ROOT
ATOM      1  C   UNL     1      40.939 -43.180  31.865  1.00  0.00     0.180 A 
ATOM      2  C   UNL     1      40.271 -44.042  32.754  1.00  0.00     0.208 A 
ATOM      3  C   UNL     1      39.364 -44.981  32.239  1.00  0.00     0.238 A 
ATOM      4  O   UNL     1      38.812 -45.785  33.035  1.00  0.00    -0.285 OA
ATOM      5  C   UNL     1      39.121 -45.037  30.846  1.00  0.00     0.111 A 
ATOM      6  C   UNL     1      38.193 -45.921  30.220  1.00  0.00     0.134 A 
ATOM      7  C   UNL     1      38.130 -45.981  28.823  1.00  0.00     0.093 A 
ATOM      8  C   UNL     1      38.913 -45.142  28.030  1.00  0.00     0.123 A 
ATOM      9  C   UNL     1      39.782 -44.231  28.633  1.00  0.00     0.094 A 
ATOM     10  C   UNL     1      39.894 -44.175  30.024  1.00  0.00     0.146 A 
ATOM     11  O   UNL     1      40.739 -43.302  30.558  1.00  0.00    -0.452 OA
ENDROOT
BRANCH   1  12
ATOM     12  C   UNL     1      41.890 -42.148  32.334  1.00  0.00     0.025 A 
ATOM     13  C   UNL     1      41.573 -40.790  32.168  1.00  0.00     0.016 A 
ATOM     14  C   UNL     1      42.446 -39.799  32.622  1.00  0.00     0.051 A 
ATOM     15  C   UNL     1      43.639 -40.146  33.262  1.00  0.00     0.157 A 
ATOM     16  C   UNL     1      43.081 -42.495  32.996  1.00  0.00     0.062 A 
ATOM     17  C   UNL     1      43.958 -41.501  33.455  1.00  0.00     0.158 A 
BRANCH  15  18
ATOM     18  O   UNL     1      44.493 -39.135  33.702  1.00  0.00    -0.504 OA
ATOM     19  H   UNL     1      45.267 -38.801  33.141  1.00  0.00     0.293 HD
ENDBRANCH  15  18
BRANCH  17  20
ATOM     20  O   UNL     1      45.140 -41.854  34.105  1.00  0.00    -0.504 OA
ATOM     21  H   UNL     1      45.527 -41.286  34.849  1.00  0.00     0.293 HD
ENDBRANCH  17  20
ENDBRANCH   1  12
BRANCH   2  22
ATOM     22  O   UNL     1      40.542 -43.985  34.124  1.00  0.00    -0.502 OA
ATOM     23  H   UNL     1      39.813 -43.887  34.819  1.00  0.00     0.293 HD
ENDBRANCH   2  22
BRANCH   6  24
ATOM     24  O   UNL     1      37.298 -46.736  30.920  1.00  0.00    -0.507 OA
ATOM     25  H   UNL     1      37.257 -46.815  31.925  1.00  0.00     0.293 HD
ENDBRANCH   6  24
BRANCH   8  26
ATOM     26  O   UNL     1      38.814 -45.217  26.643  1.00  0.00    -0.508 OA
ATOM     27  H   UNL     1      39.566 -45.594  26.077  1.00  0.00     0.293 HD
ENDBRANCH   8  26
TORSDOF 6
ENDMDL
