MODEL 1
REMARK VINA RESULT:    -4.602      0.000      0.000
REMARK INTER + INTRA:          -7.196
REMARK INTER:                  -6.486
REMARK INTRA:                  -0.710
REMARK UNBOUND:                -0.710
REMARK SMILES CCCCCCCCC(=O)[O-]
REMARK SMILES IDX 6 1 7 2 8 3 9 4 10 5 11 6 5 7 4 8 3 9 2 10 1 11
REMARK H PARENT
REMARK Flexibility Score: inf
ROOT
ATOM      1  C   UNL     1      41.314  59.154  48.644  1.00  0.00     0.000 C 
ENDROOT
BRANCH   1   2
ATOM      2  C   UNL     1      42.272  60.295  48.260  1.00  0.00     0.006 C 
BRANCH   2   3
ATOM      3  C   UNL     1      43.071  60.809  49.465  1.00  0.00     0.053 C 
BRANCH   3   4
ATOM      4  C   UNL     1      44.548  60.699  49.240  1.00  0.00     0.041 C 
ATOM      5  O   UNL     1      45.119  59.579  49.309  1.00  0.00    -0.550 OA
ATOM      6  O   UNL     1      45.299  61.839  48.982  1.00  0.00    -0.550 OA
ENDBRANCH   3   4
ENDBRANCH   2   3
ENDBRANCH   1   2
BRANCH   1   7
ATOM      7  C   UNL     1      42.046  57.921  49.201  1.00  0.00     0.000 C 
BRANCH   7   8
ATOM      8  C   UNL     1      42.410  56.846  48.156  1.00  0.00    -0.000 C 
BRANCH   8   9
ATOM      9  C   UNL     1      43.821  56.971  47.554  1.00  0.00    -0.000 C 
BRANCH   9  10
ATOM     10  C   UNL     1      43.838  57.744  46.229  1.00  0.00    -0.003 C 
ATOM     11  C   UNL     1      42.623  57.394  45.374  1.00  0.00     0.004 C 
ENDBRANCH   9  10
ENDBRANCH   8   9
ENDBRANCH   7   8
ENDBRANCH   1   7
TORSDOF 7
ENDMDL
MODEL 2
REMARK VINA RESULT:    -4.575      1.243      2.183
REMARK INTER + INTRA:          -7.158
REMARK INTER:                  -6.459
REMARK INTRA:                  -0.698
REMARK UNBOUND:                -0.710
REMARK SMILES CCCCCCCCC(=O)[O-]
REMARK SMILES IDX 6 1 7 2 8 3 9 4 10 5 11 6 5 7 4 8 3 9 2 10 1 11
REMARK H PARENT
REMARK Flexibility Score: inf
ROOT
ATOM      1  C   UNL     1      40.370  57.997  48.353  1.00  0.00     0.000 C 
ENDROOT
BRANCH   1   2
ATOM      2  C   UNL     1      41.561  58.598  49.119  1.00  0.00     0.006 C 
BRANCH   2   3
ATOM      3  C   UNL     1      41.873  60.031  48.671  1.00  0.00     0.053 C 
BRANCH   3   4
ATOM      4  C   UNL     1      43.039  60.605  49.415  1.00  0.00     0.041 C 
ATOM      5  O   UNL     1      42.971  61.762  49.906  1.00  0.00    -0.550 OA
ATOM      6  O   UNL     1      44.213  59.872  49.542  1.00  0.00    -0.550 OA
ENDBRANCH   3   4
ENDBRANCH   2   3
ENDBRANCH   1   2
BRANCH   1   7
ATOM      7  C   UNL     1      40.802  57.001  47.263  1.00  0.00     0.000 C 
BRANCH   7   8
ATOM      8  C   UNL     1      41.246  57.638  45.930  1.00  0.00    -0.000 C 
BRANCH   8   9
ATOM      9  C   UNL     1      42.673  57.279  45.477  1.00  0.00    -0.000 C 
BRANCH   9  10
ATOM     10  C   UNL     1      43.750  58.105  46.195  1.00  0.00    -0.003 C 
ATOM     11  C   UNL     1      44.441  57.282  47.278  1.00  0.00     0.004 C 
ENDBRANCH   9  10
ENDBRANCH   8   9
ENDBRANCH   7   8
ENDBRANCH   1   7
TORSDOF 7
ENDMDL
MODEL 3
REMARK VINA RESULT:    -4.563      3.115      4.433
REMARK INTER + INTRA:          -7.140
REMARK INTER:                  -6.470
REMARK INTRA:                  -0.670
REMARK UNBOUND:                -0.710
REMARK SMILES CCCCCCCCC(=O)[O-]
REMARK SMILES IDX 6 1 7 2 8 3 9 4 10 5 11 6 5 7 4 8 3 9 2 10 1 11
REMARK H PARENT
REMARK Flexibility Score: inf
ROOT
ATOM      1  C   UNL     1      41.764  59.443  48.925  1.00  0.00     0.000 C 
ENDROOT
BRANCH   1   2
ATOM      2  C   UNL     1      41.291  57.980  48.972  1.00  0.00     0.006 C 
BRANCH   2   3
ATOM      3  C   UNL     1      40.014  57.758  48.150  1.00  0.00     0.053 C 
BRANCH   3   4
ATOM      4  C   UNL     1      40.238  56.799  47.022  1.00  0.00     0.041 C 
ATOM      5  O   UNL     1      40.783  57.189  45.956  1.00  0.00    -0.550 OA
ATOM      6  O   UNL     1      39.819  55.479  47.137  1.00  0.00    -0.550 OA
ENDBRANCH   3   4
ENDBRANCH   2   3
ENDBRANCH   1   2
BRANCH   1   7
ATOM      7  C   UNL     1      42.185  59.890  47.513  1.00  0.00     0.000 C 
BRANCH   7   8
ATOM      8  C   UNL     1      43.668  59.651  47.164  1.00  0.00    -0.000 C 
BRANCH   8   9
ATOM      9  C   UNL     1      43.971  58.300  46.490  1.00  0.00    -0.000 C 
BRANCH   9  10
ATOM     10  C   UNL     1      44.503  57.250  47.475  1.00  0.00    -0.003 C 
ATOM     11  C   UNL     1      45.361  57.898  48.558  1.00  0.00     0.004 C 
ENDBRANCH   9  10
ENDBRANCH   8   9
ENDBRANCH   7   8
ENDBRANCH   1   7
TORSDOF 7
ENDMDL
MODEL 4
REMARK VINA RESULT:    -4.558      2.753      4.605
REMARK INTER + INTRA:          -7.134
REMARK INTER:                  -6.513
REMARK INTRA:                  -0.621
REMARK UNBOUND:                -0.710
REMARK SMILES CCCCCCCCC(=O)[O-]
REMARK SMILES IDX 6 1 7 2 8 3 9 4 10 5 11 6 5 7 4 8 3 9 2 10 1 11
REMARK H PARENT
REMARK Flexibility Score: inf
ROOT
ATOM      1  C   UNL     1      45.236  57.872  48.325  1.00  0.00     0.000 C 
ENDROOT
BRANCH   1   2
ATOM      2  C   UNL     1      44.185  57.171  47.447  1.00  0.00     0.006 C 
BRANCH   2   3
ATOM      3  C   UNL     1      43.835  57.992  46.199  1.00  0.00     0.053 C 
BRANCH   3   4
ATOM      4  C   UNL     1      42.775  57.326  45.375  1.00  0.00     0.041 C 
ATOM      5  O   UNL     1      43.024  56.961  44.197  1.00  0.00    -0.550 OA
ATOM      6  O   UNL     1      41.503  57.136  45.901  1.00  0.00    -0.550 OA
ENDBRANCH   3   4
ENDBRANCH   2   3
ENDBRANCH   1   2
BRANCH   1   7
ATOM      7  C   UNL     1      44.609  58.698  49.463  1.00  0.00     0.000 C 
BRANCH   7   8
ATOM      8  C   UNL     1      44.339  60.178  49.126  1.00  0.00    -0.000 C 
BRANCH   8   9
ATOM      9  C   UNL     1      42.890  60.646  49.356  1.00  0.00    -0.000 C 
BRANCH   9  10
ATOM     10  C   UNL     1      41.926  60.155  48.268  1.00  0.00    -0.003 C 
ATOM     11  C   UNL     1      41.152  58.926  48.734  1.00  0.00     0.004 C 
ENDBRANCH   9  10
ENDBRANCH   8   9
ENDBRANCH   7   8
ENDBRANCH   1   7
TORSDOF 7
ENDMDL
MODEL 5
REMARK VINA RESULT:    -4.520      1.786      2.906
REMARK INTER + INTRA:          -7.080
REMARK INTER:                  -6.330
REMARK INTRA:                  -0.749
REMARK UNBOUND:                -0.710
REMARK SMILES CCCCCCCCC(=O)[O-]
REMARK SMILES IDX 6 1 7 2 8 3 9 4 10 5 11 6 5 7 4 8 3 9 2 10 1 11
REMARK H PARENT
REMARK Flexibility Score: inf
ROOT
ATOM      1  C   UNL     1      44.121  57.296  48.014  1.00  0.00     0.000 C 
ENDROOT
BRANCH   1   2
ATOM      2  C   UNL     1      43.525  58.119  49.170  1.00  0.00     0.006 C 
BRANCH   2   3
ATOM      3  C   UNL     1      44.030  59.567  49.169  1.00  0.00     0.053 C 
BRANCH   3   4
ATOM      4  C   UNL     1      42.900  60.550  49.186  1.00  0.00     0.041 C 
ATOM      5  O   UNL     1      41.936  60.422  48.386  1.00  0.00    -0.550 OA
ATOM      6  O   UNL     1      42.925  61.624  50.066  1.00  0.00    -0.550 OA
ENDBRANCH   3   4
ENDBRANCH   2   3
ENDBRANCH   1   2
BRANCH   1   7
ATOM      7  C   UNL     1      44.022  58.014  46.657  1.00  0.00     0.000 C 
BRANCH   7   8
ATOM      8  C   UNL     1      42.955  57.452  45.694  1.00  0.00    -0.000 C 
BRANCH   8   9
ATOM      9  C   UNL     1      41.518  57.936  45.958  1.00  0.00    -0.000 C 
BRANCH   9  10
ATOM     10  C   UNL     1      40.674  56.905  46.721  1.00  0.00    -0.003 C 
ATOM     11  C   UNL     1      40.049  57.523  47.968  1.00  0.00     0.004 C 
ENDBRANCH   9  10
ENDBRANCH   8   9
ENDBRANCH   7   8
ENDBRANCH   1   7
TORSDOF 7
ENDMDL
MODEL 6
REMARK VINA RESULT:    -4.506      1.494      2.081
REMARK INTER + INTRA:          -7.060
REMARK INTER:                  -6.312
REMARK INTRA:                  -0.748
REMARK UNBOUND:                -0.710
REMARK SMILES CCCCCCCCC(=O)[O-]
REMARK SMILES IDX 6 1 7 2 8 3 9 4 10 5 11 6 5 7 4 8 3 9 2 10 1 11
REMARK H PARENT
REMARK Flexibility Score: inf
ROOT
ATOM      1  C   UNL     1      42.645  57.261  49.050  1.00  0.00     0.000 C 
ENDROOT
BRANCH   1   2
ATOM      2  C   UNL     1      43.901  58.149  49.078  1.00  0.00     0.006 C 
BRANCH   2   3
ATOM      3  C   UNL     1      43.711  59.443  48.276  1.00  0.00     0.053 C 
BRANCH   3   4
ATOM      4  C   UNL     1      43.940  60.659  49.121  1.00  0.00     0.041 C 
ATOM      5  O   UNL     1      43.013  61.113  49.842  1.00  0.00    -0.550 OA
ATOM      6  O   UNL     1      45.168  61.307  49.089  1.00  0.00    -0.550 OA
ENDBRANCH   3   4
ENDBRANCH   2   3
ENDBRANCH   1   2
BRANCH   1   7
ATOM      7  C   UNL     1      41.340  58.067  49.164  1.00  0.00     0.000 C 
BRANCH   7   8
ATOM      8  C   UNL     1      40.280  57.756  48.087  1.00  0.00    -0.000 C 
BRANCH   8   9
ATOM      9  C   UNL     1      40.772  56.882  46.920  1.00  0.00    -0.000 C 
BRANCH   9  10
ATOM     10  C   UNL     1      41.224  57.707  45.707  1.00  0.00    -0.003 C 
ATOM     11  C   UNL     1      42.662  57.373  45.320  1.00  0.00     0.004 C 
ENDBRANCH   9  10
ENDBRANCH   8   9
ENDBRANCH   7   8
ENDBRANCH   1   7
TORSDOF 7
ENDMDL
MODEL 7
REMARK VINA RESULT:    -4.492      2.451      4.225
REMARK INTER + INTRA:          -7.040
REMARK INTER:                  -6.297
REMARK INTRA:                  -0.743
REMARK UNBOUND:                -0.710
REMARK SMILES CCCCCCCCC(=O)[O-]
REMARK SMILES IDX 6 1 7 2 8 3 9 4 10 5 11 6 5 7 4 8 3 9 2 10 1 11
REMARK H PARENT
REMARK Flexibility Score: inf
ROOT
ATOM      1  C   UNL     1      41.531  57.978  48.870  1.00  0.00     0.000 C 
ENDROOT
BRANCH   1   2
ATOM      2  C   UNL     1      42.077  56.981  47.833  1.00  0.00     0.006 C 
BRANCH   2   3
ATOM      3  C   UNL     1      41.676  57.359  46.401  1.00  0.00     0.053 C 
BRANCH   3   4
ATOM      4  C   UNL     1      42.868  57.461  45.499  1.00  0.00     0.041 C 
ATOM      5  O   UNL     1      43.887  58.103  45.864  1.00  0.00    -0.550 OA
ATOM      6  O   UNL     1      42.841  56.871  44.242  1.00  0.00    -0.550 OA
ENDBRANCH   3   4
ENDBRANCH   2   3
ENDBRANCH   1   2
BRANCH   1   7
ATOM      7  C   UNL     1      41.557  59.433  48.372  1.00  0.00     0.000 C 
BRANCH   7   8
ATOM      8  C   UNL     1      42.565  60.354  49.090  1.00  0.00    -0.000 C 
BRANCH   8   9
ATOM      9  C   UNL     1      44.028  60.201  48.637  1.00  0.00    -0.000 C 
BRANCH   9  10
ATOM     10  C   UNL     1      44.867  59.360  49.609  1.00  0.00    -0.003 C 
ATOM     11  C   UNL     1      45.480  58.154  48.903  1.00  0.00     0.004 C 
ENDBRANCH   9  10
ENDBRANCH   8   9
ENDBRANCH   7   8
ENDBRANCH   1   7
TORSDOF 7
ENDMDL
MODEL 8
REMARK VINA RESULT:    -4.485      3.106      4.504
REMARK INTER + INTRA:          -7.031
REMARK INTER:                  -6.310
REMARK INTRA:                  -0.721
REMARK UNBOUND:                -0.710
REMARK SMILES CCCCCCCCC(=O)[O-]
REMARK SMILES IDX 6 1 7 2 8 3 9 4 10 5 11 6 5 7 4 8 3 9 2 10 1 11
REMARK H PARENT
REMARK Flexibility Score: inf
ROOT
ATOM      1  C   UNL     1      43.689  58.285  46.411  1.00  0.00     0.000 C 
ENDROOT
BRANCH   1   2
ATOM      2  C   UNL     1      42.233  58.762  46.553  1.00  0.00     0.006 C 
BRANCH   2   3
ATOM      3  C   UNL     1      41.602  58.309  47.876  1.00  0.00     0.053 C 
BRANCH   3   4
ATOM      4  C   UNL     1      40.384  57.467  47.652  1.00  0.00     0.041 C 
ATOM      5  O   UNL     1      40.346  56.647  46.697  1.00  0.00    -0.550 OA
ATOM      6  O   UNL     1      39.279  57.608  48.481  1.00  0.00    -0.550 OA
ENDBRANCH   3   4
ENDBRANCH   2   3
ENDBRANCH   1   2
BRANCH   1   7
ATOM      7  C   UNL     1      44.144  57.399  47.584  1.00  0.00     0.000 C 
BRANCH   7   8
ATOM      8  C   UNL     1      45.291  57.978  48.437  1.00  0.00    -0.000 C 
BRANCH   8   9
ATOM      9  C   UNL     1      44.848  58.891  49.594  1.00  0.00    -0.000 C 
BRANCH   9  10
ATOM     10  C   UNL     1      44.723  60.363  49.176  1.00  0.00    -0.003 C 
ATOM     11  C   UNL     1      43.357  60.927  49.556  1.00  0.00     0.004 C 
ENDBRANCH   9  10
ENDBRANCH   8   9
ENDBRANCH   7   8
ENDBRANCH   1   7
TORSDOF 7
ENDMDL
MODEL 9
REMARK VINA RESULT:    -4.476      1.579      2.363
REMARK INTER + INTRA:          -7.018
REMARK INTER:                  -6.272
REMARK INTRA:                  -0.746
REMARK UNBOUND:                -0.710
REMARK SMILES CCCCCCCCC(=O)[O-]
REMARK SMILES IDX 6 1 7 2 8 3 9 4 10 5 11 6 5 7 4 8 3 9 2 10 1 11
REMARK H PARENT
REMARK Flexibility Score: inf
ROOT
ATOM      1  C   UNL     1      42.034  59.776  48.665  1.00  0.00     0.000 C 
ENDROOT
BRANCH   1   2
ATOM      2  C   UNL     1      43.425  59.740  48.008  1.00  0.00     0.006 C 
BRANCH   2   3
ATOM      3  C   UNL     1      44.071  58.351  48.098  1.00  0.00     0.053 C 
BRANCH   3   4
ATOM      4  C   UNL     1      45.259  58.349  49.010  1.00  0.00     0.041 C 
ATOM      5  O   UNL     1      45.292  59.110  50.012  1.00  0.00    -0.550 OA
ATOM      6  O   UNL     1      46.344  57.526  48.736  1.00  0.00    -0.550 OA
ENDBRANCH   3   4
ENDBRANCH   2   3
ENDBRANCH   1   2
BRANCH   1   7
ATOM      7  C   UNL     1      41.488  58.374  48.987  1.00  0.00     0.000 C 
BRANCH   7   8
ATOM      8  C   UNL     1      40.347  57.887  48.070  1.00  0.00    -0.000 C 
BRANCH   8   9
ATOM      9  C   UNL     1      40.779  56.941  46.935  1.00  0.00    -0.000 C 
BRANCH   9  10
ATOM     10  C   UNL     1      41.133  57.687  45.641  1.00  0.00    -0.003 C 
ATOM     11  C   UNL     1      42.483  57.232  45.096  1.00  0.00     0.004 C 
ENDBRANCH   9  10
ENDBRANCH   8   9
ENDBRANCH   7   8
ENDBRANCH   1   7
TORSDOF 7
ENDMDL
