MODEL 1
REMARK VINA RESULT:    -5.514      0.000      0.000
REMARK INTER + INTRA:          -6.025
REMARK INTER:                  -5.998
REMARK INTRA:                  -0.027
REMARK UNBOUND:                -0.027
REMARK SMILES O=C([O-])c1ccc(O)cc1
REMARK SMILES IDX 4 1 5 2 10 3 6 4 9 5 7 6 2 7 1 8 3 9 8 10
REMARK H PARENT 8 11
REMARK Flexibility Score: inf
ROOT
ATOM      1  C   UNL     1       0.515   0.049   0.309  1.00  0.00    -0.003 A 
ATOM      2  C   UNL     1       1.579   0.785  -0.245  1.00  0.00     0.014 A 
ATOM      3  C   UNL     1      -0.220  -0.817  -0.521  1.00  0.00     0.014 A 
ATOM      4  C   UNL     1       1.899   0.656  -1.600  1.00  0.00     0.047 A 
ATOM      5  C   UNL     1       0.103  -0.943  -1.876  1.00  0.00     0.047 A 
ATOM      6  C   UNL     1       1.161  -0.207  -2.419  1.00  0.00     0.115 A 
ENDROOT
BRANCH   1   7
ATOM      7  C   UNL     1       0.172   0.180   1.742  1.00  0.00     0.071 C 
ATOM      8  O   UNL     1       0.485  -0.726   2.561  1.00  0.00    -0.545 OA
ATOM      9  O   UNL     1      -0.501   1.304   2.205  1.00  0.00    -0.545 OA
ENDBRANCH   1   7
BRANCH   6  10
ATOM     10  O   UNL     1       1.471  -0.344  -3.771  1.00  0.00    -0.508 OA
ATOM     11  H   UNL     1       0.987  -1.011  -4.360  1.00  0.00     0.293 HD
ENDBRANCH   6  10
TORSDOF 2
ENDMDL
MODEL 2
REMARK VINA RESULT:    -5.508      0.055      1.842
REMARK INTER + INTRA:          -6.018
REMARK INTER:                  -5.991
REMARK INTRA:                  -0.027
REMARK UNBOUND:                -0.027
REMARK SMILES O=C([O-])c1ccc(O)cc1
REMARK SMILES IDX 4 1 5 2 10 3 6 4 9 5 7 6 2 7 1 8 3 9 8 10
REMARK H PARENT 8 11
REMARK Flexibility Score: inf
ROOT
ATOM      1  C   UNL     1       0.474   0.073   0.308  1.00  0.00    -0.003 A 
ATOM      2  C   UNL     1      -0.262  -0.799  -0.517  1.00  0.00     0.014 A 
ATOM      3  C   UNL     1       1.544   0.796  -0.249  1.00  0.00     0.014 A 
ATOM      4  C   UNL     1       0.067  -0.943  -1.867  1.00  0.00     0.047 A 
ATOM      5  C   UNL     1       1.870   0.649  -1.601  1.00  0.00     0.047 A 
ATOM      6  C   UNL     1       1.135  -0.220  -2.413  1.00  0.00     0.115 A 
ENDROOT
BRANCH   1   7
ATOM      7  C   UNL     1       0.130   0.230   1.738  1.00  0.00     0.071 C 
ATOM      8  O   UNL     1      -0.482   1.256   2.140  1.00  0.00    -0.545 OA
ATOM      9  O   UNL     1       0.479  -0.752   2.658  1.00  0.00    -0.545 OA
ENDBRANCH   1   7
BRANCH   6  10
ATOM     10  O   UNL     1       1.472  -0.355  -3.759  1.00  0.00    -0.508 OA
ATOM     11  H   UNL     1       2.359  -0.023  -4.118  1.00  0.00     0.293 HD
ENDBRANCH   6  10
TORSDOF 2
ENDMDL
MODEL 3
REMARK VINA RESULT:    -5.267      1.541      4.105
REMARK INTER + INTRA:          -5.756
REMARK INTER:                  -5.720
REMARK INTRA:                  -0.036
REMARK UNBOUND:                -0.027
REMARK SMILES O=C([O-])c1ccc(O)cc1
REMARK SMILES IDX 4 1 5 2 10 3 6 4 9 5 7 6 2 7 1 8 3 9 8 10
REMARK H PARENT 8 11
REMARK Flexibility Score: inf
ROOT
ATOM      1  C   UNL     1       1.260  -0.515  -0.473  1.00  0.00    -0.003 A 
ATOM      2  C   UNL     1       1.402   0.885  -0.445  1.00  0.00     0.014 A 
ATOM      3  C   UNL     1       0.451  -1.138   0.494  1.00  0.00     0.014 A 
ATOM      4  C   UNL     1       0.747   1.643   0.530  1.00  0.00     0.047 A 
ATOM      5  C   UNL     1      -0.202  -0.376   1.468  1.00  0.00     0.047 A 
ATOM      6  C   UNL     1      -0.056   1.014   1.489  1.00  0.00     0.115 A 
ENDROOT
BRANCH   1   7
ATOM      7  C   UNL     1       1.950  -1.323  -1.503  1.00  0.00     0.071 C 
ATOM      8  O   UNL     1       2.618  -0.765  -2.414  1.00  0.00    -0.545 OA
ATOM      9  O   UNL     1       1.871  -2.711  -1.479  1.00  0.00    -0.545 OA
ENDBRANCH   1   7
BRANCH   6  10
ATOM     10  O   UNL     1      -0.713   1.760   2.466  1.00  0.00    -0.508 OA
ATOM     11  H   UNL     1      -0.689   1.491   3.442  1.00  0.00     0.293 HD
ENDBRANCH   6  10
TORSDOF 2
ENDMDL
MODEL 4
REMARK VINA RESULT:    -5.261      1.540      4.334
REMARK INTER + INTRA:          -5.749
REMARK INTER:                  -5.713
REMARK INTRA:                  -0.036
REMARK UNBOUND:                -0.027
REMARK SMILES O=C([O-])c1ccc(O)cc1
REMARK SMILES IDX 4 1 5 2 10 3 6 4 9 5 7 6 2 7 1 8 3 9 8 10
REMARK H PARENT 8 11
REMARK Flexibility Score: inf
ROOT
ATOM      1  C   UNL     1       1.248  -0.533  -0.466  1.00  0.00    -0.003 A 
ATOM      2  C   UNL     1       0.411  -1.165   0.474  1.00  0.00     0.014 A 
ATOM      3  C   UNL     1       1.411   0.862  -0.404  1.00  0.00     0.014 A 
ATOM      4  C   UNL     1      -0.247  -0.415   1.452  1.00  0.00     0.047 A 
ATOM      5  C   UNL     1       0.750   1.610   0.576  1.00  0.00     0.047 A 
ATOM      6  C   UNL     1      -0.080   0.975   1.506  1.00  0.00     0.115 A 
ENDROOT
BRANCH   1   7
ATOM      7  C   UNL     1       1.948  -1.322  -1.504  1.00  0.00     0.071 C 
ATOM      8  O   UNL     1       2.609  -0.745  -2.409  1.00  0.00    -0.545 OA
ATOM      9  O   UNL     1       1.887  -2.710  -1.494  1.00  0.00    -0.545 OA
ENDBRANCH   1   7
BRANCH   6  10
ATOM     10  O   UNL     1      -0.731   1.733   2.477  1.00  0.00    -0.508 OA
ATOM     11  H   UNL     1      -1.261   2.561   2.234  1.00  0.00     0.293 HD
ENDBRANCH   6  10
TORSDOF 2
ENDMDL
MODEL 5
REMARK VINA RESULT:    -5.123      0.964      1.022
REMARK INTER + INTRA:          -5.600
REMARK INTER:                  -5.571
REMARK INTRA:                  -0.029
REMARK UNBOUND:                -0.027
REMARK SMILES O=C([O-])c1ccc(O)cc1
REMARK SMILES IDX 4 1 5 2 10 3 6 4 9 5 7 6 2 7 1 8 3 9 8 10
REMARK H PARENT 8 11
REMARK Flexibility Score: inf
ROOT
ATOM      1  C   UNL     1       0.017   0.489   0.870  1.00  0.00    -0.003 A 
ATOM      2  C   UNL     1       1.085   1.042   0.138  1.00  0.00     0.014 A 
ATOM      3  C   UNL     1      -0.710  -0.579   0.312  1.00  0.00     0.014 A 
ATOM      4  C   UNL     1       1.418   0.536  -1.122  1.00  0.00     0.047 A 
ATOM      5  C   UNL     1      -0.374  -1.082  -0.949  1.00  0.00     0.047 A 
ATOM      6  C   UNL     1       0.688  -0.527  -1.669  1.00  0.00     0.115 A 
ENDROOT
BRANCH   1   7
ATOM      7  C   UNL     1      -0.339   1.019   2.204  1.00  0.00     0.071 C 
ATOM      8  O   UNL     1      -0.273   0.282   3.224  1.00  0.00    -0.545 OA
ATOM      9  O   UNL     1      -0.753   2.338   2.351  1.00  0.00    -0.545 OA
ENDBRANCH   1   7
BRANCH   6  10
ATOM     10  O   UNL     1       1.010  -1.039  -2.924  1.00  0.00    -0.508 OA
ATOM     11  H   UNL     1       0.413  -0.885  -3.727  1.00  0.00     0.293 HD
ENDBRANCH   6  10
TORSDOF 2
ENDMDL
MODEL 6
REMARK VINA RESULT:    -4.958      1.538      2.386
REMARK INTER + INTRA:          -5.420
REMARK INTER:                  -5.388
REMARK INTRA:                  -0.032
REMARK UNBOUND:                -0.027
REMARK SMILES O=C([O-])c1ccc(O)cc1
REMARK SMILES IDX 4 1 5 2 10 3 6 4 9 5 7 6 2 7 1 8 3 9 8 10
REMARK H PARENT 8 11
REMARK Flexibility Score: inf
ROOT
ATOM      1  C   UNL     1       0.335  -0.521  -0.705  1.00  0.00    -0.003 A 
ATOM      2  C   UNL     1       0.203  -0.754  -2.086  1.00  0.00     0.014 A 
ATOM      3  C   UNL     1       1.501   0.103  -0.227  1.00  0.00     0.014 A 
ATOM      4  C   UNL     1       1.217  -0.371  -2.969  1.00  0.00     0.047 A 
ATOM      5  C   UNL     1       2.514   0.484  -1.113  1.00  0.00     0.047 A 
ATOM      6  C   UNL     1       2.375   0.249  -2.485  1.00  0.00     0.115 A 
ENDROOT
BRANCH   1   7
ATOM      7  C   UNL     1      -0.735  -0.923   0.235  1.00  0.00     0.071 C 
ATOM      8  O   UNL     1      -1.946  -0.723  -0.050  1.00  0.00    -0.545 OA
ATOM      9  O   UNL     1      -0.418  -1.527   1.446  1.00  0.00    -0.545 OA
ENDBRANCH   1   7
BRANCH   6  10
ATOM     10  O   UNL     1       3.393   0.635  -3.355  1.00  0.00    -0.508 OA
ATOM     11  H   UNL     1       3.791   1.565  -3.324  1.00  0.00     0.293 HD
ENDBRANCH   6  10
TORSDOF 2
ENDMDL
MODEL 7
REMARK VINA RESULT:    -4.882      8.602      9.539
REMARK INTER + INTRA:          -5.337
REMARK INTER:                  -5.307
REMARK INTRA:                  -0.031
REMARK UNBOUND:                -0.027
REMARK SMILES O=C([O-])c1ccc(O)cc1
REMARK SMILES IDX 4 1 5 2 10 3 6 4 9 5 7 6 2 7 1 8 3 9 8 10
REMARK H PARENT 8 11
REMARK Flexibility Score: inf
ROOT
ATOM      1  C   UNL     1      -3.555   8.382   0.030  1.00  0.00    -0.003 A 
ATOM      2  C   UNL     1      -3.080   7.117  -0.365  1.00  0.00     0.014 A 
ATOM      3  C   UNL     1      -2.688   9.252   0.715  1.00  0.00     0.014 A 
ATOM      4  C   UNL     1      -1.766   6.734  -0.080  1.00  0.00     0.047 A 
ATOM      5  C   UNL     1      -1.374   8.865   0.998  1.00  0.00     0.047 A 
ATOM      6  C   UNL     1      -0.910   7.607   0.603  1.00  0.00     0.115 A 
ENDROOT
BRANCH   1   7
ATOM      7  C   UNL     1      -4.944   8.794  -0.269  1.00  0.00     0.071 C 
ATOM      8  O   UNL     1      -5.666   9.309   0.627  1.00  0.00    -0.545 OA
ATOM      9  O   UNL     1      -5.472   8.617  -1.542  1.00  0.00    -0.545 OA
ENDBRANCH   1   7
BRANCH   6  10
ATOM     10  O   UNL     1       0.402   7.236   0.892  1.00  0.00    -0.508 OA
ATOM     11  H   UNL     1       0.662   6.265   1.014  1.00  0.00     0.293 HD
ENDBRANCH   6  10
TORSDOF 2
ENDMDL
MODEL 8
REMARK VINA RESULT:    -4.870      8.606      9.456
REMARK INTER + INTRA:          -5.325
REMARK INTER:                  -5.294
REMARK INTRA:                  -0.031
REMARK UNBOUND:                -0.027
REMARK SMILES O=C([O-])c1ccc(O)cc1
REMARK SMILES IDX 4 1 5 2 10 3 6 4 9 5 7 6 2 7 1 8 3 9 8 10
REMARK H PARENT 8 11
REMARK Flexibility Score: inf
ROOT
ATOM      1  C   UNL     1      -3.505   8.413   0.041  1.00  0.00    -0.003 A 
ATOM      2  C   UNL     1      -2.653   9.278   0.754  1.00  0.00     0.014 A 
ATOM      3  C   UNL     1      -3.014   7.162  -0.374  1.00  0.00     0.014 A 
ATOM      4  C   UNL     1      -1.339   8.897   1.044  1.00  0.00     0.047 A 
ATOM      5  C   UNL     1      -1.699   6.785  -0.083  1.00  0.00     0.047 A 
ATOM      6  C   UNL     1      -0.859   7.650   0.626  1.00  0.00     0.115 A 
ENDROOT
BRANCH   1   7
ATOM      7  C   UNL     1      -4.896   8.810  -0.268  1.00  0.00     0.071 C 
ATOM      8  O   UNL     1      -5.635   9.304   0.625  1.00  0.00    -0.545 OA
ATOM      9  O   UNL     1      -5.408   8.642  -1.549  1.00  0.00    -0.545 OA
ENDBRANCH   1   7
BRANCH   6  10
ATOM     10  O   UNL     1       0.449   7.260   0.909  1.00  0.00    -0.508 OA
ATOM     11  H   UNL     1       0.925   7.574   1.745  1.00  0.00     0.293 HD
ENDBRANCH   6  10
TORSDOF 2
ENDMDL
MODEL 9
REMARK VINA RESULT:    -4.848      8.086      8.996
REMARK INTER + INTRA:          -5.301
REMARK INTER:                  -5.267
REMARK INTRA:                  -0.034
REMARK UNBOUND:                -0.027
REMARK SMILES O=C([O-])c1ccc(O)cc1
REMARK SMILES IDX 4 1 5 2 10 3 6 4 9 5 7 6 2 7 1 8 3 9 8 10
REMARK H PARENT 8 11
REMARK Flexibility Score: inf
ROOT
ATOM      1  C   UNL     1      -1.105   7.910   0.623  1.00  0.00    -0.003 A 
ATOM      2  C   UNL     1      -1.714   9.128   0.980  1.00  0.00     0.014 A 
ATOM      3  C   UNL     1      -1.866   6.941  -0.056  1.00  0.00     0.014 A 
ATOM      4  C   UNL     1      -3.054   9.369   0.664  1.00  0.00     0.047 A 
ATOM      5  C   UNL     1      -3.207   7.186  -0.370  1.00  0.00     0.047 A 
ATOM      6  C   UNL     1      -3.805   8.399  -0.012  1.00  0.00     0.115 A 
ENDROOT
BRANCH   1   7
ATOM      7  C   UNL     1       0.313   7.649   0.953  1.00  0.00     0.071 C 
ATOM      8  O   UNL     1       1.122   8.603   1.100  1.00  0.00    -0.545 OA
ATOM      9  O   UNL     1       0.771   6.346   1.107  1.00  0.00    -0.545 OA
ENDBRANCH   1   7
BRANCH   6  10
ATOM     10  O   UNL     1      -5.141   8.628  -0.332  1.00  0.00    -0.508 OA
ATOM     11  H   UNL     1      -5.861   7.948  -0.119  1.00  0.00     0.293 HD
ENDBRANCH   6  10
TORSDOF 2
ENDMDL
