MODEL 1
REMARK VINA RESULT:    -3.665      0.000      0.000
REMARK INTER + INTRA:          -4.378
REMARK INTER:                  -4.308
REMARK INTRA:                  -0.070
REMARK UNBOUND:                -0.070
REMARK SMILES O=C([O-])CCC(=O)[O-]
REMARK SMILES IDX 4 1 2 2 1 3 3 4 5 5 6 6 7 7 8 8
REMARK H PARENT
REMARK Flexibility Score: inf
ROOT
ATOM      1  C   UNL     1     158.497 167.464 230.616  1.00  0.00     0.059 C 
ENDROOT
BRANCH   1   2
ATOM      2  C   UNL     1     157.867 166.496 229.662  1.00  0.00     0.042 C 
ATOM      3  O   UNL     1     158.459 165.424 229.366  1.00  0.00    -0.550 OA
ATOM      4  O   UNL     1     156.610 166.757 229.133  1.00  0.00    -0.550 OA
ENDBRANCH   1   2
BRANCH   1   5
ATOM      5  C   UNL     1     157.490 167.971 231.654  1.00  0.00     0.059 C 
BRANCH   5   6
ATOM      6  C   UNL     1     157.488 167.114 232.883  1.00  0.00     0.042 C 
ATOM      7  O   UNL     1     157.952 167.558 233.966  1.00  0.00    -0.550 OA
ATOM      8  O   UNL     1     157.010 165.812 232.822  1.00  0.00    -0.550 OA
ENDBRANCH   5   6
ENDBRANCH   1   5
TORSDOF 3
ENDMDL
MODEL 2
REMARK VINA RESULT:    -3.652      0.080      3.693
REMARK INTER + INTRA:          -4.363
REMARK INTER:                  -4.294
REMARK INTRA:                  -0.069
REMARK UNBOUND:                -0.070
REMARK SMILES O=C([O-])CCC(=O)[O-]
REMARK SMILES IDX 4 1 2 2 1 3 3 4 5 5 6 6 7 7 8 8
REMARK H PARENT
REMARK Flexibility Score: inf
ROOT
ATOM      1  C   UNL     1     157.490 167.959 231.642  1.00  0.00     0.059 C 
ENDROOT
BRANCH   1   2
ATOM      2  C   UNL     1     157.439 167.108 232.874  1.00  0.00     0.042 C 
ATOM      3  O   UNL     1     157.811 167.578 233.983  1.00  0.00    -0.550 OA
ATOM      4  O   UNL     1     156.943 165.813 232.806  1.00  0.00    -0.550 OA
ENDBRANCH   1   2
BRANCH   1   5
ATOM      5  C   UNL     1     158.505 167.422 230.627  1.00  0.00     0.059 C 
BRANCH   5   6
ATOM      6  C   UNL     1     157.860 166.495 229.641  1.00  0.00     0.042 C 
ATOM      7  O   UNL     1     158.474 165.474 229.236  1.00  0.00    -0.550 OA
ATOM      8  O   UNL     1     156.596 166.781 229.142  1.00  0.00    -0.550 OA
ENDBRANCH   5   6
ENDBRANCH   1   5
TORSDOF 3
ENDMDL
MODEL 3
REMARK VINA RESULT:    -3.592     14.959     15.702
REMARK INTER + INTRA:          -4.292
REMARK INTER:                  -4.229
REMARK INTRA:                  -0.062
REMARK UNBOUND:                -0.070
REMARK SMILES O=C([O-])CCC(=O)[O-]
REMARK SMILES IDX 4 1 2 2 1 3 3 4 5 5 6 6 7 7 8 8
REMARK H PARENT
REMARK Flexibility Score: inf
ROOT
ATOM      1  C   UNL     1     159.613 150.842 230.622  1.00  0.00     0.059 C 
ENDROOT
BRANCH   1   2
ATOM      2  C   UNL     1     160.204 151.747 229.586  1.00  0.00     0.042 C 
ATOM      3  O   UNL     1     159.581 152.777 229.215  1.00  0.00    -0.550 OA
ATOM      4  O   UNL     1     161.460 151.476 229.059  1.00  0.00    -0.550 OA
ENDBRANCH   1   2
BRANCH   1   5
ATOM      5  C   UNL     1     160.659 150.403 231.653  1.00  0.00     0.059 C 
BRANCH   5   6
ATOM      6  C   UNL     1     160.649 151.292 232.860  1.00  0.00     0.042 C 
ATOM      7  O   UNL     1     160.357 150.821 233.990  1.00  0.00    -0.550 OA
ATOM      8  O   UNL     1     160.924 152.647 232.728  1.00  0.00    -0.550 OA
ENDBRANCH   5   6
ENDBRANCH   1   5
TORSDOF 3
ENDMDL
MODEL 4
REMARK VINA RESULT:    -3.591     10.019     11.759
REMARK INTER + INTRA:          -4.291
REMARK INTER:                  -4.172
REMARK INTRA:                  -0.119
REMARK UNBOUND:                -0.070
REMARK SMILES O=C([O-])CCC(=O)[O-]
REMARK SMILES IDX 4 1 2 2 1 3 3 4 5 5 6 6 7 7 8 8
REMARK H PARENT
REMARK Flexibility Score: inf
ROOT
ATOM      1  C   UNL     1     159.382 162.751 221.732  1.00  0.00     0.059 C 
ENDROOT
BRANCH   1   2
ATOM      2  C   UNL     1     158.948 164.183 221.803  1.00  0.00     0.042 C 
ATOM      3  O   UNL     1     159.803 165.096 221.950  1.00  0.00    -0.550 OA
ATOM      4  O   UNL     1     157.606 164.512 221.664  1.00  0.00    -0.550 OA
ENDBRANCH   1   2
BRANCH   1   5
ATOM      5  C   UNL     1     159.567 162.287 220.283  1.00  0.00     0.059 C 
BRANCH   5   6
ATOM      6  C   UNL     1     158.513 161.299 219.883  1.00  0.00     0.042 C 
ATOM      7  O   UNL     1     157.296 161.615 219.937  1.00  0.00    -0.550 OA
ATOM      8  O   UNL     1     158.875 160.018 219.488  1.00  0.00    -0.550 OA
ENDBRANCH   5   6
ENDBRANCH   1   5
TORSDOF 3
ENDMDL
MODEL 5
REMARK VINA RESULT:    -3.588     14.937     16.008
REMARK INTER + INTRA:          -4.287
REMARK INTER:                  -4.229
REMARK INTRA:                  -0.058
REMARK UNBOUND:                -0.070
REMARK SMILES O=C([O-])CCC(=O)[O-]
REMARK SMILES IDX 4 1 2 2 1 3 3 4 5 5 6 6 7 7 8 8
REMARK H PARENT
REMARK Flexibility Score: inf
ROOT
ATOM      1  C   UNL     1     160.697 150.425 231.727  1.00  0.00     0.059 C 
ENDROOT
BRANCH   1   2
ATOM      2  C   UNL     1     160.509 151.301 232.927  1.00  0.00     0.042 C 
ATOM      3  O   UNL     1     160.326 150.789 234.063  1.00  0.00    -0.550 OA
ATOM      4  O   UNL     1     160.578 152.682 232.798  1.00  0.00    -0.550 OA
ENDBRANCH   1   2
BRANCH   1   5
ATOM      5  C   UNL     1     159.682 150.749 230.626  1.00  0.00     0.059 C 
BRANCH   5   6
ATOM      6  C   UNL     1     160.246 151.708 229.622  1.00  0.00     0.042 C 
ATOM      7  O   UNL     1     161.389 151.514 229.133  1.00  0.00    -0.550 OA
ATOM      8  O   UNL     1     159.524 152.837 229.257  1.00  0.00    -0.550 OA
ENDBRANCH   5   6
ENDBRANCH   1   5
TORSDOF 3
ENDMDL
MODEL 6
REMARK VINA RESULT:    -3.583     10.040     11.428
REMARK INTER + INTRA:          -4.282
REMARK INTER:                  -4.163
REMARK INTRA:                  -0.118
REMARK UNBOUND:                -0.070
REMARK SMILES O=C([O-])CCC(=O)[O-]
REMARK SMILES IDX 4 1 2 2 1 3 3 4 5 5 6 6 7 7 8 8
REMARK H PARENT
REMARK Flexibility Score: inf
ROOT
ATOM      1  C   UNL     1     159.561 162.259 220.231  1.00  0.00     0.059 C 
ENDROOT
BRANCH   1   2
ATOM      2  C   UNL     1     158.525 161.251 219.838  1.00  0.00     0.042 C 
ATOM      3  O   UNL     1     158.870 160.089 219.496  1.00  0.00    -0.550 OA
ATOM      4  O   UNL     1     157.178 161.583 219.887  1.00  0.00    -0.550 OA
ENDBRANCH   1   2
BRANCH   1   5
ATOM      5  C   UNL     1     159.385 162.714 221.684  1.00  0.00     0.059 C 
BRANCH   5   6
ATOM      6  C   UNL     1     158.900 164.129 221.762  1.00  0.00     0.042 C 
ATOM      7  O   UNL     1     159.715 165.069 221.954  1.00  0.00    -0.550 OA
ATOM      8  O   UNL     1     157.543 164.406 221.661  1.00  0.00    -0.550 OA
ENDBRANCH   5   6
ENDBRANCH   1   5
TORSDOF 3
ENDMDL
MODEL 7
REMARK VINA RESULT:    -3.574     15.009     15.875
REMARK INTER + INTRA:          -4.271
REMARK INTER:                  -4.153
REMARK INTRA:                  -0.118
REMARK UNBOUND:                -0.070
REMARK SMILES O=C([O-])CCC(=O)[O-]
REMARK SMILES IDX 4 1 2 2 1 3 3 4 5 5 6 6 7 7 8 8
REMARK H PARENT
REMARK Flexibility Score: inf
ROOT
ATOM      1  C   UNL     1     158.572 155.435 221.689  1.00  0.00     0.059 C 
ENDROOT
BRANCH   1   2
ATOM      2  C   UNL     1     159.108 154.037 221.730  1.00  0.00     0.042 C 
ATOM      3  O   UNL     1     158.319 153.059 221.820  1.00  0.00    -0.550 OA
ATOM      4  O   UNL     1     160.474 153.811 221.627  1.00  0.00    -0.550 OA
ENDBRANCH   1   2
BRANCH   1   5
ATOM      5  C   UNL     1     158.315 155.901 220.252  1.00  0.00     0.059 C 
BRANCH   5   6
ATOM      6  C   UNL     1     159.314 156.932 219.821  1.00  0.00     0.042 C 
ATOM      7  O   UNL     1     158.928 158.072 219.453  1.00  0.00    -0.550 OA
ATOM      8  O   UNL     1     160.666 156.620 219.790  1.00  0.00    -0.550 OA
ENDBRANCH   5   6
ENDBRANCH   1   5
TORSDOF 3
ENDMDL
MODEL 8
REMARK VINA RESULT:    -3.521     15.138     15.819
REMARK INTER + INTRA:          -4.209
REMARK INTER:                  -4.098
REMARK INTRA:                  -0.111
REMARK UNBOUND:                -0.070
REMARK SMILES O=C([O-])CCC(=O)[O-]
REMARK SMILES IDX 4 1 2 2 1 3 3 4 5 5 6 6 7 7 8 8
REMARK H PARENT
REMARK Flexibility Score: inf
ROOT
ATOM      1  C   UNL     1     158.268 155.843 220.263  1.00  0.00     0.059 C 
ENDROOT
BRANCH   1   2
ATOM      2  C   UNL     1     159.267 156.766 219.636  1.00  0.00     0.042 C 
ATOM      3  O   UNL     1     160.460 156.395 219.479  1.00  0.00    -0.550 OA
ATOM      4  O   UNL     1     158.871 158.019 219.187  1.00  0.00    -0.550 OA
ENDBRANCH   1   2
BRANCH   1   5
ATOM      5  C   UNL     1     158.692 155.426 221.676  1.00  0.00     0.059 C 
BRANCH   5   6
ATOM      6  C   UNL     1     159.154 154.000 221.713  1.00  0.00     0.042 C 
ATOM      7  O   UNL     1     158.320 153.068 221.855  1.00  0.00    -0.550 OA
ATOM      8  O   UNL     1     160.509 153.706 221.629  1.00  0.00    -0.550 OA
ENDBRANCH   5   6
ENDBRANCH   1   5
TORSDOF 3
ENDMDL
MODEL 9
REMARK VINA RESULT:    -3.511      9.974     11.858
REMARK INTER + INTRA:          -4.197
REMARK INTER:                  -4.077
REMARK INTRA:                  -0.120
REMARK UNBOUND:                -0.070
REMARK SMILES O=C([O-])CCC(=O)[O-]
REMARK SMILES IDX 4 1 2 2 1 3 3 4 5 5 6 6 7 7 8 8
REMARK H PARENT
REMARK Flexibility Score: inf
ROOT
ATOM      1  C   UNL     1     159.395 162.710 221.674  1.00  0.00     0.059 C 
ENDROOT
BRANCH   1   2
ATOM      2  C   UNL     1     158.859 164.105 221.781  1.00  0.00     0.042 C 
ATOM      3  O   UNL     1     157.629 164.323 221.626  1.00  0.00    -0.550 OA
ATOM      4  O   UNL     1     159.712 165.156 222.091  1.00  0.00    -0.550 OA
ENDBRANCH   1   2
BRANCH   1   5
ATOM      5  C   UNL     1     159.580 162.286 220.212  1.00  0.00     0.059 C 
BRANCH   5   6
ATOM      6  C   UNL     1     158.586 161.237 219.815  1.00  0.00     0.042 C 
ATOM      7  O   UNL     1     158.980 160.102 219.437  1.00  0.00    -0.550 OA
ATOM      8  O   UNL     1     157.228 161.525 219.825  1.00  0.00    -0.550 OA
ENDBRANCH   5   6
ENDBRANCH   1   5
TORSDOF 3
ENDMDL
