MODEL 1
REMARK VINA RESULT:    -6.017      0.000      0.000
REMARK INTER + INTRA:          -6.462
REMARK INTER:                  -6.369
REMARK INTRA:                  -0.093
REMARK UNBOUND:                -0.093
REMARK SMILES C=C(C)[C@@H]1CC=C(C)C(=O)C1
REMARK SMILES IDX 8 1 7 2 6 3 5 4 4 5 11 6 9 7 10 8 2 9 1 10 3 11
REMARK H PARENT
REMARK Flexibility Score: inf
ROOT
ATOM      1  C   UNL     1      11.644  32.475  72.459  1.00  0.00     0.048 C 
ATOM      2  C   UNL     1      11.326  31.066  72.876  1.00  0.00    -0.012 C 
ATOM      3  C   UNL     1      11.831  30.027  72.187  1.00  0.00    -0.019 C 
ATOM      4  C   UNL     1      11.606  28.600  72.613  1.00  0.00     0.036 C 
ATOM      5  C   UNL     1      10.253  28.441  73.333  1.00  0.00     0.025 C 
ATOM      6  C   UNL     1      10.157  29.425  74.514  1.00  0.00     0.089 C 
ATOM      7  C   UNL     1      10.471  30.826  74.065  1.00  0.00     0.158 C 
ATOM      8  O   UNL     1      10.037  31.798  74.739  1.00  0.00    -0.295 OA
ENDROOT
BRANCH   5   9
ATOM      9  C   UNL     1      10.020  27.002  73.779  1.00  0.00    -0.077 C 
ATOM     10  C   UNL     1      10.617  26.506  74.877  1.00  0.00     0.008 C 
ATOM     11  C   UNL     1       9.106  26.105  72.987  1.00  0.00     0.039 C 
ENDBRANCH   5   9
TORSDOF 1
ENDMDL
MODEL 2
REMARK VINA RESULT:    -5.761      1.810      5.004
REMARK INTER + INTRA:          -6.192
REMARK INTER:                  -6.099
REMARK INTRA:                  -0.093
REMARK UNBOUND:                -0.093
REMARK SMILES C=C(C)[C@@H]1CC=C(C)C(=O)C1
REMARK SMILES IDX 8 1 7 2 6 3 5 4 4 5 11 6 9 7 10 8 2 9 1 10 3 11
REMARK H PARENT
REMARK Flexibility Score: inf
ROOT
ATOM      1  C   UNL     1      10.129  27.875  74.364  1.00  0.00     0.048 C 
ATOM      2  C   UNL     1      10.451  29.298  73.997  1.00  0.00    -0.012 C 
ATOM      3  C   UNL     1       9.942  30.314  74.716  1.00  0.00    -0.019 C 
ATOM      4  C   UNL     1      10.299  31.750  74.435  1.00  0.00     0.036 C 
ATOM      5  C   UNL     1      10.609  31.965  72.941  1.00  0.00     0.025 C 
ATOM      6  C   UNL     1      11.706  30.989  72.477  1.00  0.00     0.089 C 
ATOM      7  C   UNL     1      11.353  29.575  72.851  1.00  0.00     0.158 C 
ATOM      8  O   UNL     1      11.869  28.623  72.207  1.00  0.00    -0.295 OA
ENDROOT
BRANCH   5   9
ATOM      9  C   UNL     1      10.983  33.412  72.648  1.00  0.00    -0.077 C 
ATOM     10  C   UNL     1      12.055  33.987  73.221  1.00  0.00     0.008 C 
ATOM     11  C   UNL     1      10.147  34.231  71.699  1.00  0.00     0.039 C 
ENDBRANCH   5   9
TORSDOF 1
ENDMDL
MODEL 3
REMARK VINA RESULT:    -5.627      1.796      2.210
REMARK INTER + INTRA:          -6.049
REMARK INTER:                  -5.954
REMARK INTRA:                  -0.095
REMARK UNBOUND:                -0.093
REMARK SMILES C=C(C)[C@@H]1CC=C(C)C(=O)C1
REMARK SMILES IDX 8 1 7 2 6 3 5 4 4 5 11 6 9 7 10 8 2 9 1 10 3 11
REMARK H PARENT
REMARK Flexibility Score: inf
ROOT
ATOM      1  C   UNL     1      10.283  32.728  71.595  1.00  0.00     0.048 C 
ATOM      2  C   UNL     1      10.454  31.423  72.323  1.00  0.00    -0.012 C 
ATOM      3  C   UNL     1      11.410  31.290  73.259  1.00  0.00    -0.019 C 
ATOM      4  C   UNL     1      11.567  30.030  74.069  1.00  0.00     0.036 C 
ATOM      5  C   UNL     1      11.123  28.793  73.265  1.00  0.00     0.025 C 
ATOM      6  C   UNL     1       9.684  28.979  72.748  1.00  0.00     0.089 C 
ATOM      7  C   UNL     1       9.547  30.288  72.019  1.00  0.00     0.158 C 
ATOM      8  O   UNL     1       8.620  30.427  71.175  1.00  0.00    -0.295 OA
ENDROOT
BRANCH   5   9
ATOM      9  C   UNL     1      11.266  27.513  74.079  1.00  0.00    -0.077 C 
ATOM     10  C   UNL     1      10.218  26.975  74.725  1.00  0.00     0.008 C 
ATOM     11  C   UNL     1      12.602  26.823  74.172  1.00  0.00     0.039 C 
ENDBRANCH   5   9
TORSDOF 1
ENDMDL
MODEL 4
REMARK VINA RESULT:    -5.600      2.168      5.516
REMARK INTER + INTRA:          -6.020
REMARK INTER:                  -5.926
REMARK INTRA:                  -0.095
REMARK UNBOUND:                -0.093
REMARK SMILES C=C(C)[C@@H]1CC=C(C)C(=O)C1
REMARK SMILES IDX 8 1 7 2 6 3 5 4 4 5 11 6 9 7 10 8 2 9 1 10 3 11
REMARK H PARENT
REMARK Flexibility Score: inf
ROOT
ATOM      1  C   UNL     1      10.924  28.992  74.101  1.00  0.00     0.048 C 
ATOM      2  C   UNL     1      10.998  30.438  73.693  1.00  0.00    -0.012 C 
ATOM      3  C   UNL     1      11.026  31.404  74.627  1.00  0.00    -0.019 C 
ATOM      4  C   UNL     1      11.180  32.858  74.269  1.00  0.00     0.036 C 
ATOM      5  C   UNL     1      10.561  33.161  72.891  1.00  0.00     0.025 C 
ATOM      6  C   UNL     1      11.158  32.230  71.820  1.00  0.00     0.089 C 
ATOM      7  C   UNL     1      11.063  30.792  72.253  1.00  0.00     0.158 C 
ATOM      8  O   UNL     1      11.085  29.885  71.378  1.00  0.00    -0.295 OA
ENDROOT
BRANCH   5   9
ATOM      9  C   UNL     1      10.721  34.629  72.513  1.00  0.00    -0.077 C 
ATOM     10  C   UNL     1      11.752  35.359  72.970  1.00  0.00     0.008 C 
ATOM     11  C   UNL     1       9.713  35.290  71.609  1.00  0.00     0.039 C 
ENDBRANCH   5   9
TORSDOF 1
ENDMDL
MODEL 5
REMARK VINA RESULT:    -5.589      1.801      2.900
REMARK INTER + INTRA:          -6.009
REMARK INTER:                  -5.916
REMARK INTRA:                  -0.093
REMARK UNBOUND:                -0.093
REMARK SMILES C=C(C)[C@@H]1CC=C(C)C(=O)C1
REMARK SMILES IDX 8 1 7 2 6 3 5 4 4 5 11 6 9 7 10 8 2 9 1 10 3 11
REMARK H PARENT
REMARK Flexibility Score: inf
ROOT
ATOM      1  C   UNL     1      11.241  34.670  73.271  1.00  0.00     0.048 C 
ATOM      2  C   UNL     1      11.121  33.176  73.396  1.00  0.00    -0.012 C 
ATOM      3  C   UNL     1      11.205  32.589  74.603  1.00  0.00    -0.019 C 
ATOM      4  C   UNL     1      11.012  31.107  74.786  1.00  0.00     0.036 C 
ATOM      5  C   UNL     1      11.463  30.328  73.535  1.00  0.00     0.025 C 
ATOM      6  C   UNL     1      10.741  30.861  72.284  1.00  0.00     0.089 C 
ATOM      7  C   UNL     1      10.885  32.355  72.182  1.00  0.00     0.158 C 
ATOM      8  O   UNL     1      10.758  32.909  71.057  1.00  0.00    -0.295 OA
ENDROOT
BRANCH   5   9
ATOM      9  C   UNL     1      11.261  28.827  73.705  1.00  0.00    -0.077 C 
ATOM     10  C   UNL     1      10.040  28.306  73.911  1.00  0.00     0.008 C 
ATOM     11  C   UNL     1      12.443  27.894  73.644  1.00  0.00     0.039 C 
ENDBRANCH   5   9
TORSDOF 1
ENDMDL
MODEL 6
REMARK VINA RESULT:    -5.564      2.012      4.627
REMARK INTER + INTRA:          -5.983
REMARK INTER:                  -5.894
REMARK INTRA:                  -0.089
REMARK UNBOUND:                -0.093
REMARK SMILES C=C(C)[C@@H]1CC=C(C)C(=O)C1
REMARK SMILES IDX 8 1 7 2 6 3 5 4 4 5 11 6 9 7 10 8 2 9 1 10 3 11
REMARK H PARENT
REMARK Flexibility Score: inf
ROOT
ATOM      1  C   UNL     1      10.064  25.741  73.219  1.00  0.00     0.048 C 
ATOM      2  C   UNL     1      10.341  27.209  73.392  1.00  0.00    -0.012 C 
ATOM      3  C   UNL     1       9.361  28.109  73.198  1.00  0.00    -0.019 C 
ATOM      4  C   UNL     1       9.570  29.581  73.436  1.00  0.00     0.036 C 
ATOM      5  C   UNL     1      11.032  29.988  73.168  1.00  0.00     0.025 C 
ATOM      6  C   UNL     1      11.990  29.119  74.003  1.00  0.00     0.089 C 
ATOM      7  C   UNL     1      11.694  27.657  73.803  1.00  0.00     0.158 C 
ATOM      8  O   UNL     1      12.600  26.811  74.032  1.00  0.00    -0.295 OA
ENDROOT
BRANCH   5   9
ATOM      9  C   UNL     1      11.257  31.474  73.418  1.00  0.00    -0.077 C 
ATOM     10  C   UNL     1      11.767  32.273  72.465  1.00  0.00     0.008 C 
ATOM     11  C   UNL     1      10.906  32.077  74.753  1.00  0.00     0.039 C 
ENDBRANCH   5   9
TORSDOF 1
ENDMDL
MODEL 7
REMARK VINA RESULT:    -5.389      1.946      4.424
REMARK INTER + INTRA:          -5.798
REMARK INTER:                  -5.709
REMARK INTRA:                  -0.089
REMARK UNBOUND:                -0.093
REMARK SMILES C=C(C)[C@@H]1CC=C(C)C(=O)C1
REMARK SMILES IDX 8 1 7 2 6 3 5 4 4 5 11 6 9 7 10 8 2 9 1 10 3 11
REMARK H PARENT
REMARK Flexibility Score: inf
ROOT
ATOM      1  C   UNL     1      10.484  25.248  73.726  1.00  0.00     0.048 C 
ATOM      2  C   UNL     1      10.670  26.737  73.623  1.00  0.00    -0.012 C 
ATOM      3  C   UNL     1      11.875  27.286  73.856  1.00  0.00    -0.019 C 
ATOM      4  C   UNL     1      12.127  28.761  73.687  1.00  0.00     0.036 C 
ATOM      5  C   UNL     1      10.856  29.581  73.981  1.00  0.00     0.025 C 
ATOM      6  C   UNL     1       9.687  29.085  73.110  1.00  0.00     0.089 C 
ATOM      7  C   UNL     1       9.521  27.595  73.240  1.00  0.00     0.158 C 
ATOM      8  O   UNL     1       8.403  27.076  72.975  1.00  0.00    -0.295 OA
ENDROOT
BRANCH   5   9
ATOM      9  C   UNL     1      11.096  31.074  73.802  1.00  0.00    -0.077 C 
ATOM     10  C   UNL     1      10.859  31.944  74.799  1.00  0.00     0.008 C 
ATOM     11  C   UNL     1      11.610  31.605  72.489  1.00  0.00     0.039 C 
ENDBRANCH   5   9
TORSDOF 1
ENDMDL
MODEL 8
REMARK VINA RESULT:    -5.373      1.628      4.429
REMARK INTER + INTRA:          -5.780
REMARK INTER:                  -5.687
REMARK INTRA:                  -0.093
REMARK UNBOUND:                -0.093
REMARK SMILES C=C(C)[C@@H]1CC=C(C)C(=O)C1
REMARK SMILES IDX 8 1 7 2 6 3 5 4 4 5 11 6 9 7 10 8 2 9 1 10 3 11
REMARK H PARENT
REMARK Flexibility Score: inf
ROOT
ATOM      1  C   UNL     1      11.740  26.540  73.986  1.00  0.00     0.048 C 
ATOM      2  C   UNL     1      11.538  27.971  73.573  1.00  0.00    -0.012 C 
ATOM      3  C   UNL     1      12.293  28.507  72.598  1.00  0.00    -0.019 C 
ATOM      4  C   UNL     1      12.073  29.910  72.096  1.00  0.00     0.036 C 
ATOM      5  C   UNL     1      11.524  30.821  73.211  1.00  0.00     0.025 C 
ATOM      6  C   UNL     1      10.248  30.212  73.819  1.00  0.00     0.089 C 
ATOM      7  C   UNL     1      10.483  28.783  74.230  1.00  0.00     0.158 C 
ATOM      8  O   UNL     1       9.743  28.267  75.110  1.00  0.00    -0.295 OA
ENDROOT
BRANCH   5   9
ATOM      9  C   UNL     1      11.287  32.240  72.711  1.00  0.00    -0.077 C 
ATOM     10  C   UNL     1      10.382  32.501  71.752  1.00  0.00     0.008 C 
ATOM     11  C   UNL     1      12.073  33.387  73.292  1.00  0.00     0.039 C 
ENDBRANCH   5   9
TORSDOF 1
ENDMDL
MODEL 9
REMARK VINA RESULT:    -5.360      1.412      2.334
REMARK INTER + INTRA:          -5.767
REMARK INTER:                  -5.674
REMARK INTRA:                  -0.093
REMARK UNBOUND:                -0.093
REMARK SMILES C=C(C)[C@@H]1CC=C(C)C(=O)C1
REMARK SMILES IDX 8 1 7 2 6 3 5 4 4 5 11 6 9 7 10 8 2 9 1 10 3 11
REMARK H PARENT
REMARK Flexibility Score: inf
ROOT
ATOM      1  C   UNL     1      11.240  33.302  73.908  1.00  0.00     0.048 C 
ATOM      2  C   UNL     1      10.851  31.849  73.878  1.00  0.00    -0.012 C 
ATOM      3  C   UNL     1       9.897  31.388  74.706  1.00  0.00    -0.019 C 
ATOM      4  C   UNL     1       9.419  29.961  74.657  1.00  0.00     0.036 C 
ATOM      5  C   UNL     1      10.543  29.012  74.199  1.00  0.00     0.025 C 
ATOM      6  C   UNL     1      11.122  29.480  72.851  1.00  0.00     0.089 C 
ATOM      7  C   UNL     1      11.509  30.933  72.914  1.00  0.00     0.158 C 
ATOM      8  O   UNL     1      12.369  31.374  72.106  1.00  0.00    -0.295 OA
ENDROOT
BRANCH   5   9
ATOM      9  C   UNL     1      10.066  27.566  74.135  1.00  0.00    -0.077 C 
ATOM     10  C   UNL     1       9.058  27.198  73.326  1.00  0.00     0.008 C 
ATOM     11  C   UNL     1      10.727  26.514  74.988  1.00  0.00     0.039 C 
ENDBRANCH   5   9
TORSDOF 1
ENDMDL
