MODEL 1
REMARK VINA RESULT:    -3.491      0.000      0.000
REMARK INTER + INTRA:          -4.242
REMARK INTER:                  -4.103
REMARK INTRA:                  -0.139
REMARK UNBOUND:                -0.139
REMARK SMILES O=C([O-])CCC(=O)[O-]
REMARK SMILES IDX 4 1 2 2 1 3 3 4 5 5 6 6 7 7 8 8
REMARK H PARENT
REMARK Flexibility Score: inf
ROOT
ATOM      1  C   UNL     1       2.878  11.828   9.230  1.00  0.00     0.059 C 
ENDROOT
BRANCH   1   2
ATOM      2  C   UNL     1       1.443  11.485   9.489  1.00  0.00     0.042 C 
ATOM      3  O   UNL     1       1.032  11.327  10.669  1.00  0.00    -0.550 OA
ATOM      4  O   UNL     1       0.550  11.384   8.429  1.00  0.00    -0.550 OA
ENDBRANCH   1   2
BRANCH   1   5
ATOM      5  C   UNL     1       3.785  10.601   9.370  1.00  0.00     0.059 C 
BRANCH   5   6
ATOM      6  C   UNL     1       3.798   9.778   8.118  1.00  0.00     0.042 C 
ATOM      7  O   UNL     1       4.016   8.540   8.177  1.00  0.00    -0.550 OA
ATOM      8  O   UNL     1       3.607  10.386   6.883  1.00  0.00    -0.550 OA
ENDBRANCH   5   6
ENDBRANCH   1   5
TORSDOF 3
ENDMDL
MODEL 2
REMARK VINA RESULT:    -3.476      0.215      3.578
REMARK INTER + INTRA:          -4.225
REMARK INTER:                  -4.089
REMARK INTRA:                  -0.137
REMARK UNBOUND:                -0.139
REMARK SMILES O=C([O-])CCC(=O)[O-]
REMARK SMILES IDX 4 1 2 2 1 3 3 4 5 5 6 6 7 7 8 8
REMARK H PARENT
REMARK Flexibility Score: inf
ROOT
ATOM      1  C   UNL     1       3.967  10.689   9.327  1.00  0.00     0.059 C 
ENDROOT
BRANCH   1   2
ATOM      2  C   UNL     1       4.023   9.859   8.081  1.00  0.00     0.042 C 
ATOM      3  O   UNL     1       4.128   8.607   8.157  1.00  0.00    -0.550 OA
ATOM      4  O   UNL     1       3.917  10.467   6.836  1.00  0.00    -0.550 OA
ENDBRANCH   1   2
BRANCH   1   5
ATOM      5  C   UNL     1       2.988  11.859   9.182  1.00  0.00     0.059 C 
BRANCH   5   6
ATOM      6  C   UNL     1       1.570  11.420   9.386  1.00  0.00     0.042 C 
ATOM      7  O   UNL     1       0.814  11.241   8.396  1.00  0.00    -0.550 OA
ATOM      8  O   UNL     1       1.073  11.247  10.672  1.00  0.00    -0.550 OA
ENDBRANCH   5   6
ENDBRANCH   1   5
TORSDOF 3
ENDMDL
MODEL 3
REMARK VINA RESULT:    -3.370      2.650      4.654
REMARK INTER + INTRA:          -4.100
REMARK INTER:                  -4.029
REMARK INTRA:                  -0.071
REMARK UNBOUND:                -0.139
REMARK SMILES O=C([O-])CCC(=O)[O-]
REMARK SMILES IDX 4 1 2 2 1 3 3 4 5 5 6 6 7 7 8 8
REMARK H PARENT
REMARK Flexibility Score: inf
ROOT
ATOM      1  C   UNL     1       4.720  10.655   6.178  1.00  0.00     0.059 C 
ENDROOT
BRANCH   1   2
ATOM      2  C   UNL     1       5.949  10.987   5.388  1.00  0.00     0.042 C 
ATOM      3  O   UNL     1       7.040  10.411   5.640  1.00  0.00    -0.550 OA
ATOM      4  O   UNL     1       5.879  11.902   4.345  1.00  0.00    -0.550 OA
ENDBRANCH   1   2
BRANCH   1   5
ATOM      5  C   UNL     1       4.855  11.091   7.641  1.00  0.00     0.059 C 
BRANCH   5   6
ATOM      6  C   UNL     1       4.387  10.021   8.580  1.00  0.00     0.042 C 
ATOM      7  O   UNL     1       4.306   8.827   8.190  1.00  0.00    -0.550 OA
ATOM      8  O   UNL     1       4.002  10.350   9.874  1.00  0.00    -0.550 OA
ENDBRANCH   5   6
ENDBRANCH   1   5
TORSDOF 3
ENDMDL
MODEL 4
REMARK VINA RESULT:    -3.346      2.614      3.622
REMARK INTER + INTRA:          -4.073
REMARK INTER:                  -4.009
REMARK INTRA:                  -0.063
REMARK UNBOUND:                -0.139
REMARK SMILES O=C([O-])CCC(=O)[O-]
REMARK SMILES IDX 4 1 2 2 1 3 3 4 5 5 6 6 7 7 8 8
REMARK H PARENT
REMARK Flexibility Score: inf
ROOT
ATOM      1  C   UNL     1       4.996  11.023   7.776  1.00  0.00     0.059 C 
ENDROOT
BRANCH   1   2
ATOM      2  C   UNL     1       4.367  10.002   8.675  1.00  0.00     0.042 C 
ATOM      3  O   UNL     1       4.004  10.319   9.838  1.00  0.00    -0.550 OA
ATOM      4  O   UNL     1       4.145   8.711   8.211  1.00  0.00    -0.550 OA
ENDBRANCH   1   2
BRANCH   1   5
ATOM      5  C   UNL     1       4.741  10.707   6.299  1.00  0.00     0.059 C 
BRANCH   5   6
ATOM      6  C   UNL     1       5.961  10.955   5.464  1.00  0.00     0.042 C 
ATOM      7  O   UNL     1       7.057  10.415   5.769  1.00  0.00    -0.550 OA
ATOM      8  O   UNL     1       5.896  11.812   4.373  1.00  0.00    -0.550 OA
ENDBRANCH   5   6
ENDBRANCH   1   5
TORSDOF 3
ENDMDL
MODEL 5
REMARK VINA RESULT:    -3.333      2.544      3.670
REMARK INTER + INTRA:          -4.056
REMARK INTER:                  -3.975
REMARK INTRA:                  -0.082
REMARK UNBOUND:                -0.139
REMARK SMILES O=C([O-])CCC(=O)[O-]
REMARK SMILES IDX 4 1 2 2 1 3 3 4 5 5 6 6 7 7 8 8
REMARK H PARENT
REMARK Flexibility Score: inf
ROOT
ATOM      1  C   UNL     1       4.642  11.022   7.676  1.00  0.00     0.059 C 
ENDROOT
BRANCH   1   2
ATOM      2  C   UNL     1       4.150   9.909   8.549  1.00  0.00     0.042 C 
ATOM      3  O   UNL     1       4.167   8.721   8.132  1.00  0.00    -0.550 OA
ATOM      4  O   UNL     1       3.713  10.179   9.841  1.00  0.00    -0.550 OA
ENDBRANCH   1   2
BRANCH   1   5
ATOM      5  C   UNL     1       4.602  10.637   6.194  1.00  0.00     0.059 C 
BRANCH   5   6
ATOM      6  C   UNL     1       5.893  10.957   5.506  1.00  0.00     0.042 C 
ATOM      7  O   UNL     1       6.977  10.488   5.943  1.00  0.00    -0.550 OA
ATOM      8  O   UNL     1       5.905  11.805   4.405  1.00  0.00    -0.550 OA
ENDBRANCH   5   6
ENDBRANCH   1   5
TORSDOF 3
ENDMDL
MODEL 6
REMARK VINA RESULT:    -3.295      5.015      6.279
REMARK INTER + INTRA:          -4.012
REMARK INTER:                  -3.910
REMARK INTRA:                  -0.101
REMARK UNBOUND:                -0.139
REMARK SMILES O=C([O-])CCC(=O)[O-]
REMARK SMILES IDX 4 1 2 2 1 3 3 4 5 5 6 6 7 7 8 8
REMARK H PARENT
REMARK Flexibility Score: inf
ROOT
ATOM      1  C   UNL     1       6.010  11.642   4.430  1.00  0.00     0.059 C 
ENDROOT
BRANCH   1   2
ATOM      2  C   UNL     1       5.605  10.919   5.678  1.00  0.00     0.042 C 
ATOM      3  O   UNL     1       4.402  10.594   5.860  1.00  0.00    -0.550 OA
ATOM      4  O   UNL     1       6.564  10.568   6.620  1.00  0.00    -0.550 OA
ENDBRANCH   1   2
BRANCH   1   5
ATOM      5  C   UNL     1       7.081  12.700   4.712  1.00  0.00     0.059 C 
BRANCH   5   6
ATOM      6  C   UNL     1       8.427  12.270   4.212  1.00  0.00     0.042 C 
ATOM      7  O   UNL     1       9.325  11.928   5.025  1.00  0.00    -0.550 OA
ATOM      8  O   UNL     1       8.701  12.285   2.850  1.00  0.00    -0.550 OA
ENDBRANCH   5   6
ENDBRANCH   1   5
TORSDOF 3
ENDMDL
MODEL 7
REMARK VINA RESULT:    -3.191      2.176      3.883
REMARK INTER + INTRA:          -3.890
REMARK INTER:                  -3.700
REMARK INTRA:                  -0.190
REMARK UNBOUND:                -0.139
REMARK SMILES O=C([O-])CCC(=O)[O-]
REMARK SMILES IDX 4 1 2 2 1 3 3 4 5 5 6 6 7 7 8 8
REMARK H PARENT
REMARK Flexibility Score: inf
ROOT
ATOM      1  C   UNL     1       4.828  12.137   8.867  1.00  0.00     0.059 C 
ENDROOT
BRANCH   1   2
ATOM      2  C   UNL     1       5.990  11.843   7.969  1.00  0.00     0.042 C 
ATOM      3  O   UNL     1       6.013  12.293   6.793  1.00  0.00    -0.550 OA
ATOM      4  O   UNL     1       7.068  11.107   8.445  1.00  0.00    -0.550 OA
ENDBRANCH   1   2
BRANCH   1   5
ATOM      5  C   UNL     1       4.163  10.852   9.370  1.00  0.00     0.059 C 
BRANCH   5   6
ATOM      6  C   UNL     1       3.704   9.988   8.235  1.00  0.00     0.042 C 
ATOM      7  O   UNL     1       2.775  10.377   7.479  1.00  0.00    -0.550 OA
ATOM      8  O   UNL     1       4.274   8.736   8.038  1.00  0.00    -0.550 OA
ENDBRANCH   5   6
ENDBRANCH   1   5
TORSDOF 3
ENDMDL
MODEL 8
REMARK VINA RESULT:    -3.135      1.733      3.826
REMARK INTER + INTRA:          -3.824
REMARK INTER:                  -3.686
REMARK INTRA:                  -0.138
REMARK UNBOUND:                -0.139
REMARK SMILES O=C([O-])CCC(=O)[O-]
REMARK SMILES IDX 4 1 2 2 1 3 3 4 5 5 6 6 7 7 8 8
REMARK H PARENT
REMARK Flexibility Score: inf
ROOT
ATOM      1  C   UNL     1       4.006   9.510   8.124  1.00  0.00     0.059 C 
ENDROOT
BRANCH   1   2
ATOM      2  C   UNL     1       5.143  10.235   7.471  1.00  0.00     0.042 C 
ATOM      3  O   UNL     1       6.215  10.433   8.101  1.00  0.00    -0.550 OA
ATOM      4  O   UNL     1       5.033  10.653   6.150  1.00  0.00    -0.550 OA
ENDBRANCH   1   2
BRANCH   1   5
ATOM      5  C   UNL     1       3.564  10.203   9.417  1.00  0.00     0.059 C 
BRANCH   5   6
ATOM      6  C   UNL     1       2.711  11.402   9.137  1.00  0.00     0.042 C 
ATOM      7  O   UNL     1       1.498  11.259   8.831  1.00  0.00    -0.550 OA
ATOM      8  O   UNL     1       3.265  12.676   9.175  1.00  0.00    -0.550 OA
ENDBRANCH   5   6
ENDBRANCH   1   5
TORSDOF 3
ENDMDL
MODEL 9
REMARK VINA RESULT:    -3.130      3.077      4.144
REMARK INTER + INTRA:          -3.818
REMARK INTER:                  -3.634
REMARK INTRA:                  -0.184
REMARK UNBOUND:                -0.139
REMARK SMILES O=C([O-])CCC(=O)[O-]
REMARK SMILES IDX 4 1 2 2 1 3 3 4 5 5 6 6 7 7 8 8
REMARK H PARENT
REMARK Flexibility Score: inf
ROOT
ATOM      1  C   UNL     1       5.177  10.752   6.163  1.00  0.00     0.059 C 
ENDROOT
BRANCH   1   2
ATOM      2  C   UNL     1       4.462  10.202   7.359  1.00  0.00     0.042 C 
ATOM      3  O   UNL     1       4.673   9.019   7.735  1.00  0.00    -0.550 OA
ATOM      4  O   UNL     1       3.594  11.011   8.082  1.00  0.00    -0.550 OA
ENDBRANCH   1   2
BRANCH   1   5
ATOM      5  C   UNL     1       6.118  11.898   6.546  1.00  0.00     0.059 C 
BRANCH   5   6
ATOM      6  C   UNL     1       7.158  11.453   7.529  1.00  0.00     0.042 C 
ATOM      7  O   UNL     1       8.015  10.593   7.198  1.00  0.00    -0.550 OA
ATOM      8  O   UNL     1       7.154  11.959   8.823  1.00  0.00    -0.550 OA
ENDBRANCH   5   6
ENDBRANCH   1   5
TORSDOF 3
ENDMDL
