MODEL 1
REMARK VINA RESULT:    -2.081      0.000      0.000
REMARK INTER + INTRA:          -6.906
REMARK INTER:                  -5.243
REMARK INTRA:                  -1.664
REMARK UNBOUND:                -1.664
REMARK SMILES CCCCCCCCCCCCCCCCCCCCCCCCCCCC(=O)[O-]
REMARK SMILES IDX 15 1 16 2 17 3 18 4 19 5 20 6 21 7 22 8 23 9 24 10 25 11
REMARK SMILES IDX 26 12 27 13 28 14 29 15 30 16 14 17 13 18 12 19 11 20 10 21
REMARK SMILES IDX 9 22 8 23 7 24 6 25 5 26 4 27 3 28 2 29 1 30
REMARK H PARENT
REMARK Flexibility Score: inf
ROOT
ATOM      1  C   UNL     1      18.427  -8.849   4.215  1.00  0.00     0.000 C 
ENDROOT
BRANCH   1   2
ATOM      2  C   UNL     1      16.932  -8.988   3.891  1.00  0.00     0.000 C 
BRANCH   2   3
ATOM      3  C   UNL     1      16.233 -10.045   4.765  1.00  0.00     0.000 C 
BRANCH   3   4
ATOM      4  C   UNL     1      14.716 -10.125   4.513  1.00  0.00     0.000 C 
BRANCH   4   5
ATOM      5  C   UNL     1      13.857  -9.209   5.407  1.00  0.00     0.000 C 
BRANCH   5   6
ATOM      6  C   UNL     1      12.490  -8.872   4.784  1.00  0.00     0.000 C 
BRANCH   6   7
ATOM      7  C   UNL     1      11.574  -8.095   5.743  1.00  0.00     0.000 C 
BRANCH   7   8
ATOM      8  C   UNL     1      10.176  -7.850   5.147  1.00  0.00     0.000 C 
BRANCH   8   9
ATOM      9  C   UNL     1       9.216  -9.026   5.391  1.00  0.00     0.000 C 
BRANCH   9  10
ATOM     10  C   UNL     1       8.709  -9.084   6.841  1.00  0.00     0.000 C 
BRANCH  10  11
ATOM     11  C   UNL     1       7.197  -8.827   6.907  1.00  0.00     0.000 C 
BRANCH  11  12
ATOM     12  C   UNL     1       6.866  -7.388   6.487  1.00  0.00     0.006 C 
BRANCH  12  13
ATOM     13  C   UNL     1       6.515  -7.282   4.997  1.00  0.00     0.053 C 
BRANCH  13  14
ATOM     14  C   UNL     1       5.251  -8.018   4.672  1.00  0.00     0.041 C 
ATOM     15  O   UNL     1       5.299  -9.185   4.203  1.00  0.00    -0.550 OA
ATOM     16  O   UNL     1       4.018  -7.423   4.914  1.00  0.00    -0.550 OA
ENDBRANCH  13  14
ENDBRANCH  12  13
ENDBRANCH  11  12
ENDBRANCH  10  11
ENDBRANCH   9  10
ENDBRANCH   8   9
ENDBRANCH   7   8
ENDBRANCH   6   7
ENDBRANCH   5   6
ENDBRANCH   4   5
ENDBRANCH   3   4
ENDBRANCH   2   3
ENDBRANCH   1   2
BRANCH   1  17
ATOM     17  C   UNL     1      18.928  -9.897   5.221  1.00  0.00     0.000 C 
BRANCH  17  18
ATOM     18  C   UNL     1      20.410  -9.664   5.552  1.00  0.00     0.000 C 
BRANCH  18  19
ATOM     19  C   UNL     1      21.274  -9.451   4.300  1.00  0.00     0.000 C 
BRANCH  19  20
ATOM     20  C   UNL     1      21.884  -8.040   4.233  1.00  0.00     0.000 C 
BRANCH  20  21
ATOM     21  C   UNL     1      20.845  -6.960   3.876  1.00  0.00     0.000 C 
BRANCH  21  22
ATOM     22  C   UNL     1      21.378  -5.515   3.896  1.00  0.00    -0.000 C 
BRANCH  22  23
ATOM     23  C   UNL     1      20.945  -4.735   5.150  1.00  0.00    -0.000 C 
BRANCH  23  24
ATOM     24  C   UNL     1      20.538  -5.666   6.310  1.00  0.00    -0.000 C 
BRANCH  24  25
ATOM     25  C   UNL     1      20.425  -4.957   7.675  1.00  0.00    -0.000 C 
BRANCH  25  26
ATOM     26  C   UNL     1      19.954  -5.845   8.840  1.00  0.00    -0.000 C 
BRANCH  26  27
ATOM     27  C   UNL     1      19.166  -7.082   8.370  1.00  0.00    -0.000 C 
BRANCH  27  28
ATOM     28  C   UNL     1      17.654  -6.821   8.259  1.00  0.00    -0.000 C 
BRANCH  28  29
ATOM     29  C   UNL     1      16.988  -7.541   7.067  1.00  0.00    -0.003 C 
ATOM     30  C   UNL     1      15.867  -6.712   6.442  1.00  0.00     0.004 C 
ENDBRANCH  28  29
ENDBRANCH  27  28
ENDBRANCH  26  27
ENDBRANCH  25  26
ENDBRANCH  24  25
ENDBRANCH  23  24
ENDBRANCH  22  23
ENDBRANCH  21  22
ENDBRANCH  20  21
ENDBRANCH  19  20
ENDBRANCH  18  19
ENDBRANCH  17  18
ENDBRANCH   1  17
TORSDOF 26
ENDMDL
MODEL 2
REMARK VINA RESULT:    -1.672      4.208     10.964
REMARK INTER + INTRA:          -5.876
REMARK INTER:                  -5.031
REMARK INTRA:                  -0.845
REMARK UNBOUND:                -1.664
REMARK SMILES CCCCCCCCCCCCCCCCCCCCCCCCCCCC(=O)[O-]
REMARK SMILES IDX 15 1 16 2 17 3 18 4 19 5 20 6 21 7 22 8 23 9 24 10 25 11
REMARK SMILES IDX 26 12 27 13 28 14 29 15 30 16 14 17 13 18 12 19 11 20 10 21
REMARK SMILES IDX 9 22 8 23 7 24 6 25 5 26 4 27 3 28 2 29 1 30
REMARK H PARENT
REMARK Flexibility Score: inf
ROOT
ATOM      1  C   UNL     1      16.586  -6.720   7.067  1.00  0.00     0.000 C 
ENDROOT
BRANCH   1   2
ATOM      2  C   UNL     1      16.926  -6.898   8.555  1.00  0.00     0.000 C 
BRANCH   2   3
ATOM      3  C   UNL     1      18.351  -6.429   8.896  1.00  0.00     0.000 C 
BRANCH   3   4
ATOM      4  C   UNL     1      19.434  -7.434   8.460  1.00  0.00     0.000 C 
BRANCH   4   5
ATOM      5  C   UNL     1      19.125  -8.205   7.162  1.00  0.00     0.000 C 
BRANCH   5   6
ATOM      6  C   UNL     1      19.630  -9.659   7.191  1.00  0.00     0.000 C 
BRANCH   6   7
ATOM      7  C   UNL     1      20.211 -10.116   5.844  1.00  0.00     0.000 C 
BRANCH   7   8
ATOM      8  C   UNL     1      20.177  -9.001   4.784  1.00  0.00     0.000 C 
BRANCH   8   9
ATOM      9  C   UNL     1      21.467  -8.939   3.949  1.00  0.00     0.000 C 
BRANCH   9  10
ATOM     10  C   UNL     1      22.706  -8.612   4.798  1.00  0.00     0.000 C 
BRANCH  10  11
ATOM     11  C   UNL     1      22.758  -7.119   5.144  1.00  0.00     0.000 C 
BRANCH  11  12
ATOM     12  C   UNL     1      22.672  -6.257   3.876  1.00  0.00     0.006 C 
BRANCH  12  13
ATOM     13  C   UNL     1      21.582  -5.183   3.976  1.00  0.00     0.053 C 
BRANCH  13  14
ATOM     14  C   UNL     1      20.711  -5.387   5.178  1.00  0.00     0.041 C 
ATOM     15  O   UNL     1      19.729  -6.172   5.123  1.00  0.00    -0.550 OA
ATOM     16  O   UNL     1      21.001  -4.730   6.367  1.00  0.00    -0.550 OA
ENDBRANCH  13  14
ENDBRANCH  12  13
ENDBRANCH  11  12
ENDBRANCH  10  11
ENDBRANCH   9  10
ENDBRANCH   8   9
ENDBRANCH   7   8
ENDBRANCH   6   7
ENDBRANCH   5   6
ENDBRANCH   4   5
ENDBRANCH   3   4
ENDBRANCH   2   3
ENDBRANCH   1   2
BRANCH   1  17
ATOM     17  C   UNL     1      15.541  -7.727   6.562  1.00  0.00     0.000 C 
BRANCH  17  18
ATOM     18  C   UNL     1      16.055  -8.459   5.312  1.00  0.00     0.000 C 
BRANCH  18  19
ATOM     19  C   UNL     1      15.005  -8.540   4.195  1.00  0.00     0.000 C 
BRANCH  19  20
ATOM     20  C   UNL     1      14.428  -9.957   4.025  1.00  0.00     0.000 C 
BRANCH  20  21
ATOM     21  C   UNL     1      12.891  -9.965   3.922  1.00  0.00     0.000 C 
BRANCH  21  22
ATOM     22  C   UNL     1      12.202  -8.682   4.422  1.00  0.00    -0.000 C 
BRANCH  22  23
ATOM     23  C   UNL     1      10.708  -8.625   4.055  1.00  0.00    -0.000 C 
BRANCH  23  24
ATOM     24  C   UNL     1       9.914  -9.815   4.632  1.00  0.00    -0.000 C 
BRANCH  24  25
ATOM     25  C   UNL     1       8.401  -9.553   4.771  1.00  0.00    -0.000 C 
BRANCH  25  26
ATOM     26  C   UNL     1       7.980  -8.075   4.702  1.00  0.00    -0.000 C 
BRANCH  26  27
ATOM     27  C   UNL     1       6.943  -7.697   5.775  1.00  0.00    -0.000 C 
BRANCH  27  28
ATOM     28  C   UNL     1       6.639  -8.851   6.745  1.00  0.00    -0.000 C 
BRANCH  28  29
ATOM     29  C   UNL     1       7.721  -9.049   7.828  1.00  0.00    -0.003 C 
ATOM     30  C   UNL     1       7.302 -10.070   8.885  1.00  0.00     0.004 C 
ENDBRANCH  28  29
ENDBRANCH  27  28
ENDBRANCH  26  27
ENDBRANCH  25  26
ENDBRANCH  24  25
ENDBRANCH  23  24
ENDBRANCH  22  23
ENDBRANCH  21  22
ENDBRANCH  20  21
ENDBRANCH  19  20
ENDBRANCH  18  19
ENDBRANCH  17  18
ENDBRANCH   1  17
TORSDOF 26
ENDMDL
MODEL 3
REMARK VINA RESULT:    -1.163      1.242      2.020
REMARK INTER + INTRA:          -4.595
REMARK INTER:                  -2.662
REMARK INTRA:                  -1.933
REMARK UNBOUND:                -1.664
REMARK SMILES CCCCCCCCCCCCCCCCCCCCCCCCCCCC(=O)[O-]
REMARK SMILES IDX 15 1 16 2 17 3 18 4 19 5 20 6 21 7 22 8 23 9 24 10 25 11
REMARK SMILES IDX 26 12 27 13 28 14 29 15 30 16 14 17 13 18 12 19 11 20 10 21
REMARK SMILES IDX 9 22 8 23 7 24 6 25 5 26 4 27 3 28 2 29 1 30
REMARK H PARENT
REMARK Flexibility Score: inf
ROOT
ATOM      1  C   UNL     1      19.113  -9.701   5.619  1.00  0.00     0.000 C 
ENDROOT
BRANCH   1   2
ATOM      2  C   UNL     1      18.715  -9.690   4.135  1.00  0.00     0.000 C 
BRANCH   2   3
ATOM      3  C   UNL     1      17.245 -10.089   3.914  1.00  0.00     0.000 C 
BRANCH   3   4
ATOM      4  C   UNL     1      16.385  -9.938   5.183  1.00  0.00     0.000 C 
BRANCH   4   5
ATOM      5  C   UNL     1      14.865 -10.074   4.962  1.00  0.00     0.000 C 
BRANCH   5   6
ATOM      6  C   UNL     1      14.327  -9.116   3.883  1.00  0.00     0.000 C 
BRANCH   6   7
ATOM      7  C   UNL     1      12.793  -9.029   3.875  1.00  0.00     0.000 C 
BRANCH   7   8
ATOM      8  C   UNL     1      12.196  -9.095   5.291  1.00  0.00     0.000 C 
BRANCH   8   9
ATOM      9  C   UNL     1      10.791  -8.474   5.370  1.00  0.00     0.000 C 
BRANCH   9  10
ATOM     10  C   UNL     1      10.154  -8.276   3.986  1.00  0.00     0.000 C 
BRANCH  10  11
ATOM     11  C   UNL     1       8.805  -7.553   4.099  1.00  0.00     0.000 C 
BRANCH  11  12
ATOM     12  C   UNL     1       8.196  -7.741   5.496  1.00  0.00     0.006 C 
BRANCH  12  13
ATOM     13  C   UNL     1       6.748  -8.243   5.437  1.00  0.00     0.053 C 
BRANCH  13  14
ATOM     14  C   UNL     1       5.768  -7.141   5.700  1.00  0.00     0.041 C 
ATOM     15  O   UNL     1       4.770  -6.987   4.948  1.00  0.00    -0.550 OA
ATOM     16  O   UNL     1       5.943  -6.300   6.792  1.00  0.00    -0.550 OA
ENDBRANCH  13  14
ENDBRANCH  12  13
ENDBRANCH  11  12
ENDBRANCH  10  11
ENDBRANCH   9  10
ENDBRANCH   8   9
ENDBRANCH   7   8
ENDBRANCH   6   7
ENDBRANCH   5   6
ENDBRANCH   4   5
ENDBRANCH   3   4
ENDBRANCH   2   3
ENDBRANCH   1   2
BRANCH   1  17
ATOM     17  C   UNL     1      20.579  -9.309   5.854  1.00  0.00     0.000 C 
BRANCH  17  18
ATOM     18  C   UNL     1      21.266  -8.960   4.524  1.00  0.00     0.000 C 
BRANCH  18  19
ATOM     19  C   UNL     1      22.721  -8.503   4.706  1.00  0.00     0.000 C 
BRANCH  19  20
ATOM     20  C   UNL     1      22.851  -6.974   4.824  1.00  0.00     0.000 C 
BRANCH  20  21
ATOM     21  C   UNL     1      21.899  -6.221   3.875  1.00  0.00     0.000 C 
BRANCH  21  22
ATOM     22  C   UNL     1      20.702  -5.540   4.565  1.00  0.00    -0.000 C 
BRANCH  22  23
ATOM     23  C   UNL     1      20.982  -5.188   6.037  1.00  0.00    -0.000 C 
BRANCH  23  24
ATOM     24  C   UNL     1      20.442  -6.254   7.011  1.00  0.00    -0.000 C 
BRANCH  24  25
ATOM     25  C   UNL     1      18.907  -6.253   7.157  1.00  0.00    -0.000 C 
BRANCH  25  26
ATOM     26  C   UNL     1      18.348  -7.209   8.226  1.00  0.00    -0.000 C 
BRANCH  26  27
ATOM     27  C   UNL     1      16.814  -7.147   8.341  1.00  0.00    -0.000 C 
BRANCH  27  28
ATOM     28  C   UNL     1      16.124  -6.871   6.995  1.00  0.00    -0.000 C 
BRANCH  28  29
ATOM     29  C   UNL     1      14.819  -7.671   6.793  1.00  0.00    -0.003 C 
ATOM     30  C   UNL     1      14.326  -8.311   8.091  1.00  0.00     0.004 C 
ENDBRANCH  28  29
ENDBRANCH  27  28
ENDBRANCH  26  27
ENDBRANCH  25  26
ENDBRANCH  24  25
ENDBRANCH  23  24
ENDBRANCH  22  23
ENDBRANCH  21  22
ENDBRANCH  20  21
ENDBRANCH  19  20
ENDBRANCH  18  19
ENDBRANCH  17  18
ENDBRANCH   1  17
TORSDOF 26
ENDMDL
MODEL 4
REMARK VINA RESULT:    -0.769      1.243      3.218
REMARK INTER + INTRA:          -3.601
REMARK INTER:                  -1.943
REMARK INTRA:                  -1.658
REMARK UNBOUND:                -1.664
REMARK SMILES CCCCCCCCCCCCCCCCCCCCCCCCCCCC(=O)[O-]
REMARK SMILES IDX 15 1 16 2 17 3 18 4 19 5 20 6 21 7 22 8 23 9 24 10 25 11
REMARK SMILES IDX 26 12 27 13 28 14 29 15 30 16 14 17 13 18 12 19 11 20 10 21
REMARK SMILES IDX 9 22 8 23 7 24 6 25 5 26 4 27 3 28 2 29 1 30
REMARK H PARENT
REMARK Flexibility Score: inf
ROOT
ATOM      1  C   UNL     1      17.763  -7.192   7.221  1.00  0.00     0.000 C 
ENDROOT
BRANCH   1   2
ATOM      2  C   UNL     1      16.374  -7.136   7.876  1.00  0.00     0.000 C 
BRANCH   2   3
ATOM      3  C   UNL     1      15.243  -7.487   6.894  1.00  0.00     0.000 C 
BRANCH   3   4
ATOM      4  C   UNL     1      15.683  -7.413   5.420  1.00  0.00     0.000 C 
BRANCH   4   5
ATOM      5  C   UNL     1      15.646  -8.753   4.659  1.00  0.00     0.000 C 
BRANCH   5   6
ATOM      6  C   UNL     1      14.601  -9.734   5.220  1.00  0.00     0.000 C 
BRANCH   6   7
ATOM      7  C   UNL     1      13.352  -9.846   4.332  1.00  0.00     0.000 C 
BRANCH   7   8
ATOM      8  C   UNL     1      12.527  -8.547   4.316  1.00  0.00     0.000 C 
BRANCH   8   9
ATOM      9  C   UNL     1      11.017  -8.808   4.192  1.00  0.00     0.000 C 
BRANCH   9  10
ATOM     10  C   UNL     1      10.409  -9.392   5.478  1.00  0.00     0.000 C 
BRANCH  10  11
ATOM     11  C   UNL     1       8.888  -9.540   5.351  1.00  0.00     0.000 C 
BRANCH  11  12
ATOM     12  C   UNL     1       8.161  -8.592   6.315  1.00  0.00     0.006 C 
BRANCH  12  13
ATOM     13  C   UNL     1       6.660  -8.494   6.014  1.00  0.00     0.053 C 
BRANCH  13  14
ATOM     14  C   UNL     1       6.211  -7.070   5.888  1.00  0.00     0.041 C 
ATOM     15  O   UNL     1       6.250  -6.303   6.885  1.00  0.00    -0.550 OA
ATOM     16  O   UNL     1       5.777  -6.584   4.661  1.00  0.00    -0.550 OA
ENDBRANCH  13  14
ENDBRANCH  12  13
ENDBRANCH  11  12
ENDBRANCH  10  11
ENDBRANCH   9  10
ENDBRANCH   8   9
ENDBRANCH   7   8
ENDBRANCH   6   7
ENDBRANCH   5   6
ENDBRANCH   4   5
ENDBRANCH   3   4
ENDBRANCH   2   3
ENDBRANCH   1   2
BRANCH   1  17
ATOM     17  C   UNL     1      18.758  -8.074   7.991  1.00  0.00     0.000 C 
BRANCH  17  18
ATOM     18  C   UNL     1      18.606  -9.547   7.581  1.00  0.00     0.000 C 
BRANCH  18  19
ATOM     19  C   UNL     1      18.673  -9.752   6.060  1.00  0.00     0.000 C 
BRANCH  19  20
ATOM     20  C   UNL     1      20.101 -10.033   5.562  1.00  0.00     0.000 C 
BRANCH  20  21
ATOM     21  C   UNL     1      21.085  -8.899   5.907  1.00  0.00     0.000 C 
BRANCH  21  22
ATOM     22  C   UNL     1      22.155  -8.620   4.835  1.00  0.00    -0.000 C 
BRANCH  22  23
ATOM     23  C   UNL     1      21.757  -7.484   3.875  1.00  0.00    -0.000 C 
BRANCH  23  24
ATOM     24  C   UNL     1      20.253  -7.152   3.946  1.00  0.00    -0.000 C 
BRANCH  24  25
ATOM     25  C   UNL     1      19.937  -5.645   3.876  1.00  0.00    -0.000 C 
BRANCH  25  26
ATOM     26  C   UNL     1      21.074  -4.713   4.330  1.00  0.00    -0.000 C 
BRANCH  26  27
ATOM     27  C   UNL     1      21.493  -4.948   5.793  1.00  0.00    -0.000 C 
BRANCH  27  28
ATOM     28  C   UNL     1      20.296  -5.227   6.719  1.00  0.00    -0.000 C 
BRANCH  28  29
ATOM     29  C   UNL     1      20.433  -4.584   8.116  1.00  0.00    -0.003 C 
ATOM     30  C   UNL     1      20.019  -5.538   9.236  1.00  0.00     0.004 C 
ENDBRANCH  28  29
ENDBRANCH  27  28
ENDBRANCH  26  27
ENDBRANCH  25  26
ENDBRANCH  24  25
ENDBRANCH  23  24
ENDBRANCH  22  23
ENDBRANCH  21  22
ENDBRANCH  20  21
ENDBRANCH  19  20
ENDBRANCH  18  19
ENDBRANCH  17  18
ENDBRANCH   1  17
TORSDOF 26
ENDMDL
MODEL 5
REMARK VINA RESULT:    -0.675      1.393      4.088
REMARK INTER + INTRA:          -3.364
REMARK INTER:                  -2.081
REMARK INTRA:                  -1.283
REMARK UNBOUND:                -1.664
REMARK SMILES CCCCCCCCCCCCCCCCCCCCCCCCCCCC(=O)[O-]
REMARK SMILES IDX 15 1 16 2 17 3 18 4 19 5 20 6 21 7 22 8 23 9 24 10 25 11
REMARK SMILES IDX 26 12 27 13 28 14 29 15 30 16 14 17 13 18 12 19 11 20 10 21
REMARK SMILES IDX 9 22 8 23 7 24 6 25 5 26 4 27 3 28 2 29 1 30
REMARK H PARENT
REMARK Flexibility Score: inf
ROOT
ATOM      1  C   UNL     1      16.300  -7.191   8.723  1.00  0.00     0.000 C 
ENDROOT
BRANCH   1   2
ATOM      2  C   UNL     1      15.670  -7.555   7.370  1.00  0.00     0.000 C 
BRANCH   2   3
ATOM      3  C   UNL     1      16.544  -8.521   6.551  1.00  0.00     0.000 C 
BRANCH   3   4
ATOM      4  C   UNL     1      16.743  -8.062   5.094  1.00  0.00     0.000 C 
BRANCH   4   5
ATOM      5  C   UNL     1      15.541  -7.323   4.472  1.00  0.00     0.000 C 
BRANCH   5   6
ATOM      6  C   UNL     1      14.490  -8.279   3.879  1.00  0.00     0.000 C 
BRANCH   6   7
ATOM      7  C   UNL     1      13.441  -8.725   4.909  1.00  0.00     0.000 C 
BRANCH   7   8
ATOM      8  C   UNL     1      12.351  -9.615   4.287  1.00  0.00     0.000 C 
BRANCH   8   9
ATOM      9  C   UNL     1      10.940  -9.029   4.461  1.00  0.00     0.000 C 
BRANCH   9  10
ATOM     10  C   UNL     1      10.600  -8.730   5.930  1.00  0.00     0.000 C 
BRANCH  10  11
ATOM     11  C   UNL     1       9.165  -8.208   6.068  1.00  0.00     0.000 C 
BRANCH  11  12
ATOM     12  C   UNL     1       8.145  -9.325   5.801  1.00  0.00     0.006 C 
BRANCH  12  13
ATOM     13  C   UNL     1       6.737  -8.956   6.284  1.00  0.00     0.053 C 
BRANCH  13  14
ATOM     14  C   UNL     1       6.346  -7.577   5.849  1.00  0.00     0.041 C 
ATOM     15  O   UNL     1       6.364  -6.624   6.671  1.00  0.00    -0.550 OA
ATOM     16  O   UNL     1       5.988  -7.340   4.528  1.00  0.00    -0.550 OA
ENDBRANCH  13  14
ENDBRANCH  12  13
ENDBRANCH  11  12
ENDBRANCH  10  11
ENDBRANCH   9  10
ENDBRANCH   8   9
ENDBRANCH   7   8
ENDBRANCH   6   7
ENDBRANCH   5   6
ENDBRANCH   4   5
ENDBRANCH   3   4
ENDBRANCH   2   3
ENDBRANCH   1   2
BRANCH   1  17
ATOM     17  C   UNL     1      17.435  -6.163   8.604  1.00  0.00     0.000 C 
BRANCH  17  18
ATOM     18  C   UNL     1      18.604  -6.740   7.790  1.00  0.00     0.000 C 
BRANCH  18  19
ATOM     19  C   UNL     1      19.640  -7.462   8.664  1.00  0.00     0.000 C 
BRANCH  19  20
ATOM     20  C   UNL     1      19.388  -8.977   8.754  1.00  0.00     0.000 C 
BRANCH  20  21
ATOM     21  C   UNL     1      19.308  -9.649   7.370  1.00  0.00     0.000 C 
BRANCH  21  22
ATOM     22  C   UNL     1      20.147  -8.971   6.271  1.00  0.00    -0.000 C 
BRANCH  22  23
ATOM     23  C   UNL     1      20.628  -9.958   5.192  1.00  0.00    -0.000 C 
BRANCH  23  24
ATOM     24  C   UNL     1      21.642  -9.321   4.221  1.00  0.00    -0.000 C 
BRANCH  24  25
ATOM     25  C   UNL     1      22.524  -8.229   4.859  1.00  0.00    -0.000 C 
BRANCH  25  26
ATOM     26  C   UNL     1      23.123  -7.210   3.875  1.00  0.00    -0.000 C 
BRANCH  26  27
ATOM     27  C   UNL     1      22.609  -5.777   4.109  1.00  0.00    -0.000 C 
BRANCH  27  28
ATOM     28  C   UNL     1      21.162  -5.740   4.630  1.00  0.00    -0.000 C 
BRANCH  28  29
ATOM     29  C   UNL     1      20.761  -4.380   5.241  1.00  0.00    -0.003 C 
ATOM     30  C   UNL     1      21.029  -3.215   4.289  1.00  0.00     0.004 C 
ENDBRANCH  28  29
ENDBRANCH  27  28
ENDBRANCH  26  27
ENDBRANCH  25  26
ENDBRANCH  24  25
ENDBRANCH  23  24
ENDBRANCH  22  23
ENDBRANCH  21  22
ENDBRANCH  20  21
ENDBRANCH  19  20
ENDBRANCH  18  19
ENDBRANCH  17  18
ENDBRANCH   1  17
TORSDOF 26
ENDMDL
MODEL 6
REMARK VINA RESULT:    -0.519      2.973      9.154
REMARK INTER + INTRA:          -2.972
REMARK INTER:                  -1.064
REMARK INTRA:                  -1.907
REMARK UNBOUND:                -1.664
REMARK SMILES CCCCCCCCCCCCCCCCCCCCCCCCCCCC(=O)[O-]
REMARK SMILES IDX 15 1 16 2 17 3 18 4 19 5 20 6 21 7 22 8 23 9 24 10 25 11
REMARK SMILES IDX 26 12 27 13 28 14 29 15 30 16 14 17 13 18 12 19 11 20 10 21
REMARK SMILES IDX 9 22 8 23 7 24 6 25 5 26 4 27 3 28 2 29 1 30
REMARK H PARENT
REMARK Flexibility Score: inf
ROOT
ATOM      1  C   UNL     1      19.526  -8.912   4.453  1.00  0.00     0.000 C 
ENDROOT
BRANCH   1   2
ATOM      2  C   UNL     1      20.854  -8.529   5.124  1.00  0.00     0.000 C 
BRANCH   2   3
ATOM      3  C   UNL     1      21.484  -7.266   4.512  1.00  0.00     0.000 C 
BRANCH   3   4
ATOM      4  C   UNL     1      20.458  -6.144   4.260  1.00  0.00     0.000 C 
BRANCH   4   5
ATOM      5  C   UNL     1      21.042  -4.718   4.234  1.00  0.00     0.000 C 
BRANCH   5   6
ATOM      6  C   UNL     1      20.973  -4.015   5.601  1.00  0.00     0.000 C 
BRANCH   6   7
ATOM      7  C   UNL     1      21.145  -4.985   6.780  1.00  0.00     0.000 C 
BRANCH   7   8
ATOM      8  C   UNL     1      20.388  -4.521   8.036  1.00  0.00     0.000 C 
BRANCH   8   9
ATOM      9  C   UNL     1      19.750  -5.688   8.807  1.00  0.00     0.000 C 
BRANCH   9  10
ATOM     10  C   UNL     1      19.667  -6.975   7.971  1.00  0.00     0.000 C 
BRANCH  10  11
ATOM     11  C   UNL     1      18.208  -7.381   7.728  1.00  0.00     0.000 C 
BRANCH  11  12
ATOM     12  C   UNL     1      17.714  -6.870   6.367  1.00  0.00     0.006 C 
BRANCH  12  13
ATOM     13  C   UNL     1      16.197  -7.026   6.203  1.00  0.00     0.053 C 
BRANCH  13  14
ATOM     14  C   UNL     1      15.571  -7.659   7.408  1.00  0.00     0.041 C 
ATOM     15  O   UNL     1      15.460  -7.010   8.480  1.00  0.00    -0.550 OA
ATOM     16  O   UNL     1      15.085  -8.959   7.337  1.00  0.00    -0.550 OA
ENDBRANCH  13  14
ENDBRANCH  12  13
ENDBRANCH  11  12
ENDBRANCH  10  11
ENDBRANCH   9  10
ENDBRANCH   8   9
ENDBRANCH   7   8
ENDBRANCH   6   7
ENDBRANCH   5   6
ENDBRANCH   4   5
ENDBRANCH   3   4
ENDBRANCH   2   3
ENDBRANCH   1   2
BRANCH   1  17
ATOM     17  C   UNL     1      18.836 -10.112   5.118  1.00  0.00     0.000 C 
BRANCH  17  18
ATOM     18  C   UNL     1      17.335 -10.125   4.790  1.00  0.00     0.000 C 
BRANCH  18  19
ATOM     19  C   UNL     1      16.895  -8.905   3.966  1.00  0.00     0.000 C 
BRANCH  19  20
ATOM     20  C   UNL     1      15.365  -8.768   3.879  1.00  0.00     0.000 C 
BRANCH  20  21
ATOM     21  C   UNL     1      14.640 -10.122   3.999  1.00  0.00     0.000 C 
BRANCH  21  22
ATOM     22  C   UNL     1      13.180 -10.035   4.481  1.00  0.00    -0.000 C 
BRANCH  22  23
ATOM     23  C   UNL     1      12.776  -8.613   4.911  1.00  0.00    -0.000 C 
BRANCH  23  24
ATOM     24  C   UNL     1      11.624  -8.045   4.058  1.00  0.00    -0.000 C 
BRANCH  24  25
ATOM     25  C   UNL     1      10.527  -7.333   4.876  1.00  0.00    -0.000 C 
BRANCH  25  26
ATOM     26  C   UNL     1       9.858  -8.192   5.963  1.00  0.00    -0.000 C 
BRANCH  26  27
ATOM     27  C   UNL     1       8.948  -9.290   5.384  1.00  0.00    -0.000 C 
BRANCH  27  28
ATOM     28  C   UNL     1       7.782  -8.724   4.554  1.00  0.00    -0.000 C 
BRANCH  28  29
ATOM     29  C   UNL     1       6.588  -8.250   5.410  1.00  0.00    -0.003 C 
ATOM     30  C   UNL     1       6.216  -6.795   5.130  1.00  0.00     0.004 C 
ENDBRANCH  28  29
ENDBRANCH  27  28
ENDBRANCH  26  27
ENDBRANCH  25  26
ENDBRANCH  24  25
ENDBRANCH  23  24
ENDBRANCH  22  23
ENDBRANCH  21  22
ENDBRANCH  20  21
ENDBRANCH  19  20
ENDBRANCH  18  19
ENDBRANCH  17  18
ENDBRANCH   1  17
TORSDOF 26
ENDMDL
MODEL 7
REMARK VINA RESULT:    -0.166      1.630      4.604
REMARK INTER + INTRA:          -2.082
REMARK INTER:                  -4.232
REMARK INTRA:                   2.151
REMARK UNBOUND:                -1.664
REMARK SMILES CCCCCCCCCCCCCCCCCCCCCCCCCCCC(=O)[O-]
REMARK SMILES IDX 15 1 16 2 17 3 18 4 19 5 20 6 21 7 22 8 23 9 24 10 25 11
REMARK SMILES IDX 26 12 27 13 28 14 29 15 30 16 14 17 13 18 12 19 11 20 10 21
REMARK SMILES IDX 9 22 8 23 7 24 6 25 5 26 4 27 3 28 2 29 1 30
REMARK H PARENT
REMARK Flexibility Score: inf
ROOT
ATOM      1  C   UNL     1      11.952  -7.381   5.912  1.00  0.00     0.000 C 
ENDROOT
BRANCH   1   2
ATOM      2  C   UNL     1      11.737  -6.819   4.498  1.00  0.00     0.000 C 
BRANCH   2   3
ATOM      3  C   UNL     1      10.249  -6.634   4.155  1.00  0.00     0.000 C 
BRANCH   3   4
ATOM      4  C   UNL     1       9.398  -7.875   4.484  1.00  0.00     0.000 C 
BRANCH   4   5
ATOM      5  C   UNL     1       9.708  -8.539   5.840  1.00  0.00     0.000 C 
BRANCH   5   6
ATOM      6  C   UNL     1       8.508  -9.311   6.419  1.00  0.00     0.000 C 
BRANCH   6   7
ATOM      7  C   UNL     1       7.729 -10.091   5.348  1.00  0.00     0.000 C 
BRANCH   7   8
ATOM      8  C   UNL     1       6.460  -9.351   4.893  1.00  0.00     0.000 C 
BRANCH   8   9
ATOM      9  C   UNL     1       5.173 -10.123   5.229  1.00  0.00     0.000 C 
BRANCH   9  10
ATOM     10  C   UNL     1       4.146 -10.086   4.086  1.00  0.00     0.000 C 
BRANCH  10  11
ATOM     11  C   UNL     1       2.885  -9.317   4.504  1.00  0.00     0.000 C 
BRANCH  11  12
ATOM     12  C   UNL     1       2.897  -7.891   3.934  1.00  0.00     0.006 C 
BRANCH  12  13
ATOM     13  C   UNL     1       4.252  -7.199   4.127  1.00  0.00     0.053 C 
BRANCH  13  14
ATOM     14  C   UNL     1       4.117  -5.707   4.133  1.00  0.00     0.041 C 
ATOM     15  O   UNL     1       5.117  -4.978   3.902  1.00  0.00    -0.550 OA
ATOM     16  O   UNL     1       2.878  -5.122   4.366  1.00  0.00    -0.550 OA
ENDBRANCH  13  14
ENDBRANCH  12  13
ENDBRANCH  11  12
ENDBRANCH  10  11
ENDBRANCH   9  10
ENDBRANCH   8   9
ENDBRANCH   7   8
ENDBRANCH   6   7
ENDBRANCH   5   6
ENDBRANCH   4   5
ENDBRANCH   3   4
ENDBRANCH   2   3
ENDBRANCH   1   2
BRANCH   1  17
ATOM     17  C   UNL     1      12.548  -8.797   5.915  1.00  0.00     0.000 C 
BRANCH  17  18
ATOM     18  C   UNL     1      14.057  -8.748   6.200  1.00  0.00     0.000 C 
BRANCH  18  19
ATOM     19  C   UNL     1      14.891  -9.443   5.114  1.00  0.00     0.000 C 
BRANCH  19  20
ATOM     20  C   UNL     1      15.521  -8.449   4.122  1.00  0.00     0.000 C 
BRANCH  20  21
ATOM     21  C   UNL     1      16.793  -7.781   4.677  1.00  0.00     0.000 C 
BRANCH  21  22
ATOM     22  C   UNL     1      18.077  -8.067   3.877  1.00  0.00    -0.000 C 
BRANCH  22  23
ATOM     23  C   UNL     1      19.034  -9.028   4.605  1.00  0.00    -0.000 C 
BRANCH  23  24
ATOM     24  C   UNL     1      20.510  -8.785   4.232  1.00  0.00    -0.000 C 
BRANCH  24  25
ATOM     25  C   UNL     1      21.105  -7.493   4.828  1.00  0.00    -0.000 C 
BRANCH  25  26
ATOM     26  C   UNL     1      20.129  -6.643   5.658  1.00  0.00    -0.000 C 
BRANCH  26  27
ATOM     27  C   UNL     1      20.402  -6.723   7.172  1.00  0.00    -0.000 C 
BRANCH  27  28
ATOM     28  C   UNL     1      19.174  -7.182   7.976  1.00  0.00    -0.000 C 
BRANCH  28  29
ATOM     29  C   UNL     1      17.895  -7.328   7.123  1.00  0.00    -0.003 C 
ATOM     30  C   UNL     1      16.653  -6.813   7.848  1.00  0.00     0.004 C 
ENDBRANCH  28  29
ENDBRANCH  27  28
ENDBRANCH  26  27
ENDBRANCH  25  26
ENDBRANCH  24  25
ENDBRANCH  23  24
ENDBRANCH  22  23
ENDBRANCH  21  22
ENDBRANCH  20  21
ENDBRANCH  19  20
ENDBRANCH  18  19
ENDBRANCH  17  18
ENDBRANCH   1  17
TORSDOF 26
ENDMDL
