MODEL 1
REMARK VINA RESULT:    -4.113      0.000      0.000
REMARK INTER + INTRA:          -4.769
REMARK INTER:                  -4.715
REMARK INTRA:                  -0.054
REMARK UNBOUND:                -0.054
REMARK SMILES COc1cc(C=O)ccc1O
REMARK SMILES IDX 3 1 10 2 9 3 8 4 5 5 4 6 2 7 1 8 11 9 6 11 7 12
REMARK H PARENT 11 10
REMARK Flexibility Score: inf
ROOT
ATOM      1  C   UNL     1      -7.093   9.813  19.562  1.00  0.00     0.161 A 
ATOM      2  C   UNL     1      -7.555  10.099  20.854  1.00  0.00     0.157 A 
ATOM      3  C   UNL     1      -8.880   9.810  21.208  1.00  0.00     0.051 A 
ATOM      4  C   UNL     1      -9.748   9.235  20.278  1.00  0.00     0.015 A 
ATOM      5  C   UNL     1      -9.301   8.941  18.980  1.00  0.00     0.018 A 
ATOM      6  C   UNL     1      -7.974   9.232  18.627  1.00  0.00     0.062 A 
ENDROOT
BRANCH   1   7
ATOM      7  O   UNL     1      -5.760  10.118  19.246  1.00  0.00    -0.493 OA
ATOM      8  C   UNL     1      -5.283  10.385  17.931  1.00  0.00     0.278 C 
ENDBRANCH   1   7
BRANCH   2   9
ATOM      9  O   UNL     1      -6.690  10.674  21.785  1.00  0.00    -0.504 OA
ATOM     10  H   UNL     1      -6.191  11.533  21.586  1.00  0.00     0.293 HD
ENDBRANCH   2   9
BRANCH   5  11
ATOM     11  C   UNL     1     -10.203   8.334  17.983  1.00  0.00     0.260 C 
ATOM     12  O   UNL     1      -9.924   7.234  17.438  1.00  0.00    -0.298 OA
ENDBRANCH   5  11
TORSDOF 3
ENDMDL
MODEL 2
REMARK VINA RESULT:    -4.097      1.201      2.934
REMARK INTER + INTRA:          -4.750
REMARK INTER:                  -4.680
REMARK INTRA:                  -0.071
REMARK UNBOUND:                -0.054
REMARK SMILES COc1cc(C=O)ccc1O
REMARK SMILES IDX 3 1 10 2 9 3 8 4 5 5 4 6 2 7 1 8 11 9 6 11 7 12
REMARK H PARENT 11 10
REMARK Flexibility Score: inf
ROOT
ATOM      1  C   UNL     1      -8.897   9.778  20.889  1.00  0.00     0.161 A 
ATOM      2  C   UNL     1      -7.546  10.129  20.754  1.00  0.00     0.157 A 
ATOM      3  C   UNL     1      -6.862   9.847  19.564  1.00  0.00     0.051 A 
ATOM      4  C   UNL     1      -7.520   9.216  18.506  1.00  0.00     0.015 A 
ATOM      5  C   UNL     1      -8.871   8.858  18.625  1.00  0.00     0.018 A 
ATOM      6  C   UNL     1      -9.556   9.141  19.818  1.00  0.00     0.062 A 
ENDROOT
BRANCH   1   7
ATOM      7  O   UNL     1      -9.547  10.077  22.097  1.00  0.00    -0.493 OA
ATOM      8  C   UNL     1     -10.609  11.016  22.230  1.00  0.00     0.278 C 
ENDBRANCH   1   7
BRANCH   2   9
ATOM      9  O   UNL     1      -6.888  10.759  21.809  1.00  0.00    -0.504 OA
ATOM     10  H   UNL     1      -6.735  11.761  21.817  1.00  0.00     0.293 HD
ENDBRANCH   2   9
BRANCH   5  11
ATOM     11  C   UNL     1      -9.582   8.190  17.518  1.00  0.00     0.260 C 
ATOM     12  O   UNL     1      -9.724   6.939  17.498  1.00  0.00    -0.298 OA
ENDBRANCH   5  11
TORSDOF 3
ENDMDL
MODEL 3
REMARK VINA RESULT:    -3.932      5.509      7.724
REMARK INTER + INTRA:          -4.562
REMARK INTER:                  -4.490
REMARK INTRA:                  -0.071
REMARK UNBOUND:                -0.054
REMARK SMILES COc1cc(C=O)ccc1O
REMARK SMILES IDX 3 1 10 2 9 3 8 4 5 5 4 6 2 7 1 8 11 9 6 11 7 12
REMARK H PARENT 11 10
REMARK Flexibility Score: inf
ROOT
ATOM      1  C   UNL     1     -10.109   6.174  14.303  1.00  0.00     0.161 A 
ATOM      2  C   UNL     1      -8.770   5.767  14.394  1.00  0.00     0.157 A 
ATOM      3  C   UNL     1      -7.952   5.779  13.256  1.00  0.00     0.051 A 
ATOM      4  C   UNL     1      -8.464   6.196  12.025  1.00  0.00     0.015 A 
ATOM      5  C   UNL     1      -9.801   6.607  11.917  1.00  0.00     0.018 A 
ATOM      6  C   UNL     1     -10.620   6.594  13.058  1.00  0.00     0.062 A 
ENDROOT
BRANCH   1   7
ATOM      7  O   UNL     1     -10.895   6.147  15.465  1.00  0.00    -0.493 OA
ATOM      8  C   UNL     1     -11.161   7.281  16.285  1.00  0.00     0.278 C 
ENDBRANCH   1   7
BRANCH   2   9
ATOM      9  O   UNL     1      -8.257   5.350  15.622  1.00  0.00    -0.504 OA
ATOM     10  H   UNL     1      -8.361   5.912  16.459  1.00  0.00     0.293 HD
ENDBRANCH   2   9
BRANCH   5  11
ATOM     11  C   UNL     1     -10.360   7.050  10.625  1.00  0.00     0.260 C 
ATOM     12  O   UNL     1     -11.337   6.454  10.101  1.00  0.00    -0.298 OA
ENDBRANCH   5  11
TORSDOF 3
ENDMDL
MODEL 4
REMARK VINA RESULT:    -3.915      1.858      3.512
REMARK INTER + INTRA:          -4.541
REMARK INTER:                  -4.487
REMARK INTRA:                  -0.054
REMARK UNBOUND:                -0.054
REMARK SMILES COc1cc(C=O)ccc1O
REMARK SMILES IDX 3 1 10 2 9 3 8 4 5 5 4 6 2 7 1 8 11 9 6 11 7 12
REMARK H PARENT 11 10
REMARK Flexibility Score: inf
ROOT
ATOM      1  C   UNL     1      -6.043  10.024  18.876  1.00  0.00     0.161 A 
ATOM      2  C   UNL     1      -4.953  10.396  18.076  1.00  0.00     0.157 A 
ATOM      3  C   UNL     1      -5.093  10.466  16.684  1.00  0.00     0.051 A 
ATOM      4  C   UNL     1      -6.317  10.166  16.083  1.00  0.00     0.015 A 
ATOM      5  C   UNL     1      -7.418   9.793  16.869  1.00  0.00     0.018 A 
ATOM      6  C   UNL     1      -7.277   9.723  18.264  1.00  0.00     0.062 A 
ENDROOT
BRANCH   1   7
ATOM      7  O   UNL     1      -5.863   9.965  20.267  1.00  0.00    -0.493 OA
ATOM      8  C   UNL     1      -6.909  10.110  21.222  1.00  0.00     0.278 C 
ENDBRANCH   1   7
BRANCH   2   9
ATOM      9  O   UNL     1      -3.729  10.695  18.675  1.00  0.00    -0.504 OA
ATOM     10  H   UNL     1      -3.169   9.980  19.123  1.00  0.00     0.293 HD
ENDBRANCH   2   9
BRANCH   5  11
ATOM     11  C   UNL     1      -8.720   9.473  16.252  1.00  0.00     0.260 C 
ATOM     12  O   UNL     1      -8.957   8.324  15.793  1.00  0.00    -0.298 OA
ENDBRANCH   5  11
TORSDOF 3
ENDMDL
MODEL 5
REMARK VINA RESULT:    -3.907      6.163      6.909
REMARK INTER + INTRA:          -4.532
REMARK INTER:                  -4.475
REMARK INTRA:                  -0.057
REMARK UNBOUND:                -0.054
REMARK SMILES COc1cc(C=O)ccc1O
REMARK SMILES IDX 3 1 10 2 9 3 8 4 5 5 4 6 2 7 1 8 11 9 6 11 7 12
REMARK H PARENT 11 10
REMARK Flexibility Score: inf
ROOT
ATOM      1  C   UNL     1      -8.667   6.225  13.410  1.00  0.00     0.161 A 
ATOM      2  C   UNL     1      -8.411   5.569  14.623  1.00  0.00     0.157 A 
ATOM      3  C   UNL     1      -9.344   5.629  15.666  1.00  0.00     0.051 A 
ATOM      4  C   UNL     1     -10.535   6.342  15.506  1.00  0.00     0.015 A 
ATOM      5  C   UNL     1     -10.807   7.003  14.298  1.00  0.00     0.018 A 
ATOM      6  C   UNL     1      -9.871   6.942  13.254  1.00  0.00     0.062 A 
ENDROOT
BRANCH   1   7
ATOM      7  O   UNL     1      -7.707   6.140  12.390  1.00  0.00    -0.493 OA
ATOM      8  C   UNL     1      -8.006   6.172  10.998  1.00  0.00     0.278 C 
ENDBRANCH   1   7
BRANCH   2   9
ATOM      9  O   UNL     1      -7.223   4.857  14.785  1.00  0.00    -0.504 OA
ATOM     10  H   UNL     1      -6.391   5.084  14.252  1.00  0.00     0.293 HD
ENDBRANCH   2   9
BRANCH   5  11
ATOM     11  C   UNL     1     -12.059   7.761  14.111  1.00  0.00     0.260 C 
ATOM     12  O   UNL     1     -12.125   8.714  13.291  1.00  0.00    -0.298 OA
ENDBRANCH   5  11
TORSDOF 3
ENDMDL
MODEL 6
REMARK VINA RESULT:    -3.867      1.464      3.884
REMARK INTER + INTRA:          -4.487
REMARK INTER:                  -4.426
REMARK INTRA:                  -0.060
REMARK UNBOUND:                -0.054
REMARK SMILES COc1cc(C=O)ccc1O
REMARK SMILES IDX 3 1 10 2 9 3 8 4 5 5 4 6 2 7 1 8 11 9 6 11 7 12
REMARK H PARENT 11 10
REMARK Flexibility Score: inf
ROOT
ATOM      1  C   UNL     1      -9.044   8.828  18.686  1.00  0.00     0.161 A 
ATOM      2  C   UNL     1      -9.230   9.253  20.009  1.00  0.00     0.157 A 
ATOM      3  C   UNL     1      -8.246  10.018  20.648  1.00  0.00     0.051 A 
ATOM      4  C   UNL     1      -7.074  10.363  19.972  1.00  0.00     0.015 A 
ATOM      5  C   UNL     1      -6.872   9.947  18.647  1.00  0.00     0.018 A 
ATOM      6  C   UNL     1      -7.859   9.180  18.009  1.00  0.00     0.062 A 
ENDROOT
BRANCH   1   7
ATOM      7  O   UNL     1     -10.054   8.063  18.082  1.00  0.00    -0.493 OA
ATOM      8  C   UNL     1      -9.820   7.016  17.145  1.00  0.00     0.278 C 
ENDBRANCH   1   7
BRANCH   2   9
ATOM      9  O   UNL     1     -10.400   8.909  20.686  1.00  0.00    -0.504 OA
ATOM     10  H   UNL     1     -11.027   8.195  20.334  1.00  0.00     0.293 HD
ENDBRANCH   2   9
BRANCH   5  11
ATOM     11  C   UNL     1      -5.639  10.301  17.917  1.00  0.00     0.260 C 
ATOM     12  O   UNL     1      -4.531  10.380  18.511  1.00  0.00    -0.298 OA
ENDBRANCH   5  11
TORSDOF 3
ENDMDL
MODEL 7
REMARK VINA RESULT:    -3.844      5.645      8.120
REMARK INTER + INTRA:          -4.461
REMARK INTER:                  -4.383
REMARK INTRA:                  -0.077
REMARK UNBOUND:                -0.054
REMARK SMILES COc1cc(C=O)ccc1O
REMARK SMILES IDX 3 1 10 2 9 3 8 4 5 5 4 6 2 7 1 8 11 9 6 11 7 12
REMARK H PARENT 11 10
REMARK Flexibility Score: inf
ROOT
ATOM      1  C   UNL     1      -9.557   6.498  12.154  1.00  0.00     0.161 A 
ATOM      2  C   UNL     1      -8.250   5.991  12.113  1.00  0.00     0.157 A 
ATOM      3  C   UNL     1      -7.631   5.549  13.290  1.00  0.00     0.051 A 
ATOM      4  C   UNL     1      -8.310   5.609  14.508  1.00  0.00     0.015 A 
ATOM      5  C   UNL     1      -9.618   6.112  14.566  1.00  0.00     0.018 A 
ATOM      6  C   UNL     1     -10.238   6.556  13.387  1.00  0.00     0.062 A 
ENDROOT
BRANCH   1   7
ATOM      7  O   UNL     1     -10.143   6.931  10.954  1.00  0.00    -0.493 OA
ATOM      8  C   UNL     1     -11.115   6.194  10.219  1.00  0.00     0.278 C 
ENDBRANCH   1   7
BRANCH   2   9
ATOM      9  O   UNL     1      -7.571   5.931  10.897  1.00  0.00    -0.504 OA
ATOM     10  H   UNL     1      -6.650   6.339  10.783  1.00  0.00     0.293 HD
ENDBRANCH   2   9
BRANCH   5  11
ATOM     11  C   UNL     1     -10.351   6.183  15.845  1.00  0.00     0.260 C 
ATOM     12  O   UNL     1      -9.741   6.328  16.937  1.00  0.00    -0.298 OA
ENDBRANCH   5  11
TORSDOF 3
ENDMDL
MODEL 8
REMARK VINA RESULT:    -3.689      2.313      3.191
REMARK INTER + INTRA:          -4.282
REMARK INTER:                  -4.212
REMARK INTRA:                  -0.070
REMARK UNBOUND:                -0.054
REMARK SMILES COc1cc(C=O)ccc1O
REMARK SMILES IDX 3 1 10 2 9 3 8 4 5 5 4 6 2 7 1 8 11 9 6 11 7 12
REMARK H PARENT 11 10
REMARK Flexibility Score: inf
ROOT
ATOM      1  C   UNL     1      -5.228  10.336  16.852  1.00  0.00     0.161 A 
ATOM      2  C   UNL     1      -4.843  10.382  18.199  1.00  0.00     0.157 A 
ATOM      3  C   UNL     1      -5.762  10.056  19.205  1.00  0.00     0.051 A 
ATOM      4  C   UNL     1      -7.066   9.683  18.873  1.00  0.00     0.015 A 
ATOM      5  C   UNL     1      -7.467   9.632  17.529  1.00  0.00     0.018 A 
ATOM      6  C   UNL     1      -6.545   9.959  16.522  1.00  0.00     0.062 A 
ENDROOT
BRANCH   1   7
ATOM      7  O   UNL     1      -4.277  10.670  15.874  1.00  0.00    -0.493 OA
ATOM      8  C   UNL     1      -3.497   9.723  15.151  1.00  0.00     0.278 C 
ENDBRANCH   1   7
BRANCH   2   9
ATOM      9  O   UNL     1      -3.541  10.755  18.533  1.00  0.00    -0.504 OA
ATOM     10  H   UNL     1      -2.833  10.066  18.758  1.00  0.00     0.293 HD
ENDBRANCH   2   9
BRANCH   5  11
ATOM     11  C   UNL     1      -8.841   9.240  17.159  1.00  0.00     0.260 C 
ATOM     12  O   UNL     1      -9.207   8.036  17.199  1.00  0.00    -0.298 OA
ENDBRANCH   5  11
TORSDOF 3
ENDMDL
MODEL 9
REMARK VINA RESULT:    -3.685      2.048      3.193
REMARK INTER + INTRA:          -4.278
REMARK INTER:                  -4.204
REMARK INTRA:                  -0.074
REMARK UNBOUND:                -0.054
REMARK SMILES COc1cc(C=O)ccc1O
REMARK SMILES IDX 3 1 10 2 9 3 8 4 5 5 4 6 2 7 1 8 11 9 6 11 7 12
REMARK H PARENT 11 10
REMARK Flexibility Score: inf
ROOT
ATOM      1  C   UNL     1      -8.221   9.658  19.363  1.00  0.00     0.161 A 
ATOM      2  C   UNL     1      -9.270   8.730  19.430  1.00  0.00     0.157 A 
ATOM      3  C   UNL     1      -9.742   8.117  18.261  1.00  0.00     0.051 A 
ATOM      4  C   UNL     1      -9.171   8.426  17.025  1.00  0.00     0.015 A 
ATOM      5  C   UNL     1      -8.120   9.352  16.941  1.00  0.00     0.018 A 
ATOM      6  C   UNL     1      -7.649   9.965  18.113  1.00  0.00     0.062 A 
ENDROOT
BRANCH   1   7
ATOM      7  O   UNL     1      -7.777  10.250  20.556  1.00  0.00    -0.493 OA
ATOM      8  C   UNL     1      -6.512   9.995  21.160  1.00  0.00     0.278 C 
ENDBRANCH   1   7
BRANCH   2   9
ATOM      9  O   UNL     1      -9.841   8.421  20.664  1.00  0.00    -0.504 OA
ATOM     10  H   UNL     1      -9.676   7.530  21.117  1.00  0.00     0.293 HD
ENDBRANCH   2   9
BRANCH   5  11
ATOM     11  C   UNL     1      -7.506   9.691  15.643  1.00  0.00     0.260 C 
ATOM     12  O   UNL     1      -6.318  10.105  15.575  1.00  0.00    -0.298 OA
ENDBRANCH   5  11
TORSDOF 3
ENDMDL
