MODEL 1
REMARK VINA RESULT:    -7.746      0.000      0.000
REMARK INTER + INTRA:         -10.601
REMARK INTER:                 -10.236
REMARK INTRA:                  -0.365
REMARK UNBOUND:                -0.365
REMARK SMILES CC[C@H](C=C[C@@H](C)[C@@H]1CC[C@H]2[C@H]3CC=C4C[C@@H](O)CC[C@]4(C)[C@@H]3CC[C@]21C)C(C)C
REMARK SMILES IDX 6 1 7 2 5 3 4 4 3 5 2 6 1 7 28 8 29 9 30 10 8 11 9 12 26 13
REMARK SMILES IDX 10 14 11 15 25 16 27 17 12 18 24 19 23 20 13 21 21 22 14 23
REMARK SMILES IDX 15 24 20 25 22 26 16 27 19 28 17 29 18 30
REMARK H PARENT 18 31
REMARK Flexibility Score: inf
ROOT
ATOM      1  C   UNL     1       1.962  27.051  43.452  1.00  0.00     0.012 C 
ATOM      2  C   UNL     1       0.644  26.242  43.611  1.00  0.00     0.012 C 
ENDROOT
BRANCH   1   3
ATOM      3  C   UNL     1       1.629  28.335  42.683  1.00  0.00    -0.028 C 
ATOM      4  C   UNL     1       0.406  28.838  42.440  1.00  0.00    -0.027 C 
BRANCH   4   5
ATOM      5  C   UNL     1       0.124  30.291  42.074  1.00  0.00     0.014 C 
BRANCH   5   6
ATOM      6  C   UNL     1      -0.250  30.469  40.569  1.00  0.00     0.004 C 
ATOM      7  C   UNL     1      -0.647  29.177  39.850  1.00  0.00     0.004 C 
ENDBRANCH   5   6
BRANCH   5   8
ATOM      8  C   UNL     1      -0.832  30.941  43.129  1.00  0.00    -0.011 C 
ATOM      9  C   UNL     1      -0.779  30.272  44.514  1.00  0.00     0.008 C 
ATOM     10  C   UNL     1      -2.279  31.060  42.621  1.00  0.00     0.008 C 
ENDBRANCH   5   8
ENDBRANCH   4   5
ENDBRANCH   1   3
BRANCH   1  11
ATOM     11  C   UNL     1       3.162  26.217  42.878  1.00  0.00     0.002 C 
ATOM     12  C   UNL     1       2.963  25.750  41.428  1.00  0.00     0.005 C 
ATOM     13  C   UNL     1       3.680  24.961  43.688  1.00  0.00    -0.026 C 
ATOM     14  C   UNL     1       3.932  24.604  41.241  1.00  0.00     0.005 C 
ATOM     15  C   UNL     1       3.960  23.876  42.591  1.00  0.00    -0.001 C 
ATOM     16  C   UNL     1       4.979  25.311  44.497  1.00  0.00     0.007 C 
ATOM     17  C   UNL     1       2.671  24.388  44.714  1.00  0.00     0.012 C 
ATOM     18  C   UNL     1       5.249  23.059  42.842  1.00  0.00     0.000 C 
ATOM     19  C   UNL     1       6.253  25.310  43.642  1.00  0.00     0.005 C 
ATOM     20  C   UNL     1       6.518  23.950  42.915  1.00  0.00     0.003 C 
ATOM     21  C   UNL     1       5.479  21.960  41.798  1.00  0.00     0.031 C 
ATOM     22  C   UNL     1       7.765  23.121  43.416  1.00  0.00    -0.008 C 
ATOM     23  C   UNL     1       6.727  21.179  42.123  1.00  0.00    -0.027 C 
ATOM     24  C   UNL     1       7.781  21.704  42.804  1.00  0.00    -0.065 C 
ATOM     25  C   UNL     1       7.766  22.946  44.971  1.00  0.00     0.014 C 
ATOM     26  C   UNL     1       9.051  23.875  42.975  1.00  0.00     0.016 C 
ATOM     27  C   UNL     1       8.886  20.775  43.253  1.00  0.00     0.063 C 
ATOM     28  C   UNL     1       8.839  21.965  45.488  1.00  0.00     0.033 C 
ATOM     29  C   UNL     1       8.783  20.599  44.777  1.00  0.00     0.118 C 
BRANCH  29  30
ATOM     30  O   UNL     1       9.835  19.794  45.248  1.00  0.00    -0.393 OA
ATOM     31  H   UNL     1      10.490  19.719  44.510  1.00  0.00     0.210 HD
ENDBRANCH  29  30
ENDBRANCH   1  11
TORSDOF 6
ENDMDL
MODEL 2
REMARK VINA RESULT:    -7.739      1.657      3.298
REMARK INTER + INTRA:         -10.592
REMARK INTER:                 -10.290
REMARK INTRA:                  -0.302
REMARK UNBOUND:                -0.365
REMARK SMILES CC[C@H](C=C[C@@H](C)[C@@H]1CC[C@H]2[C@H]3CC=C4C[C@@H](O)CC[C@]4(C)[C@@H]3CC[C@]21C)C(C)C
REMARK SMILES IDX 6 1 7 2 5 3 4 4 3 5 2 6 1 7 28 8 29 9 30 10 8 11 9 12 26 13
REMARK SMILES IDX 10 14 11 15 25 16 27 17 12 18 24 19 23 20 13 21 21 22 14 23
REMARK SMILES IDX 15 24 20 25 22 26 16 27 19 28 17 29 18 30
REMARK H PARENT 18 31
REMARK Flexibility Score: inf
ROOT
ATOM      1  C   UNL     1       1.708  26.770  43.057  1.00  0.00     0.012 C 
ATOM      2  C   UNL     1       2.499  28.097  42.879  1.00  0.00     0.012 C 
ENDROOT
BRANCH   1   3
ATOM      3  C   UNL     1       0.275  27.134  43.464  1.00  0.00    -0.028 C 
ATOM      4  C   UNL     1      -0.312  28.339  43.365  1.00  0.00    -0.027 C 
BRANCH   4   5
ATOM      5  C   UNL     1      -1.819  28.572  43.358  1.00  0.00     0.014 C 
BRANCH   5   6
ATOM      6  C   UNL     1      -2.343  29.152  44.710  1.00  0.00     0.004 C 
ATOM      7  C   UNL     1      -1.254  29.687  45.643  1.00  0.00     0.004 C 
ENDBRANCH   5   6
BRANCH   5   8
ATOM      8  C   UNL     1      -2.248  29.313  42.048  1.00  0.00    -0.011 C 
ATOM      9  C   UNL     1      -1.371  28.981  40.828  1.00  0.00     0.008 C 
ATOM     10  C   UNL     1      -2.380  30.833  42.246  1.00  0.00     0.008 C 
ENDBRANCH   5   8
ENDBRANCH   4   5
ENDBRANCH   1   3
BRANCH   1  11
ATOM     11  C   UNL     1       2.420  25.717  43.978  1.00  0.00     0.002 C 
ATOM     12  C   UNL     1       2.491  26.126  45.458  1.00  0.00     0.005 C 
ATOM     13  C   UNL     1       3.863  25.205  43.584  1.00  0.00    -0.026 C 
ATOM     14  C   UNL     1       3.592  25.279  46.055  1.00  0.00     0.005 C 
ATOM     15  C   UNL     1       4.642  25.145  44.944  1.00  0.00    -0.001 C 
ATOM     16  C   UNL     1       3.792  23.793  42.900  1.00  0.00     0.007 C 
ATOM     17  C   UNL     1       4.635  26.123  42.604  1.00  0.00     0.012 C 
ATOM     18  C   UNL     1       5.554  23.903  45.083  1.00  0.00     0.000 C 
ATOM     19  C   UNL     1       3.631  22.636  43.894  1.00  0.00     0.005 C 
ATOM     20  C   UNL     1       4.769  22.568  44.966  1.00  0.00     0.003 C 
ATOM     21  C   UNL     1       6.357  23.888  46.389  1.00  0.00     0.031 C 
ATOM     22  C   UNL     1       5.754  21.339  44.862  1.00  0.00    -0.008 C 
ATOM     23  C   UNL     1       7.251  22.674  46.441  1.00  0.00    -0.027 C 
ATOM     24  C   UNL     1       6.966  21.508  45.803  1.00  0.00    -0.065 C 
ATOM     25  C   UNL     1       6.322  21.163  43.414  1.00  0.00     0.014 C 
ATOM     26  C   UNL     1       4.971  20.060  45.274  1.00  0.00     0.016 C 
ATOM     27  C   UNL     1       8.027  20.433  45.754  1.00  0.00     0.063 C 
ATOM     28  C   UNL     1       7.450  20.116  43.308  1.00  0.00     0.033 C 
ATOM     29  C   UNL     1       8.584  20.364  44.322  1.00  0.00     0.118 C 
BRANCH  29  30
ATOM     30  O   UNL     1       9.529  19.329  44.214  1.00  0.00    -0.393 OA
ATOM     31  H   UNL     1       9.681  18.984  45.129  1.00  0.00     0.210 HD
ENDBRANCH  29  30
ENDBRANCH   1  11
TORSDOF 6
ENDMDL
MODEL 3
REMARK VINA RESULT:    -7.494      3.891     11.497
REMARK INTER + INTRA:         -10.268
REMARK INTER:                 -10.241
REMARK INTRA:                  -0.027
REMARK UNBOUND:                -0.365
REMARK SMILES CC[C@H](C=C[C@@H](C)[C@@H]1CC[C@H]2[C@H]3CC=C4C[C@@H](O)CC[C@]4(C)[C@@H]3CC[C@]21C)C(C)C
REMARK SMILES IDX 6 1 7 2 5 3 4 4 3 5 2 6 1 7 28 8 29 9 30 10 8 11 9 12 26 13
REMARK SMILES IDX 10 14 11 15 25 16 27 17 12 18 24 19 23 20 13 21 21 22 14 23
REMARK SMILES IDX 15 24 20 25 22 26 16 27 19 28 17 29 18 30
REMARK H PARENT 18 31
REMARK Flexibility Score: inf
ROOT
ATOM      1  C   UNL     1       9.336  18.535  45.193  1.00  0.00     0.012 C 
ATOM      2  C   UNL     1       9.754  18.860  46.655  1.00  0.00     0.012 C 
ENDROOT
BRANCH   1   3
ATOM      3  C   UNL     1      10.494  17.772  44.538  1.00  0.00    -0.028 C 
ATOM      4  C   UNL     1      11.649  17.401  45.118  1.00  0.00    -0.027 C 
BRANCH   4   5
ATOM      5  C   UNL     1      12.564  16.298  44.600  1.00  0.00     0.014 C 
BRANCH   5   6
ATOM      6  C   UNL     1      12.998  16.524  43.118  1.00  0.00     0.004 C 
ATOM      7  C   UNL     1      13.860  15.407  42.524  1.00  0.00     0.004 C 
ENDBRANCH   5   6
BRANCH   5   8
ATOM      8  C   UNL     1      13.697  15.998  45.638  1.00  0.00    -0.011 C 
ATOM      9  C   UNL     1      13.711  14.545  46.143  1.00  0.00     0.008 C 
ATOM     10  C   UNL     1      13.705  16.997  46.807  1.00  0.00     0.008 C 
ENDBRANCH   5   8
ENDBRANCH   4   5
ENDBRANCH   1   3
BRANCH   1  11
ATOM     11  C   UNL     1       8.806  19.773  44.386  1.00  0.00     0.002 C 
ATOM     12  C   UNL     1       9.915  20.693  43.852  1.00  0.00     0.005 C 
ATOM     13  C   UNL     1       7.722  20.713  45.049  1.00  0.00    -0.026 C 
ATOM     14  C   UNL     1       9.235  22.013  43.565  1.00  0.00     0.005 C 
ATOM     15  C   UNL     1       8.173  22.164  44.661  1.00  0.00    -0.001 C 
ATOM     16  C   UNL     1       6.286  20.390  44.500  1.00  0.00     0.007 C 
ATOM     17  C   UNL     1       7.629  20.612  46.592  1.00  0.00     0.012 C 
ATOM     18  C   UNL     1       6.999  23.097  44.279  1.00  0.00     0.000 C 
ATOM     19  C   UNL     1       6.004  21.003  43.122  1.00  0.00     0.005 C 
ATOM     20  C   UNL     1       6.171  22.558  43.082  1.00  0.00     0.003 C 
ATOM     21  C   UNL     1       7.446  24.529  43.964  1.00  0.00     0.031 C 
ATOM     22  C   UNL     1       4.849  23.398  42.883  1.00  0.00    -0.008 C 
ATOM     23  C   UNL     1       6.252  25.392  43.639  1.00  0.00    -0.027 C 
ATOM     24  C   UNL     1       5.100  24.904  43.106  1.00  0.00    -0.065 C 
ATOM     25  C   UNL     1       3.726  22.970  43.887  1.00  0.00     0.014 C 
ATOM     26  C   UNL     1       4.356  23.179  41.425  1.00  0.00     0.016 C 
ATOM     27  C   UNL     1       3.901  25.820  43.015  1.00  0.00     0.063 C 
ATOM     28  C   UNL     1       2.495  23.900  43.880  1.00  0.00     0.033 C 
ATOM     29  C   UNL     1       2.873  25.381  44.071  1.00  0.00     0.118 C 
BRANCH  29  30
ATOM     30  O   UNL     1       1.710  26.166  43.977  1.00  0.00    -0.393 OA
ATOM     31  H   UNL     1       1.997  27.068  43.690  1.00  0.00     0.210 HD
ENDBRANCH  29  30
ENDBRANCH   1  11
TORSDOF 6
ENDMDL
MODEL 4
REMARK VINA RESULT:    -7.468      3.838     11.475
REMARK INTER + INTRA:         -10.234
REMARK INTER:                 -10.122
REMARK INTRA:                  -0.112
REMARK UNBOUND:                -0.365
REMARK SMILES CC[C@H](C=C[C@@H](C)[C@@H]1CC[C@H]2[C@H]3CC=C4C[C@@H](O)CC[C@]4(C)[C@@H]3CC[C@]21C)C(C)C
REMARK SMILES IDX 6 1 7 2 5 3 4 4 3 5 2 6 1 7 28 8 29 9 30 10 8 11 9 12 26 13
REMARK SMILES IDX 10 14 11 15 25 16 27 17 12 18 24 19 23 20 13 21 21 22 14 23
REMARK SMILES IDX 15 24 20 25 22 26 16 27 19 28 17 29 18 30
REMARK H PARENT 18 31
REMARK Flexibility Score: inf
ROOT
ATOM      1  C   UNL     1      10.418  19.872  44.522  1.00  0.00     0.012 C 
ATOM      2  C   UNL     1      10.364  19.013  43.227  1.00  0.00     0.012 C 
ENDROOT
BRANCH   1   3
ATOM      3  C   UNL     1      11.138  19.049  45.597  1.00  0.00    -0.028 C 
ATOM      4  C   UNL     1      11.603  17.794  45.477  1.00  0.00    -0.027 C 
BRANCH   4   5
ATOM      5  C   UNL     1      12.670  17.175  46.372  1.00  0.00     0.014 C 
BRANCH   5   6
ATOM      6  C   UNL     1      12.068  16.496  47.642  1.00  0.00     0.004 C 
ATOM      7  C   UNL     1      13.046  16.338  48.810  1.00  0.00     0.004 C 
ENDBRANCH   5   6
BRANCH   5   8
ATOM      8  C   UNL     1      13.674  16.331  45.519  1.00  0.00    -0.011 C 
ATOM      9  C   UNL     1      13.701  16.714  44.029  1.00  0.00     0.008 C 
ATOM     10  C   UNL     1      13.479  14.816  45.704  1.00  0.00     0.008 C 
ENDBRANCH   5   8
ENDBRANCH   4   5
ENDBRANCH   1   3
BRANCH   1  11
ATOM     11  C   UNL     1       9.031  20.471  44.952  1.00  0.00     0.002 C 
ATOM     12  C   UNL     1       8.052  19.435  45.524  1.00  0.00     0.005 C 
ATOM     13  C   UNL     1       8.214  21.336  43.912  1.00  0.00    -0.026 C 
ATOM     14  C   UNL     1       6.685  20.070  45.409  1.00  0.00     0.005 C 
ATOM     15  C   UNL     1       6.726  20.878  44.106  1.00  0.00    -0.001 C 
ATOM     16  C   UNL     1       8.385  22.871  44.199  1.00  0.00     0.007 C 
ATOM     17  C   UNL     1       8.615  21.124  42.431  1.00  0.00     0.012 C 
ATOM     18  C   UNL     1       5.707  22.041  44.051  1.00  0.00     0.000 C 
ATOM     19  C   UNL     1       7.506  23.383  45.346  1.00  0.00     0.005 C 
ATOM     20  C   UNL     1       5.978  23.126  45.128  1.00  0.00     0.003 C 
ATOM     21  C   UNL     1       4.252  21.573  44.178  1.00  0.00     0.031 C 
ATOM     22  C   UNL     1       5.082  24.403  44.883  1.00  0.00    -0.008 C 
ATOM     23  C   UNL     1       3.312  22.749  44.077  1.00  0.00    -0.027 C 
ATOM     24  C   UNL     1       3.657  24.014  44.439  1.00  0.00    -0.065 C 
ATOM     25  C   UNL     1       5.672  25.327  43.765  1.00  0.00     0.014 C 
ATOM     26  C   UNL     1       4.996  25.192  46.220  1.00  0.00     0.016 C 
ATOM     27  C   UNL     1       2.711  25.144  44.102  1.00  0.00     0.063 C 
ATOM     28  C   UNL     1       4.728  26.470  43.338  1.00  0.00     0.033 C 
ATOM     29  C   UNL     1       3.323  25.966  42.956  1.00  0.00     0.118 C 
BRANCH  29  30
ATOM     30  O   UNL     1       2.506  27.070  42.655  1.00  0.00    -0.393 OA
ATOM     31  H   UNL     1       2.915  27.523  41.876  1.00  0.00     0.210 HD
ENDBRANCH  29  30
ENDBRANCH   1  11
TORSDOF 6
ENDMDL
MODEL 5
REMARK VINA RESULT:    -7.406      4.791     12.732
REMARK INTER + INTRA:         -10.152
REMARK INTER:                  -9.783
REMARK INTRA:                  -0.369
REMARK UNBOUND:                -0.365
REMARK SMILES CC[C@H](C=C[C@@H](C)[C@@H]1CC[C@H]2[C@H]3CC=C4C[C@@H](O)CC[C@]4(C)[C@@H]3CC[C@]21C)C(C)C
REMARK SMILES IDX 6 1 7 2 5 3 4 4 3 5 2 6 1 7 28 8 29 9 30 10 8 11 9 12 26 13
REMARK SMILES IDX 10 14 11 15 25 16 27 17 12 18 24 19 23 20 13 21 21 22 14 23
REMARK SMILES IDX 15 24 20 25 22 26 16 27 19 28 17 29 18 30
REMARK H PARENT 18 31
REMARK Flexibility Score: inf
ROOT
ATOM      1  C   UNL     1      11.617  17.824  45.027  1.00  0.00     0.012 C 
ATOM      2  C   UNL     1      10.935  16.475  44.663  1.00  0.00     0.012 C 
ENDROOT
BRANCH   1   3
ATOM      3  C   UNL     1      12.848  17.506  45.885  1.00  0.00    -0.028 C 
ATOM      4  C   UNL     1      13.388  16.294  46.107  1.00  0.00    -0.027 C 
BRANCH   4   5
ATOM      5  C   UNL     1      14.817  16.055  46.579  1.00  0.00     0.014 C 
BRANCH   5   6
ATOM      6  C   UNL     1      14.881  15.464  48.022  1.00  0.00     0.004 C 
ATOM      7  C   UNL     1      13.521  15.269  48.696  1.00  0.00     0.004 C 
ENDBRANCH   5   6
BRANCH   5   8
ATOM      8  C   UNL     1      15.641  15.320  45.469  1.00  0.00    -0.011 C 
ATOM      9  C   UNL     1      15.220  15.687  44.035  1.00  0.00     0.008 C 
ATOM     10  C   UNL     1      15.674  13.796  45.670  1.00  0.00     0.008 C 
ENDBRANCH   5   8
ENDBRANCH   4   5
ENDBRANCH   1   3
BRANCH   1  11
ATOM     11  C   UNL     1      10.640  18.896  45.628  1.00  0.00     0.002 C 
ATOM     12  C   UNL     1      10.025  18.495  46.978  1.00  0.00     0.005 C 
ATOM     13  C   UNL     1       9.452  19.437  44.736  1.00  0.00    -0.026 C 
ATOM     14  C   UNL     1       8.799  19.367  47.134  1.00  0.00     0.005 C 
ATOM     15  C   UNL     1       8.232  19.518  45.717  1.00  0.00    -0.001 C 
ATOM     16  C   UNL     1       9.799  20.843  44.130  1.00  0.00     0.007 C 
ATOM     17  C   UNL     1       9.073  18.530  43.538  1.00  0.00     0.012 C 
ATOM     18  C   UNL     1       7.359  20.781  45.517  1.00  0.00     0.000 C 
ATOM     19  C   UNL     1       9.610  22.001  45.119  1.00  0.00     0.005 C 
ATOM     20  C   UNL     1       8.160  22.098  45.700  1.00  0.00     0.003 C 
ATOM     21  C   UNL     1       6.134  20.818  46.439  1.00  0.00     0.031 C 
ATOM     22  C   UNL     1       7.308  23.347  45.248  1.00  0.00    -0.008 C 
ATOM     23  C   UNL     1       5.309  22.051  46.165  1.00  0.00    -0.027 C 
ATOM     24  C   UNL     1       5.833  23.208  45.679  1.00  0.00    -0.065 C 
ATOM     25  C   UNL     1       7.313  23.529  43.693  1.00  0.00     0.014 C 
ATOM     26  C   UNL     1       7.913  24.610  45.922  1.00  0.00     0.016 C 
ATOM     27  C   UNL     1       4.886  24.305  45.250  1.00  0.00     0.063 C 
ATOM     28  C   UNL     1       6.325  24.599  43.186  1.00  0.00     0.033 C 
ATOM     29  C   UNL     1       4.893  24.380  43.714  1.00  0.00     0.118 C 
BRANCH  29  30
ATOM     30  O   UNL     1       4.076  25.434  43.272  1.00  0.00    -0.393 OA
ATOM     31  H   UNL     1       4.059  26.106  43.998  1.00  0.00     0.210 HD
ENDBRANCH  29  30
ENDBRANCH   1  11
TORSDOF 6
ENDMDL
MODEL 6
REMARK VINA RESULT:    -7.293      1.595      3.665
REMARK INTER + INTRA:         -10.003
REMARK INTER:                  -9.814
REMARK INTRA:                  -0.189
REMARK UNBOUND:                -0.365
REMARK SMILES CC[C@H](C=C[C@@H](C)[C@@H]1CC[C@H]2[C@H]3CC=C4C[C@@H](O)CC[C@]4(C)[C@@H]3CC[C@]21C)C(C)C
REMARK SMILES IDX 6 1 7 2 5 3 4 4 3 5 2 6 1 7 28 8 29 9 30 10 8 11 9 12 26 13
REMARK SMILES IDX 10 14 11 15 25 16 27 17 12 18 24 19 23 20 13 21 21 22 14 23
REMARK SMILES IDX 15 24 20 25 22 26 16 27 19 28 17 29 18 30
REMARK H PARENT 18 31
REMARK Flexibility Score: inf
ROOT
ATOM      1  C   UNL     1       2.823  24.807  43.118  1.00  0.00     0.012 C 
ATOM      2  C   UNL     1       3.309  25.593  41.867  1.00  0.00     0.012 C 
ENDROOT
BRANCH   1   3
ATOM      3  C   UNL     1       1.789  25.678  43.842  1.00  0.00    -0.028 C 
ATOM      4  C   UNL     1       1.458  26.949  43.552  1.00  0.00    -0.027 C 
BRANCH   4   5
ATOM      5  C   UNL     1       0.161  27.626  43.981  1.00  0.00     0.014 C 
BRANCH   5   6
ATOM      6  C   UNL     1       0.113  27.914  45.514  1.00  0.00     0.004 C 
ATOM      7  C   UNL     1      -0.866  29.015  45.929  1.00  0.00     0.004 C 
ENDBRANCH   5   6
BRANCH   5   8
ATOM      8  C   UNL     1      -0.175  28.815  43.020  1.00  0.00    -0.011 C 
ATOM      9  C   UNL     1      -1.584  28.741  42.406  1.00  0.00     0.008 C 
ATOM     10  C   UNL     1       0.897  29.020  41.937  1.00  0.00     0.008 C 
ENDBRANCH   5   8
ENDBRANCH   4   5
ENDBRANCH   1   3
BRANCH   1  11
ATOM     11  C   UNL     1       3.983  24.254  44.020  1.00  0.00     0.002 C 
ATOM     12  C   UNL     1       4.720  25.335  44.825  1.00  0.00     0.005 C 
ATOM     13  C   UNL     1       5.098  23.345  43.363  1.00  0.00    -0.026 C 
ATOM     14  C   UNL     1       6.045  24.715  45.209  1.00  0.00     0.005 C 
ATOM     15  C   UNL     1       6.437  23.836  44.015  1.00  0.00    -0.001 C 
ATOM     16  C   UNL     1       4.835  21.827  43.663  1.00  0.00     0.007 C 
ATOM     17  C   UNL     1       5.215  23.470  41.823  1.00  0.00     0.012 C 
ATOM     18  C   UNL     1       7.412  22.687  44.369  1.00  0.00     0.000 C 
ATOM     19  C   UNL     1       5.278  21.392  45.065  1.00  0.00     0.005 C 
ATOM     20  C   UNL     1       6.793  21.660  45.354  1.00  0.00     0.003 C 
ATOM     21  C   UNL     1       8.742  23.184  44.948  1.00  0.00     0.031 C 
ATOM     22  C   UNL     1       7.713  20.385  45.495  1.00  0.00    -0.008 C 
ATOM     23  C   UNL     1       9.657  22.019  45.233  1.00  0.00    -0.027 C 
ATOM     24  C   UNL     1       9.207  20.771  45.531  1.00  0.00    -0.065 C 
ATOM     25  C   UNL     1       7.527  19.392  44.300  1.00  0.00     0.014 C 
ATOM     26  C   UNL     1       7.345  19.672  46.827  1.00  0.00     0.016 C 
ATOM     27  C   UNL     1      10.207  19.638  45.594  1.00  0.00     0.063 C 
ATOM     28  C   UNL     1       8.555  18.241  44.278  1.00  0.00     0.033 C 
ATOM     29  C   UNL     1      10.009  18.746  44.358  1.00  0.00     0.118 C 
BRANCH  29  30
ATOM     30  O   UNL     1      10.874  17.639  44.410  1.00  0.00    -0.393 OA
ATOM     31  H   UNL     1      11.748  17.975  44.732  1.00  0.00     0.210 HD
ENDBRANCH  29  30
ENDBRANCH   1  11
TORSDOF 6
ENDMDL
MODEL 7
REMARK VINA RESULT:    -7.249      4.762     12.636
REMARK INTER + INTRA:          -9.945
REMARK INTER:                  -9.667
REMARK INTRA:                  -0.278
REMARK UNBOUND:                -0.365
REMARK SMILES CC[C@H](C=C[C@@H](C)[C@@H]1CC[C@H]2[C@H]3CC=C4C[C@@H](O)CC[C@]4(C)[C@@H]3CC[C@]21C)C(C)C
REMARK SMILES IDX 6 1 7 2 5 3 4 4 3 5 2 6 1 7 28 8 29 9 30 10 8 11 9 12 26 13
REMARK SMILES IDX 10 14 11 15 25 16 27 17 12 18 24 19 23 20 13 21 21 22 14 23
REMARK SMILES IDX 15 24 20 25 22 26 16 27 19 28 17 29 18 30
REMARK H PARENT 18 31
REMARK Flexibility Score: inf
ROOT
ATOM      1  C   UNL     1      11.350  17.586  45.417  1.00  0.00     0.012 C 
ATOM      2  C   UNL     1      12.562  18.431  45.901  1.00  0.00     0.012 C 
ENDROOT
BRANCH   1   3
ATOM      3  C   UNL     1      11.895  16.262  44.868  1.00  0.00    -0.028 C 
ATOM      4  C   UNL     1      13.119  15.744  45.075  1.00  0.00    -0.027 C 
BRANCH   4   5
ATOM      5  C   UNL     1      13.479  14.274  44.897  1.00  0.00     0.014 C 
BRANCH   5   6
ATOM      6  C   UNL     1      14.345  14.018  43.625  1.00  0.00     0.004 C 
ATOM      7  C   UNL     1      14.941  15.277  42.990  1.00  0.00     0.004 C 
ENDBRANCH   5   6
BRANCH   5   8
ATOM      8  C   UNL     1      13.997  13.674  46.247  1.00  0.00    -0.011 C 
ATOM      9  C   UNL     1      13.339  14.288  47.495  1.00  0.00     0.008 C 
ATOM     10  C   UNL     1      15.531  13.697  46.353  1.00  0.00     0.008 C 
ENDBRANCH   5   8
ENDBRANCH   4   5
ENDBRANCH   1   3
BRANCH   1  11
ATOM     11  C   UNL     1      10.371  18.356  44.461  1.00  0.00     0.002 C 
ATOM     12  C   UNL     1      10.963  18.669  43.079  1.00  0.00     0.005 C 
ATOM     13  C   UNL     1       9.692  19.690  44.972  1.00  0.00    -0.026 C 
ATOM     14  C   UNL     1      10.113  19.790  42.524  1.00  0.00     0.005 C 
ATOM     15  C   UNL     1       9.747  20.654  43.736  1.00  0.00    -0.001 C 
ATOM     16  C   UNL     1       8.214  19.428  45.432  1.00  0.00     0.007 C 
ATOM     17  C   UNL     1      10.406  20.367  46.168  1.00  0.00     0.012 C 
ATOM     18  C   UNL     1       8.461  21.495  43.548  1.00  0.00     0.000 C 
ATOM     19  C   UNL     1       7.215  19.340  44.271  1.00  0.00     0.005 C 
ATOM     20  C   UNL     1       7.194  20.617  43.366  1.00  0.00     0.003 C 
ATOM     21  C   UNL     1       8.551  22.478  42.375  1.00  0.00     0.031 C 
ATOM     22  C   UNL     1       5.883  21.495  43.427  1.00  0.00    -0.008 C 
ATOM     23  C   UNL     1       7.284  23.290  42.273  1.00  0.00    -0.027 C 
ATOM     24  C   UNL     1       6.072  22.840  42.695  1.00  0.00    -0.065 C 
ATOM     25  C   UNL     1       5.471  21.832  44.900  1.00  0.00     0.014 C 
ATOM     26  C   UNL     1       4.740  20.700  42.735  1.00  0.00     0.016 C 
ATOM     27  C   UNL     1       4.914  23.811  42.735  1.00  0.00     0.063 C 
ATOM     28  C   UNL     1       4.328  22.862  45.008  1.00  0.00     0.033 C 
ATOM     29  C   UNL     1       4.611  24.146  44.204  1.00  0.00     0.118 C 
BRANCH  29  30
ATOM     30  O   UNL     1       3.495  24.996  44.292  1.00  0.00    -0.393 OA
ATOM     31  H   UNL     1       2.797  24.500  44.788  1.00  0.00     0.210 HD
ENDBRANCH  29  30
ENDBRANCH   1  11
TORSDOF 6
ENDMDL
MODEL 8
REMARK VINA RESULT:    -6.953      1.514      3.171
REMARK INTER + INTRA:          -9.554
REMARK INTER:                 -10.101
REMARK INTRA:                   0.546
REMARK UNBOUND:                -0.365
REMARK SMILES CC[C@H](C=C[C@@H](C)[C@@H]1CC[C@H]2[C@H]3CC=C4C[C@@H](O)CC[C@]4(C)[C@@H]3CC[C@]21C)C(C)C
REMARK SMILES IDX 6 1 7 2 5 3 4 4 3 5 2 6 1 7 28 8 29 9 30 10 8 11 9 12 26 13
REMARK SMILES IDX 10 14 11 15 25 16 27 17 12 18 24 19 23 20 13 21 21 22 14 23
REMARK SMILES IDX 15 24 20 25 22 26 16 27 19 28 17 29 18 30
REMARK H PARENT 18 31
REMARK Flexibility Score: inf
ROOT
ATOM      1  C   UNL     1       3.306  26.039  42.533  1.00  0.00     0.012 C 
ATOM      2  C   UNL     1       4.270  27.211  42.871  1.00  0.00     0.012 C 
ENDROOT
BRANCH   1   3
ATOM      3  C   UNL     1       1.877  26.512  42.827  1.00  0.00    -0.028 C 
ATOM      4  C   UNL     1       1.417  27.773  42.774  1.00  0.00    -0.027 C 
BRANCH   4   5
ATOM      5  C   UNL     1      -0.053  28.155  42.639  1.00  0.00     0.014 C 
BRANCH   5   6
ATOM      6  C   UNL     1      -0.562  29.016  43.837  1.00  0.00     0.004 C 
ATOM      7  C   UNL     1      -1.642  28.350  44.693  1.00  0.00     0.004 C 
ENDBRANCH   5   6
BRANCH   5   8
ATOM      8  C   UNL     1      -0.346  28.691  41.198  1.00  0.00    -0.011 C 
ATOM      9  C   UNL     1       0.614  29.803  40.740  1.00  0.00     0.008 C 
ATOM     10  C   UNL     1      -1.814  29.107  41.010  1.00  0.00     0.008 C 
ENDBRANCH   5   8
ENDBRANCH   4   5
ENDBRANCH   1   3
BRANCH   1  11
ATOM     11  C   UNL     1       3.708  24.669  43.188  1.00  0.00     0.002 C 
ATOM     12  C   UNL     1       2.763  24.211  44.310  1.00  0.00     0.005 C 
ATOM     13  C   UNL     1       5.179  24.482  43.734  1.00  0.00    -0.026 C 
ATOM     14  C   UNL     1       3.553  23.199  45.109  1.00  0.00     0.005 C 
ATOM     15  C   UNL     1       4.999  23.711  45.088  1.00  0.00    -0.001 C 
ATOM     16  C   UNL     1       6.057  23.667  42.720  1.00  0.00     0.007 C 
ATOM     17  C   UNL     1       5.944  25.802  44.007  1.00  0.00     0.012 C 
ATOM     18  C   UNL     1       6.063  22.611  45.321  1.00  0.00     0.000 C 
ATOM     19  C   UNL     1       5.821  22.153  42.782  1.00  0.00     0.005 C 
ATOM     20  C   UNL     1       6.069  21.538  44.199  1.00  0.00     0.003 C 
ATOM     21  C   UNL     1       5.913  21.907  46.675  1.00  0.00     0.031 C 
ATOM     22  C   UNL     1       7.318  20.582  44.337  1.00  0.00    -0.008 C 
ATOM     23  C   UNL     1       7.002  20.878  46.853  1.00  0.00    -0.027 C 
ATOM     24  C   UNL     1       7.603  20.239  45.814  1.00  0.00    -0.065 C 
ATOM     25  C   UNL     1       8.621  21.232  43.761  1.00  0.00     0.014 C 
ATOM     26  C   UNL     1       7.005  19.269  43.566  1.00  0.00     0.016 C 
ATOM     27  C   UNL     1       8.818  19.384  46.098  1.00  0.00     0.063 C 
ATOM     28  C   UNL     1       9.905  20.433  44.065  1.00  0.00     0.033 C 
ATOM     29  C   UNL     1      10.061  20.114  45.565  1.00  0.00     0.118 C 
BRANCH  29  30
ATOM     30  O   UNL     1      11.209  19.323  45.747  1.00  0.00    -0.393 OA
ATOM     31  H   UNL     1      11.916  19.922  46.094  1.00  0.00     0.210 HD
ENDBRANCH  29  30
ENDBRANCH   1  11
TORSDOF 6
ENDMDL
MODEL 9
REMARK VINA RESULT:    -6.715      1.370      2.055
REMARK INTER + INTRA:          -9.239
REMARK INTER:                  -9.674
REMARK INTRA:                   0.435
REMARK UNBOUND:                -0.365
REMARK SMILES CC[C@H](C=C[C@@H](C)[C@@H]1CC[C@H]2[C@H]3CC=C4C[C@@H](O)CC[C@]4(C)[C@@H]3CC[C@]21C)C(C)C
REMARK SMILES IDX 6 1 7 2 5 3 4 4 3 5 2 6 1 7 28 8 29 9 30 10 8 11 9 12 26 13
REMARK SMILES IDX 10 14 11 15 25 16 27 17 12 18 24 19 23 20 13 21 21 22 14 23
REMARK SMILES IDX 15 24 20 25 22 26 16 27 19 28 17 29 18 30
REMARK H PARENT 18 31
REMARK Flexibility Score: inf
ROOT
ATOM      1  C   UNL     1       2.468  25.683  44.444  1.00  0.00     0.012 C 
ATOM      2  C   UNL     1       1.420  24.626  43.997  1.00  0.00     0.012 C 
ENDROOT
BRANCH   1   3
ATOM      3  C   UNL     1       2.056  27.031  43.839  1.00  0.00    -0.028 C 
ATOM      4  C   UNL     1       0.854  27.357  43.335  1.00  0.00    -0.027 C 
BRANCH   4   5
ATOM      5  C   UNL     1       0.348  28.783  43.152  1.00  0.00     0.014 C 
BRANCH   5   6
ATOM      6  C   UNL     1       0.735  29.385  41.765  1.00  0.00     0.004 C 
ATOM      7  C   UNL     1      -0.428  29.521  40.778  1.00  0.00     0.004 C 
ENDBRANCH   5   6
BRANCH   5   8
ATOM      8  C   UNL     1      -1.154  28.887  43.582  1.00  0.00    -0.011 C 
ATOM      9  C   UNL     1      -1.526  30.233  44.228  1.00  0.00     0.008 C 
ATOM     10  C   UNL     1      -1.601  27.703  44.456  1.00  0.00     0.008 C 
ENDBRANCH   5   8
ENDBRANCH   4   5
ENDBRANCH   1   3
BRANCH   1  11
ATOM     11  C   UNL     1       3.958  25.259  44.187  1.00  0.00     0.002 C 
ATOM     12  C   UNL     1       4.623  25.991  43.011  1.00  0.00     0.005 C 
ATOM     13  C   UNL     1       4.299  23.725  44.013  1.00  0.00    -0.026 C 
ATOM     14  C   UNL     1       5.806  25.132  42.624  1.00  0.00     0.005 C 
ATOM     15  C   UNL     1       5.342  23.687  42.842  1.00  0.00    -0.001 C 
ATOM     16  C   UNL     1       4.898  23.128  45.337  1.00  0.00     0.007 C 
ATOM     17  C   UNL     1       3.093  22.828  43.640  1.00  0.00     0.012 C 
ATOM     18  C   UNL     1       6.495  22.680  43.071  1.00  0.00     0.000 C 
ATOM     19  C   UNL     1       6.382  23.456  45.541  1.00  0.00     0.005 C 
ATOM     20  C   UNL     1       7.298  22.975  44.367  1.00  0.00     0.003 C 
ATOM     21  C   UNL     1       7.472  22.607  41.892  1.00  0.00     0.031 C 
ATOM     22  C   UNL     1       8.294  21.796  44.696  1.00  0.00    -0.008 C 
ATOM     23  C   UNL     1       8.545  21.582  42.164  1.00  0.00    -0.027 C 
ATOM     24  C   UNL     1       8.959  21.247  43.416  1.00  0.00    -0.065 C 
ATOM     25  C   UNL     1       7.571  20.591  45.386  1.00  0.00     0.014 C 
ATOM     26  C   UNL     1       9.399  22.350  45.639  1.00  0.00     0.016 C 
ATOM     27  C   UNL     1       9.887  20.065  43.577  1.00  0.00     0.063 C 
ATOM     28  C   UNL     1       8.452  19.334  45.531  1.00  0.00     0.033 C 
ATOM     29  C   UNL     1       9.093  18.904  44.197  1.00  0.00     0.118 C 
BRANCH  29  30
ATOM     30  O   UNL     1       9.936  17.803  44.428  1.00  0.00    -0.393 OA
ATOM     31  H   UNL     1      10.855  18.160  44.515  1.00  0.00     0.210 HD
ENDBRANCH  29  30
ENDBRANCH   1  11
TORSDOF 6
ENDMDL
