MODEL 1
REMARK VINA RESULT:   152.190      0.000      0.000
REMARK INTER + INTRA:         167.457
REMARK INTER:                 165.535
REMARK INTRA:                   1.921
REMARK UNBOUND:                 1.921
REMARK SMILES CC1(C)CC[C@]2(C(=O)[O-])CC[C@@]3(C)C(=CC[C@@H]4[C@@]5(C)CC[C@@H](O)C(C)(C)[C@H]5CC[C@]43C)[C@H]2C1
REMARK SMILES IDX 6 1 5 2 10 3 32 4 4 5 11 6 14 7 33 8 2 9 12 10 15 11 1 12
REMARK SMILES IDX 3 13 13 14 30 15 16 16 17 17 29 18 31 19 18 20 28 21 27 22
REMARK SMILES IDX 20 23 19 24 24 25 21 26 22 27 25 28 26 29 7 30 8 31 9 32
REMARK SMILES IDX 23 33
REMARK H PARENT 23 34
REMARK Flexibility Score: inf
ROOT
ATOM      1  C   UNL     1     -30.858  26.781 -15.256  1.00  0.00     0.017 C 
ATOM      2  C   UNL     1     -30.584  25.324 -14.806  1.00  0.00     0.014 C 
ATOM      3  C   UNL     1     -32.087  26.778 -16.186  1.00  0.00     0.014 C 
ATOM      4  C   UNL     1     -29.649  27.296 -16.092  1.00  0.00     0.028 C 
ATOM      5  C   UNL     1     -29.299  25.212 -13.976  1.00  0.00     0.007 C 
ATOM      6  C   UNL     1     -32.498  28.199 -16.585  1.00  0.00     0.013 C 
ATOM      7  C   UNL     1     -29.916  28.671 -16.740  1.00  0.00    -0.064 C 
ATOM      8  C   UNL     1     -28.304  27.159 -15.310  1.00  0.00     0.015 C 
ATOM      9  C   UNL     1     -28.050  25.736 -14.728  1.00  0.00    -0.035 C 
ATOM     10  C   UNL     1     -31.347  29.137 -17.141  1.00  0.00    -0.006 C 
ATOM     11  C   UNL     1     -28.872  29.396 -17.231  1.00  0.00    -0.027 C 
ATOM     12  C   UNL     1     -27.648  24.751 -15.854  1.00  0.00     0.011 C 
ATOM     13  C   UNL     1     -26.875  25.813 -13.730  1.00  0.00     0.011 C 
ATOM     14  C   UNL     1     -31.545  30.477 -16.339  1.00  0.00     0.017 C 
ATOM     15  C   UNL     1     -31.442  29.361 -18.770  1.00  0.00    -0.020 C 
ATOM     16  C   UNL     1     -29.059  30.267 -18.447  1.00  0.00     0.032 C 
ATOM     17  C   UNL     1     -29.998  29.505 -19.408  1.00  0.00     0.006 C 
ATOM     18  C   UNL     1     -32.079  28.147 -19.512  1.00  0.00     0.008 C 
ATOM     19  C   UNL     1     -32.364  30.585 -19.050  1.00  0.00     0.012 C 
ATOM     20  C   UNL     1     -29.907  29.888 -20.947  1.00  0.00    -0.025 C 
ATOM     21  C   UNL     1     -31.733  27.985 -21.018  1.00  0.00     0.005 C 
ATOM     22  C   UNL     1     -31.091  29.200 -21.773  1.00  0.00     0.003 C 
ATOM     23  C   UNL     1     -28.508  29.422 -21.504  1.00  0.00     0.010 C 
ATOM     24  C   UNL     1     -29.961  31.439 -21.103  1.00  0.00     0.012 C 
ATOM     25  C   UNL     1     -30.704  28.795 -23.266  1.00  0.00    -0.006 C 
ATOM     26  C   UNL     1     -28.520  28.006 -22.072  1.00  0.00     0.033 C 
ATOM     27  C   UNL     1     -29.426  27.868 -23.310  1.00  0.00     0.120 C 
ATOM     28  C   UNL     1     -30.439  30.066 -24.124  1.00  0.00     0.014 C 
ATOM     29  C   UNL     1     -31.908  28.100 -23.975  1.00  0.00     0.014 C 
ENDROOT
BRANCH   1  30
ATOM     30  C   UNL     1     -31.161  27.617 -14.012  1.00  0.00     0.048 C 
ATOM     31  O   UNL     1     -31.538  28.815 -14.095  1.00  0.00    -0.550 OA
ATOM     32  O   UNL     1     -31.006  27.052 -12.751  1.00  0.00    -0.550 OA
ENDBRANCH   1  30
BRANCH  27  33
ATOM     33  O   UNL     1     -29.767  26.507 -23.431  1.00  0.00    -0.393 OA
ATOM     34  H   UNL     1     -30.605  26.456 -23.959  1.00  0.00     0.210 HD
ENDBRANCH  27  33
TORSDOF 2
ENDMDL
MODEL 2
REMARK VINA RESULT:   152.221      3.426      7.059
REMARK INTER + INTRA:         167.491
REMARK INTER:                 167.135
REMARK INTRA:                   0.356
REMARK UNBOUND:                 1.921
REMARK SMILES CC1(C)CC[C@]2(C(=O)[O-])CC[C@@]3(C)C(=CC[C@@H]4[C@@]5(C)CC[C@@H](O)C(C)(C)[C@H]5CC[C@]43C)[C@H]2C1
REMARK SMILES IDX 6 1 5 2 10 3 32 4 4 5 11 6 14 7 33 8 2 9 12 10 15 11 1 12
REMARK SMILES IDX 3 13 13 14 30 15 16 16 17 17 29 18 31 19 18 20 28 21 27 22
REMARK SMILES IDX 20 23 19 24 24 25 21 26 22 27 25 28 26 29 7 30 8 31 9 32
REMARK SMILES IDX 23 33
REMARK H PARENT 23 34
REMARK Flexibility Score: inf
ROOT
ATOM      1  C   UNL     1     -35.943  29.185 -18.152  1.00  0.00     0.017 C 
ATOM      2  C   UNL     1     -37.252  28.358 -18.153  1.00  0.00     0.014 C 
ATOM      3  C   UNL     1     -34.951  28.522 -19.128  1.00  0.00     0.014 C 
ATOM      4  C   UNL     1     -35.301  29.129 -16.733  1.00  0.00     0.028 C 
ATOM      5  C   UNL     1     -38.256  28.873 -17.113  1.00  0.00     0.007 C 
ATOM      6  C   UNL     1     -33.666  29.345 -19.275  1.00  0.00     0.013 C 
ATOM      7  C   UNL     1     -33.897  29.768 -16.690  1.00  0.00    -0.064 C 
ATOM      8  C   UNL     1     -36.299  29.598 -15.628  1.00  0.00     0.015 C 
ATOM      9  C   UNL     1     -37.681  28.879 -15.675  1.00  0.00    -0.035 C 
ATOM     10  C   UNL     1     -32.955  29.789 -17.930  1.00  0.00    -0.006 C 
ATOM     11  C   UNL     1     -33.339  30.082 -15.488  1.00  0.00    -0.027 C 
ATOM     12  C   UNL     1     -37.560  27.431 -15.137  1.00  0.00     0.011 C 
ATOM     13  C   UNL     1     -38.664  29.640 -14.758  1.00  0.00     0.011 C 
ATOM     14  C   UNL     1     -32.664  31.320 -18.156  1.00  0.00     0.017 C 
ATOM     15  C   UNL     1     -31.584  28.929 -17.623  1.00  0.00    -0.020 C 
ATOM     16  C   UNL     1     -31.848  29.978 -15.293  1.00  0.00     0.032 C 
ATOM     17  C   UNL     1     -31.378  28.725 -16.065  1.00  0.00     0.006 C 
ATOM     18  C   UNL     1     -31.632  27.483 -18.204  1.00  0.00     0.008 C 
ATOM     19  C   UNL     1     -30.384  29.643 -18.314  1.00  0.00     0.012 C 
ATOM     20  C   UNL     1     -30.021  28.057 -15.581  1.00  0.00    -0.025 C 
ATOM     21  C   UNL     1     -30.703  26.429 -17.542  1.00  0.00     0.005 C 
ATOM     22  C   UNL     1     -29.545  26.932 -16.613  1.00  0.00     0.003 C 
ATOM     23  C   UNL     1     -30.245  27.430 -14.153  1.00  0.00     0.010 C 
ATOM     24  C   UNL     1     -28.925  29.155 -15.425  1.00  0.00     0.012 C 
ATOM     25  C   UNL     1     -28.786  25.700 -15.942  1.00  0.00    -0.006 C 
ATOM     26  C   UNL     1     -30.704  25.975 -14.191  1.00  0.00     0.033 C 
ATOM     27  C   UNL     1     -29.648  25.033 -14.799  1.00  0.00     0.120 C 
ATOM     28  C   UNL     1     -27.423  26.159 -15.347  1.00  0.00     0.014 C 
ATOM     29  C   UNL     1     -28.396  24.642 -17.020  1.00  0.00     0.014 C 
ENDROOT
BRANCH   1  30
ATOM     30  C   UNL     1     -36.268  30.598 -18.637  1.00  0.00     0.048 C 
ATOM     31  O   UNL     1     -35.823  31.618 -18.050  1.00  0.00    -0.550 OA
ATOM     32  O   UNL     1     -37.088  30.771 -19.747  1.00  0.00    -0.550 OA
ENDBRANCH   1  30
BRANCH  27  33
ATOM     33  O   UNL     1     -30.323  23.883 -15.252  1.00  0.00    -0.393 OA
ATOM     34  H   UNL     1     -31.190  24.179 -15.636  1.00  0.00     0.210 HD
ENDBRANCH  27  33
TORSDOF 2
ENDMDL
MODEL 3
REMARK VINA RESULT:   152.417      3.072      7.471
REMARK INTER + INTRA:         167.703
REMARK INTER:                 167.471
REMARK INTRA:                   0.233
REMARK UNBOUND:                 1.921
REMARK SMILES CC1(C)CC[C@]2(C(=O)[O-])CC[C@@]3(C)C(=CC[C@@H]4[C@@]5(C)CC[C@@H](O)C(C)(C)[C@H]5CC[C@]43C)[C@H]2C1
REMARK SMILES IDX 6 1 5 2 10 3 32 4 4 5 11 6 14 7 33 8 2 9 12 10 15 11 1 12
REMARK SMILES IDX 3 13 13 14 30 15 16 16 17 17 29 18 31 19 18 20 28 21 27 22
REMARK SMILES IDX 20 23 19 24 24 25 21 26 22 27 25 28 26 29 7 30 8 31 9 32
REMARK SMILES IDX 23 33
REMARK H PARENT 23 34
REMARK Flexibility Score: inf
ROOT
ATOM      1  C   UNL     1     -32.545  29.577 -18.049  1.00  0.00     0.017 C 
ATOM      2  C   UNL     1     -33.875  29.491 -18.837  1.00  0.00     0.014 C 
ATOM      3  C   UNL     1     -31.519  28.647 -18.726  1.00  0.00     0.014 C 
ATOM      4  C   UNL     1     -32.770  29.040 -16.604  1.00  0.00     0.028 C 
ATOM      5  C   UNL     1     -34.996  30.290 -18.160  1.00  0.00     0.007 C 
ATOM      6  C   UNL     1     -30.136  28.760 -18.074  1.00  0.00     0.013 C 
ATOM      7  C   UNL     1     -31.455  28.911 -15.805  1.00  0.00    -0.064 C 
ATOM      8  C   UNL     1     -33.937  29.787 -15.883  1.00  0.00     0.015 C 
ATOM      9  C   UNL     1     -35.261  29.836 -16.703  1.00  0.00    -0.035 C 
ATOM     10  C   UNL     1     -30.088  28.632 -16.495  1.00  0.00    -0.006 C 
ATOM     11  C   UNL     1     -31.504  28.762 -14.452  1.00  0.00    -0.027 C 
ATOM     12  C   UNL     1     -35.962  28.454 -16.689  1.00  0.00     0.011 C 
ATOM     13  C   UNL     1     -36.214  30.852 -16.040  1.00  0.00     0.011 C 
ATOM     14  C   UNL     1     -29.189  29.848 -16.055  1.00  0.00     0.017 C 
ATOM     15  C   UNL     1     -29.476  27.187 -15.994  1.00  0.00    -0.020 C 
ATOM     16  C   UNL     1     -30.467  27.928 -13.742  1.00  0.00     0.032 C 
ATOM     17  C   UNL     1     -30.167  26.714 -14.649  1.00  0.00     0.006 C 
ATOM     18  C   UNL     1     -29.750  26.030 -17.004  1.00  0.00     0.008 C 
ATOM     19  C   UNL     1     -27.928  27.316 -15.878  1.00  0.00     0.012 C 
ATOM     20  C   UNL     1     -29.586  25.419 -13.937  1.00  0.00    -0.025 C 
ATOM     21  C   UNL     1     -29.734  24.585 -16.435  1.00  0.00     0.005 C 
ATOM     22  C   UNL     1     -29.106  24.345 -15.019  1.00  0.00     0.003 C 
ATOM     23  C   UNL     1     -30.705  24.803 -13.013  1.00  0.00     0.010 C 
ATOM     24  C   UNL     1     -28.403  25.822 -13.004  1.00  0.00     0.012 C 
ATOM     25  C   UNL     1     -29.293  22.826 -14.570  1.00  0.00    -0.006 C 
ATOM     26  C   UNL     1     -31.575  23.767 -13.719  1.00  0.00     0.033 C 
ATOM     27  C   UNL     1     -30.784  22.519 -14.152  1.00  0.00     0.120 C 
ATOM     28  C   UNL     1     -28.352  22.491 -13.376  1.00  0.00     0.014 C 
ATOM     29  C   UNL     1     -28.832  21.858 -15.703  1.00  0.00     0.014 C 
ENDROOT
BRANCH   1  30
ATOM     30  C   UNL     1     -32.044  31.020 -18.109  1.00  0.00     0.048 C 
ATOM     31  O   UNL     1     -31.713  31.650 -17.070  1.00  0.00    -0.550 OA
ATOM     32  O   UNL     1     -31.962  31.667 -19.337  1.00  0.00    -0.550 OA
ENDBRANCH   1  30
BRANCH  27  33
ATOM     33  O   UNL     1     -31.507  21.904 -15.193  1.00  0.00    -0.393 OA
ATOM     34  H   UNL     1     -30.853  21.634 -15.890  1.00  0.00     0.210 HD
ENDBRANCH  27  33
TORSDOF 2
ENDMDL
MODEL 4
REMARK VINA RESULT:   154.554      4.336      6.021
REMARK INTER + INTRA:         170.029
REMARK INTER:                 168.921
REMARK INTRA:                   1.108
REMARK UNBOUND:                 1.921
REMARK SMILES CC1(C)CC[C@]2(C(=O)[O-])CC[C@@]3(C)C(=CC[C@@H]4[C@@]5(C)CC[C@@H](O)C(C)(C)[C@H]5CC[C@]43C)[C@H]2C1
REMARK SMILES IDX 6 1 5 2 10 3 32 4 4 5 11 6 14 7 33 8 2 9 12 10 15 11 1 12
REMARK SMILES IDX 3 13 13 14 30 15 16 16 17 17 29 18 31 19 18 20 28 21 27 22
REMARK SMILES IDX 20 23 19 24 24 25 21 26 22 27 25 28 26 29 7 30 8 31 9 32
REMARK SMILES IDX 23 33
REMARK H PARENT 23 34
REMARK Flexibility Score: inf
ROOT
ATOM      1  C   UNL     1     -32.437  28.348 -16.612  1.00  0.00     0.017 C 
ATOM      2  C   UNL     1     -31.141  27.598 -17.010  1.00  0.00     0.014 C 
ATOM      3  C   UNL     1     -33.609  27.349 -16.660  1.00  0.00     0.014 C 
ATOM      4  C   UNL     1     -32.732  29.456 -17.667  1.00  0.00     0.028 C 
ATOM      5  C   UNL     1     -29.938  28.546 -17.113  1.00  0.00     0.007 C 
ATOM      6  C   UNL     1     -34.914  27.983 -16.168  1.00  0.00     0.013 C 
ATOM      7  C   UNL     1     -34.105  30.129 -17.454  1.00  0.00    -0.064 C 
ATOM      8  C   UNL     1     -31.518  30.423 -17.847  1.00  0.00     0.015 C 
ATOM      9  C   UNL     1     -30.167  29.699 -18.121  1.00  0.00    -0.035 C 
ATOM     10  C   UNL     1     -35.308  29.378 -16.811  1.00  0.00    -0.006 C 
ATOM     11  C   UNL     1     -34.379  31.308 -18.078  1.00  0.00    -0.027 C 
ATOM     12  C   UNL     1     -30.122  29.160 -19.574  1.00  0.00     0.011 C 
ATOM     13  C   UNL     1     -29.020  30.720 -17.964  1.00  0.00     0.011 C 
ATOM     14  C   UNL     1     -35.683  30.264 -15.565  1.00  0.00     0.017 C 
ATOM     15  C   UNL     1     -36.548  29.252 -17.888  1.00  0.00    -0.020 C 
ATOM     16  C   UNL     1     -35.781  31.617 -18.536  1.00  0.00     0.032 C 
ATOM     17  C   UNL     1     -36.384  30.297 -19.067  1.00  0.00     0.006 C 
ATOM     18  C   UNL     1     -36.596  27.864 -18.597  1.00  0.00     0.008 C 
ATOM     19  C   UNL     1     -37.893  29.401 -17.116  1.00  0.00     0.012 C 
ATOM     20  C   UNL     1     -37.574  30.426 -20.110  1.00  0.00    -0.025 C 
ATOM     21  C   UNL     1     -37.320  27.804 -19.970  1.00  0.00     0.005 C 
ATOM     22  C   UNL     1     -38.246  29.000 -20.382  1.00  0.00     0.003 C 
ATOM     23  C   UNL     1     -37.010  31.030 -21.452  1.00  0.00     0.010 C 
ATOM     24  C   UNL     1     -38.634  31.435 -19.572  1.00  0.00     0.012 C 
ATOM     25  C   UNL     1     -38.797  28.802 -21.865  1.00  0.00    -0.006 C 
ATOM     26  C   UNL     1     -36.535  29.972 -22.444  1.00  0.00     0.033 C 
ATOM     27  C   UNL     1     -37.677  29.069 -22.946  1.00  0.00     0.120 C 
ATOM     28  C   UNL     1     -39.998  29.755 -22.132  1.00  0.00     0.014 C 
ATOM     29  C   UNL     1     -39.397  27.373 -22.041  1.00  0.00     0.014 C 
ENDROOT
BRANCH   1  30
ATOM     30  C   UNL     1     -32.269  28.870 -15.185  1.00  0.00     0.048 C 
ATOM     31  O   UNL     1     -32.937  29.847 -14.755  1.00  0.00    -0.550 OA
ATOM     32  O   UNL     1     -31.347  28.266 -14.338  1.00  0.00    -0.550 OA
ENDBRANCH   1  30
BRANCH  27  33
ATOM     33  O   UNL     1     -37.095  27.873 -23.407  1.00  0.00    -0.393 OA
ATOM     34  H   UNL     1     -37.826  27.213 -23.527  1.00  0.00     0.210 HD
ENDBRANCH  27  33
TORSDOF 2
ENDMDL
MODEL 5
REMARK VINA RESULT:   154.995      7.506     10.765
REMARK INTER + INTRA:         170.508
REMARK INTER:                 168.602
REMARK INTRA:                   1.906
REMARK UNBOUND:                 1.921
REMARK SMILES CC1(C)CC[C@]2(C(=O)[O-])CC[C@@]3(C)C(=CC[C@@H]4[C@@]5(C)CC[C@@H](O)C(C)(C)[C@H]5CC[C@]43C)[C@H]2C1
REMARK SMILES IDX 6 1 5 2 10 3 32 4 4 5 11 6 14 7 33 8 2 9 12 10 15 11 1 12
REMARK SMILES IDX 3 13 13 14 30 15 16 16 17 17 29 18 31 19 18 20 28 21 27 22
REMARK SMILES IDX 20 23 19 24 24 25 21 26 22 27 25 28 26 29 7 30 8 31 9 32
REMARK SMILES IDX 23 33
REMARK H PARENT 23 34
REMARK Flexibility Score: inf
ROOT
ATOM      1  C   UNL     1     -38.160  29.878 -21.062  1.00  0.00     0.017 C 
ATOM      2  C   UNL     1     -38.385  31.102 -20.141  1.00  0.00     0.014 C 
ATOM      3  C   UNL     1     -39.533  29.261 -21.393  1.00  0.00     0.014 C 
ATOM      4  C   UNL     1     -37.343  28.799 -20.290  1.00  0.00     0.028 C 
ATOM      5  C   UNL     1     -37.061  31.708 -19.656  1.00  0.00     0.007 C 
ATOM      6  C   UNL     1     -39.409  28.110 -22.396  1.00  0.00     0.013 C 
ATOM      7  C   UNL     1     -37.234  27.468 -21.065  1.00  0.00    -0.064 C 
ATOM      8  C   UNL     1     -36.004  29.376 -19.732  1.00  0.00     0.015 C 
ATOM      9  C   UNL     1     -36.173  30.685 -18.904  1.00  0.00    -0.035 C 
ATOM     10  C   UNL     1     -38.333  26.995 -22.062  1.00  0.00    -0.006 C 
ATOM     11  C   UNL     1     -36.308  26.545 -20.687  1.00  0.00    -0.027 C 
ATOM     12  C   UNL     1     -36.774  30.374 -17.510  1.00  0.00     0.011 C 
ATOM     13  C   UNL     1     -34.781  31.314 -18.686  1.00  0.00     0.011 C 
ATOM     14  C   UNL     1     -37.557  26.815 -23.420  1.00  0.00     0.017 C 
ATOM     15  C   UNL     1     -39.015  25.590 -21.539  1.00  0.00    -0.020 C 
ATOM     16  C   UNL     1     -36.601  25.073 -20.829  1.00  0.00     0.032 C 
ATOM     17  C   UNL     1     -38.091  24.873 -20.471  1.00  0.00     0.006 C 
ATOM     18  C   UNL     1     -40.370  25.813 -20.799  1.00  0.00     0.008 C 
ATOM     19  C   UNL     1     -39.330  24.699 -22.778  1.00  0.00     0.012 C 
ATOM     20  C   UNL     1     -38.518  23.425 -19.979  1.00  0.00    -0.025 C 
ATOM     21  C   UNL     1     -40.819  24.703 -19.810  1.00  0.00     0.005 C 
ATOM     22  C   UNL     1     -40.109  23.307 -19.879  1.00  0.00     0.003 C 
ATOM     23  C   UNL     1     -37.859  23.151 -18.574  1.00  0.00     0.010 C 
ATOM     24  C   UNL     1     -37.951  22.352 -20.959  1.00  0.00     0.012 C 
ATOM     25  C   UNL     1     -40.628  22.353 -18.711  1.00  0.00    -0.006 C 
ATOM     26  C   UNL     1     -38.733  23.579 -17.398  1.00  0.00     0.033 C 
ATOM     27  C   UNL     1     -40.043  22.776 -17.306  1.00  0.00     0.120 C 
ATOM     28  C   UNL     1     -40.235  20.875 -19.000  1.00  0.00     0.014 C 
ATOM     29  C   UNL     1     -42.188  22.333 -18.671  1.00  0.00     0.014 C 
ENDROOT
BRANCH   1  30
ATOM     30  C   UNL     1     -37.495  30.364 -22.350  1.00  0.00     0.048 C 
ATOM     31  O   UNL     1     -37.286  29.589 -23.320  1.00  0.00    -0.550 OA
ATOM     32  O   UNL     1     -37.095  31.691 -22.457  1.00  0.00    -0.550 OA
ENDBRANCH   1  30
BRANCH  27  33
ATOM     33  O   UNL     1     -40.959  23.549 -16.567  1.00  0.00    -0.393 OA
ATOM     34  H   UNL     1     -41.519  22.923 -16.039  1.00  0.00     0.210 HD
ENDBRANCH  27  33
TORSDOF 2
ENDMDL
