MODEL 1
REMARK VINA RESULT:    -4.269      0.000      0.000
REMARK INTER + INTRA:          -7.055
REMARK INTER:                  -6.266
REMARK INTRA:                  -0.789
REMARK UNBOUND:                -0.789
REMARK SMILES O=C([O-])CCCCCCCC(=O)[O-]
REMARK SMILES IDX 7 1 6 2 5 3 4 4 2 5 1 6 3 7 8 8 9 9 10 10 11 11 12 12 13 13
REMARK H PARENT
REMARK Flexibility Score: inf
ROOT
ATOM      1  C   UNL     1      63.174  30.512  11.770  1.00  0.00     0.000 C 
ENDROOT
BRANCH   1   2
ATOM      2  C   UNL     1      63.429  31.969  12.188  1.00  0.00     0.000 C 
BRANCH   2   3
ATOM      3  C   UNL     1      62.585  32.391  13.401  1.00  0.00     0.006 C 
BRANCH   3   4
ATOM      4  C   UNL     1      61.133  32.652  12.991  1.00  0.00     0.053 C 
BRANCH   4   5
ATOM      5  C   UNL     1      60.271  32.831  14.200  1.00  0.00     0.041 C 
ATOM      6  O   UNL     1      59.353  32.007  14.452  1.00  0.00    -0.550 OA
ATOM      7  O   UNL     1      60.512  33.881  15.078  1.00  0.00    -0.550 OA
ENDBRANCH   4   5
ENDBRANCH   3   4
ENDBRANCH   2   3
ENDBRANCH   1   2
BRANCH   1   8
ATOM      8  C   UNL     1      63.215  29.539  12.962  1.00  0.00     0.000 C 
BRANCH   8   9
ATOM      9  C   UNL     1      62.105  28.474  12.897  1.00  0.00     0.006 C 
BRANCH   9  10
ATOM     10  C   UNL     1      60.777  28.907  13.537  1.00  0.00     0.053 C 
BRANCH  10  11
ATOM     11  C   UNL     1      59.654  28.915  12.545  1.00  0.00     0.041 C 
ATOM     12  O   UNL     1      59.669  29.721  11.577  1.00  0.00    -0.550 OA
ATOM     13  O   UNL     1      58.577  28.054  12.707  1.00  0.00    -0.550 OA
ENDBRANCH  10  11
ENDBRANCH   9  10
ENDBRANCH   8   9
ENDBRANCH   1   8
TORSDOF 8
ENDMDL
MODEL 2
REMARK VINA RESULT:    -4.265      1.566      4.575
REMARK INTER + INTRA:          -7.050
REMARK INTER:                  -6.294
REMARK INTRA:                  -0.755
REMARK UNBOUND:                -0.789
REMARK SMILES O=C([O-])CCCCCCCC(=O)[O-]
REMARK SMILES IDX 7 1 6 2 5 3 4 4 2 5 1 6 3 7 8 8 9 9 10 10 11 11 12 12 13 13
REMARK H PARENT
REMARK Flexibility Score: inf
ROOT
ATOM      1  C   UNL     1      62.277  29.337  13.413  1.00  0.00     0.000 C 
ENDROOT
BRANCH   1   2
ATOM      2  C   UNL     1      60.914  28.723  13.769  1.00  0.00     0.000 C 
BRANCH   2   3
ATOM      3  C   UNL     1      60.193  28.138  12.544  1.00  0.00     0.006 C 
BRANCH   3   4
ATOM      4  C   UNL     1      59.713  29.252  11.610  1.00  0.00     0.053 C 
BRANCH   4   5
ATOM      5  C   UNL     1      60.226  29.030  10.222  1.00  0.00     0.041 C 
ATOM      6  O   UNL     1      59.682  29.609   9.245  1.00  0.00    -0.550 OA
ATOM      7  O   UNL     1      61.337  28.223  10.012  1.00  0.00    -0.550 OA
ENDBRANCH   4   5
ENDBRANCH   3   4
ENDBRANCH   2   3
ENDBRANCH   1   2
BRANCH   1   8
ATOM      8  C   UNL     1      62.630  30.546  14.297  1.00  0.00     0.000 C 
BRANCH   8   9
ATOM      9  C   UNL     1      62.732  31.857  13.497  1.00  0.00     0.006 C 
BRANCH   9  10
ATOM     10  C   UNL     1      61.418  32.295  12.830  1.00  0.00     0.053 C 
BRANCH  10  11
ATOM     11  C   UNL     1      60.377  32.671  13.840  1.00  0.00     0.041 C 
ATOM     12  O   UNL     1      60.536  33.687  14.566  1.00  0.00    -0.550 OA
ATOM     13  O   UNL     1      59.246  31.880  14.000  1.00  0.00    -0.550 OA
ENDBRANCH  10  11
ENDBRANCH   9  10
ENDBRANCH   8   9
ENDBRANCH   1   8
TORSDOF 8
ENDMDL
MODEL 3
REMARK VINA RESULT:    -4.220     12.072     13.012
REMARK INTER + INTRA:          -6.984
REMARK INTER:                  -6.215
REMARK INTRA:                  -0.769
REMARK UNBOUND:                -0.789
REMARK SMILES O=C([O-])CCCCCCCC(=O)[O-]
REMARK SMILES IDX 7 1 6 2 5 3 4 4 2 5 1 6 3 7 8 8 9 9 10 10 11 11 12 12 13 13
REMARK H PARENT
REMARK Flexibility Score: inf
ROOT
ATOM      1  C   UNL     1      63.899  30.187  24.434  1.00  0.00     0.000 C 
ENDROOT
BRANCH   1   2
ATOM      2  C   UNL     1      64.444  29.026  23.589  1.00  0.00     0.000 C 
BRANCH   2   3
ATOM      3  C   UNL     1      65.605  28.290  24.276  1.00  0.00     0.006 C 
BRANCH   3   4
ATOM      4  C   UNL     1      65.120  26.994  24.931  1.00  0.00     0.053 C 
BRANCH   4   5
ATOM      5  C   UNL     1      64.727  25.995  23.889  1.00  0.00     0.041 C 
ATOM      6  O   UNL     1      65.562  25.621  23.024  1.00  0.00    -0.550 OA
ATOM      7  O   UNL     1      63.453  25.440  23.901  1.00  0.00    -0.550 OA
ENDBRANCH   4   5
ENDBRANCH   3   4
ENDBRANCH   2   3
ENDBRANCH   1   2
BRANCH   1   8
ATOM      8  C   UNL     1      62.446  29.957  24.888  1.00  0.00     0.000 C 
BRANCH   8   9
ATOM      9  C   UNL     1      61.856  28.643  24.345  1.00  0.00     0.006 C 
BRANCH   9  10
ATOM     10  C   UNL     1      60.821  27.985  25.271  1.00  0.00     0.053 C 
BRANCH  10  11
ATOM     11  C   UNL     1      61.376  27.733  26.640  1.00  0.00     0.041 C 
ATOM     12  O   UNL     1      62.166  26.773  26.837  1.00  0.00    -0.550 OA
ATOM     13  O   UNL     1      60.994  28.539  27.705  1.00  0.00    -0.550 OA
ENDBRANCH  10  11
ENDBRANCH   9  10
ENDBRANCH   8   9
ENDBRANCH   1   8
TORSDOF 8
ENDMDL
MODEL 4
REMARK VINA RESULT:    -4.219     12.684     13.536
REMARK INTER + INTRA:          -6.982
REMARK INTER:                  -6.355
REMARK INTRA:                  -0.627
REMARK UNBOUND:                -0.789
REMARK SMILES O=C([O-])CCCCCCCC(=O)[O-]
REMARK SMILES IDX 7 1 6 2 5 3 4 4 2 5 1 6 3 7 8 8 9 9 10 10 11 11 12 12 13 13
REMARK H PARENT
REMARK Flexibility Score: inf
ROOT
ATOM      1  C   UNL     1      60.670  27.387  25.683  1.00  0.00     0.000 C 
ENDROOT
BRANCH   1   2
ATOM      2  C   UNL     1      61.244  27.295  27.105  1.00  0.00     0.000 C 
BRANCH   2   3
ATOM      3  C   UNL     1      61.229  28.646  27.836  1.00  0.00     0.006 C 
BRANCH   3   4
ATOM      4  C   UNL     1      62.630  29.016  28.330  1.00  0.00     0.053 C 
BRANCH   4   5
ATOM      5  C   UNL     1      62.964  30.425  27.953  1.00  0.00     0.041 C 
ATOM      6  O   UNL     1      62.946  31.336  28.823  1.00  0.00    -0.550 OA
ATOM      7  O   UNL     1      63.343  30.726  26.650  1.00  0.00    -0.550 OA
ENDBRANCH   4   5
ENDBRANCH   3   4
ENDBRANCH   2   3
ENDBRANCH   1   2
BRANCH   1   8
ATOM      8  C   UNL     1      61.201  28.608  24.910  1.00  0.00     0.000 C 
BRANCH   8   9
ATOM      9  C   UNL     1      62.248  28.228  23.847  1.00  0.00     0.006 C 
BRANCH   9  10
ATOM     10  C   UNL     1      63.589  27.750  24.424  1.00  0.00     0.053 C 
BRANCH  10  11
ATOM     11  C   UNL     1      64.064  26.490  23.766  1.00  0.00     0.041 C 
ATOM     12  O   UNL     1      65.082  26.507  23.025  1.00  0.00    -0.550 OA
ATOM     13  O   UNL     1      63.363  25.305  23.947  1.00  0.00    -0.550 OA
ENDBRANCH  10  11
ENDBRANCH   9  10
ENDBRANCH   8   9
ENDBRANCH   1   8
TORSDOF 8
ENDMDL
MODEL 5
REMARK VINA RESULT:    -4.207     12.638     13.481
REMARK INTER + INTRA:          -6.964
REMARK INTER:                  -6.173
REMARK INTRA:                  -0.791
REMARK UNBOUND:                -0.789
REMARK SMILES O=C([O-])CCCCCCCC(=O)[O-]
REMARK SMILES IDX 7 1 6 2 5 3 4 4 2 5 1 6 3 7 8 8 9 9 10 10 11 11 12 12 13 13
REMARK H PARENT
REMARK Flexibility Score: inf
ROOT
ATOM      1  C   UNL     1      63.458  29.959  26.606  1.00  0.00     0.000 C 
ENDROOT
BRANCH   1   2
ATOM      2  C   UNL     1      64.780  29.418  26.036  1.00  0.00     0.000 C 
BRANCH   2   3
ATOM      3  C   UNL     1      64.563  28.437  24.874  1.00  0.00     0.006 C 
BRANCH   3   4
ATOM      4  C   UNL     1      64.791  26.993  25.327  1.00  0.00     0.053 C 
BRANCH   4   5
ATOM      5  C   UNL     1      64.584  26.046  24.187  1.00  0.00     0.041 C 
ATOM      6  O   UNL     1      65.554  25.714  23.456  1.00  0.00    -0.550 OA
ATOM      7  O   UNL     1      63.330  25.492  23.961  1.00  0.00    -0.550 OA
ENDBRANCH   4   5
ENDBRANCH   3   4
ENDBRANCH   2   3
ENDBRANCH   1   2
BRANCH   1   8
ATOM      8  C   UNL     1      62.903  29.083  27.744  1.00  0.00     0.000 C 
BRANCH   8   9
ATOM      9  C   UNL     1      61.454  28.630  27.490  1.00  0.00     0.006 C 
BRANCH   9  10
ATOM     10  C   UNL     1      61.331  27.278  26.770  1.00  0.00     0.053 C 
BRANCH  10  11
ATOM     11  C   UNL     1      60.630  27.407  25.453  1.00  0.00     0.041 C 
ATOM     12  O   UNL     1      61.044  28.228  24.592  1.00  0.00    -0.550 OA
ATOM     13  O   UNL     1      59.500  26.644  25.189  1.00  0.00    -0.550 OA
ENDBRANCH  10  11
ENDBRANCH   9  10
ENDBRANCH   8   9
ENDBRANCH   1   8
TORSDOF 8
ENDMDL
MODEL 6
REMARK VINA RESULT:    -4.207      1.123      1.522
REMARK INTER + INTRA:          -6.964
REMARK INTER:                  -6.200
REMARK INTRA:                  -0.763
REMARK UNBOUND:                -0.789
REMARK SMILES O=C([O-])CCCCCCCC(=O)[O-]
REMARK SMILES IDX 7 1 6 2 5 3 4 4 2 5 1 6 3 7 8 8 9 9 10 10 11 11 12 12 13 13
REMARK H PARENT
REMARK Flexibility Score: inf
ROOT
ATOM      1  C   UNL     1      62.997  29.992  13.490  1.00  0.00     0.000 C 
ENDROOT
BRANCH   1   2
ATOM      2  C   UNL     1      62.901  31.071  12.400  1.00  0.00     0.000 C 
BRANCH   2   3
ATOM      3  C   UNL     1      62.446  32.430  12.953  1.00  0.00     0.006 C 
BRANCH   3   4
ATOM      4  C   UNL     1      60.935  32.442  13.198  1.00  0.00     0.053 C 
BRANCH   4   5
ATOM      5  C   UNL     1      60.640  32.701  14.642  1.00  0.00     0.041 C 
ATOM      6  O   UNL     1      60.394  31.743  15.421  1.00  0.00    -0.550 OA
ATOM      7  O   UNL     1      60.686  33.998  15.140  1.00  0.00    -0.550 OA
ENDBRANCH   4   5
ENDBRANCH   3   4
ENDBRANCH   2   3
ENDBRANCH   1   2
BRANCH   1   8
ATOM      8  C   UNL     1      62.297  28.681  13.088  1.00  0.00     0.000 C 
BRANCH   8   9
ATOM      9  C   UNL     1      60.795  28.683  13.426  1.00  0.00     0.006 C 
BRANCH   9  10
ATOM     10  C   UNL     1      59.889  28.206  12.280  1.00  0.00     0.053 C 
BRANCH  10  11
ATOM     11  C   UNL     1      60.230  28.874  10.982  1.00  0.00     0.041 C 
ATOM     12  O   UNL     1      59.876  30.063  10.769  1.00  0.00    -0.550 OA
ATOM     13  O   UNL     1      60.911  28.171   9.997  1.00  0.00    -0.550 OA
ENDBRANCH  10  11
ENDBRANCH   9  10
ENDBRANCH   8   9
ENDBRANCH   1   8
TORSDOF 8
ENDMDL
MODEL 7
REMARK VINA RESULT:    -4.189     12.573     13.254
REMARK INTER + INTRA:          -6.937
REMARK INTER:                  -6.217
REMARK INTRA:                  -0.720
REMARK UNBOUND:                -0.789
REMARK SMILES O=C([O-])CCCCCCCC(=O)[O-]
REMARK SMILES IDX 7 1 6 2 5 3 4 4 2 5 1 6 3 7 8 8 9 9 10 10 11 11 12 12 13 13
REMARK H PARENT
REMARK Flexibility Score: inf
ROOT
ATOM      1  C   UNL     1      63.052  29.250  24.579  1.00  0.00     0.000 C 
ENDROOT
BRANCH   1   2
ATOM      2  C   UNL     1      61.803  28.419  24.245  1.00  0.00     0.000 C 
BRANCH   2   3
ATOM      3  C   UNL     1      60.933  28.140  25.481  1.00  0.00     0.006 C 
BRANCH   3   4
ATOM      4  C   UNL     1      61.600  27.110  26.397  1.00  0.00     0.053 C 
BRANCH   4   5
ATOM      5  C   UNL     1      61.597  27.591  27.814  1.00  0.00     0.041 C 
ATOM      6  O   UNL     1      60.736  27.163  28.627  1.00  0.00    -0.550 OA
ATOM      7  O   UNL     1      62.577  28.474  28.252  1.00  0.00    -0.550 OA
ENDBRANCH   4   5
ENDBRANCH   3   4
ENDBRANCH   2   3
ENDBRANCH   1   2
BRANCH   1   8
ATOM      8  C   UNL     1      64.332  28.675  23.946  1.00  0.00     0.000 C 
BRANCH   8   9
ATOM      9  C   UNL     1      65.234  27.964  24.972  1.00  0.00     0.006 C 
BRANCH   9  10
ATOM     10  C   UNL     1      64.919  26.472  25.163  1.00  0.00     0.053 C 
BRANCH  10  11
ATOM     11  C   UNL     1      64.701  25.775  23.855  1.00  0.00     0.041 C 
ATOM     12  O   UNL     1      65.650  25.650  23.037  1.00  0.00    -0.550 OA
ATOM     13  O   UNL     1      63.441  25.291  23.526  1.00  0.00    -0.550 OA
ENDBRANCH  10  11
ENDBRANCH   9  10
ENDBRANCH   8   9
ENDBRANCH   1   8
TORSDOF 8
ENDMDL
MODEL 8
REMARK VINA RESULT:    -4.173      2.348      4.210
REMARK INTER + INTRA:          -6.915
REMARK INTER:                  -6.113
REMARK INTRA:                  -0.801
REMARK UNBOUND:                -0.789
REMARK SMILES O=C([O-])CCCCCCCC(=O)[O-]
REMARK SMILES IDX 7 1 6 2 5 3 4 4 2 5 1 6 3 7 8 8 9 9 10 10 11 11 12 12 13 13
REMARK H PARENT
REMARK Flexibility Score: inf
ROOT
ATOM      1  C   UNL     1      63.452  29.013   9.844  1.00  0.00     0.000 C 
ENDROOT
BRANCH   1   2
ATOM      2  C   UNL     1      62.182  29.182   8.994  1.00  0.00     0.000 C 
BRANCH   2   3
ATOM      3  C   UNL     1      61.065  28.210   9.404  1.00  0.00     0.006 C 
BRANCH   3   4
ATOM      4  C   UNL     1      59.767  28.965   9.702  1.00  0.00     0.053 C 
BRANCH   4   5
ATOM      5  C   UNL     1      59.705  29.352  11.147  1.00  0.00     0.041 C 
ATOM      6  O   UNL     1      60.052  30.507  11.509  1.00  0.00    -0.550 OA
ATOM      7  O   UNL     1      59.218  28.453  12.088  1.00  0.00    -0.550 OA
ENDBRANCH   4   5
ENDBRANCH   3   4
ENDBRANCH   2   3
ENDBRANCH   1   2
BRANCH   1   8
ATOM      8  C   UNL     1      63.686  30.199  10.797  1.00  0.00     0.000 C 
BRANCH   8   9
ATOM      9  C   UNL     1      64.041  29.749  12.226  1.00  0.00     0.006 C 
BRANCH   9  10
ATOM     10  C   UNL     1      62.910  29.006  12.954  1.00  0.00     0.053 C 
BRANCH  10  11
ATOM     11  C   UNL     1      62.345  29.813  14.082  1.00  0.00     0.041 C 
ATOM     12  O   UNL     1      61.249  29.486  14.610  1.00  0.00    -0.550 OA
ATOM     13  O   UNL     1      63.013  30.946  14.529  1.00  0.00    -0.550 OA
ENDBRANCH  10  11
ENDBRANCH   9  10
ENDBRANCH   8   9
ENDBRANCH   1   8
TORSDOF 8
ENDMDL
MODEL 9
REMARK VINA RESULT:    -4.155     12.497     13.583
REMARK INTER + INTRA:          -6.888
REMARK INTER:                  -6.155
REMARK INTRA:                  -0.733
REMARK UNBOUND:                -0.789
REMARK SMILES O=C([O-])CCCCCCCC(=O)[O-]
REMARK SMILES IDX 7 1 6 2 5 3 4 4 2 5 1 6 3 7 8 8 9 9 10 10 11 11 12 12 13 13
REMARK H PARENT
REMARK Flexibility Score: inf
ROOT
ATOM      1  C   UNL     1      62.660  27.891  24.066  1.00  0.00     0.000 C 
ENDROOT
BRANCH   1   2
ATOM      2  C   UNL     1      62.998  26.497  24.620  1.00  0.00     0.000 C 
BRANCH   2   3
ATOM      3  C   UNL     1      64.489  26.342  24.957  1.00  0.00     0.006 C 
BRANCH   3   4
ATOM      4  C   UNL     1      65.329  27.383  24.211  1.00  0.00     0.053 C 
BRANCH   4   5
ATOM      5  C   UNL     1      65.982  26.768  23.013  1.00  0.00     0.041 C 
ATOM      6  O   UNL     1      65.826  25.544  22.765  1.00  0.00    -0.550 OA
ATOM      7  O   UNL     1      66.722  27.558  22.142  1.00  0.00    -0.550 OA
ENDBRANCH   4   5
ENDBRANCH   3   4
ENDBRANCH   2   3
ENDBRANCH   1   2
BRANCH   1   8
ATOM      8  C   UNL     1      61.678  28.663  24.965  1.00  0.00     0.000 C 
BRANCH   8   9
ATOM      9  C   UNL     1      62.380  29.715  25.843  1.00  0.00     0.006 C 
BRANCH   9  10
ATOM     10  C   UNL     1      62.914  29.171  27.177  1.00  0.00     0.053 C 
BRANCH  10  11
ATOM     11  C   UNL     1      61.885  28.360  27.903  1.00  0.00     0.041 C 
ATOM     12  O   UNL     1      60.907  28.927  28.458  1.00  0.00    -0.550 OA
ATOM     13  O   UNL     1      62.024  26.981  27.995  1.00  0.00    -0.550 OA
ENDBRANCH  10  11
ENDBRANCH   9  10
ENDBRANCH   8   9
ENDBRANCH   1   8
TORSDOF 8
ENDMDL
