MODEL 1
REMARK VINA RESULT:    -4.141      0.000      0.000
REMARK INTER + INTRA:          -4.262
REMARK INTER:                  -4.262
REMARK INTRA:                   0.000
REMARK UNBOUND:                 0.000
REMARK SMILES Cc1cccc(O)c1C
REMARK SMILES IDX 1 1 2 2 8 3 6 4 5 5 4 6 3 7 9 8 7 9
REMARK H PARENT 7 10
REMARK Flexibility Score: inf
ROOT
ATOM      1  C   UNL     1     160.936 161.894 183.938  1.00  0.00     0.045 C 
ATOM      2  C   UNL     1     161.196 161.385 182.543  1.00  0.00    -0.045 A 
ATOM      3  C   UNL     1     162.512 161.145 182.059  1.00  0.00    -0.006 A 
ATOM      4  C   UNL     1     162.682 160.668 180.735  1.00  0.00     0.118 A 
ATOM      5  C   UNL     1     161.566 160.438 179.924  1.00  0.00     0.046 A 
ATOM      6  C   UNL     1     160.281 160.674 180.404  1.00  0.00     0.004 A 
ATOM      7  C   UNL     1     160.096 161.144 181.702  1.00  0.00     0.004 A 
ATOM      8  C   UNL     1     163.733 161.387 182.917  1.00  0.00     0.048 C 
ENDROOT
BRANCH   4   9
ATOM      9  O   UNL     1     163.944 160.409 180.192  1.00  0.00    -0.508 OA
ATOM     10  H   UNL     1     164.667 159.899 180.681  1.00  0.00     0.293 HD
ENDBRANCH   4   9
TORSDOF 1
ENDMDL
MODEL 2
REMARK VINA RESULT:    -4.128      2.480      3.512
REMARK INTER + INTRA:          -4.249
REMARK INTER:                  -4.249
REMARK INTRA:                   0.000
REMARK UNBOUND:                 0.000
REMARK SMILES Cc1cccc(O)c1C
REMARK SMILES IDX 1 1 2 2 8 3 6 4 5 5 4 6 3 7 9 8 7 9
REMARK H PARENT 7 10
REMARK Flexibility Score: inf
ROOT
ATOM      1  C   UNL     1     160.245 160.421 182.977  1.00  0.00     0.045 C 
ATOM      2  C   UNL     1     160.345 161.773 182.316  1.00  0.00    -0.045 A 
ATOM      3  C   UNL     1     160.248 161.933 180.906  1.00  0.00    -0.006 A 
ATOM      4  C   UNL     1     160.352 163.235 180.353  1.00  0.00     0.118 A 
ATOM      5  C   UNL     1     160.546 164.338 181.190  1.00  0.00     0.046 A 
ATOM      6  C   UNL     1     160.639 164.174 182.568  1.00  0.00     0.004 A 
ATOM      7  C   UNL     1     160.540 162.903 183.129  1.00  0.00     0.004 A 
ATOM      8  C   UNL     1     160.039 160.755 179.982  1.00  0.00     0.048 C 
ENDROOT
BRANCH   4   9
ATOM      9  O   UNL     1     160.266 163.469 178.978  1.00  0.00    -0.508 OA
ATOM     10  H   UNL     1     159.625 164.133 178.565  1.00  0.00     0.293 HD
ENDBRANCH   4   9
TORSDOF 1
ENDMDL
MODEL 3
REMARK VINA RESULT:    -4.018      1.620      2.978
REMARK INTER + INTRA:          -4.135
REMARK INTER:                  -4.135
REMARK INTRA:                   0.000
REMARK UNBOUND:                 0.000
REMARK SMILES Cc1cccc(O)c1C
REMARK SMILES IDX 1 1 2 2 8 3 6 4 5 5 4 6 3 7 9 8 7 9
REMARK H PARENT 7 10
REMARK Flexibility Score: inf
ROOT
ATOM      1  C   UNL     1     164.351 160.828 181.927  1.00  0.00     0.045 C 
ATOM      2  C   UNL     1     162.852 160.991 181.914  1.00  0.00    -0.045 A 
ATOM      3  C   UNL     1     162.095 160.922 180.710  1.00  0.00    -0.006 A 
ATOM      4  C   UNL     1     160.688 161.085 180.773  1.00  0.00     0.118 A 
ATOM      5  C   UNL     1     160.062 161.310 182.002  1.00  0.00     0.046 A 
ATOM      6  C   UNL     1     160.809 161.377 183.175  1.00  0.00     0.004 A 
ATOM      7  C   UNL     1     162.192 161.219 183.133  1.00  0.00     0.004 A 
ATOM      8  C   UNL     1     162.751 160.679 179.369  1.00  0.00     0.048 C 
ENDROOT
BRANCH   4   9
ATOM      9  O   UNL     1     159.881 161.029 179.633  1.00  0.00    -0.508 OA
ATOM     10  H   UNL     1     158.898 161.269 179.634  1.00  0.00     0.293 HD
ENDBRANCH   4   9
TORSDOF 1
ENDMDL
MODEL 4
REMARK VINA RESULT:    -3.989      2.306      3.247
REMARK INTER + INTRA:          -4.106
REMARK INTER:                  -4.106
REMARK INTRA:                   0.000
REMARK UNBOUND:                 0.000
REMARK SMILES Cc1cccc(O)c1C
REMARK SMILES IDX 1 1 2 2 8 3 6 4 5 5 4 6 3 7 9 8 7 9
REMARK H PARENT 7 10
REMARK Flexibility Score: inf
ROOT
ATOM      1  C   UNL     1     161.369 164.864 182.131  1.00  0.00     0.045 C 
ATOM      2  C   UNL     1     160.961 163.413 182.125  1.00  0.00    -0.045 A 
ATOM      3  C   UNL     1     160.608 162.733 180.925  1.00  0.00    -0.006 A 
ATOM      4  C   UNL     1     160.233 161.367 180.995  1.00  0.00     0.118 A 
ATOM      5  C   UNL     1     160.215 160.707 182.227  1.00  0.00     0.046 A 
ATOM      6  C   UNL     1     160.562 161.378 183.395  1.00  0.00     0.004 A 
ATOM      7  C   UNL     1     160.932 162.720 183.347  1.00  0.00     0.004 A 
ATOM      8  C   UNL     1     160.621 163.427 179.582  1.00  0.00     0.048 C 
ENDROOT
BRANCH   4   9
ATOM      9  O   UNL     1     159.875 160.635 179.860  1.00  0.00    -0.508 OA
ATOM     10  H   UNL     1     160.380 160.681 178.984  1.00  0.00     0.293 HD
ENDBRANCH   4   9
TORSDOF 1
ENDMDL
MODEL 5
REMARK VINA RESULT:    -3.925      2.586      3.276
REMARK INTER + INTRA:          -4.040
REMARK INTER:                  -4.040
REMARK INTRA:                   0.000
REMARK UNBOUND:                 0.000
REMARK SMILES Cc1cccc(O)c1C
REMARK SMILES IDX 1 1 2 2 8 3 6 4 5 5 4 6 3 7 9 8 7 9
REMARK H PARENT 7 10
REMARK Flexibility Score: inf
ROOT
ATOM      1  C   UNL     1     161.017 163.424 179.488  1.00  0.00     0.045 C 
ATOM      2  C   UNL     1     160.628 162.292 180.405  1.00  0.00    -0.045 A 
ATOM      3  C   UNL     1     160.639 162.429 181.822  1.00  0.00    -0.006 A 
ATOM      4  C   UNL     1     160.261 161.322 182.622  1.00  0.00     0.118 A 
ATOM      5  C   UNL     1     159.884 160.117 182.020  1.00  0.00     0.046 A 
ATOM      6  C   UNL     1     159.875 159.991 180.634  1.00  0.00     0.004 A 
ATOM      7  C   UNL     1     160.244 161.068 179.832  1.00  0.00     0.004 A 
ATOM      8  C   UNL     1     161.043 163.722 182.494  1.00  0.00     0.048 C 
ENDROOT
BRANCH   4   9
ATOM      9  O   UNL     1     160.248 161.382 184.018  1.00  0.00    -0.508 OA
ATOM     10  H   UNL     1     161.080 161.303 184.588  1.00  0.00     0.293 HD
ENDBRANCH   4   9
TORSDOF 1
ENDMDL
MODEL 6
REMARK VINA RESULT:    -3.798      0.929      2.605
REMARK INTER + INTRA:          -3.909
REMARK INTER:                  -3.909
REMARK INTRA:                   0.000
REMARK UNBOUND:                 0.000
REMARK SMILES Cc1cccc(O)c1C
REMARK SMILES IDX 1 1 2 2 8 3 6 4 5 5 4 6 3 7 9 8 7 9
REMARK H PARENT 7 10
REMARK Flexibility Score: inf
ROOT
ATOM      1  C   UNL     1     160.618 161.898 183.625  1.00  0.00     0.045 C 
ATOM      2  C   UNL     1     161.802 161.577 182.749  1.00  0.00    -0.045 A 
ATOM      3  C   UNL     1     161.651 161.004 181.455  1.00  0.00    -0.006 A 
ATOM      4  C   UNL     1     162.810 160.728 180.685  1.00  0.00     0.118 A 
ATOM      5  C   UNL     1     164.077 161.018 181.199  1.00  0.00     0.046 A 
ATOM      6  C   UNL     1     164.218 161.579 182.465  1.00  0.00     0.004 A 
ATOM      7  C   UNL     1     163.091 161.856 183.235  1.00  0.00     0.004 A 
ATOM      8  C   UNL     1     160.290 160.682 180.880  1.00  0.00     0.048 C 
ENDROOT
BRANCH   4   9
ATOM      9  O   UNL     1     162.738 160.167 179.407  1.00  0.00    -0.508 OA
ATOM     10  H   UNL     1     161.886 160.123 178.865  1.00  0.00     0.293 HD
ENDBRANCH   4   9
TORSDOF 1
ENDMDL
MODEL 7
REMARK VINA RESULT:    -3.759      1.232      2.750
REMARK INTER + INTRA:          -3.869
REMARK INTER:                  -3.869
REMARK INTRA:                   0.000
REMARK UNBOUND:                 0.000
REMARK SMILES Cc1cccc(O)c1C
REMARK SMILES IDX 1 1 2 2 8 3 6 4 5 5 4 6 3 7 9 8 7 9
REMARK H PARENT 7 10
REMARK Flexibility Score: inf
ROOT
ATOM      1  C   UNL     1     159.875 160.062 180.630  1.00  0.00     0.045 C 
ATOM      2  C   UNL     1     160.768 160.890 181.519  1.00  0.00    -0.045 A 
ATOM      3  C   UNL     1     162.110 161.201 181.161  1.00  0.00    -0.006 A 
ATOM      4  C   UNL     1     162.893 161.985 182.047  1.00  0.00     0.118 A 
ATOM      5  C   UNL     1     162.347 162.440 183.250  1.00  0.00     0.046 A 
ATOM      6  C   UNL     1     161.034 162.132 183.593  1.00  0.00     0.004 A 
ATOM      7  C   UNL     1     160.249 161.363 182.736  1.00  0.00     0.004 A 
ATOM      8  C   UNL     1     162.722 160.719 179.865  1.00  0.00     0.048 C 
ENDROOT
BRANCH   4   9
ATOM      9  O   UNL     1     164.217 162.330 181.762  1.00  0.00    -0.508 OA
ATOM     10  H   UNL     1     164.923 162.467 182.474  1.00  0.00     0.293 HD
ENDBRANCH   4   9
TORSDOF 1
ENDMDL
MODEL 8
REMARK VINA RESULT:    -3.734      2.428      3.684
REMARK INTER + INTRA:          -3.843
REMARK INTER:                  -3.843
REMARK INTRA:                   0.000
REMARK UNBOUND:                 0.000
REMARK SMILES Cc1cccc(O)c1C
REMARK SMILES IDX 1 1 2 2 8 3 6 4 5 5 4 6 3 7 9 8 7 9
REMARK H PARENT 7 10
REMARK Flexibility Score: inf
ROOT
ATOM      1  C   UNL     1     159.875 160.245 180.335  1.00  0.00     0.045 C 
ATOM      2  C   UNL     1     160.324 161.298 181.316  1.00  0.00    -0.045 A 
ATOM      3  C   UNL     1     160.679 162.613 180.903  1.00  0.00    -0.006 A 
ATOM      4  C   UNL     1     161.093 163.552 181.882  1.00  0.00     0.118 A 
ATOM      5  C   UNL     1     161.147 163.183 183.229  1.00  0.00     0.046 A 
ATOM      6  C   UNL     1     160.797 161.896 183.625  1.00  0.00     0.004 A 
ATOM      7  C   UNL     1     160.389 160.959 182.678  1.00  0.00     0.004 A 
ATOM      8  C   UNL     1     160.629 163.033 179.452  1.00  0.00     0.048 C 
ENDROOT
BRANCH   4   9
ATOM      9  O   UNL     1     161.457 164.860 181.551  1.00  0.00    -0.508 OA
ATOM     10  H   UNL     1     162.263 165.088 180.984  1.00  0.00     0.293 HD
ENDBRANCH   4   9
TORSDOF 1
ENDMDL
