MODEL 1
REMARK VINA RESULT:    -6.892      0.000      0.000
REMARK INTER + INTRA:          -9.444
REMARK INTER:                  -8.705
REMARK INTRA:                  -0.739
REMARK UNBOUND:                -0.739
REMARK SMILES O=C(C=Cc1ccc(O)cc1)c1ccc(O)cc1O
REMARK SMILES IDX 4 1 3 2 5 3 6 4 7 5 8 6 11 7 10 8 9 9 2 11 1 12 12 13 18 14
REMARK SMILES IDX 13 15 17 16 14 17 15 18 19 19 16 21
REMARK H PARENT 9 10 19 20 16 22
REMARK Flexibility Score: inf
ROOT
ATOM      1  C   UNL     1     -17.749  32.129 -24.514  1.00  0.00     0.012 C 
ATOM      2  C   UNL     1     -17.531  32.351 -23.209  1.00  0.00     0.053 C 
ENDROOT
BRANCH   1   3
ATOM      3  C   UNL     1     -17.481  30.833 -25.182  1.00  0.00    -0.025 A 
ATOM      4  C   UNL     1     -17.769  30.608 -26.543  1.00  0.00     0.012 A 
ATOM      5  C   UNL     1     -17.511  29.363 -27.125  1.00  0.00     0.047 A 
ATOM      6  C   UNL     1     -16.974  28.323 -26.356  1.00  0.00     0.115 A 
ATOM      7  C   UNL     1     -16.957  29.777 -24.416  1.00  0.00     0.012 A 
ATOM      8  C   UNL     1     -16.701  28.534 -25.003  1.00  0.00     0.047 A 
BRANCH   6   9
ATOM      9  O   UNL     1     -16.713  27.080 -26.927  1.00  0.00    -0.508 OA
ATOM     10  H   UNL     1     -17.334  26.292 -26.788  1.00  0.00     0.293 HD
ENDBRANCH   6   9
ENDBRANCH   1   3
BRANCH   2  11
ATOM     11  C   UNL     1     -17.833  33.643 -22.556  1.00  0.00     0.189 C 
ATOM     12  O   UNL     1     -16.916  34.203 -21.897  1.00  0.00    -0.289 OA
BRANCH  11  13
ATOM     13  C   UNL     1     -19.150  34.315 -22.669  1.00  0.00     0.064 A 
ATOM     14  C   UNL     1     -19.242  35.656 -23.093  1.00  0.00     0.130 A 
ATOM     15  C   UNL     1     -20.332  33.602 -22.391  1.00  0.00     0.020 A 
ATOM     16  C   UNL     1     -20.500  36.266 -23.219  1.00  0.00     0.093 A 
ATOM     17  C   UNL     1     -21.578  34.218 -22.516  1.00  0.00     0.047 A 
ATOM     18  C   UNL     1     -21.666  35.552 -22.930  1.00  0.00     0.119 A 
BRANCH  14  19
ATOM     19  O   UNL     1     -18.088  36.386 -23.377  1.00  0.00    -0.507 OA
ATOM     20  H   UNL     1     -17.862  37.240 -22.880  1.00  0.00     0.293 HD
ENDBRANCH  14  19
BRANCH  18  21
ATOM     21  O   UNL     1     -22.904  36.175 -23.058  1.00  0.00    -0.508 OA
ATOM     22  H   UNL     1     -23.031  36.988 -23.651  1.00  0.00     0.293 HD
ENDBRANCH  18  21
ENDBRANCH  11  13
ENDBRANCH   2  11
TORSDOF 6
ENDMDL
MODEL 2
REMARK VINA RESULT:    -6.803      3.146      4.272
REMARK INTER + INTRA:          -9.332
REMARK INTER:                  -8.859
REMARK INTRA:                  -0.473
REMARK UNBOUND:                -0.739
REMARK SMILES O=C(C=Cc1ccc(O)cc1)c1ccc(O)cc1O
REMARK SMILES IDX 4 1 3 2 5 3 6 4 7 5 8 6 11 7 10 8 9 9 2 11 1 12 12 13 18 14
REMARK SMILES IDX 13 15 17 16 14 17 15 18 19 19 16 21
REMARK H PARENT 9 10 19 20 16 22
REMARK Flexibility Score: inf
ROOT
ATOM      1  C   UNL     1     -19.399  31.175 -21.473  1.00  0.00     0.012 C 
ATOM      2  C   UNL     1     -20.515  31.207 -22.216  1.00  0.00     0.053 C 
ENDROOT
BRANCH   1   3
ATOM      3  C   UNL     1     -18.060  30.845 -22.019  1.00  0.00    -0.025 A 
ATOM      4  C   UNL     1     -17.280  29.781 -21.522  1.00  0.00     0.012 A 
ATOM      5  C   UNL     1     -16.018  29.517 -22.061  1.00  0.00     0.047 A 
ATOM      6  C   UNL     1     -15.510  30.317 -23.092  1.00  0.00     0.115 A 
ATOM      7  C   UNL     1     -17.533  31.651 -23.043  1.00  0.00     0.012 A 
ATOM      8  C   UNL     1     -16.270  31.383 -23.579  1.00  0.00     0.047 A 
BRANCH   6   9
ATOM      9  O   UNL     1     -14.253  30.062 -23.636  1.00  0.00    -0.508 OA
ATOM     10  H   UNL     1     -13.511  30.752 -23.601  1.00  0.00     0.293 HD
ENDBRANCH   6   9
ENDBRANCH   1   3
BRANCH   2  11
ATOM     11  C   UNL     1     -21.836  31.567 -21.657  1.00  0.00     0.189 C 
ATOM     12  O   UNL     1     -22.504  30.665 -21.085  1.00  0.00    -0.289 OA
BRANCH  11  13
ATOM     13  C   UNL     1     -22.390  32.942 -21.719  1.00  0.00     0.064 A 
ATOM     14  C   UNL     1     -23.433  33.338 -20.857  1.00  0.00     0.130 A 
ATOM     15  C   UNL     1     -21.846  33.882 -22.614  1.00  0.00     0.020 A 
ATOM     16  C   UNL     1     -23.925  34.652 -20.912  1.00  0.00     0.093 A 
ATOM     17  C   UNL     1     -22.345  35.185 -22.663  1.00  0.00     0.047 A 
ATOM     18  C   UNL     1     -23.386  35.573 -21.813  1.00  0.00     0.119 A 
BRANCH  14  19
ATOM     19  O   UNL     1     -23.989  32.428 -19.959  1.00  0.00    -0.507 OA
ATOM     20  H   UNL     1     -24.178  32.679 -18.995  1.00  0.00     0.293 HD
ENDBRANCH  14  19
BRANCH  18  21
ATOM     21  O   UNL     1     -23.889  36.871 -21.853  1.00  0.00    -0.508 OA
ATOM     22  H   UNL     1     -23.820  37.441 -22.688  1.00  0.00     0.293 HD
ENDBRANCH  18  21
ENDBRANCH  11  13
ENDBRANCH   2  11
TORSDOF 6
ENDMDL
MODEL 3
REMARK VINA RESULT:    -6.499      1.694      2.734
REMARK INTER + INTRA:          -8.947
REMARK INTER:                  -8.227
REMARK INTRA:                  -0.721
REMARK UNBOUND:                -0.739
REMARK SMILES O=C(C=Cc1ccc(O)cc1)c1ccc(O)cc1O
REMARK SMILES IDX 4 1 3 2 5 3 6 4 7 5 8 6 11 7 10 8 9 9 2 11 1 12 12 13 18 14
REMARK SMILES IDX 13 15 17 16 14 17 15 18 19 19 16 21
REMARK H PARENT 9 10 19 20 16 22
REMARK Flexibility Score: inf
ROOT
ATOM      1  C   UNL     1     -18.140  31.636 -24.794  1.00  0.00     0.012 C 
ATOM      2  C   UNL     1     -19.341  31.932 -24.276  1.00  0.00     0.053 C 
ENDROOT
BRANCH   1   3
ATOM      3  C   UNL     1     -17.785  30.301 -25.334  1.00  0.00    -0.025 A 
ATOM      4  C   UNL     1     -17.337  30.113 -26.657  1.00  0.00     0.012 A 
ATOM      5  C   UNL     1     -17.028  28.833 -27.125  1.00  0.00     0.047 A 
ATOM      6  C   UNL     1     -17.172  27.722 -26.285  1.00  0.00     0.115 A 
ATOM      7  C   UNL     1     -17.940  29.177 -24.505  1.00  0.00     0.012 A 
ATOM      8  C   UNL     1     -17.630  27.898 -24.977  1.00  0.00     0.047 A 
BRANCH   6   9
ATOM      9  O   UNL     1     -16.865  26.442 -26.741  1.00  0.00    -0.508 OA
ATOM     10  H   UNL     1     -16.256  26.295 -27.538  1.00  0.00     0.293 HD
ENDBRANCH   6   9
ENDBRANCH   1   3
BRANCH   2  11
ATOM     11  C   UNL     1     -19.683  33.278 -23.769  1.00  0.00     0.189 C 
ATOM     12  O   UNL     1     -20.731  33.827 -24.205  1.00  0.00    -0.289 OA
BRANCH  11  13
ATOM     13  C   UNL     1     -18.865  33.990 -22.757  1.00  0.00     0.064 A 
ATOM     14  C   UNL     1     -18.486  35.335 -22.953  1.00  0.00     0.130 A 
ATOM     15  C   UNL     1     -18.494  33.340 -21.566  1.00  0.00     0.020 A 
ATOM     16  C   UNL     1     -17.735  35.999 -21.971  1.00  0.00     0.093 A 
ATOM     17  C   UNL     1     -17.744  34.009 -20.597  1.00  0.00     0.047 A 
ATOM     18  C   UNL     1     -17.362  35.340 -20.797  1.00  0.00     0.119 A 
BRANCH  14  19
ATOM     19  O   UNL     1     -18.843  36.004 -24.123  1.00  0.00    -0.507 OA
ATOM     20  H   UNL     1     -18.322  35.883 -24.984  1.00  0.00     0.293 HD
ENDBRANCH  14  19
BRANCH  18  21
ATOM     21  O   UNL     1     -16.615  36.017 -19.836  1.00  0.00    -0.508 OA
ATOM     22  H   UNL     1     -16.374  35.586 -18.951  1.00  0.00     0.293 HD
ENDBRANCH  18  21
ENDBRANCH  11  13
ENDBRANCH   2  11
TORSDOF 6
ENDMDL
MODEL 4
REMARK VINA RESULT:    -6.491      3.291      7.671
REMARK INTER + INTRA:          -8.938
REMARK INTER:                  -8.308
REMARK INTRA:                  -0.630
REMARK UNBOUND:                -0.739
REMARK SMILES O=C(C=Cc1ccc(O)cc1)c1ccc(O)cc1O
REMARK SMILES IDX 4 1 3 2 5 3 6 4 7 5 8 6 11 7 10 8 9 9 2 11 1 12 12 13 18 14
REMARK SMILES IDX 13 15 17 16 14 17 15 18 19 19 16 21
REMARK H PARENT 9 10 19 20 16 22
REMARK Flexibility Score: inf
ROOT
ATOM      1  C   UNL     1     -16.595  32.453 -23.099  1.00  0.00     0.012 C 
ATOM      2  C   UNL     1     -16.902  31.149 -23.171  1.00  0.00     0.053 C 
ENDROOT
BRANCH   1   3
ATOM      3  C   UNL     1     -17.608  33.536 -23.119  1.00  0.00    -0.025 A 
ATOM      4  C   UNL     1     -18.883  33.370 -23.696  1.00  0.00     0.012 A 
ATOM      5  C   UNL     1     -19.799  34.426 -23.703  1.00  0.00     0.047 A 
ATOM      6  C   UNL     1     -19.453  35.664 -23.145  1.00  0.00     0.115 A 
ATOM      7  C   UNL     1     -17.266  34.786 -22.576  1.00  0.00     0.012 A 
ATOM      8  C   UNL     1     -18.186  35.840 -22.585  1.00  0.00     0.047 A 
BRANCH   6   9
ATOM      9  O   UNL     1     -20.360  36.721 -23.146  1.00  0.00    -0.508 OA
ATOM     10  H   UNL     1     -20.088  37.651 -23.445  1.00  0.00     0.293 HD
ENDBRANCH   6   9
ENDBRANCH   1   3
BRANCH   2  11
ATOM     11  C   UNL     1     -15.878  30.083 -23.120  1.00  0.00     0.189 C 
ATOM     12  O   UNL     1     -14.928  30.132 -23.948  1.00  0.00    -0.289 OA
BRANCH  11  13
ATOM     13  C   UNL     1     -15.907  28.984 -22.124  1.00  0.00     0.064 A 
ATOM     14  C   UNL     1     -16.065  27.644 -22.533  1.00  0.00     0.130 A 
ATOM     15  C   UNL     1     -15.735  29.267 -20.756  1.00  0.00     0.020 A 
ATOM     16  C   UNL     1     -16.063  26.616 -21.578  1.00  0.00     0.093 A 
ATOM     17  C   UNL     1     -15.738  28.238 -19.813  1.00  0.00     0.047 A 
ATOM     18  C   UNL     1     -15.903  26.909 -20.222  1.00  0.00     0.119 A 
BRANCH  14  19
ATOM     19  O   UNL     1     -16.236  27.336 -23.883  1.00  0.00    -0.507 OA
ATOM     20  H   UNL     1     -15.983  27.990 -24.614  1.00  0.00     0.293 HD
ENDBRANCH  14  19
BRANCH  18  21
ATOM     21  O   UNL     1     -15.907  25.875 -19.289  1.00  0.00    -0.508 OA
ATOM     22  H   UNL     1     -16.771  25.503 -18.913  1.00  0.00     0.293 HD
ENDBRANCH  18  21
ENDBRANCH  11  13
ENDBRANCH   2  11
TORSDOF 6
ENDMDL
MODEL 5
REMARK VINA RESULT:    -6.468      1.952      2.601
REMARK INTER + INTRA:          -8.909
REMARK INTER:                  -8.241
REMARK INTRA:                  -0.668
REMARK UNBOUND:                -0.739
REMARK SMILES O=C(C=Cc1ccc(O)cc1)c1ccc(O)cc1O
REMARK SMILES IDX 4 1 3 2 5 3 6 4 7 5 8 6 11 7 10 8 9 9 2 11 1 12 12 13 18 14
REMARK SMILES IDX 13 15 17 16 14 17 15 18 19 19 16 21
REMARK H PARENT 9 10 19 20 16 22
REMARK Flexibility Score: inf
ROOT
ATOM      1  C   UNL     1     -18.657  32.013 -24.546  1.00  0.00     0.012 C 
ATOM      2  C   UNL     1     -18.319  32.945 -23.643  1.00  0.00     0.053 C 
ENDROOT
BRANCH   1   3
ATOM      3  C   UNL     1     -17.673  31.152 -25.246  1.00  0.00    -0.025 A 
ATOM      4  C   UNL     1     -17.926  30.586 -26.511  1.00  0.00     0.012 A 
ATOM      5  C   UNL     1     -16.971  29.770 -27.125  1.00  0.00     0.047 A 
ATOM      6  C   UNL     1     -15.757  29.499 -26.482  1.00  0.00     0.115 A 
ATOM      7  C   UNL     1     -16.457  30.861 -24.603  1.00  0.00     0.012 A 
ATOM      8  C   UNL     1     -15.505  30.045 -25.221  1.00  0.00     0.047 A 
BRANCH   6   9
ATOM      9  O   UNL     1     -14.799  28.688 -27.086  1.00  0.00    -0.508 OA
ATOM     10  H   UNL     1     -15.056  27.837 -27.573  1.00  0.00     0.293 HD
ENDBRANCH   6   9
ENDBRANCH   1   3
BRANCH   2  11
ATOM     11  C   UNL     1     -19.319  33.773 -22.935  1.00  0.00     0.189 C 
ATOM     12  O   UNL     1     -19.104  35.011 -22.838  1.00  0.00    -0.289 OA
BRANCH  11  13
ATOM     13  C   UNL     1     -20.569  33.214 -22.364  1.00  0.00     0.064 A 
ATOM     14  C   UNL     1     -21.813  33.831 -22.610  1.00  0.00     0.130 A 
ATOM     15  C   UNL     1     -20.529  32.031 -21.603  1.00  0.00     0.020 A 
ATOM     16  C   UNL     1     -22.988  33.271 -22.084  1.00  0.00     0.093 A 
ATOM     17  C   UNL     1     -21.703  31.484 -21.080  1.00  0.00     0.047 A 
ATOM     18  C   UNL     1     -22.935  32.103 -21.319  1.00  0.00     0.119 A 
BRANCH  14  19
ATOM     19  O   UNL     1     -21.881  35.002 -23.364  1.00  0.00    -0.507 OA
ATOM     20  H   UNL     1     -22.650  35.655 -23.264  1.00  0.00     0.293 HD
ENDBRANCH  14  19
BRANCH  18  21
ATOM     21  O   UNL     1     -24.111  31.565 -20.803  1.00  0.00    -0.508 OA
ATOM     22  H   UNL     1     -24.178  30.588 -20.542  1.00  0.00     0.293 HD
ENDBRANCH  18  21
ENDBRANCH  11  13
ENDBRANCH   2  11
TORSDOF 6
ENDMDL
MODEL 6
REMARK VINA RESULT:    -6.442      2.592      3.075
REMARK INTER + INTRA:          -8.875
REMARK INTER:                  -8.266
REMARK INTRA:                  -0.609
REMARK UNBOUND:                -0.739
REMARK SMILES O=C(C=Cc1ccc(O)cc1)c1ccc(O)cc1O
REMARK SMILES IDX 4 1 3 2 5 3 6 4 7 5 8 6 11 7 10 8 9 9 2 11 1 12 12 13 18 14
REMARK SMILES IDX 13 15 17 16 14 17 15 18 19 19 16 21
REMARK H PARENT 9 10 19 20 16 22
REMARK Flexibility Score: inf
ROOT
ATOM      1  C   UNL     1     -16.358  30.434 -23.782  1.00  0.00     0.012 C 
ATOM      2  C   UNL     1     -16.484  31.647 -23.223  1.00  0.00     0.053 C 
ENDROOT
BRANCH   1   3
ATOM      3  C   UNL     1     -15.176  30.014 -24.572  1.00  0.00    -0.025 A 
ATOM      4  C   UNL     1     -15.181  29.976 -25.981  1.00  0.00     0.012 A 
ATOM      5  C   UNL     1     -14.045  29.560 -26.682  1.00  0.00     0.047 A 
ATOM      6  C   UNL     1     -12.894  29.165 -25.988  1.00  0.00     0.115 A 
ATOM      7  C   UNL     1     -14.021  29.601 -23.887  1.00  0.00     0.012 A 
ATOM      8  C   UNL     1     -12.887  29.186 -24.592  1.00  0.00     0.047 A 
BRANCH   6   9
ATOM      9  O   UNL     1     -11.757  28.749 -26.678  1.00  0.00    -0.508 OA
ATOM     10  H   UNL     1     -10.826  28.999 -26.364  1.00  0.00     0.293 HD
ENDBRANCH   6   9
ENDBRANCH   1   3
BRANCH   2  11
ATOM     11  C   UNL     1     -17.660  32.036 -22.414  1.00  0.00     0.189 C 
ATOM     12  O   UNL     1     -18.003  31.280 -21.465  1.00  0.00    -0.289 OA
BRANCH  11  13
ATOM     13  C   UNL     1     -18.426  33.283 -22.654  1.00  0.00     0.064 A 
ATOM     14  C   UNL     1     -19.832  33.256 -22.761  1.00  0.00     0.130 A 
ATOM     15  C   UNL     1     -17.757  34.518 -22.736  1.00  0.00     0.020 A 
ATOM     16  C   UNL     1     -20.542  34.450 -22.961  1.00  0.00     0.093 A 
ATOM     17  C   UNL     1     -18.471  35.700 -22.938  1.00  0.00     0.047 A 
ATOM     18  C   UNL     1     -19.866  35.669 -23.052  1.00  0.00     0.119 A 
BRANCH  14  19
ATOM     19  O   UNL     1     -20.521  32.046 -22.681  1.00  0.00    -0.507 OA
ATOM     20  H   UNL     1     -21.486  32.002 -22.376  1.00  0.00     0.293 HD
ENDBRANCH  14  19
BRANCH  18  21
ATOM     21  O   UNL     1     -20.588  36.843 -23.253  1.00  0.00    -0.508 OA
ATOM     22  H   UNL     1     -20.226  37.744 -22.965  1.00  0.00     0.293 HD
ENDBRANCH  18  21
ENDBRANCH  11  13
ENDBRANCH   2  11
TORSDOF 6
ENDMDL
MODEL 7
REMARK VINA RESULT:    -6.421      2.636      7.775
REMARK INTER + INTRA:          -8.849
REMARK INTER:                  -8.344
REMARK INTRA:                  -0.505
REMARK UNBOUND:                -0.739
REMARK SMILES O=C(C=Cc1ccc(O)cc1)c1ccc(O)cc1O
REMARK SMILES IDX 4 1 3 2 5 3 6 4 7 5 8 6 11 7 10 8 9 9 2 11 1 12 12 13 18 14
REMARK SMILES IDX 13 15 17 16 14 17 15 18 19 19 16 21
REMARK H PARENT 9 10 19 20 16 22
REMARK Flexibility Score: inf
ROOT
ATOM      1  C   UNL     1     -17.685  31.909 -23.815  1.00  0.00     0.012 C 
ATOM      2  C   UNL     1     -17.723  31.161 -24.927  1.00  0.00     0.053 C 
ENDROOT
BRANCH   1   3
ATOM      3  C   UNL     1     -18.372  33.216 -23.681  1.00  0.00    -0.025 A 
ATOM      4  C   UNL     1     -17.822  34.290 -22.953  1.00  0.00     0.012 A 
ATOM      5  C   UNL     1     -18.514  35.500 -22.845  1.00  0.00     0.047 A 
ATOM      6  C   UNL     1     -19.768  35.652 -23.450  1.00  0.00     0.115 A 
ATOM      7  C   UNL     1     -19.637  33.375 -24.271  1.00  0.00     0.012 A 
ATOM      8  C   UNL     1     -20.326  34.587 -24.161  1.00  0.00     0.047 A 
BRANCH   6   9
ATOM      9  O   UNL     1     -20.465  36.854 -23.348  1.00  0.00    -0.508 OA
ATOM     10  H   UNL     1     -20.637  37.436 -24.159  1.00  0.00     0.293 HD
ENDBRANCH   6   9
ENDBRANCH   1   3
BRANCH   2  11
ATOM     11  C   UNL     1     -17.055  29.845 -25.029  1.00  0.00     0.189 C 
ATOM     12  O   UNL     1     -17.741  28.812 -24.804  1.00  0.00    -0.289 OA
BRANCH  11  13
ATOM     13  C   UNL     1     -15.630  29.693 -25.410  1.00  0.00     0.064 A 
ATOM     14  C   UNL     1     -14.612  29.752 -24.436  1.00  0.00     0.130 A 
ATOM     15  C   UNL     1     -15.281  29.444 -26.751  1.00  0.00     0.020 A 
ATOM     16  C   UNL     1     -13.271  29.578 -24.813  1.00  0.00     0.093 A 
ATOM     17  C   UNL     1     -13.944  29.276 -27.117  1.00  0.00     0.047 A 
ATOM     18  C   UNL     1     -12.935  29.344 -26.148  1.00  0.00     0.119 A 
BRANCH  14  19
ATOM     19  O   UNL     1     -14.930  29.995 -23.100  1.00  0.00    -0.507 OA
ATOM     20  H   UNL     1     -15.845  29.776 -22.722  1.00  0.00     0.293 HD
ENDBRANCH  14  19
BRANCH  18  21
ATOM     21  O   UNL     1     -11.599  29.176 -26.503  1.00  0.00    -0.508 OA
ATOM     22  H   UNL     1     -11.326  28.945 -27.451  1.00  0.00     0.293 HD
ENDBRANCH  18  21
ENDBRANCH  11  13
ENDBRANCH   2  11
TORSDOF 6
ENDMDL
MODEL 8
REMARK VINA RESULT:    -6.303      2.798      7.703
REMARK INTER + INTRA:          -8.700
REMARK INTER:                  -8.274
REMARK INTRA:                  -0.426
REMARK UNBOUND:                -0.739
REMARK SMILES O=C(C=Cc1ccc(O)cc1)c1ccc(O)cc1O
REMARK SMILES IDX 4 1 3 2 5 3 6 4 7 5 8 6 11 7 10 8 9 9 2 11 1 12 12 13 18 14
REMARK SMILES IDX 13 15 17 16 14 17 15 18 19 19 16 21
REMARK H PARENT 9 10 19 20 16 22
REMARK Flexibility Score: inf
ROOT
ATOM      1  C   UNL     1     -21.556  32.151 -22.667  1.00  0.00     0.012 C 
ATOM      2  C   UNL     1     -20.402  32.078 -23.347  1.00  0.00     0.053 C 
ENDROOT
BRANCH   1   3
ATOM      3  C   UNL     1     -22.235  33.427 -22.337  1.00  0.00    -0.025 A 
ATOM      4  C   UNL     1     -23.364  33.489 -21.496  1.00  0.00     0.012 A 
ATOM      5  C   UNL     1     -23.978  34.716 -21.225  1.00  0.00     0.047 A 
ATOM      6  C   UNL     1     -23.483  35.894 -21.798  1.00  0.00     0.115 A 
ATOM      7  C   UNL     1     -21.756  34.613 -22.919  1.00  0.00     0.012 A 
ATOM      8  C   UNL     1     -22.373  35.838 -22.645  1.00  0.00     0.047 A 
BRANCH   6   9
ATOM      9  O   UNL     1     -24.087  37.121 -21.534  1.00  0.00    -0.508 OA
ATOM     10  H   UNL     1     -23.731  37.983 -21.929  1.00  0.00     0.293 HD
ENDBRANCH   6   9
ENDBRANCH   1   3
BRANCH   2  11
ATOM     11  C   UNL     1     -19.756  30.793 -23.690  1.00  0.00     0.189 C 
ATOM     12  O   UNL     1     -20.490  29.844 -24.077  1.00  0.00    -0.289 OA
BRANCH  11  13
ATOM     13  C   UNL     1     -18.289  30.586 -23.626  1.00  0.00     0.064 A 
ATOM     14  C   UNL     1     -17.641  30.387 -22.389  1.00  0.00     0.130 A 
ATOM     15  C   UNL     1     -17.530  30.543 -24.811  1.00  0.00     0.020 A 
ATOM     16  C   UNL     1     -16.256  30.165 -22.352  1.00  0.00     0.093 A 
ATOM     17  C   UNL     1     -16.151  30.325 -24.763  1.00  0.00     0.047 A 
ATOM     18  C   UNL     1     -15.511  30.137 -23.533  1.00  0.00     0.119 A 
BRANCH  14  19
ATOM     19  O   UNL     1     -18.370  30.422 -21.200  1.00  0.00    -0.507 OA
ATOM     20  H   UNL     1     -18.218  29.744 -20.463  1.00  0.00     0.293 HD
ENDBRANCH  14  19
BRANCH  18  21
ATOM     21  O   UNL     1     -14.137  29.918 -23.474  1.00  0.00    -0.508 OA
ATOM     22  H   UNL     1     -13.533  30.124 -24.261  1.00  0.00     0.293 HD
ENDBRANCH  18  21
ENDBRANCH  11  13
ENDBRANCH   2  11
TORSDOF 6
ENDMDL
MODEL 9
REMARK VINA RESULT:    -6.239      3.396      4.149
REMARK INTER + INTRA:          -8.620
REMARK INTER:                  -8.008
REMARK INTRA:                  -0.612
REMARK UNBOUND:                -0.739
REMARK SMILES O=C(C=Cc1ccc(O)cc1)c1ccc(O)cc1O
REMARK SMILES IDX 4 1 3 2 5 3 6 4 7 5 8 6 11 7 10 8 9 9 2 11 1 12 12 13 18 14
REMARK SMILES IDX 13 15 17 16 14 17 15 18 19 19 16 21
REMARK H PARENT 9 10 19 20 16 22
REMARK Flexibility Score: inf
ROOT
ATOM      1  C   UNL     1     -16.741  29.745 -23.360  1.00  0.00     0.012 C 
ATOM      2  C   UNL     1     -17.554  30.793 -23.159  1.00  0.00     0.053 C 
ENDROOT
BRANCH   1   3
ATOM      3  C   UNL     1     -16.431  28.736 -22.319  1.00  0.00    -0.025 A 
ATOM      4  C   UNL     1     -16.519  27.349 -22.557  1.00  0.00     0.012 A 
ATOM      5  C   UNL     1     -16.229  26.436 -21.539  1.00  0.00     0.047 A 
ATOM      6  C   UNL     1     -15.859  26.892 -20.268  1.00  0.00     0.115 A 
ATOM      7  C   UNL     1     -16.073  29.181 -21.035  1.00  0.00     0.012 A 
ATOM      8  C   UNL     1     -15.784  28.264 -20.020  1.00  0.00     0.047 A 
BRANCH   6   9
ATOM      9  O   UNL     1     -15.567  25.989 -19.248  1.00  0.00    -0.508 OA
ATOM     10  H   UNL     1     -15.783  26.197 -18.279  1.00  0.00     0.293 HD
ENDBRANCH   6   9
ENDBRANCH   1   3
BRANCH   2  11
ATOM     11  C   UNL     1     -17.874  31.772 -24.219  1.00  0.00     0.189 C 
ATOM     12  O   UNL     1     -17.589  31.471 -25.410  1.00  0.00    -0.289 OA
BRANCH  11  13
ATOM     13  C   UNL     1     -18.536  33.071 -23.945  1.00  0.00     0.064 A 
ATOM     14  C   UNL     1     -19.812  33.356 -24.473  1.00  0.00     0.130 A 
ATOM     15  C   UNL     1     -17.911  34.019 -23.114  1.00  0.00     0.020 A 
ATOM     16  C   UNL     1     -20.433  34.579 -24.180  1.00  0.00     0.093 A 
ATOM     17  C   UNL     1     -18.535  35.235 -22.831  1.00  0.00     0.047 A 
ATOM     18  C   UNL     1     -19.798  35.519 -23.364  1.00  0.00     0.119 A 
BRANCH  14  19
ATOM     19  O   UNL     1     -20.455  32.432 -25.297  1.00  0.00    -0.507 OA
ATOM     20  H   UNL     1     -20.598  32.610 -26.285  1.00  0.00     0.293 HD
ENDBRANCH  14  19
BRANCH  18  21
ATOM     21  O   UNL     1     -20.430  36.728 -23.086  1.00  0.00    -0.508 OA
ATOM     22  H   UNL     1     -19.905  37.554 -22.823  1.00  0.00     0.293 HD
ENDBRANCH  18  21
ENDBRANCH  11  13
ENDBRANCH   2  11
TORSDOF 6
ENDMDL
