MODEL 1
REMARK VINA RESULT:     7.464      0.000      0.000
REMARK INTER + INTRA:           9.091
REMARK INTER:                   9.427
REMARK INTRA:                  -0.336
REMARK UNBOUND:                -0.336
REMARK SMILES Oc1ccc(CCc2cc(O)cc(O)c2)cc1
REMARK SMILES IDX 6 1 5 2 4 3 3 4 2 5 16 6 17 7 1 8 7 10 8 11 15 12 9 13 13 14
REMARK SMILES IDX 10 15 12 16 14 17 11 19
REMARK H PARENT 1 9 14 18 11 20
REMARK Flexibility Score: inf
ROOT
ATOM      1  C   UNL     1     136.620 129.209 130.253  1.00  0.00     0.040 C 
ENDROOT
BRANCH   1   2
ATOM      2  C   UNL     1     136.852 129.950 131.541  1.00  0.00    -0.047 A 
ATOM      3  C   UNL     1     135.799 130.135 132.452  1.00  0.00     0.007 A 
ATOM      4  C   UNL     1     136.022 130.795 133.664  1.00  0.00     0.046 A 
ATOM      5  C   UNL     1     137.303 131.268 133.982  1.00  0.00     0.115 A 
ATOM      6  C   UNL     1     138.136 130.414 131.871  1.00  0.00     0.007 A 
ATOM      7  C   UNL     1     138.358 131.074 133.084  1.00  0.00     0.046 A 
BRANCH   5   8
ATOM      8  O   UNL     1     137.538 131.927 135.186  1.00  0.00    -0.508 OA
ATOM      9  H   UNL     1     136.777 132.273 135.758  1.00  0.00     0.293 HD
ENDBRANCH   5   8
ENDBRANCH   1   2
BRANCH   1  10
ATOM     10  C   UNL     1     136.741 130.157 129.056  1.00  0.00     0.040 C 
BRANCH  10  11
ATOM     11  C   UNL     1     138.119 130.077 128.455  1.00  0.00    -0.040 A 
ATOM     12  C   UNL     1     138.446 129.036 127.571  1.00  0.00     0.050 A 
ATOM     13  C   UNL     1     139.071 131.073 128.730  1.00  0.00     0.050 A 
ATOM     14  C   UNL     1     139.718 128.978 126.985  1.00  0.00     0.119 A 
ATOM     15  C   UNL     1     140.343 131.015 128.144  1.00  0.00     0.119 A 
ATOM     16  C   UNL     1     140.663 129.967 127.277  1.00  0.00     0.092 A 
BRANCH  14  17
ATOM     17  O   UNL     1     140.050 127.946 126.112  1.00  0.00    -0.508 OA
ATOM     18  H   UNL     1     139.798 127.979 125.131  1.00  0.00     0.293 HD
ENDBRANCH  14  17
BRANCH  15  19
ATOM     19  O   UNL     1     141.295 131.996 128.418  1.00  0.00    -0.508 OA
ATOM     20  H   UNL     1     141.293 132.505 129.294  1.00  0.00     0.293 HD
ENDBRANCH  15  19
ENDBRANCH  10  11
ENDBRANCH   1  10
TORSDOF 6
ENDMDL
MODEL 2
REMARK VINA RESULT:     7.472      0.176      2.038
REMARK INTER + INTRA:           9.101
REMARK INTER:                   9.498
REMARK INTRA:                  -0.397
REMARK UNBOUND:                -0.336
REMARK SMILES Oc1ccc(CCc2cc(O)cc(O)c2)cc1
REMARK SMILES IDX 6 1 5 2 4 3 3 4 2 5 16 6 17 7 1 8 7 10 8 11 15 12 9 13 13 14
REMARK SMILES IDX 10 15 12 16 14 17 11 19
REMARK H PARENT 1 9 14 18 11 20
REMARK Flexibility Score: inf
ROOT
ATOM      1  C   UNL     1     136.678 129.157 130.073  1.00  0.00     0.040 C 
ENDROOT
BRANCH   1   2
ATOM      2  C   UNL     1     136.871 129.893 131.371  1.00  0.00    -0.047 A 
ATOM      3  C   UNL     1     135.802 130.033 132.272  1.00  0.00     0.007 A 
ATOM      4  C   UNL     1     135.990 130.688 133.493  1.00  0.00     0.046 A 
ATOM      5  C   UNL     1     137.250 131.200 133.830  1.00  0.00     0.115 A 
ATOM      6  C   UNL     1     138.135 130.396 131.720  1.00  0.00     0.007 A 
ATOM      7  C   UNL     1     138.321 131.051 132.942  1.00  0.00     0.046 A 
BRANCH   5   8
ATOM      8  O   UNL     1     137.450 131.854 135.043  1.00  0.00    -0.508 OA
ATOM      9  H   UNL     1     138.120 131.516 135.723  1.00  0.00     0.293 HD
ENDBRANCH   5   8
ENDBRANCH   1   2
BRANCH   1  10
ATOM     10  C   UNL     1     136.769 130.123 128.888  1.00  0.00     0.040 C 
BRANCH  10  11
ATOM     11  C   UNL     1     138.135 130.059 128.257  1.00  0.00    -0.040 A 
ATOM     12  C   UNL     1     139.093 131.045 128.542  1.00  0.00     0.050 A 
ATOM     13  C   UNL     1     138.480 128.982 127.424  1.00  0.00     0.050 A 
ATOM     14  C   UNL     1     140.375 130.969 127.981  1.00  0.00     0.119 A 
ATOM     15  C   UNL     1     139.762 128.905 126.863  1.00  0.00     0.119 A 
ATOM     16  C   UNL     1     140.704 129.900 127.141  1.00  0.00     0.092 A 
BRANCH  14  17
ATOM     17  O   UNL     1     141.328 131.946 128.254  1.00  0.00    -0.508 OA
ATOM     18  H   UNL     1     141.063 132.872 128.572  1.00  0.00     0.293 HD
ENDBRANCH  14  17
BRANCH  15  19
ATOM     19  O   UNL     1     140.109 127.844 126.029  1.00  0.00    -0.508 OA
ATOM     20  H   UNL     1     140.327 126.927 126.403  1.00  0.00     0.293 HD
ENDBRANCH  15  19
ENDBRANCH  10  11
ENDBRANCH   1  10
TORSDOF 6
ENDMDL
