MODEL 1
REMARK VINA RESULT:    -4.805      0.000      0.000
REMARK INTER + INTRA:          -6.477
REMARK INTER:                  -6.771
REMARK INTRA:                   0.294
REMARK UNBOUND:                 0.294
REMARK SMILES CC1=CCC(=C(C)C)C(=O)CC(C)=CCC1
REMARK SMILES IDX 12 1 14 2 13 3 15 4 16 5 2 6 1 7 3 8 11 10 9 11 10 12 5 13
REMARK SMILES IDX 6 14 7 15 8 16 4 17
REMARK H PARENT
REMARK Flexibility Score: 60.00
ROOT
ATOM      1  C   UNL     1     -12.045 -16.594  32.176  1.00  0.00    -0.070 C 
ATOM      2  C   UNL     1     -12.124 -17.935  32.326  1.00  0.00    -0.027 C 
ATOM      3  C   UNL     1     -11.150 -15.829  33.118  1.00  0.00     0.039 C 
ENDROOT
BRANCH   2   4
ATOM      4  C   UNL     1     -12.887 -18.881  31.425  1.00  0.00     0.032 C 
BRANCH   4   5
ATOM      5  C   UNL     1     -12.071 -19.456  30.250  1.00  0.00     0.034 C 
BRANCH   5   6
ATOM      6  C   UNL     1     -12.875 -19.577  28.967  1.00  0.00    -0.077 C 
ATOM      7  C   UNL     1     -13.852 -20.720  28.858  1.00  0.00     0.039 C 
ATOM      8  C   UNL     1     -12.822 -18.688  27.945  1.00  0.00    -0.023 CG0
ATOM      9  G   UNL     1     -11.909 -17.483  27.827  1.00  0.00     0.000 G0
ENDBRANCH   5   6
ENDBRANCH   4   5
ENDBRANCH   2   4
BRANCH   1  10
ATOM     10  C   UNL     1     -12.737 -15.841  31.058  1.00  0.00     0.111 C 
BRANCH  10  11
ATOM     11  C   UNL     1     -11.913 -15.839  29.798  1.00  0.00     0.163 C 
ATOM     12  O   UNL     1     -10.692 -15.537  29.887  1.00  0.00    -0.294 OA
BRANCH  11  13
ATOM     13  C   UNL     1     -12.474 -16.238  28.473  1.00  0.00    -0.002 C 
ATOM     14  C   UNL     1     -13.401 -15.456  27.842  1.00  0.00    -0.069 C 
ATOM     15  C   UNL     1     -14.005 -14.249  28.524  1.00  0.00     0.039 C 
ATOM     16  C   UNL     1     -13.870 -15.750  26.433  1.00  0.00     0.039 C 
BRANCH  13  17
ATOM     17  C   UNL     1     -11.903 -17.489  27.825  1.00  0.00     0.066 CG0
ATOM     18  G   UNL     1     -12.836 -18.679  27.946  1.00  0.00     0.000 G0
ENDBRANCH  13  17
ENDBRANCH  11  13
ENDBRANCH  10  11
ENDBRANCH   1  10
TORSDOF 0
ENDMDL
MODEL 2
REMARK VINA RESULT:    -4.764      1.639      3.462
REMARK INTER + INTRA:          -6.420
REMARK INTER:                  -7.148
REMARK INTRA:                   0.728
REMARK UNBOUND:                 0.294
REMARK SMILES CC1=CCC(=C(C)C)C(=O)CC(C)=CCC1
REMARK SMILES IDX 12 1 14 2 13 3 15 4 16 5 2 6 1 7 3 8 11 10 9 11 10 12 5 13
REMARK SMILES IDX 6 14 7 15 8 16 4 17
REMARK H PARENT
REMARK Flexibility Score: 60.00
ROOT
ATOM      1  C   UNL     1     -12.815 -19.342  29.325  1.00  0.00    -0.070 C 
ATOM      2  C   UNL     1     -13.230 -19.600  30.586  1.00  0.00    -0.027 C 
ATOM      3  C   UNL     1     -13.798 -19.551  28.201  1.00  0.00     0.039 C 
ENDROOT
BRANCH   2   4
ATOM      4  C   UNL     1     -12.428 -19.360  31.846  1.00  0.00     0.032 C 
BRANCH   4   5
ATOM      5  C   UNL     1     -11.885 -17.926  32.005  1.00  0.00     0.034 C 
BRANCH   5   6
ATOM      6  C   UNL     1     -12.948 -16.859  31.813  1.00  0.00    -0.077 C 
ATOM      7  C   UNL     1     -14.112 -16.849  32.771  1.00  0.00     0.039 C 
ATOM      8  C   UNL     1     -12.885 -15.875  30.882  1.00  0.00    -0.023 CG0
ATOM      9  G   UNL     1     -11.827 -15.698  29.810  1.00  0.00     0.000 G0
ENDBRANCH   5   6
ENDBRANCH   4   5
ENDBRANCH   2   4
BRANCH   1  10
ATOM     10  C   UNL     1     -11.450 -18.770  29.000  1.00  0.00     0.111 C 
BRANCH  10  11
ATOM     11  C   UNL     1     -11.550 -17.582  28.081  1.00  0.00     0.163 C 
ATOM     12  O   UNL     1     -11.084 -17.693  26.914  1.00  0.00    -0.294 OA
BRANCH  11  13
ATOM     13  C   UNL     1     -12.231 -16.315  28.479  1.00  0.00    -0.002 C 
ATOM     14  C   UNL     1     -13.239 -15.793  27.716  1.00  0.00    -0.069 C 
ATOM     15  C   UNL     1     -13.594 -16.388  26.371  1.00  0.00     0.039 C 
ATOM     16  C   UNL     1     -14.053 -14.602  28.172  1.00  0.00     0.039 C 
BRANCH  13  17
ATOM     17  C   UNL     1     -11.822 -15.692  29.804  1.00  0.00     0.066 CG0
ATOM     18  G   UNL     1     -12.876 -15.877  30.878  1.00  0.00     0.000 G0
ENDBRANCH  13  17
ENDBRANCH  11  13
ENDBRANCH  10  11
ENDBRANCH   1  10
TORSDOF 0
ENDMDL
MODEL 3
REMARK VINA RESULT:    -4.671      1.914      3.757
REMARK INTER + INTRA:          -6.289
REMARK INTER:                  -6.736
REMARK INTRA:                   0.447
REMARK UNBOUND:                 0.294
REMARK SMILES CC1=CCC(=C(C)C)C(=O)CC(C)=CCC1
REMARK SMILES IDX 12 1 14 2 13 3 15 4 16 5 2 6 1 7 3 8 11 10 9 11 10 12 5 13
REMARK SMILES IDX 6 14 7 15 8 16 4 17
REMARK H PARENT
REMARK Flexibility Score: 60.00
ROOT
ATOM      1  C   UNL     1     -10.645 -16.274  32.225  1.00  0.00    -0.070 C 
ATOM      2  C   UNL     1     -10.142 -15.662  31.130  1.00  0.00    -0.027 C 
ATOM      3  C   UNL     1     -10.938 -15.425  33.436  1.00  0.00     0.039 C 
ENDROOT
BRANCH   2   4
ATOM      4  C   UNL     1      -9.875 -16.321  29.794  1.00  0.00     0.032 C 
BRANCH   4   5
ATOM      5  C   UNL     1     -10.746 -15.804  28.631  1.00  0.00     0.034 C 
BRANCH   5   6
ATOM      6  C   UNL     1     -11.360 -16.919  27.802  1.00  0.00    -0.077 C 
ATOM      7  C   UNL     1     -10.708 -17.253  26.484  1.00  0.00     0.039 C 
ATOM      8  C   UNL     1     -12.410 -17.677  28.200  1.00  0.00    -0.023 CG0
ATOM      9  G   UNL     1     -13.228 -17.514  29.467  1.00  0.00     0.000 G0
ENDBRANCH   5   6
ENDBRANCH   4   5
ENDBRANCH   2   4
BRANCH   1  10
ATOM     10  C   UNL     1     -11.010 -17.743  32.262  1.00  0.00     0.111 C 
BRANCH  10  11
ATOM     11  C   UNL     1     -12.449 -17.968  31.878  1.00  0.00     0.163 C 
ATOM     12  O   UNL     1     -13.343 -17.625  32.698  1.00  0.00    -0.294 OA
BRANCH  11  13
ATOM     13  C   UNL     1     -12.847 -18.518  30.549  1.00  0.00    -0.002 C 
ATOM     14  C   UNL     1     -12.938 -19.868  30.350  1.00  0.00    -0.069 C 
ATOM     15  C   UNL     1     -12.491 -20.850  31.410  1.00  0.00     0.039 C 
ATOM     16  C   UNL     1     -13.489 -20.453  29.067  1.00  0.00     0.039 C 
BRANCH  13  17
ATOM     17  C   UNL     1     -13.235 -17.520  29.470  1.00  0.00     0.066 CG0
ATOM     18  G   UNL     1     -12.420 -17.695  28.203  1.00  0.00     0.000 G0
ENDBRANCH  13  17
ENDBRANCH  11  13
ENDBRANCH  10  11
ENDBRANCH   1  10
TORSDOF 0
ENDMDL
MODEL 4
REMARK VINA RESULT:    -4.647      1.622      3.510
REMARK INTER + INTRA:          -6.254
REMARK INTER:                  -7.442
REMARK INTRA:                   1.188
REMARK UNBOUND:                 0.294
REMARK SMILES CC1=CCC(=C(C)C)C(=O)CC(C)=CCC1
REMARK SMILES IDX 12 1 14 2 13 3 15 4 16 5 2 6 1 7 3 8 11 10 9 11 10 12 5 13
REMARK SMILES IDX 6 14 7 15 8 16 4 17
REMARK H PARENT
REMARK Flexibility Score: 60.00
ROOT
ATOM      1  C   UNL     1     -12.304 -19.833  30.793  1.00  0.00    -0.070 C 
ATOM      2  C   UNL     1     -13.344 -19.943  29.936  1.00  0.00    -0.027 C 
ATOM      3  C   UNL     1     -12.284 -20.737  31.999  1.00  0.00     0.039 C 
ENDROOT
BRANCH   2   4
ATOM      4  C   UNL     1     -13.494 -19.196  28.629  1.00  0.00     0.032 C 
BRANCH   4   5
ATOM      5  C   UNL     1     -12.283 -18.323  28.239  1.00  0.00     0.034 C 
BRANCH   5   6
ATOM      6  C   UNL     1     -12.673 -16.929  27.782  1.00  0.00    -0.077 C 
ATOM      7  C   UNL     1     -13.508 -16.809  26.532  1.00  0.00     0.039 C 
ATOM      8  C   UNL     1     -12.381 -15.792  28.461  1.00  0.00    -0.023 CG0
ATOM      9  G   UNL     1     -11.547 -15.669  29.721  1.00  0.00     0.000 G0
ENDBRANCH   5   6
ENDBRANCH   4   5
ENDBRANCH   2   4
BRANCH   1  10
ATOM     10  C   UNL     1     -11.123 -18.915  30.553  1.00  0.00     0.111 C 
BRANCH  10  11
ATOM     11  C   UNL     1     -11.246 -17.634  31.335  1.00  0.00     0.163 C 
ATOM     12  O   UNL     1     -10.560 -17.513  32.386  1.00  0.00    -0.294 OA
BRANCH  11  13
ATOM     13  C   UNL     1     -12.093 -16.494  30.877  1.00  0.00    -0.002 C 
ATOM     14  C   UNL     1     -13.256 -16.183  31.525  1.00  0.00    -0.069 C 
ATOM     15  C   UNL     1     -13.805 -17.070  32.621  1.00  0.00     0.039 C 
ATOM     16  C   UNL     1     -14.054 -14.942  31.187  1.00  0.00     0.039 C 
BRANCH  13  17
ATOM     17  C   UNL     1     -11.560 -15.647  29.733  1.00  0.00     0.066 CG0
ATOM     18  G   UNL     1     -12.384 -15.800  28.470  1.00  0.00     0.000 G0
ENDBRANCH  13  17
ENDBRANCH  11  13
ENDBRANCH  10  11
ENDBRANCH   1  10
TORSDOF 0
ENDMDL
MODEL 5
REMARK VINA RESULT:    -4.562      2.291      3.082
REMARK INTER + INTRA:          -6.136
REMARK INTER:                  -6.693
REMARK INTRA:                   0.557
REMARK UNBOUND:                 0.294
REMARK SMILES CC1=CCC(=C(C)C)C(=O)CC(C)=CCC1
REMARK SMILES IDX 12 1 14 2 13 3 15 4 16 5 2 6 1 7 3 8 11 10 9 11 10 12 5 13
REMARK SMILES IDX 6 14 7 15 8 16 4 17
REMARK H PARENT
REMARK Flexibility Score: 60.00
ROOT
ATOM      1  C   UNL     1     -13.746 -15.412  31.377  1.00  0.00    -0.070 C 
ATOM      2  C   UNL     1     -12.980 -15.433  32.491  1.00  0.00    -0.027 C 
ATOM      3  C   UNL     1     -14.764 -14.308  31.241  1.00  0.00     0.039 C 
ENDROOT
BRANCH   2   4
ATOM      4  C   UNL     1     -11.846 -16.397  32.764  1.00  0.00     0.032 C 
BRANCH   4   5
ATOM      5  C   UNL     1     -10.592 -16.186  31.891  1.00  0.00     0.034 C 
BRANCH   5   6
ATOM      6  C   UNL     1     -10.228 -17.405  31.062  1.00  0.00    -0.077 C 
ATOM      7  C   UNL     1      -9.910 -18.683  31.798  1.00  0.00     0.039 C 
ATOM      8  C   UNL     1     -10.239 -17.440  29.707  1.00  0.00    -0.023 CG0
ATOM      9  G   UNL     1     -10.508 -16.282  28.765  1.00  0.00     0.000 G0
ENDBRANCH   5   6
ENDBRANCH   4   5
ENDBRANCH   2   4
BRANCH   1  10
ATOM     10  C   UNL     1     -13.569 -16.382  30.227  1.00  0.00     0.111 C 
BRANCH  10  11
ATOM     11  C   UNL     1     -13.009 -15.701  29.006  1.00  0.00     0.163 C 
ATOM     12  O   UNL     1     -13.450 -14.557  28.711  1.00  0.00    -0.294 OA
BRANCH  11  13
ATOM     13  C   UNL     1     -11.919 -16.301  28.182  1.00  0.00    -0.002 C 
ATOM     14  C   UNL     1     -12.174 -16.779  26.926  1.00  0.00    -0.069 C 
ATOM     15  C   UNL     1     -13.587 -16.861  26.390  1.00  0.00     0.039 C 
ATOM     16  C   UNL     1     -11.067 -17.247  26.008  1.00  0.00     0.039 C 
BRANCH  13  17
ATOM     17  C   UNL     1     -10.513 -16.269  28.759  1.00  0.00     0.066 CG0
ATOM     18  G   UNL     1     -10.248 -17.430  29.696  1.00  0.00     0.000 G0
ENDBRANCH  13  17
ENDBRANCH  11  13
ENDBRANCH  10  11
ENDBRANCH   1  10
TORSDOF 0
ENDMDL
MODEL 6
REMARK VINA RESULT:    -4.547      1.841      4.229
REMARK INTER + INTRA:          -6.114
REMARK INTER:                  -7.169
REMARK INTRA:                   1.056
REMARK UNBOUND:                 0.294
REMARK SMILES CC1=CCC(=C(C)C)C(=O)CC(C)=CCC1
REMARK SMILES IDX 12 1 14 2 13 3 15 4 16 5 2 6 1 7 3 8 11 10 9 11 10 12 5 13
REMARK SMILES IDX 6 14 7 15 8 16 4 17
REMARK H PARENT
REMARK Flexibility Score: 60.00
ROOT
ATOM      1  C   UNL     1     -12.894 -15.441  29.393  1.00  0.00    -0.070 C 
ATOM      2  C   UNL     1     -13.648 -15.384  30.514  1.00  0.00    -0.027 C 
ATOM      3  C   UNL     1     -13.550 -15.091  28.082  1.00  0.00     0.039 C 
ENDROOT
BRANCH   2   4
ATOM      4  C   UNL     1     -13.149 -15.604  31.926  1.00  0.00     0.032 C 
BRANCH   4   5
ATOM      5  C   UNL     1     -12.481 -16.972  32.171  1.00  0.00     0.034 C 
BRANCH   5   6
ATOM      6  C   UNL     1     -10.981 -16.875  32.389  1.00  0.00    -0.077 C 
ATOM      7  C   UNL     1     -10.482 -15.855  33.381  1.00  0.00     0.039 C 
ATOM      8  C   UNL     1     -10.069 -17.689  31.803  1.00  0.00    -0.023 CG0
ATOM      9  G   UNL     1     -10.335 -18.765  30.768  1.00  0.00     0.000 G0
ENDBRANCH   5   6
ENDBRANCH   4   5
ENDBRANCH   2   4
BRANCH   1  10
ATOM     10  C   UNL     1     -11.411 -15.748  29.404  1.00  0.00     0.111 C 
BRANCH  10  11
ATOM     11  C   UNL     1     -11.128 -17.144  28.917  1.00  0.00     0.163 C 
ATOM     12  O   UNL     1     -10.596 -17.281  27.782  1.00  0.00    -0.294 OA
BRANCH  11  13
ATOM     13  C   UNL     1     -11.395 -18.353  29.751  1.00  0.00    -0.002 C 
ATOM     14  C   UNL     1     -12.517 -19.108  29.548  1.00  0.00    -0.069 C 
ATOM     15  C   UNL     1     -13.599 -18.664  28.589  1.00  0.00     0.039 C 
ATOM     16  C   UNL     1     -12.738 -20.422  30.265  1.00  0.00     0.039 C 
BRANCH  13  17
ATOM     17  C   UNL     1     -10.328 -18.755  30.756  1.00  0.00     0.066 CG0
ATOM     18  G   UNL     1     -10.088 -17.683  31.802  1.00  0.00     0.000 G0
ENDBRANCH  13  17
ENDBRANCH  11  13
ENDBRANCH  10  11
ENDBRANCH   1  10
TORSDOF 0
ENDMDL
MODEL 7
REMARK VINA RESULT:    -4.367      1.340      3.535
REMARK INTER + INTRA:          -5.861
REMARK INTER:                  -6.896
REMARK INTRA:                   1.035
REMARK UNBOUND:                 0.294
REMARK SMILES CC1=CCC(=C(C)C)C(=O)CC(C)=CCC1
REMARK SMILES IDX 12 1 14 2 13 3 15 4 16 5 2 6 1 7 3 8 11 10 9 11 10 12 5 13
REMARK SMILES IDX 6 14 7 15 8 16 4 17
REMARK H PARENT
REMARK Flexibility Score: 60.00
ROOT
ATOM      1  C   UNL     1     -12.993 -16.128  31.344  1.00  0.00    -0.070 C 
ATOM      2  C   UNL     1     -13.875 -15.416  30.606  1.00  0.00    -0.027 C 
ATOM      3  C   UNL     1     -13.527 -16.925  32.506  1.00  0.00     0.039 C 
ENDROOT
BRANCH   2   4
ATOM      4  C   UNL     1     -13.548 -14.635  29.352  1.00  0.00     0.032 C 
BRANCH   4   5
ATOM      5  C   UNL     1     -12.400 -15.220  28.505  1.00  0.00     0.034 C 
BRANCH   5   6
ATOM      6  C   UNL     1     -12.858 -16.299  27.540  1.00  0.00    -0.077 C 
ATOM      7  C   UNL     1     -13.982 -15.961  26.593  1.00  0.00     0.039 C 
ATOM      8  C   UNL     1     -12.279 -17.519  27.426  1.00  0.00    -0.023 CG0
ATOM      9  G   UNL     1     -11.156 -18.081  28.277  1.00  0.00     0.000 G0
ENDBRANCH   5   6
ENDBRANCH   4   5
ENDBRANCH   2   4
BRANCH   1  10
ATOM     10  C   UNL     1     -11.521 -16.234  31.004  1.00  0.00     0.111 C 
BRANCH  10  11
ATOM     11  C   UNL     1     -11.100 -17.666  30.800  1.00  0.00     0.163 C 
ATOM     12  O   UNL     1     -10.339 -18.189  31.659  1.00  0.00    -0.294 OA
BRANCH  11  13
ATOM     13  C   UNL     1     -11.599 -18.493  29.663  1.00  0.00    -0.002 C 
ATOM     14  C   UNL     1     -12.488 -19.510  29.876  1.00  0.00    -0.069 C 
ATOM     15  C   UNL     1     -12.876 -19.934  31.275  1.00  0.00     0.039 C 
ATOM     16  C   UNL     1     -13.132 -20.263  28.732  1.00  0.00     0.039 C 
BRANCH  13  17
ATOM     17  C   UNL     1     -11.152 -18.097  28.265  1.00  0.00     0.066 CG0
ATOM     18  G   UNL     1     -12.286 -17.521  27.439  1.00  0.00     0.000 G0
ENDBRANCH  13  17
ENDBRANCH  11  13
ENDBRANCH  10  11
ENDBRANCH   1  10
TORSDOF 0
ENDMDL
MODEL 8
REMARK VINA RESULT:    -4.236      1.872      3.975
REMARK INTER + INTRA:          -5.676
REMARK INTER:                  -6.291
REMARK INTRA:                   0.615
REMARK UNBOUND:                 0.294
REMARK SMILES CC1=CCC(=C(C)C)C(=O)CC(C)=CCC1
REMARK SMILES IDX 12 1 14 2 13 3 15 4 16 5 2 6 1 7 3 8 11 10 9 11 10 12 5 13
REMARK SMILES IDX 6 14 7 15 8 16 4 17
REMARK H PARENT
REMARK Flexibility Score: 60.00
ROOT
ATOM      1  C   UNL     1     -13.980 -14.942  31.297  1.00  0.00    -0.070 C 
ATOM      2  C   UNL     1     -13.985 -14.754  29.959  1.00  0.00    -0.027 C 
ATOM      3  C   UNL     1     -15.186 -14.489  32.079  1.00  0.00     0.039 C 
ENDROOT
BRANCH   2   4
ATOM      4  C   UNL     1     -12.917 -15.226  28.996  1.00  0.00     0.032 C 
BRANCH   4   5
ATOM      5  C   UNL     1     -13.362 -16.345  28.033  1.00  0.00     0.034 C 
BRANCH   5   6
ATOM      6  C   UNL     1     -12.286 -17.389  27.792  1.00  0.00    -0.077 C 
ATOM      7  C   UNL     1     -11.444 -17.254  26.548  1.00  0.00     0.039 C 
ATOM      8  C   UNL     1     -11.987 -18.391  28.655  1.00  0.00    -0.023 CG0
ATOM      9  G   UNL     1     -12.704 -18.729  29.947  1.00  0.00     0.000 G0
ENDBRANCH   5   6
ENDBRANCH   4   5
ENDBRANCH   2   4
BRANCH   1  10
ATOM     10  C   UNL     1     -12.868 -15.664  32.030  1.00  0.00     0.111 C 
BRANCH  10  11
ATOM     11  C   UNL     1     -13.022 -17.159  31.940  1.00  0.00     0.163 C 
ATOM     12  O   UNL     1     -14.006 -17.691  32.523  1.00  0.00    -0.294 OA
BRANCH  11  13
ATOM     13  C   UNL     1     -12.096 -18.014  31.139  1.00  0.00    -0.002 C 
ATOM     14  C   UNL     1     -10.794 -18.182  31.522  1.00  0.00    -0.069 C 
ATOM     15  C   UNL     1     -10.205 -17.392  32.669  1.00  0.00     0.039 C 
ATOM     16  C   UNL     1      -9.876 -19.162  30.825  1.00  0.00     0.039 C 
BRANCH  13  17
ATOM     17  C   UNL     1     -12.686 -18.755  29.950  1.00  0.00     0.066 CG0
ATOM     18  G   UNL     1     -11.977 -18.419  28.653  1.00  0.00     0.000 G0
ENDBRANCH  13  17
ENDBRANCH  11  13
ENDBRANCH  10  11
ENDBRANCH   1  10
TORSDOF 0
ENDMDL
MODEL 9
REMARK VINA RESULT:    -4.218      2.101      3.794
REMARK INTER + INTRA:          -5.650
REMARK INTER:                  -7.180
REMARK INTRA:                   1.530
REMARK UNBOUND:                 0.294
REMARK SMILES CC1=CCC(=C(C)C)C(=O)CC(C)=CCC1
REMARK SMILES IDX 12 1 14 2 13 3 15 4 16 5 2 6 1 7 3 8 11 10 9 11 10 12 5 13
REMARK SMILES IDX 6 14 7 15 8 16 4 17
REMARK H PARENT
REMARK Flexibility Score: 60.00
ROOT
ATOM      1  C   UNL     1     -11.557 -17.193  27.811  1.00  0.00    -0.070 C 
ATOM      2  C   UNL     1     -10.388 -17.386  28.463  1.00  0.00    -0.027 C 
ATOM      3  C   UNL     1     -11.548 -17.270  26.306  1.00  0.00     0.039 C 
ENDROOT
BRANCH   2   4
ATOM      4  C   UNL     1     -10.214 -17.443  29.965  1.00  0.00     0.032 C 
BRANCH   4   5
ATOM      5  C   UNL     1     -10.460 -18.830  30.593  1.00  0.00     0.034 C 
BRANCH   5   6
ATOM      6  C   UNL     1     -11.818 -18.950  31.263  1.00  0.00    -0.077 C 
ATOM      7  C   UNL     1     -12.379 -20.335  31.466  1.00  0.00     0.039 C 
ATOM      8  C   UNL     1     -12.524 -17.901  31.751  1.00  0.00    -0.023 CG0
ATOM      9  G   UNL     1     -12.168 -16.431  31.647  1.00  0.00     0.000 G0
ENDBRANCH   5   6
ENDBRANCH   4   5
ENDBRANCH   2   4
BRANCH   1  10
ATOM     10  C   UNL     1     -12.881 -16.996  28.521  1.00  0.00     0.111 C 
BRANCH  10  11
ATOM     11  C   UNL     1     -12.916 -15.698  29.283  1.00  0.00     0.163 C 
ATOM     12  O   UNL     1     -12.811 -14.624  28.632  1.00  0.00    -0.294 OA
BRANCH  11  13
ATOM     13  C   UNL     1     -13.131 -15.642  30.759  1.00  0.00    -0.002 C 
ATOM     14  C   UNL     1     -14.208 -14.981  31.284  1.00  0.00    -0.069 C 
ATOM     15  C   UNL     1     -15.126 -14.157  30.408  1.00  0.00     0.039 C 
ATOM     16  C   UNL     1     -14.540 -15.038  32.759  1.00  0.00     0.039 C 
BRANCH  13  17
ATOM     17  C   UNL     1     -12.164 -16.423  31.634  1.00  0.00     0.066 CG0
ATOM     18  G   UNL     1     -12.536 -17.890  31.737  1.00  0.00     0.000 G0
ENDBRANCH  13  17
ENDBRANCH  11  13
ENDBRANCH  10  11
ENDBRANCH   1  10
TORSDOF 0
ENDMDL
