MODEL 1
REMARK VINA RESULT:    -6.114      0.000      0.000
REMARK INTER + INTRA:         -10.942
REMARK INTER:                  -9.509
REMARK INTRA:                  -1.433
REMARK UNBOUND:                -1.433
REMARK SMILES COc1cc(CNC(=O)CCCCC=CC(C)C)ccc1O
REMARK SMILES IDX 11 1 12 2 13 3 14 4 15 5 16 6 17 7 18 8 10 9 8 10 9 11 7 12
REMARK SMILES IDX 6 14 5 15 4 16 19 17 3 18 20 19 21 20 2 21 1 22 22 23
REMARK H PARENT 7 13 22 24
REMARK Flexibility Score: inf
ROOT
ATOM      1  C   UNL     1      -3.340  16.159   3.424  1.00  0.00     0.010 C 
ENDROOT
BRANCH   1   2
ATOM      2  C   UNL     1      -3.820  15.465   4.716  1.00  0.00     0.005 C 
BRANCH   2   3
ATOM      3  C   UNL     1      -2.848  15.585   5.902  1.00  0.00     0.027 C 
BRANCH   3   4
ATOM      4  C   UNL     1      -2.058  14.324   6.129  1.00  0.00    -0.031 C 
ATOM      5  C   UNL     1      -0.876  14.116   5.525  1.00  0.00    -0.028 C 
BRANCH   5   6
ATOM      6  C   UNL     1      -0.069  12.853   5.722  1.00  0.00     0.005 C 
ATOM      7  C   UNL     1      -0.899  11.765   6.415  1.00  0.00     0.012 C 
ATOM      8  C   UNL     1       1.229  13.134   6.488  1.00  0.00     0.012 C 
ENDBRANCH   5   6
ENDBRANCH   3   4
ENDBRANCH   2   3
ENDBRANCH   1   2
BRANCH   1   9
ATOM      9  C   UNL     1      -3.203  15.227   2.208  1.00  0.00     0.100 C 
BRANCH   9  10
ATOM     10  C   UNL     1      -1.821  15.265   1.621  1.00  0.00     0.220 C 
ATOM     11  O   UNL     1      -1.469  16.255   0.923  1.00  0.00    -0.275 OA
ATOM     12  N   UNL     1      -0.918  14.171   1.829  1.00  0.00    -0.352 N 
ATOM     13  H   UNL     1      -1.144  13.453   2.554  1.00  0.00     0.163 HD
BRANCH  12  14
ATOM     14  C   UNL     1       0.209  13.919   0.938  1.00  0.00     0.151 C 
BRANCH  14  15
ATOM     15  C   UNL     1       1.498  14.039   1.705  1.00  0.00    -0.025 A 
ATOM     16  C   UNL     1       2.236  15.231   1.647  1.00  0.00     0.056 A 
ATOM     17  C   UNL     1       1.926  13.001   2.545  1.00  0.00     0.009 A 
ATOM     18  C   UNL     1       3.401  15.390   2.422  1.00  0.00     0.160 A 
ATOM     19  C   UNL     1       3.084  13.151   3.310  1.00  0.00     0.050 A 
ATOM     20  C   UNL     1       3.822  14.337   3.255  1.00  0.00     0.157 A 
BRANCH  18  21
ATOM     21  O   UNL     1       4.154  16.576   2.396  1.00  0.00    -0.493 OA
ATOM     22  C   UNL     1       4.225  17.463   1.284  1.00  0.00     0.278 C 
ENDBRANCH  18  21
BRANCH  20  23
ATOM     23  O   UNL     1       4.970  14.452   4.038  1.00  0.00    -0.504 OA
ATOM     24  H   UNL     1       5.875  14.673   3.641  1.00  0.00     0.293 HD
ENDBRANCH  20  23
ENDBRANCH  14  15
ENDBRANCH  12  14
ENDBRANCH   9  10
ENDBRANCH   1   9
TORSDOF 10
ENDMDL
MODEL 2
REMARK VINA RESULT:    -5.995      2.417      4.335
REMARK INTER + INTRA:         -10.758
REMARK INTER:                  -9.727
REMARK INTRA:                  -1.031
REMARK UNBOUND:                -1.433
REMARK SMILES COc1cc(CNC(=O)CCCCC=CC(C)C)ccc1O
REMARK SMILES IDX 11 1 12 2 13 3 14 4 15 5 16 6 17 7 18 8 10 9 8 10 9 11 7 12
REMARK SMILES IDX 6 14 5 15 4 16 19 17 3 18 20 19 21 20 2 21 1 22 22 23
REMARK H PARENT 7 13 22 24
REMARK Flexibility Score: inf
ROOT
ATOM      1  C   UNL     1      -0.775  15.979   0.642  1.00  0.00     0.010 C 
ENDROOT
BRANCH   1   2
ATOM      2  C   UNL     1      -2.123  16.682   0.907  1.00  0.00     0.005 C 
BRANCH   2   3
ATOM      3  C   UNL     1      -3.235  15.754   1.424  1.00  0.00     0.027 C 
BRANCH   3   4
ATOM      4  C   UNL     1      -3.652  16.083   2.832  1.00  0.00    -0.031 C 
ATOM      5  C   UNL     1      -3.096  15.472   3.892  1.00  0.00    -0.028 C 
BRANCH   5   6
ATOM      6  C   UNL     1      -3.507  15.770   5.315  1.00  0.00     0.005 C 
ATOM      7  C   UNL     1      -3.791  17.265   5.511  1.00  0.00     0.012 C 
ATOM      8  C   UNL     1      -2.459  15.269   6.315  1.00  0.00     0.012 C 
ENDBRANCH   5   6
ENDBRANCH   3   4
ENDBRANCH   2   3
ENDBRANCH   1   2
BRANCH   1   9
ATOM      9  C   UNL     1      -0.894  14.589  -0.007  1.00  0.00     0.100 C 
BRANCH   9  10
ATOM     10  C   UNL     1       0.321  13.743   0.246  1.00  0.00     0.220 C 
ATOM     11  O   UNL     1       0.565  12.764  -0.510  1.00  0.00    -0.275 OA
ATOM     12  N   UNL     1       1.182  14.030   1.356  1.00  0.00    -0.352 N 
ATOM     13  H   UNL     1       1.083  14.942   1.857  1.00  0.00     0.163 HD
BRANCH  12  14
ATOM     14  C   UNL     1       2.064  13.021   1.932  1.00  0.00     0.151 C 
BRANCH  14  15
ATOM     15  C   UNL     1       2.172  13.230   3.417  1.00  0.00    -0.025 A 
ATOM     16  C   UNL     1       1.069  12.960   4.242  1.00  0.00     0.056 A 
ATOM     17  C   UNL     1       3.390  13.613   3.997  1.00  0.00     0.009 A 
ATOM     18  C   UNL     1       1.176  13.073   5.642  1.00  0.00     0.160 A 
ATOM     19  C   UNL     1       3.500  13.733   5.384  1.00  0.00     0.050 A 
ATOM     20  C   UNL     1       2.403  13.465   6.208  1.00  0.00     0.157 A 
BRANCH  18  21
ATOM     21  O   UNL     1       0.094  12.797   6.494  1.00  0.00    -0.493 OA
ATOM     22  C   UNL     1      -0.917  11.829   6.228  1.00  0.00     0.278 C 
ENDBRANCH  18  21
BRANCH  20  23
ATOM     23  O   UNL     1       2.553  13.589   7.588  1.00  0.00    -0.504 OA
ATOM     24  H   UNL     1       1.868  14.063   8.166  1.00  0.00     0.293 HD
ENDBRANCH  20  23
ENDBRANCH  14  15
ENDBRANCH  12  14
ENDBRANCH   9  10
ENDBRANCH   1   9
TORSDOF 10
ENDMDL
MODEL 3
REMARK VINA RESULT:    -5.984      2.034      3.836
REMARK INTER + INTRA:         -10.740
REMARK INTER:                  -9.453
REMARK INTRA:                  -1.287
REMARK UNBOUND:                -1.433
REMARK SMILES COc1cc(CNC(=O)CCCCC=CC(C)C)ccc1O
REMARK SMILES IDX 11 1 12 2 13 3 14 4 15 5 16 6 17 7 18 8 10 9 8 10 9 11 7 12
REMARK SMILES IDX 6 14 5 15 4 16 19 17 3 18 20 19 21 20 2 21 1 22 22 23
REMARK H PARENT 7 13 22 24
REMARK Flexibility Score: inf
ROOT
ATOM      1  C   UNL     1      -1.597  14.305   6.037  1.00  0.00     0.010 C 
ENDROOT
BRANCH   1   2
ATOM      2  C   UNL     1      -1.910  12.803   6.201  1.00  0.00     0.005 C 
BRANCH   2   3
ATOM      3  C   UNL     1      -0.755  11.865   5.810  1.00  0.00     0.027 C 
BRANCH   3   4
ATOM      4  C   UNL     1       0.570  12.576   5.753  1.00  0.00    -0.031 C 
ATOM      5  C   UNL     1       1.372  12.484   4.679  1.00  0.00    -0.028 C 
BRANCH   5   6
ATOM      6  C   UNL     1       2.715  13.173   4.601  1.00  0.00     0.005 C 
ATOM      7  C   UNL     1       3.760  12.278   3.924  1.00  0.00     0.012 C 
ATOM      8  C   UNL     1       3.189  13.630   5.986  1.00  0.00     0.012 C 
ENDBRANCH   5   6
ENDBRANCH   3   4
ENDBRANCH   2   3
ENDBRANCH   1   2
BRANCH   1   9
ATOM      9  C   UNL     1      -2.835  15.213   5.945  1.00  0.00     0.100 C 
BRANCH   9  10
ATOM     10  C   UNL     1      -3.348  15.327   4.538  1.00  0.00     0.220 C 
ATOM     11  O   UNL     1      -4.589  15.413   4.334  1.00  0.00    -0.275 OA
ATOM     12  N   UNL     1      -2.433  15.311   3.433  1.00  0.00    -0.352 N 
ATOM     13  H   UNL     1      -1.411  15.430   3.615  1.00  0.00     0.163 HD
BRANCH  12  14
ATOM     14  C   UNL     1      -2.856  14.945   2.085  1.00  0.00     0.151 C 
BRANCH  14  15
ATOM     15  C   UNL     1      -1.679  14.419   1.311  1.00  0.00    -0.025 A 
ATOM     16  C   UNL     1      -0.376  14.646   1.782  1.00  0.00     0.056 A 
ATOM     17  C   UNL     1      -1.872  13.631   0.168  1.00  0.00     0.009 A 
ATOM     18  C   UNL     1       0.734  14.092   1.114  1.00  0.00     0.160 A 
ATOM     19  C   UNL     1      -0.775  13.085  -0.502  1.00  0.00     0.050 A 
ATOM     20  C   UNL     1       0.523  13.310  -0.036  1.00  0.00     0.157 A 
BRANCH  18  21
ATOM     21  O   UNL     1       2.048  14.290   1.568  1.00  0.00    -0.493 OA
ATOM     22  C   UNL     1       2.721  15.545   1.570  1.00  0.00     0.278 C 
ENDBRANCH  18  21
BRANCH  20  23
ATOM     23  O   UNL     1       1.593  12.742  -0.727  1.00  0.00    -0.504 OA
ATOM     24  H   UNL     1       2.442  12.446  -0.260  1.00  0.00     0.293 HD
ENDBRANCH  20  23
ENDBRANCH  14  15
ENDBRANCH  12  14
ENDBRANCH   9  10
ENDBRANCH   1   9
TORSDOF 10
ENDMDL
MODEL 4
REMARK VINA RESULT:    -5.950      0.793      2.001
REMARK INTER + INTRA:         -10.687
REMARK INTER:                  -9.413
REMARK INTRA:                  -1.274
REMARK UNBOUND:                -1.433
REMARK SMILES COc1cc(CNC(=O)CCCCC=CC(C)C)ccc1O
REMARK SMILES IDX 11 1 12 2 13 3 14 4 15 5 16 6 17 7 18 8 10 9 8 10 9 11 7 12
REMARK SMILES IDX 6 14 5 15 4 16 19 17 3 18 20 19 21 20 2 21 1 22 22 23
REMARK H PARENT 7 13 22 24
REMARK Flexibility Score: inf
ROOT
ATOM      1  C   UNL     1      -3.368  16.351   3.496  1.00  0.00     0.010 C 
ENDROOT
BRANCH   1   2
ATOM      2  C   UNL     1      -3.791  15.490   4.704  1.00  0.00     0.005 C 
BRANCH   2   3
ATOM      3  C   UNL     1      -2.872  15.618   5.931  1.00  0.00     0.027 C 
BRANCH   3   4
ATOM      4  C   UNL     1      -2.059  14.376   6.175  1.00  0.00    -0.031 C 
ATOM      5  C   UNL     1      -0.935  14.124   5.483  1.00  0.00    -0.028 C 
BRANCH   5   6
ATOM      6  C   UNL     1      -0.108  12.877   5.695  1.00  0.00     0.005 C 
ATOM      7  C   UNL     1      -0.908  11.796   6.432  1.00  0.00     0.012 C 
ATOM      8  C   UNL     1       1.202  13.194   6.428  1.00  0.00     0.012 C 
ENDBRANCH   5   6
ENDBRANCH   3   4
ENDBRANCH   2   3
ENDBRANCH   1   2
BRANCH   1   9
ATOM      9  C   UNL     1      -3.276  15.588   2.164  1.00  0.00     0.100 C 
BRANCH   9  10
ATOM     10  C   UNL     1      -1.938  15.759   1.506  1.00  0.00     0.220 C 
ATOM     11  O   UNL     1      -1.771  16.685   0.667  1.00  0.00    -0.275 OA
ATOM     12  N   UNL     1      -0.864  14.858   1.810  1.00  0.00    -0.352 N 
ATOM     13  H   UNL     1      -0.950  14.220   2.634  1.00  0.00     0.163 HD
BRANCH  12  14
ATOM     14  C   UNL     1       0.262  14.662   0.902  1.00  0.00     0.151 C 
BRANCH  14  15
ATOM     15  C   UNL     1       1.553  14.856   1.649  1.00  0.00    -0.025 A 
ATOM     16  C   UNL     1       2.016  13.852   2.514  1.00  0.00     0.056 A 
ATOM     17  C   UNL     1       2.342  15.993   1.426  1.00  0.00     0.009 A 
ATOM     18  C   UNL     1       3.262  13.980   3.159  1.00  0.00     0.160 A 
ATOM     19  C   UNL     1       3.575  16.129   2.068  1.00  0.00     0.050 A 
ATOM     20  C   UNL     1       4.039  15.131   2.930  1.00  0.00     0.157 A 
BRANCH  18  21
ATOM     21  O   UNL     1       3.758  12.987   4.019  1.00  0.00    -0.493 OA
ATOM     22  C   UNL     1       3.477  11.596   3.894  1.00  0.00     0.278 C 
ENDBRANCH  18  21
BRANCH  20  23
ATOM     23  O   UNL     1       5.278  15.298   3.548  1.00  0.00    -0.504 OA
ATOM     24  H   UNL     1       5.778  16.179   3.524  1.00  0.00     0.293 HD
ENDBRANCH  20  23
ENDBRANCH  14  15
ENDBRANCH  12  14
ENDBRANCH   9  10
ENDBRANCH   1   9
TORSDOF 10
ENDMDL
MODEL 5
REMARK VINA RESULT:    -5.928      2.638      4.392
REMARK INTER + INTRA:         -10.654
REMARK INTER:                  -9.788
REMARK INTRA:                  -0.867
REMARK UNBOUND:                -1.433
REMARK SMILES COc1cc(CNC(=O)CCCCC=CC(C)C)ccc1O
REMARK SMILES IDX 11 1 12 2 13 3 14 4 15 5 16 6 17 7 18 8 10 9 8 10 9 11 7 12
REMARK SMILES IDX 6 14 5 15 4 16 19 17 3 18 20 19 21 20 2 21 1 22 22 23
REMARK H PARENT 7 13 22 24
REMARK Flexibility Score: inf
ROOT
ATOM      1  C   UNL     1      -0.842  13.806   5.520  1.00  0.00     0.010 C 
ENDROOT
BRANCH   1   2
ATOM      2  C   UNL     1      -2.142  13.235   6.124  1.00  0.00     0.005 C 
BRANCH   2   3
ATOM      3  C   UNL     1      -1.964  11.904   6.876  1.00  0.00     0.027 C 
BRANCH   3   4
ATOM      4  C   UNL     1      -3.206  11.490   7.617  1.00  0.00    -0.031 C 
ATOM      5  C   UNL     1      -4.281  12.292   7.692  1.00  0.00    -0.028 C 
BRANCH   5   6
ATOM      6  C   UNL     1      -5.535  11.910   8.443  1.00  0.00     0.005 C 
ATOM      7  C   UNL     1      -5.695  12.742   9.721  1.00  0.00     0.012 C 
ATOM      8  C   UNL     1      -5.565  10.408   8.751  1.00  0.00     0.012 C 
ENDBRANCH   5   6
ENDBRANCH   3   4
ENDBRANCH   2   3
ENDBRANCH   1   2
BRANCH   1   9
ATOM      9  C   UNL     1       0.342  13.882   6.499  1.00  0.00     0.100 C 
BRANCH   9  10
ATOM     10  C   UNL     1       1.582  13.250   5.935  1.00  0.00     0.220 C 
ATOM     11  O   UNL     1       2.677  13.374   6.549  1.00  0.00    -0.275 OA
ATOM     12  N   UNL     1       1.527  12.534   4.694  1.00  0.00    -0.352 N 
ATOM     13  H   UNL     1       0.597  12.277   4.293  1.00  0.00     0.163 HD
BRANCH  12  14
ATOM     14  C   UNL     1       2.714  12.318   3.873  1.00  0.00     0.151 C 
BRANCH  14  15
ATOM     15  C   UNL     1       3.156  13.623   3.269  1.00  0.00    -0.025 A 
ATOM     16  C   UNL     1       2.301  14.314   2.397  1.00  0.00     0.056 A 
ATOM     17  C   UNL     1       4.382  14.198   3.634  1.00  0.00     0.009 A 
ATOM     18  C   UNL     1       2.665  15.575   1.886  1.00  0.00     0.160 A 
ATOM     19  C   UNL     1       4.751  15.445   3.125  1.00  0.00     0.050 A 
ATOM     20  C   UNL     1       3.901  16.136   2.256  1.00  0.00     0.157 A 
BRANCH  18  21
ATOM     21  O   UNL     1       1.825  16.297   1.022  1.00  0.00    -0.493 OA
ATOM     22  C   UNL     1       1.638  15.999  -0.358  1.00  0.00     0.278 C 
ENDBRANCH  18  21
BRANCH  20  23
ATOM     23  O   UNL     1       4.301  17.382   1.774  1.00  0.00    -0.504 OA
ATOM     24  H   UNL     1       4.945  17.479   0.999  1.00  0.00     0.293 HD
ENDBRANCH  20  23
ENDBRANCH  14  15
ENDBRANCH  12  14
ENDBRANCH   9  10
ENDBRANCH   1   9
TORSDOF 10
ENDMDL
MODEL 6
REMARK VINA RESULT:    -5.927      1.963      4.869
REMARK INTER + INTRA:         -10.651
REMARK INTER:                  -9.737
REMARK INTRA:                  -0.914
REMARK UNBOUND:                -1.433
REMARK SMILES COc1cc(CNC(=O)CCCCC=CC(C)C)ccc1O
REMARK SMILES IDX 11 1 12 2 13 3 14 4 15 5 16 6 17 7 18 8 10 9 8 10 9 11 7 12
REMARK SMILES IDX 6 14 5 15 4 16 19 17 3 18 20 19 21 20 2 21 1 22 22 23
REMARK H PARENT 7 13 22 24
REMARK Flexibility Score: inf
ROOT
ATOM      1  C   UNL     1      -0.083  12.612   5.648  1.00  0.00     0.010 C 
ENDROOT
BRANCH   1   2
ATOM      2  C   UNL     1      -1.320  11.934   6.274  1.00  0.00     0.005 C 
BRANCH   2   3
ATOM      3  C   UNL     1      -2.474  12.895   6.605  1.00  0.00     0.027 C 
BRANCH   3   4
ATOM      4  C   UNL     1      -2.386  14.188   5.839  1.00  0.00    -0.031 C 
ATOM      5  C   UNL     1      -3.359  15.111   5.902  1.00  0.00    -0.028 C 
BRANCH   5   6
ATOM      6  C   UNL     1      -3.304  16.410   5.132  1.00  0.00     0.005 C 
ATOM      7  C   UNL     1      -4.461  17.338   5.523  1.00  0.00     0.012 C 
ATOM      8  C   UNL     1      -3.280  16.161   3.619  1.00  0.00     0.012 C 
ENDBRANCH   5   6
ENDBRANCH   3   4
ENDBRANCH   2   3
ENDBRANCH   1   2
BRANCH   1   9
ATOM      9  C   UNL     1       0.996  13.037   6.657  1.00  0.00     0.100 C 
BRANCH   9  10
ATOM     10  C   UNL     1       2.307  13.337   5.990  1.00  0.00     0.220 C 
ATOM     11  O   UNL     1       3.251  13.829   6.666  1.00  0.00    -0.275 OA
ATOM     12  N   UNL     1       2.475  13.091   4.587  1.00  0.00    -0.352 N 
ATOM     13  H   UNL     1       1.765  12.514   4.081  1.00  0.00     0.163 HD
BRANCH  12  14
ATOM     14  C   UNL     1       3.499  13.771   3.800  1.00  0.00     0.151 C 
BRANCH  14  15
ATOM     15  C   UNL     1       2.884  14.329   2.545  1.00  0.00    -0.025 A 
ATOM     16  C   UNL     1       1.881  13.608   1.880  1.00  0.00     0.056 A 
ATOM     17  C   UNL     1       3.245  15.602   2.081  1.00  0.00     0.009 A 
ATOM     18  C   UNL     1       1.238  14.152   0.750  1.00  0.00     0.160 A 
ATOM     19  C   UNL     1       2.616  16.143   0.958  1.00  0.00     0.050 A 
ATOM     20  C   UNL     1       1.616  15.427   0.292  1.00  0.00     0.157 A 
BRANCH  18  21
ATOM     21  O   UNL     1       0.221  13.461   0.070  1.00  0.00    -0.493 OA
ATOM     22  C   UNL     1       0.440  12.568  -1.017  1.00  0.00     0.278 C 
ENDBRANCH  18  21
BRANCH  20  23
ATOM     23  O   UNL     1       1.006  16.003  -0.822  1.00  0.00    -0.504 OA
ATOM     24  H   UNL     1       0.085  15.722  -1.139  1.00  0.00     0.293 HD
ENDBRANCH  20  23
ENDBRANCH  14  15
ENDBRANCH  12  14
ENDBRANCH   9  10
ENDBRANCH   1   9
TORSDOF 10
ENDMDL
MODEL 7
REMARK VINA RESULT:    -5.906      2.634      4.921
REMARK INTER + INTRA:         -10.619
REMARK INTER:                  -9.799
REMARK INTRA:                  -0.820
REMARK UNBOUND:                -1.433
REMARK SMILES COc1cc(CNC(=O)CCCCC=CC(C)C)ccc1O
REMARK SMILES IDX 11 1 12 2 13 3 14 4 15 5 16 6 17 7 18 8 10 9 8 10 9 11 7 12
REMARK SMILES IDX 6 14 5 15 4 16 19 17 3 18 20 19 21 20 2 21 1 22 22 23
REMARK H PARENT 7 13 22 24
REMARK Flexibility Score: inf
ROOT
ATOM      1  C   UNL     1      -0.335  13.733   5.736  1.00  0.00     0.010 C 
ENDROOT
BRANCH   1   2
ATOM      2  C   UNL     1      -1.711  13.147   6.115  1.00  0.00     0.005 C 
BRANCH   2   3
ATOM      3  C   UNL     1      -1.650  11.772   6.801  1.00  0.00     0.027 C 
BRANCH   3   4
ATOM      4  C   UNL     1      -2.929  11.426   7.515  1.00  0.00    -0.031 C 
ATOM      5  C   UNL     1      -3.938  12.307   7.618  1.00  0.00    -0.028 C 
BRANCH   5   6
ATOM      6  C   UNL     1      -5.226  11.993   8.342  1.00  0.00     0.005 C 
ATOM      7  C   UNL     1      -5.361  12.824   9.624  1.00  0.00     0.012 C 
ATOM      8  C   UNL     1      -5.350  10.493   8.637  1.00  0.00     0.012 C 
ENDBRANCH   5   6
ENDBRANCH   3   4
ENDBRANCH   2   3
ENDBRANCH   1   2
BRANCH   1   9
ATOM      9  C   UNL     1       0.808  13.361   6.695  1.00  0.00     0.100 C 
BRANCH   9  10
ATOM     10  C   UNL     1       2.138  13.322   6.000  1.00  0.00     0.220 C 
ATOM     11  O   UNL     1       3.159  13.775   6.586  1.00  0.00    -0.275 OA
ATOM     12  N   UNL     1       2.242  12.800   4.669  1.00  0.00    -0.352 N 
ATOM     13  H   UNL     1       1.442  12.260   4.268  1.00  0.00     0.163 HD
BRANCH  12  14
ATOM     14  C   UNL     1       3.347  13.154   3.783  1.00  0.00     0.151 C 
BRANCH  14  15
ATOM     15  C   UNL     1       2.824  13.940   2.612  1.00  0.00    -0.025 A 
ATOM     16  C   UNL     1       1.815  13.398   1.802  1.00  0.00     0.056 A 
ATOM     17  C   UNL     1       3.277  15.245   2.371  1.00  0.00     0.009 A 
ATOM     18  C   UNL     1       1.257  14.152   0.751  1.00  0.00     0.160 A 
ATOM     19  C   UNL     1       2.733  15.995   1.326  1.00  0.00     0.050 A 
ATOM     20  C   UNL     1       1.727  15.457   0.517  1.00  0.00     0.157 A 
BRANCH  18  21
ATOM     21  O   UNL     1       0.236  13.642  -0.068  1.00  0.00    -0.493 OA
ATOM     22  C   UNL     1       0.411  12.595  -1.018  1.00  0.00     0.278 C 
ENDBRANCH  18  21
BRANCH  20  23
ATOM     23  O   UNL     1       1.203  16.238  -0.512  1.00  0.00    -0.504 OA
ATOM     24  H   UNL     1       1.174  15.918  -1.472  1.00  0.00     0.293 HD
ENDBRANCH  20  23
ENDBRANCH  14  15
ENDBRANCH  12  14
ENDBRANCH   9  10
ENDBRANCH   1   9
TORSDOF 10
ENDMDL
MODEL 8
REMARK VINA RESULT:    -5.877      1.837      5.382
REMARK INTER + INTRA:         -10.574
REMARK INTER:                  -9.012
REMARK INTRA:                  -1.562
REMARK UNBOUND:                -1.433
REMARK SMILES COc1cc(CNC(=O)CCCCC=CC(C)C)ccc1O
REMARK SMILES IDX 11 1 12 2 13 3 14 4 15 5 16 6 17 7 18 8 10 9 8 10 9 11 7 12
REMARK SMILES IDX 6 14 5 15 4 16 19 17 3 18 20 19 21 20 2 21 1 22 22 23
REMARK H PARENT 7 13 22 24
REMARK Flexibility Score: inf
ROOT
ATOM      1  C   UNL     1       1.696  13.766   5.880  1.00  0.00     0.010 C 
ENDROOT
BRANCH   1   2
ATOM      2  C   UNL     1       0.821  12.638   6.463  1.00  0.00     0.005 C 
BRANCH   2   3
ATOM      3  C   UNL     1      -0.406  12.277   5.608  1.00  0.00     0.027 C 
BRANCH   3   4
ATOM      4  C   UNL     1      -1.656  12.977   6.070  1.00  0.00    -0.031 C 
ATOM      5  C   UNL     1      -1.820  14.301   5.913  1.00  0.00    -0.028 C 
BRANCH   5   6
ATOM      6  C   UNL     1      -3.057  15.032   6.381  1.00  0.00     0.005 C 
ATOM      7  C   UNL     1      -4.279  14.105   6.396  1.00  0.00     0.012 C 
ATOM      8  C   UNL     1      -3.320  16.283   5.534  1.00  0.00     0.012 C 
ENDBRANCH   5   6
ENDBRANCH   3   4
ENDBRANCH   2   3
ENDBRANCH   1   2
BRANCH   1   9
ATOM      9  C   UNL     1       3.068  13.309   5.356  1.00  0.00     0.100 C 
BRANCH   9  10
ATOM     10  C   UNL     1       3.198  13.499   3.872  1.00  0.00     0.220 C 
ATOM     11  O   UNL     1       4.174  14.152   3.412  1.00  0.00    -0.275 OA
ATOM     12  N   UNL     1       2.204  12.965   2.987  1.00  0.00    -0.352 N 
ATOM     13  H   UNL     1       1.511  12.273   3.354  1.00  0.00     0.163 HD
BRANCH  12  14
ATOM     14  C   UNL     1       2.004  13.492   1.641  1.00  0.00     0.151 C 
BRANCH  14  15
ATOM     15  C   UNL     1       0.561  13.876   1.457  1.00  0.00    -0.025 A 
ATOM     16  C   UNL     1      -0.099  13.555   0.261  1.00  0.00     0.056 A 
ATOM     17  C   UNL     1      -0.155  14.477   2.502  1.00  0.00     0.009 A 
ATOM     18  C   UNL     1      -1.471  13.835   0.103  1.00  0.00     0.160 A 
ATOM     19  C   UNL     1      -1.513  14.762   2.349  1.00  0.00     0.050 A 
ATOM     20  C   UNL     1      -2.174  14.444   1.158  1.00  0.00     0.157 A 
BRANCH  18  21
ATOM     21  O   UNL     1      -2.163  13.514  -1.076  1.00  0.00    -0.493 OA
ATOM     22  C   UNL     1      -2.755  12.247  -1.346  1.00  0.00     0.278 C 
ENDBRANCH  18  21
BRANCH  20  23
ATOM     23  O   UNL     1      -3.532  14.738   1.045  1.00  0.00    -0.504 OA
ATOM     24  H   UNL     1      -4.211  14.047   0.749  1.00  0.00     0.293 HD
ENDBRANCH  20  23
ENDBRANCH  14  15
ENDBRANCH  12  14
ENDBRANCH   9  10
ENDBRANCH   1   9
TORSDOF 10
ENDMDL
MODEL 9
REMARK VINA RESULT:    -5.804      2.456      5.972
REMARK INTER + INTRA:         -10.460
REMARK INTER:                  -9.474
REMARK INTRA:                  -0.987
REMARK UNBOUND:                -1.433
REMARK SMILES COc1cc(CNC(=O)CCCCC=CC(C)C)ccc1O
REMARK SMILES IDX 11 1 12 2 13 3 14 4 15 5 16 6 17 7 18 8 10 9 8 10 9 11 7 12
REMARK SMILES IDX 6 14 5 15 4 16 19 17 3 18 20 19 21 20 2 21 1 22 22 23
REMARK H PARENT 7 13 22 24
REMARK Flexibility Score: inf
ROOT
ATOM      1  C   UNL     1       3.029  14.490   2.744  1.00  0.00     0.010 C 
ENDROOT
BRANCH   1   2
ATOM      2  C   UNL     1       2.925  13.125   3.457  1.00  0.00     0.005 C 
BRANCH   2   3
ATOM      3  C   UNL     1       3.241  13.168   4.962  1.00  0.00     0.027 C 
BRANCH   3   4
ATOM      4  C   UNL     1       2.007  13.339   5.806  1.00  0.00    -0.031 C 
ATOM      5  C   UNL     1       0.836  12.776   5.463  1.00  0.00    -0.028 C 
BRANCH   5   6
ATOM      6  C   UNL     1      -0.422  12.945   6.282  1.00  0.00     0.005 C 
ATOM      7  C   UNL     1      -1.179  11.618   6.419  1.00  0.00     0.012 C 
ATOM      8  C   UNL     1      -1.324  14.040   5.701  1.00  0.00     0.012 C 
ENDBRANCH   5   6
ENDBRANCH   3   4
ENDBRANCH   2   3
ENDBRANCH   1   2
BRANCH   1   9
ATOM      9  C   UNL     1       1.713  14.996   2.132  1.00  0.00     0.100 C 
BRANCH   9  10
ATOM     10  C   UNL     1       1.466  14.420   0.767  1.00  0.00     0.220 C 
ATOM     11  O   UNL     1       2.060  14.909  -0.231  1.00  0.00    -0.275 OA
ATOM     12  N   UNL     1       0.539  13.338   0.597  1.00  0.00    -0.352 N 
ATOM     13  H   UNL     1       0.200  12.820   1.439  1.00  0.00     0.163 HD
BRANCH  12  14
ATOM     14  C   UNL     1      -0.093  13.056  -0.687  1.00  0.00     0.151 C 
BRANCH  14  15
ATOM     15  C   UNL     1      -1.588  13.028  -0.520  1.00  0.00    -0.025 A 
ATOM     16  C   UNL     1      -2.203  13.883   0.407  1.00  0.00     0.056 A 
ATOM     17  C   UNL     1      -2.381  12.214  -1.341  1.00  0.00     0.009 A 
ATOM     18  C   UNL     1      -3.606  13.928   0.519  1.00  0.00     0.160 A 
ATOM     19  C   UNL     1      -3.772  12.249  -1.229  1.00  0.00     0.050 A 
ATOM     20  C   UNL     1      -4.388  13.101  -0.307  1.00  0.00     0.157 A 
BRANCH  18  21
ATOM     21  O   UNL     1      -4.251  14.783   1.428  1.00  0.00    -0.493 OA
ATOM     22  C   UNL     1      -3.582  15.584   2.398  1.00  0.00     0.278 C 
ENDBRANCH  18  21
BRANCH  20  23
ATOM     23  O   UNL     1      -5.780  13.113  -0.229  1.00  0.00    -0.504 OA
ATOM     24  H   UNL     1      -6.354  13.618  -0.894  1.00  0.00     0.293 HD
ENDBRANCH  20  23
ENDBRANCH  14  15
ENDBRANCH  12  14
ENDBRANCH   9  10
ENDBRANCH   1   9
TORSDOF 10
ENDMDL
