MODEL 1
REMARK VINA RESULT:    -7.055      0.000      0.000
REMARK INTER + INTRA:          -8.751
REMARK INTER:                  -8.498
REMARK INTRA:                  -0.252
REMARK UNBOUND:                -0.252
REMARK SMILES O=c1c(O)c(-c2ccc(O)c(O)c2)oc2cc(O)cc(O)c12
REMARK SMILES IDX 5 1 3 2 2 3 1 4 22 5 20 6 19 7 17 8 16 9 15 10 14 11 6 12
REMARK SMILES IDX 7 13 8 14 9 15 13 16 11 17 10 18 12 20 4 22 21 24 18 26
REMARK H PARENT 10 19 12 21 4 23 21 25 18 27
REMARK Flexibility Score: inf
ROOT
ATOM      1  C   UNL     1       7.426  -0.131 -12.801  1.00  0.00     0.180 A 
ATOM      2  C   UNL     1       8.348   0.913 -12.595  1.00  0.00     0.208 A 
ATOM      3  C   UNL     1       7.942   2.235 -12.839  1.00  0.00     0.238 A 
ATOM      4  O   UNL     1       8.756   3.179 -12.647  1.00  0.00    -0.285 OA
ATOM      5  C   UNL     1       6.635   2.489 -13.303  1.00  0.00     0.111 A 
ATOM      6  C   UNL     1       6.149   3.790 -13.576  1.00  0.00     0.134 A 
ATOM      7  C   UNL     1       4.837   3.958 -14.043  1.00  0.00     0.093 A 
ATOM      8  C   UNL     1       4.004   2.855 -14.243  1.00  0.00     0.123 A 
ATOM      9  C   UNL     1       4.479   1.567 -13.973  1.00  0.00     0.094 A 
ATOM     10  C   UNL     1       5.782   1.378 -13.506  1.00  0.00     0.146 A 
ATOM     11  O   UNL     1       6.206   0.145 -13.253  1.00  0.00    -0.452 OA
ENDROOT
BRANCH   1  12
ATOM     12  C   UNL     1       7.773  -1.547 -12.549  1.00  0.00     0.025 A 
ATOM     13  C   UNL     1       7.883  -2.435 -13.630  1.00  0.00     0.016 A 
ATOM     14  C   UNL     1       8.188  -3.781 -13.413  1.00  0.00     0.051 A 
ATOM     15  C   UNL     1       8.372  -4.263 -12.111  1.00  0.00     0.157 A 
ATOM     16  C   UNL     1       7.937  -2.039 -11.241  1.00  0.00     0.062 A 
ATOM     17  C   UNL     1       8.241  -3.388 -11.019  1.00  0.00     0.158 A 
BRANCH  15  18
ATOM     18  O   UNL     1       8.678  -5.607 -11.897  1.00  0.00    -0.504 OA
ATOM     19  H   UNL     1       8.491  -6.059 -11.010  1.00  0.00     0.293 HD
ENDBRANCH  15  18
BRANCH  17  20
ATOM     20  O   UNL     1       8.404  -3.840  -9.710  1.00  0.00    -0.504 OA
ATOM     21  H   UNL     1       9.023  -4.606  -9.479  1.00  0.00     0.293 HD
ENDBRANCH  17  20
ENDBRANCH   1  12
BRANCH   2  22
ATOM     22  O   UNL     1       9.653   0.631 -12.184  1.00  0.00    -0.502 OA
ATOM     23  H   UNL     1      10.087  -0.272 -12.334  1.00  0.00     0.293 HD
ENDBRANCH   2  22
BRANCH   6  24
ATOM     24  O   UNL     1       6.956   4.912 -13.388  1.00  0.00    -0.507 OA
ATOM     25  H   UNL     1       6.630   5.846 -13.607  1.00  0.00     0.293 HD
ENDBRANCH   6  24
BRANCH   8  26
ATOM     26  O   UNL     1       2.705   3.050 -14.708  1.00  0.00    -0.508 OA
ATOM     27  H   UNL     1       2.110   2.270 -14.958  1.00  0.00     0.293 HD
ENDBRANCH   8  26
TORSDOF 6
ENDMDL
MODEL 2
REMARK VINA RESULT:    -6.769      1.405      2.928
REMARK INTER + INTRA:          -8.406
REMARK INTER:                  -8.198
REMARK INTRA:                  -0.208
REMARK UNBOUND:                -0.252
REMARK SMILES O=c1c(O)c(-c2ccc(O)c(O)c2)oc2cc(O)cc(O)c12
REMARK SMILES IDX 5 1 3 2 2 3 1 4 22 5 20 6 19 7 17 8 16 9 15 10 14 11 6 12
REMARK SMILES IDX 7 13 8 14 9 15 13 16 11 17 10 18 12 20 4 22 21 24 18 26
REMARK H PARENT 10 19 12 21 4 23 21 25 18 27
REMARK Flexibility Score: inf
ROOT
ATOM      1  C   UNL     1       7.123  -0.622 -12.769  1.00  0.00     0.180 A 
ATOM      2  C   UNL     1       5.951  -0.576 -13.548  1.00  0.00     0.208 A 
ATOM      3  C   UNL     1       5.541   0.655 -14.084  1.00  0.00     0.238 A 
ATOM      4  O   UNL     1       4.499   0.707 -14.793  1.00  0.00    -0.285 OA
ATOM      5  C   UNL     1       6.294   1.817 -13.818  1.00  0.00     0.111 A 
ATOM      6  C   UNL     1       5.948   3.096 -14.317  1.00  0.00     0.134 A 
ATOM      7  C   UNL     1       6.745   4.206 -13.999  1.00  0.00     0.093 A 
ATOM      8  C   UNL     1       7.877   4.063 -13.194  1.00  0.00     0.123 A 
ATOM      9  C   UNL     1       8.225   2.802 -12.699  1.00  0.00     0.094 A 
ATOM     10  C   UNL     1       7.445   1.684 -13.005  1.00  0.00     0.146 A 
ATOM     11  O   UNL     1       7.800   0.496 -12.526  1.00  0.00    -0.452 OA
ENDROOT
BRANCH   1  12
ATOM     12  C   UNL     1       7.630  -1.884 -12.184  1.00  0.00     0.025 A 
ATOM     13  C   UNL     1       8.790  -2.473 -12.711  1.00  0.00     0.016 A 
ATOM     14  C   UNL     1       9.273  -3.675 -12.189  1.00  0.00     0.051 A 
ATOM     15  C   UNL     1       8.596  -4.315 -11.143  1.00  0.00     0.157 A 
ATOM     16  C   UNL     1       6.940  -2.540 -11.148  1.00  0.00     0.062 A 
ATOM     17  C   UNL     1       7.421  -3.746 -10.623  1.00  0.00     0.158 A 
BRANCH  15  18
ATOM     18  O   UNL     1       9.082  -5.514 -10.622  1.00  0.00    -0.504 OA
ATOM     19  H   UNL     1       9.830  -6.025 -11.076  1.00  0.00     0.293 HD
ENDBRANCH  15  18
BRANCH  17  20
ATOM     20  O   UNL     1       6.716  -4.365  -9.592  1.00  0.00    -0.504 OA
ATOM     21  H   UNL     1       7.114  -5.118  -9.044  1.00  0.00     0.293 HD
ENDBRANCH  17  20
ENDBRANCH   1  12
BRANCH   2  22
ATOM     22  O   UNL     1       5.196  -1.732 -13.755  1.00  0.00    -0.502 OA
ATOM     23  H   UNL     1       5.621  -2.644 -13.884  1.00  0.00     0.293 HD
ENDBRANCH   2  22
BRANCH   6  24
ATOM     24  O   UNL     1       4.823   3.272 -15.123  1.00  0.00    -0.507 OA
ATOM     25  H   UNL     1       4.074   2.590 -15.149  1.00  0.00     0.293 HD
ENDBRANCH   6  24
BRANCH   8  26
ATOM     26  O   UNL     1       8.652   5.182 -12.893  1.00  0.00    -0.508 OA
ATOM     27  H   UNL     1       9.295   5.185 -12.111  1.00  0.00     0.293 HD
ENDBRANCH   8  26
TORSDOF 6
ENDMDL
MODEL 3
REMARK VINA RESULT:    -6.704     15.982     16.832
REMARK INTER + INTRA:          -8.328
REMARK INTER:                  -8.064
REMARK INTRA:                  -0.264
REMARK UNBOUND:                -0.252
REMARK SMILES O=c1c(O)c(-c2ccc(O)c(O)c2)oc2cc(O)cc(O)c12
REMARK SMILES IDX 5 1 3 2 2 3 1 4 22 5 20 6 19 7 17 8 16 9 15 10 14 11 6 12
REMARK SMILES IDX 7 13 8 14 9 15 13 16 11 17 10 18 12 20 4 22 21 24 18 26
REMARK H PARENT 10 19 12 21 4 23 21 25 18 27
REMARK Flexibility Score: inf
ROOT
ATOM      1  C   UNL     1       8.703  -2.327   3.332  1.00  0.00     0.180 A 
ATOM      2  C   UNL     1      10.111  -2.347   3.358  1.00  0.00     0.208 A 
ATOM      3  C   UNL     1      10.804  -1.143   3.561  1.00  0.00     0.238 A 
ATOM      4  O   UNL     1      12.064  -1.150   3.597  1.00  0.00    -0.285 OA
ATOM      5  C   UNL     1      10.082   0.059   3.713  1.00  0.00     0.111 A 
ATOM      6  C   UNL     1      10.703   1.314   3.918  1.00  0.00     0.134 A 
ATOM      7  C   UNL     1       9.914   2.467   4.052  1.00  0.00     0.093 A 
ATOM      8  C   UNL     1       8.521   2.389   3.985  1.00  0.00     0.123 A 
ATOM      9  C   UNL     1       7.902   1.151   3.784  1.00  0.00     0.094 A 
ATOM     10  C   UNL     1       8.670  -0.009   3.649  1.00  0.00     0.146 A 
ATOM     11  O   UNL     1       8.057  -1.172   3.465  1.00  0.00    -0.452 OA
ENDROOT
BRANCH   1  12
ATOM     12  C   UNL     1       7.903  -3.557   3.141  1.00  0.00     0.025 A 
ATOM     13  C   UNL     1       7.784  -4.112   1.857  1.00  0.00     0.016 A 
ATOM     14  C   UNL     1       7.016  -5.261   1.651  1.00  0.00     0.051 A 
ATOM     15  C   UNL     1       6.342  -5.862   2.722  1.00  0.00     0.157 A 
ATOM     16  C   UNL     1       7.207  -4.151   4.210  1.00  0.00     0.062 A 
ATOM     17  C   UNL     1       6.434  -5.301   4.006  1.00  0.00     0.158 A 
BRANCH  15  18
ATOM     18  O   UNL     1       5.577  -7.009   2.513  1.00  0.00    -0.504 OA
ATOM     19  H   UNL     1       4.566  -6.992   2.578  1.00  0.00     0.293 HD
ENDBRANCH  15  18
BRANCH  17  20
ATOM     20  O   UNL     1       5.764  -5.868   5.090  1.00  0.00    -0.504 OA
ATOM     21  H   UNL     1       5.211  -5.312   5.731  1.00  0.00     0.293 HD
ENDBRANCH  17  20
ENDBRANCH   1  12
BRANCH   2  22
ATOM     22  O   UNL     1      10.804  -3.543   3.155  1.00  0.00    -0.502 OA
ATOM     23  H   UNL     1      10.332  -4.436   3.066  1.00  0.00     0.293 HD
ENDBRANCH   2  22
BRANCH   6  24
ATOM     24  O   UNL     1      12.092   1.426   3.989  1.00  0.00    -0.507 OA
ATOM     25  H   UNL     1      12.693   0.611   3.979  1.00  0.00     0.293 HD
ENDBRANCH   6  24
BRANCH   8  26
ATOM     26  O   UNL     1       7.761   3.550   4.120  1.00  0.00    -0.508 OA
ATOM     27  H   UNL     1       8.052   4.304   4.731  1.00  0.00     0.293 HD
ENDBRANCH   8  26
TORSDOF 6
ENDMDL
MODEL 4
REMARK VINA RESULT:    -6.331      1.622      6.879
REMARK INTER + INTRA:          -7.879
REMARK INTER:                  -7.574
REMARK INTRA:                  -0.305
REMARK UNBOUND:                -0.252
REMARK SMILES O=c1c(O)c(-c2ccc(O)c(O)c2)oc2cc(O)cc(O)c12
REMARK SMILES IDX 5 1 3 2 2 3 1 4 22 5 20 6 19 7 17 8 16 9 15 10 14 11 6 12
REMARK SMILES IDX 7 13 8 14 9 15 13 16 11 17 10 18 12 20 4 22 21 24 18 26
REMARK H PARENT 10 19 12 21 4 23 21 25 18 27
REMARK Flexibility Score: inf
ROOT
ATOM      1  C   UNL     1       7.359   0.531 -13.281  1.00  0.00     0.180 A 
ATOM      2  C   UNL     1       8.449   0.299 -14.142  1.00  0.00     0.208 A 
ATOM      3  C   UNL     1       9.136  -0.922 -14.053  1.00  0.00     0.238 A 
ATOM      4  O   UNL     1      10.108  -1.144 -14.827  1.00  0.00    -0.285 OA
ATOM      5  C   UNL     1       8.738  -1.878 -13.096  1.00  0.00     0.111 A 
ATOM      6  C   UNL     1       9.380  -3.131 -12.941  1.00  0.00     0.134 A 
ATOM      7  C   UNL     1       8.928  -4.025 -11.959  1.00  0.00     0.093 A 
ATOM      8  C   UNL     1       7.853  -3.693 -11.132  1.00  0.00     0.123 A 
ATOM      9  C   UNL     1       7.214  -2.458 -11.283  1.00  0.00     0.094 A 
ATOM     10  C   UNL     1       7.648  -1.553 -12.255  1.00  0.00     0.146 A 
ATOM     11  O   UNL     1       7.021  -0.389 -12.381  1.00  0.00    -0.452 OA
ENDROOT
BRANCH   1  12
ATOM     12  C   UNL     1       6.573   1.784 -13.326  1.00  0.00     0.025 A 
ATOM     13  C   UNL     1       7.039   2.916 -12.639  1.00  0.00     0.016 A 
ATOM     14  C   UNL     1       6.302   4.103 -12.651  1.00  0.00     0.051 A 
ATOM     15  C   UNL     1       5.082   4.172 -13.336  1.00  0.00     0.157 A 
ATOM     16  C   UNL     1       5.337   1.850 -13.994  1.00  0.00     0.062 A 
ATOM     17  C   UNL     1       4.596   3.038 -14.007  1.00  0.00     0.158 A 
BRANCH  15  18
ATOM     18  O   UNL     1       4.351   5.359 -13.346  1.00  0.00    -0.504 OA
ATOM     19  H   UNL     1       3.930   5.716 -14.197  1.00  0.00     0.293 HD
ENDBRANCH  15  18
BRANCH  17  20
ATOM     20  O   UNL     1       3.378   3.070 -14.686  1.00  0.00    -0.504 OA
ATOM     21  H   UNL     1       3.044   2.283 -15.228  1.00  0.00     0.293 HD
ENDBRANCH  17  20
ENDBRANCH   1  12
BRANCH   2  22
ATOM     22  O   UNL     1       8.855   1.283 -15.046  1.00  0.00    -0.502 OA
ATOM     23  H   UNL     1       9.084   1.073 -16.011  1.00  0.00     0.293 HD
ENDBRANCH   2  22
BRANCH   6  24
ATOM     24  O   UNL     1      10.457  -3.492 -13.749  1.00  0.00    -0.507 OA
ATOM     25  H   UNL     1      10.939  -2.815 -14.329  1.00  0.00     0.293 HD
ENDBRANCH   6  24
BRANCH   8  26
ATOM     26  O   UNL     1       7.425  -4.600 -10.164  1.00  0.00    -0.508 OA
ATOM     27  H   UNL     1       6.487  -4.984 -10.177  1.00  0.00     0.293 HD
ENDBRANCH   8  26
TORSDOF 6
ENDMDL
MODEL 5
REMARK VINA RESULT:    -6.321      1.657      3.260
REMARK INTER + INTRA:          -7.866
REMARK INTER:                  -7.542
REMARK INTRA:                  -0.324
REMARK UNBOUND:                -0.252
REMARK SMILES O=c1c(O)c(-c2ccc(O)c(O)c2)oc2cc(O)cc(O)c12
REMARK SMILES IDX 5 1 3 2 2 3 1 4 22 5 20 6 19 7 17 8 16 9 15 10 14 11 6 12
REMARK SMILES IDX 7 13 8 14 9 15 13 16 11 17 10 18 12 20 4 22 21 24 18 26
REMARK H PARENT 10 19 12 21 4 23 21 25 18 27
REMARK Flexibility Score: inf
ROOT
ATOM      1  C   UNL     1       7.999  -1.326 -12.942  1.00  0.00     0.180 A 
ATOM      2  C   UNL     1       6.646  -1.099 -13.256  1.00  0.00     0.208 A 
ATOM      3  C   UNL     1       6.174   0.223 -13.311  1.00  0.00     0.238 A 
ATOM      4  O   UNL     1       4.966   0.439 -13.601  1.00  0.00    -0.285 OA
ATOM      5  C   UNL     1       7.054   1.289 -13.032  1.00  0.00     0.111 A 
ATOM      6  C   UNL     1       6.658   2.648 -13.062  1.00  0.00     0.134 A 
ATOM      7  C   UNL     1       7.592   3.651 -12.764  1.00  0.00     0.093 A 
ATOM      8  C   UNL     1       8.910   3.324 -12.437  1.00  0.00     0.123 A 
ATOM      9  C   UNL     1       9.307   1.983 -12.407  1.00  0.00     0.094 A 
ATOM     10  C   UNL     1       8.392   0.969 -12.701  1.00  0.00     0.146 A 
ATOM     11  O   UNL     1       8.797  -0.296 -12.671  1.00  0.00    -0.452 OA
ENDROOT
BRANCH   1  12
ATOM     12  C   UNL     1       8.575  -2.688 -12.883  1.00  0.00     0.025 A 
ATOM     13  C   UNL     1       9.113  -3.261 -14.045  1.00  0.00     0.016 A 
ATOM     14  C   UNL     1       9.642  -4.554 -14.017  1.00  0.00     0.051 A 
ATOM     15  C   UNL     1       9.628  -5.299 -12.831  1.00  0.00     0.157 A 
ATOM     16  C   UNL     1       8.542  -3.446 -11.699  1.00  0.00     0.062 A 
ATOM     17  C   UNL     1       9.070  -4.743 -11.667  1.00  0.00     0.158 A 
BRANCH  15  18
ATOM     18  O   UNL     1      10.158  -6.588 -12.805  1.00  0.00    -0.504 OA
ATOM     19  H   UNL     1       9.752  -7.340 -13.350  1.00  0.00     0.293 HD
ENDBRANCH  15  18
BRANCH  17  20
ATOM     20  O   UNL     1       9.027  -5.463 -10.474  1.00  0.00    -0.504 OA
ATOM     21  H   UNL     1       9.653  -6.237 -10.290  1.00  0.00     0.293 HD
ENDBRANCH  17  20
ENDBRANCH   1  12
BRANCH   2  22
ATOM     22  O   UNL     1       5.783  -2.174 -13.478  1.00  0.00    -0.502 OA
ATOM     23  H   UNL     1       5.882  -3.060 -12.994  1.00  0.00     0.293 HD
ENDBRANCH   2  22
BRANCH   6  24
ATOM     24  O   UNL     1       5.349   3.008 -13.384  1.00  0.00    -0.507 OA
ATOM     25  H   UNL     1       4.856   3.733 -12.877  1.00  0.00     0.293 HD
ENDBRANCH   6  24
BRANCH   8  26
ATOM     26  O   UNL     1       9.818   4.340 -12.144  1.00  0.00    -0.508 OA
ATOM     27  H   UNL     1      10.259   4.882 -12.878  1.00  0.00     0.293 HD
ENDBRANCH   8  26
TORSDOF 6
ENDMDL
MODEL 6
REMARK VINA RESULT:    -6.216      2.423      3.302
REMARK INTER + INTRA:          -7.740
REMARK INTER:                  -7.408
REMARK INTRA:                  -0.331
REMARK UNBOUND:                -0.252
REMARK SMILES O=c1c(O)c(-c2ccc(O)c(O)c2)oc2cc(O)cc(O)c12
REMARK SMILES IDX 5 1 3 2 2 3 1 4 22 5 20 6 19 7 17 8 16 9 15 10 14 11 6 12
REMARK SMILES IDX 7 13 8 14 9 15 13 16 11 17 10 18 12 20 4 22 21 24 18 26
REMARK H PARENT 10 19 12 21 4 23 21 25 18 27
REMARK Flexibility Score: inf
ROOT
ATOM      1  C   UNL     1       7.156   2.759 -13.168  1.00  0.00     0.180 A 
ATOM      2  C   UNL     1       7.798   3.936 -13.600  1.00  0.00     0.208 A 
ATOM      3  C   UNL     1       7.137   5.165 -13.447  1.00  0.00     0.238 A 
ATOM      4  O   UNL     1       7.707   6.227 -13.820  1.00  0.00    -0.285 OA
ATOM      5  C   UNL     1       5.844   5.197 -12.885  1.00  0.00     0.111 A 
ATOM      6  C   UNL     1       5.110   6.393 -12.700  1.00  0.00     0.134 A 
ATOM      7  C   UNL     1       3.824   6.339 -12.141  1.00  0.00     0.093 A 
ATOM      8  C   UNL     1       3.259   5.117 -11.767  1.00  0.00     0.123 A 
ATOM      9  C   UNL     1       3.981   3.933 -11.947  1.00  0.00     0.094 A 
ATOM     10  C   UNL     1       5.264   3.965 -12.501  1.00  0.00     0.146 A 
ATOM     11  O   UNL     1       5.930   2.826 -12.656  1.00  0.00    -0.452 OA
ENDROOT
BRANCH   1  12
ATOM     12  C   UNL     1       7.794   1.429 -13.279  1.00  0.00     0.025 A 
ATOM     13  C   UNL     1       7.487   0.604 -14.372  1.00  0.00     0.016 A 
ATOM     14  C   UNL     1       8.061  -0.664 -14.486  1.00  0.00     0.051 A 
ATOM     15  C   UNL     1       8.939  -1.134 -13.500  1.00  0.00     0.157 A 
ATOM     16  C   UNL     1       8.659   0.946 -12.280  1.00  0.00     0.062 A 
ATOM     17  C   UNL     1       9.235  -0.326 -12.390  1.00  0.00     0.158 A 
BRANCH  15  18
ATOM     18  O   UNL     1       9.512  -2.399 -13.618  1.00  0.00    -0.504 OA
ATOM     19  H   UNL     1      10.516  -2.524 -13.679  1.00  0.00     0.293 HD
ENDBRANCH  15  18
BRANCH  17  20
ATOM     20  O   UNL     1      10.094  -0.769 -11.385  1.00  0.00    -0.504 OA
ATOM     21  H   UNL     1       9.809  -1.457 -10.699  1.00  0.00     0.293 HD
ENDBRANCH  17  20
ENDBRANCH   1  12
BRANCH   2  22
ATOM     22  O   UNL     1       9.058   3.872 -14.199  1.00  0.00    -0.502 OA
ATOM     23  H   UNL     1       9.365   3.069 -14.736  1.00  0.00     0.293 HD
ENDBRANCH   2  22
BRANCH   6  24
ATOM     24  O   UNL     1       5.645   7.628 -13.063  1.00  0.00    -0.507 OA
ATOM     25  H   UNL     1       6.104   8.230 -12.390  1.00  0.00     0.293 HD
ENDBRANCH   6  24
BRANCH   8  26
ATOM     26  O   UNL     1       1.980   5.092 -11.215  1.00  0.00    -0.508 OA
ATOM     27  H   UNL     1       1.199   4.677 -11.709  1.00  0.00     0.293 HD
ENDBRANCH   8  26
TORSDOF 6
ENDMDL
MODEL 7
REMARK VINA RESULT:    -6.179      1.927      7.309
REMARK INTER + INTRA:          -7.695
REMARK INTER:                  -7.403
REMARK INTRA:                  -0.293
REMARK UNBOUND:                -0.252
REMARK SMILES O=c1c(O)c(-c2ccc(O)c(O)c2)oc2cc(O)cc(O)c12
REMARK SMILES IDX 5 1 3 2 2 3 1 4 22 5 20 6 19 7 17 8 16 9 15 10 14 11 6 12
REMARK SMILES IDX 7 13 8 14 9 15 13 16 11 17 10 18 12 20 4 22 21 24 18 26
REMARK H PARENT 10 19 12 21 4 23 21 25 18 27
REMARK Flexibility Score: inf
ROOT
ATOM      1  C   UNL     1       6.555  -1.793 -13.058  1.00  0.00     0.180 A 
ATOM      2  C   UNL     1       6.312  -2.422 -11.822  1.00  0.00     0.208 A 
ATOM      3  C   UNL     1       7.166  -3.457 -11.407  1.00  0.00     0.238 A 
ATOM      4  O   UNL     1       6.964  -4.020 -10.297  1.00  0.00    -0.285 OA
ATOM      5  C   UNL     1       8.230  -3.858 -12.241  1.00  0.00     0.111 A 
ATOM      6  C   UNL     1       9.133  -4.894 -11.899  1.00  0.00     0.134 A 
ATOM      7  C   UNL     1      10.163  -5.239 -12.787  1.00  0.00     0.093 A 
ATOM      8  C   UNL     1      10.306  -4.573 -14.006  1.00  0.00     0.123 A 
ATOM      9  C   UNL     1       9.418  -3.548 -14.348  1.00  0.00     0.094 A 
ATOM     10  C   UNL     1       8.386  -3.188 -13.477  1.00  0.00     0.146 A 
ATOM     11  O   UNL     1       7.560  -2.207 -13.824  1.00  0.00    -0.452 OA
ENDROOT
BRANCH   1  12
ATOM     12  C   UNL     1       5.711  -0.683 -13.555  1.00  0.00     0.025 A 
ATOM     13  C   UNL     1       4.482  -0.971 -14.169  1.00  0.00     0.016 A 
ATOM     14  C   UNL     1       3.680   0.060 -14.664  1.00  0.00     0.051 A 
ATOM     15  C   UNL     1       4.101   1.393 -14.567  1.00  0.00     0.157 A 
ATOM     16  C   UNL     1       6.140   0.654 -13.478  1.00  0.00     0.062 A 
ATOM     17  C   UNL     1       5.340   1.690 -13.975  1.00  0.00     0.158 A 
BRANCH  15  18
ATOM     18  O   UNL     1       3.297   2.420 -15.061  1.00  0.00    -0.504 OA
ATOM     19  H   UNL     1       2.836   3.077 -14.442  1.00  0.00     0.293 HD
ENDBRANCH  15  18
BRANCH  17  20
ATOM     20  O   UNL     1       5.793   3.005 -13.875  1.00  0.00    -0.504 OA
ATOM     21  H   UNL     1       6.120   3.524 -14.681  1.00  0.00     0.293 HD
ENDBRANCH  17  20
ENDBRANCH   1  12
BRANCH   2  22
ATOM     22  O   UNL     1       5.220  -2.040 -11.038  1.00  0.00    -0.502 OA
ATOM     23  H   UNL     1       4.298  -1.883 -11.430  1.00  0.00     0.293 HD
ENDBRANCH   2  22
BRANCH   6  24
ATOM     24  O   UNL     1       9.016  -5.579 -10.690  1.00  0.00    -0.507 OA
ATOM     25  H   UNL     1       8.452  -5.222  -9.927  1.00  0.00     0.293 HD
ENDBRANCH   6  24
BRANCH   8  26
ATOM     26  O   UNL     1      11.337  -4.937 -14.870  1.00  0.00    -0.508 OA
ATOM     27  H   UNL     1      12.035  -4.267 -15.173  1.00  0.00     0.293 HD
ENDBRANCH   8  26
TORSDOF 6
ENDMDL
MODEL 8
REMARK VINA RESULT:    -6.093      1.922      7.305
REMARK INTER + INTRA:          -7.592
REMARK INTER:                  -7.411
REMARK INTRA:                  -0.181
REMARK UNBOUND:                -0.252
REMARK SMILES O=c1c(O)c(-c2ccc(O)c(O)c2)oc2cc(O)cc(O)c12
REMARK SMILES IDX 5 1 3 2 2 3 1 4 22 5 20 6 19 7 17 8 16 9 15 10 14 11 6 12
REMARK SMILES IDX 7 13 8 14 9 15 13 16 11 17 10 18 12 20 4 22 21 24 18 26
REMARK H PARENT 10 19 12 21 4 23 21 25 18 27
REMARK Flexibility Score: inf
ROOT
ATOM      1  C   UNL     1       8.076  -0.819 -12.902  1.00  0.00     0.180 A 
ATOM      2  C   UNL     1       7.218  -1.774 -12.323  1.00  0.00     0.208 A 
ATOM      3  C   UNL     1       7.597  -3.126 -12.341  1.00  0.00     0.238 A 
ATOM      4  O   UNL     1       6.841  -3.989 -11.816  1.00  0.00    -0.285 OA
ATOM      5  C   UNL     1       8.810  -3.502 -12.953  1.00  0.00     0.111 A 
ATOM      6  C   UNL     1       9.262  -4.842 -13.017  1.00  0.00     0.134 A 
ATOM      7  C   UNL     1      10.479  -5.135 -13.652  1.00  0.00     0.093 A 
ATOM      8  C   UNL     1      11.249  -4.119 -14.222  1.00  0.00     0.123 A 
ATOM      9  C   UNL     1      10.808  -2.793 -14.160  1.00  0.00     0.094 A 
ATOM     10  C   UNL     1       9.600  -2.480 -13.532  1.00  0.00     0.146 A 
ATOM     11  O   UNL     1       9.206  -1.212 -13.482  1.00  0.00    -0.452 OA
ENDROOT
BRANCH   1  12
ATOM     12  C   UNL     1       7.756   0.626 -12.905  1.00  0.00     0.025 A 
ATOM     13  C   UNL     1       6.685   1.094 -13.682  1.00  0.00     0.016 A 
ATOM     14  C   UNL     1       6.379   2.457 -13.717  1.00  0.00     0.051 A 
ATOM     15  C   UNL     1       7.148   3.373 -12.989  1.00  0.00     0.157 A 
ATOM     16  C   UNL     1       8.539   1.551 -12.192  1.00  0.00     0.062 A 
ATOM     17  C   UNL     1       8.236   2.918 -12.226  1.00  0.00     0.158 A 
BRANCH  15  18
ATOM     18  O   UNL     1       6.838   4.733 -13.024  1.00  0.00    -0.504 OA
ATOM     19  H   UNL     1       7.541   5.442 -12.848  1.00  0.00     0.293 HD
ENDBRANCH  15  18
BRANCH  17  20
ATOM     20  O   UNL     1       9.030   3.806 -11.501  1.00  0.00    -0.504 OA
ATOM     21  H   UNL     1       8.774   4.123 -10.574  1.00  0.00     0.293 HD
ENDBRANCH  17  20
ENDBRANCH   1  12
BRANCH   2  22
ATOM     22  O   UNL     1       5.998  -1.382 -11.768  1.00  0.00    -0.502 OA
ATOM     23  H   UNL     1       5.545  -1.905 -11.026  1.00  0.00     0.293 HD
ENDBRANCH   2  22
BRANCH   6  24
ATOM     24  O   UNL     1       8.516  -5.879 -12.459  1.00  0.00    -0.507 OA
ATOM     25  H   UNL     1       8.956  -6.643 -11.959  1.00  0.00     0.293 HD
ENDBRANCH   6  24
BRANCH   8  26
ATOM     26  O   UNL     1      12.453  -4.438 -14.847  1.00  0.00    -0.508 OA
ATOM     27  H   UNL     1      12.906  -3.793 -15.483  1.00  0.00     0.293 HD
ENDBRANCH   8  26
TORSDOF 6
ENDMDL
MODEL 9
REMARK VINA RESULT:    -6.035      2.158      2.495
REMARK INTER + INTRA:          -7.523
REMARK INTER:                  -7.200
REMARK INTRA:                  -0.323
REMARK UNBOUND:                -0.252
REMARK SMILES O=c1c(O)c(-c2ccc(O)c(O)c2)oc2cc(O)cc(O)c12
REMARK SMILES IDX 5 1 3 2 2 3 1 4 22 5 20 6 19 7 17 8 16 9 15 10 14 11 6 12
REMARK SMILES IDX 7 13 8 14 9 15 13 16 11 17 10 18 12 20 4 22 21 24 18 26
REMARK H PARENT 10 19 12 21 4 23 21 25 18 27
REMARK Flexibility Score: inf
ROOT
ATOM      1  C   UNL     1       6.243   0.883 -13.574  1.00  0.00     0.180 A 
ATOM      2  C   UNL     1       7.503   1.457 -13.831  1.00  0.00     0.208 A 
ATOM      3  C   UNL     1       7.658   2.846 -13.688  1.00  0.00     0.238 A 
ATOM      4  O   UNL     1       8.784   3.370 -13.905  1.00  0.00    -0.285 OA
ATOM      5  C   UNL     1       6.551   3.635 -13.314  1.00  0.00     0.111 A 
ATOM      6  C   UNL     1       6.622   5.040 -13.152  1.00  0.00     0.134 A 
ATOM      7  C   UNL     1       5.473   5.757 -12.785  1.00  0.00     0.093 A 
ATOM      8  C   UNL     1       4.259   5.098 -12.578  1.00  0.00     0.123 A 
ATOM      9  C   UNL     1       4.183   3.711 -12.735  1.00  0.00     0.094 A 
ATOM     10  C   UNL     1       5.316   2.979 -13.099  1.00  0.00     0.146 A 
ATOM     11  O   UNL     1       5.219   1.661 -13.236  1.00  0.00    -0.452 OA
ENDROOT
BRANCH   1  12
ATOM     12  C   UNL     1       6.006  -0.574 -13.685  1.00  0.00     0.025 A 
ATOM     13  C   UNL     1       5.395  -1.089 -14.838  1.00  0.00     0.016 A 
ATOM     14  C   UNL     1       5.142  -2.458 -14.954  1.00  0.00     0.051 A 
ATOM     15  C   UNL     1       5.481  -3.330 -13.913  1.00  0.00     0.157 A 
ATOM     16  C   UNL     1       6.326  -1.450 -12.632  1.00  0.00     0.062 A 
ATOM     17  C   UNL     1       6.072  -2.822 -12.744  1.00  0.00     0.158 A 
BRANCH  15  18
ATOM     18  O   UNL     1       5.229  -4.697 -14.032  1.00  0.00    -0.504 OA
ATOM     19  H   UNL     1       5.964  -5.353 -14.270  1.00  0.00     0.293 HD
ENDBRANCH  15  18
BRANCH  17  20
ATOM     20  O   UNL     1       6.409  -3.663 -11.683  1.00  0.00    -0.504 OA
ATOM     21  H   UNL     1       5.799  -4.408 -11.372  1.00  0.00     0.293 HD
ENDBRANCH  17  20
ENDBRANCH   1  12
BRANCH   2  22
ATOM     22  O   UNL     1       8.570   0.659 -14.250  1.00  0.00    -0.502 OA
ATOM     23  H   UNL     1       9.416   1.049 -14.651  1.00  0.00     0.293 HD
ENDBRANCH   2  22
BRANCH   6  24
ATOM     24  O   UNL     1       7.820   5.727 -13.353  1.00  0.00    -0.507 OA
ATOM     25  H   UNL     1       8.225   6.312 -12.632  1.00  0.00     0.293 HD
ENDBRANCH   6  24
BRANCH   8  26
ATOM     26  O   UNL     1       3.132   5.834 -12.215  1.00  0.00    -0.508 OA
ATOM     27  H   UNL     1       2.554   5.562 -11.429  1.00  0.00     0.293 HD
ENDBRANCH   8  26
TORSDOF 6
ENDMDL
