MODEL 1
REMARK VINA RESULT:    -4.061      0.000      0.000
REMARK INTER + INTRA:          -6.768
REMARK INTER:                  -6.198
REMARK INTRA:                  -0.570
REMARK UNBOUND:                -0.570
REMARK SMILES CCCCCCCCCC=CC(=O)[O-]
REMARK SMILES IDX 7 1 8 2 9 3 10 4 11 5 12 6 13 7 14 8 6 9 5 10 4 11 3 12 2 13
REMARK SMILES IDX 1 14
REMARK H PARENT
REMARK Flexibility Score: inf
ROOT
ATOM      1  C   UNL     1       7.522  -5.910   6.578  1.00  0.00     0.000 C 
ENDROOT
BRANCH   1   2
ATOM      2  C   UNL     1       8.412  -4.811   7.185  1.00  0.00     0.004 C 
BRANCH   2   3
ATOM      3  C   UNL     1       7.608  -3.601   7.683  1.00  0.00     0.027 C 
BRANCH   3   4
ATOM      4  C   UNL     1       6.738  -3.043   6.594  1.00  0.00    -0.025 C 
ATOM      5  C   UNL     1       6.910  -1.800   6.130  1.00  0.00     0.020 C 
BRANCH   5   6
ATOM      6  C   UNL     1       6.079  -1.237   5.054  1.00  0.00     0.064 C 
ATOM      7  O   UNL     1       4.967  -1.748   4.754  1.00  0.00    -0.545 OA
ATOM      8  O   UNL     1       6.528  -0.124   4.356  1.00  0.00    -0.545 OA
ENDBRANCH   5   6
ENDBRANCH   3   4
ENDBRANCH   2   3
ENDBRANCH   1   2
BRANCH   1   9
ATOM      9  C   UNL     1       6.694  -6.715   7.600  1.00  0.00     0.000 C 
BRANCH   9  10
ATOM     10  C   UNL     1       5.592  -7.607   6.995  1.00  0.00     0.000 C 
BRANCH  10  11
ATOM     11  C   UNL     1       5.884  -8.137   5.579  1.00  0.00    -0.000 C 
BRANCH  11  12
ATOM     12  C   UNL     1       4.617  -8.256   4.714  1.00  0.00    -0.000 C 
BRANCH  12  13
ATOM     13  C   UNL     1       3.331  -8.273   5.556  1.00  0.00    -0.003 C 
ATOM     14  C   UNL     1       2.421  -9.457   5.225  1.00  0.00     0.004 C 
ENDBRANCH  12  13
ENDBRANCH  11  12
ENDBRANCH  10  11
ENDBRANCH   9  10
ENDBRANCH   1   9
TORSDOF 9
ENDMDL
MODEL 2
REMARK VINA RESULT:    -3.783      4.913      8.038
REMARK INTER + INTRA:          -6.344
REMARK INTER:                  -5.206
REMARK INTRA:                  -1.138
REMARK UNBOUND:                -0.570
REMARK SMILES CCCCCCCCCC=CC(=O)[O-]
REMARK SMILES IDX 7 1 8 2 9 3 10 4 11 5 12 6 13 7 14 8 6 9 5 10 4 11 3 12 2 13
REMARK SMILES IDX 1 14
REMARK H PARENT
REMARK Flexibility Score: inf
ROOT
ATOM      1  C   UNL     1       5.651   2.971   5.095  1.00  0.00     0.000 C 
ENDROOT
BRANCH   1   2
ATOM      2  C   UNL     1       5.566   3.136   6.623  1.00  0.00     0.004 C 
BRANCH   2   3
ATOM      3  C   UNL     1       5.304   1.810   7.351  1.00  0.00     0.027 C 
BRANCH   3   4
ATOM      4  C   UNL     1       5.251   0.662   6.385  1.00  0.00    -0.025 C 
ATOM      5  C   UNL     1       4.841  -0.554   6.766  1.00  0.00     0.020 C 
BRANCH   5   6
ATOM      6  C   UNL     1       4.767  -1.689   5.833  1.00  0.00     0.064 C 
ATOM      7  O   UNL     1       5.130  -1.571   4.632  1.00  0.00    -0.545 OA
ATOM      8  O   UNL     1       4.291  -2.913   6.285  1.00  0.00    -0.545 OA
ENDBRANCH   5   6
ENDBRANCH   3   4
ENDBRANCH   2   3
ENDBRANCH   1   2
BRANCH   1   9
ATOM      9  C   UNL     1       6.730   3.830   4.406  1.00  0.00     0.000 C 
BRANCH   9  10
ATOM     10  C   UNL     1       8.137   3.200   4.353  1.00  0.00     0.000 C 
BRANCH  10  11
ATOM     11  C   UNL     1       8.274   1.989   3.411  1.00  0.00    -0.000 C 
BRANCH  11  12
ATOM     12  C   UNL     1       7.962   0.654   4.108  1.00  0.00    -0.000 C 
BRANCH  12  13
ATOM     13  C   UNL     1       8.916   0.364   5.278  1.00  0.00    -0.003 C 
ATOM     14  C   UNL     1       8.616  -0.966   5.972  1.00  0.00     0.004 C 
ENDBRANCH  12  13
ENDBRANCH  11  12
ENDBRANCH  10  11
ENDBRANCH   9  10
ENDBRANCH   1   9
TORSDOF 9
ENDMDL
MODEL 3
REMARK VINA RESULT:    -3.754      4.050      6.649
REMARK INTER + INTRA:          -6.299
REMARK INTER:                  -5.487
REMARK INTRA:                  -0.812
REMARK UNBOUND:                -0.570
REMARK SMILES CCCCCCCCCC=CC(=O)[O-]
REMARK SMILES IDX 7 1 8 2 9 3 10 4 11 5 12 6 13 7 14 8 6 9 5 10 4 11 3 12 2 13
REMARK SMILES IDX 1 14
REMARK H PARENT
REMARK Flexibility Score: inf
ROOT
ATOM      1  C   UNL     1       5.692  -7.924   6.033  1.00  0.00     0.000 C 
ENDROOT
BRANCH   1   2
ATOM      2  C   UNL     1       4.203  -7.539   6.065  1.00  0.00     0.004 C 
BRANCH   2   3
ATOM      3  C   UNL     1       3.298  -8.696   6.513  1.00  0.00     0.027 C 
BRANCH   3   4
ATOM      4  C   UNL     1       2.708  -9.412   5.333  1.00  0.00    -0.025 C 
ATOM      5  C   UNL     1       2.735  -8.878   4.106  1.00  0.00     0.020 C 
BRANCH   5   6
ATOM      6  C   UNL     1       2.176  -9.568   2.933  1.00  0.00     0.064 C 
ATOM      7  O   UNL     1       2.855 -10.411   2.287  1.00  0.00    -0.545 OA
ATOM      8  O   UNL     1       0.878  -9.286   2.530  1.00  0.00    -0.545 OA
ENDBRANCH   5   6
ENDBRANCH   3   4
ENDBRANCH   2   3
ENDBRANCH   1   2
BRANCH   1   9
ATOM      9  C   UNL     1       6.383  -7.968   7.411  1.00  0.00     0.000 C 
BRANCH   9  10
ATOM     10  C   UNL     1       7.269  -6.749   7.741  1.00  0.00     0.000 C 
BRANCH  10  11
ATOM     11  C   UNL     1       7.395  -5.709   6.612  1.00  0.00    -0.000 C 
BRANCH  11  12
ATOM     12  C   UNL     1       7.311  -4.261   7.126  1.00  0.00    -0.000 C 
BRANCH  12  13
ATOM     13  C   UNL     1       6.111  -4.038   8.060  1.00  0.00    -0.003 C 
ATOM     14  C   UNL     1       4.771  -4.080   7.325  1.00  0.00     0.004 C 
ENDBRANCH  12  13
ENDBRANCH  11  12
ENDBRANCH  10  11
ENDBRANCH   9  10
ENDBRANCH   1   9
TORSDOF 9
ENDMDL
MODEL 4
REMARK VINA RESULT:    -3.739      3.712      6.495
REMARK INTER + INTRA:          -6.277
REMARK INTER:                  -5.783
REMARK INTRA:                  -0.494
REMARK UNBOUND:                -0.570
REMARK SMILES CCCCCCCCCC=CC(=O)[O-]
REMARK SMILES IDX 7 1 8 2 9 3 10 4 11 5 12 6 13 7 14 8 6 9 5 10 4 11 3 12 2 13
REMARK SMILES IDX 1 14
REMARK H PARENT
REMARK Flexibility Score: inf
ROOT
ATOM      1  C   UNL     1       7.014  -6.168   6.699  1.00  0.00     0.000 C 
ENDROOT
BRANCH   1   2
ATOM      2  C   UNL     1       6.456  -7.601   6.633  1.00  0.00     0.004 C 
BRANCH   2   3
ATOM      3  C   UNL     1       6.017  -8.004   5.218  1.00  0.00     0.027 C 
BRANCH   3   4
ATOM      4  C   UNL     1       4.575  -8.422   5.196  1.00  0.00    -0.025 C 
ATOM      5  C   UNL     1       3.937  -8.672   4.046  1.00  0.00     0.020 C 
BRANCH   5   6
ATOM      6  C   UNL     1       2.529  -9.097   4.001  1.00  0.00     0.064 C 
ATOM      7  O   UNL     1       1.896  -9.141   2.913  1.00  0.00    -0.545 OA
ATOM      8  O   UNL     1       1.888  -9.457   5.179  1.00  0.00    -0.545 OA
ENDBRANCH   5   6
ENDBRANCH   3   4
ENDBRANCH   2   3
ENDBRANCH   1   2
BRANCH   1   9
ATOM      9  C   UNL     1       6.450  -5.303   7.844  1.00  0.00     0.000 C 
BRANCH   9  10
ATOM     10  C   UNL     1       5.036  -4.736   7.603  1.00  0.00     0.000 C 
BRANCH  10  11
ATOM     11  C   UNL     1       4.925  -3.202   7.686  1.00  0.00    -0.000 C 
BRANCH  11  12
ATOM     12  C   UNL     1       4.024  -2.611   6.588  1.00  0.00    -0.000 C 
BRANCH  12  13
ATOM     13  C   UNL     1       4.605  -1.324   5.980  1.00  0.00    -0.003 C 
ATOM     14  C   UNL     1       5.989  -1.531   5.364  1.00  0.00     0.004 C 
ENDBRANCH  12  13
ENDBRANCH  11  12
ENDBRANCH  10  11
ENDBRANCH   9  10
ENDBRANCH   1   9
TORSDOF 9
ENDMDL
MODEL 5
REMARK VINA RESULT:    -3.714      7.950     10.892
REMARK INTER + INTRA:          -6.238
REMARK INTER:                  -5.033
REMARK INTRA:                  -1.205
REMARK UNBOUND:                -0.570
REMARK SMILES CCCCCCCCCC=CC(=O)[O-]
REMARK SMILES IDX 7 1 8 2 9 3 10 4 11 5 12 6 13 7 14 8 6 9 5 10 4 11 3 12 2 13
REMARK SMILES IDX 1 14
REMARK H PARENT
REMARK Flexibility Score: inf
ROOT
ATOM      1  C   UNL     1      12.326   3.131  -0.105  1.00  0.00     0.000 C 
ENDROOT
BRANCH   1   2
ATOM      2  C   UNL     1      11.389   3.906   0.838  1.00  0.00     0.004 C 
BRANCH   2   3
ATOM      3  C   UNL     1      11.396   3.353   2.270  1.00  0.00     0.027 C 
BRANCH   3   4
ATOM      4  C   UNL     1      10.066   2.754   2.626  1.00  0.00    -0.025 C 
ATOM      5  C   UNL     1       9.954   1.813   3.572  1.00  0.00     0.020 C 
BRANCH   5   6
ATOM      6  C   UNL     1       8.660   1.222   3.947  1.00  0.00     0.064 C 
ATOM      7  O   UNL     1       8.489   0.690   5.076  1.00  0.00    -0.545 OA
ATOM      8  O   UNL     1       7.607   1.254   3.042  1.00  0.00    -0.545 OA
ENDBRANCH   5   6
ENDBRANCH   3   4
ENDBRANCH   2   3
ENDBRANCH   1   2
BRANCH   1   9
ATOM      9  C   UNL     1      13.790   3.033   0.368  1.00  0.00     0.000 C 
BRANCH   9  10
ATOM     10  C   UNL     1      14.497   1.700   0.047  1.00  0.00     0.000 C 
BRANCH  10  11
ATOM     11  C   UNL     1      13.674   0.435   0.350  1.00  0.00    -0.000 C 
BRANCH  11  12
ATOM     12  C   UNL     1      14.103  -0.255   1.656  1.00  0.00    -0.000 C 
BRANCH  12  13
ATOM     13  C   UNL     1      13.304   0.240   2.873  1.00  0.00    -0.003 C 
ATOM     14  C   UNL     1      14.104   1.194   3.760  1.00  0.00     0.004 C 
ENDBRANCH  12  13
ENDBRANCH  11  12
ENDBRANCH  10  11
ENDBRANCH   9  10
ENDBRANCH   1   9
TORSDOF 9
ENDMDL
MODEL 6
REMARK VINA RESULT:    -3.691      3.392      5.948
REMARK INTER + INTRA:          -6.203
REMARK INTER:                  -5.274
REMARK INTRA:                  -0.929
REMARK UNBOUND:                -0.570
REMARK SMILES CCCCCCCCCC=CC(=O)[O-]
REMARK SMILES IDX 7 1 8 2 9 3 10 4 11 5 12 6 13 7 14 8 6 9 5 10 4 11 3 12 2 13
REMARK SMILES IDX 1 14
REMARK H PARENT
REMARK Flexibility Score: inf
ROOT
ATOM      1  C   UNL     1       7.280  -5.893   6.608  1.00  0.00     0.000 C 
ENDROOT
BRANCH   1   2
ATOM      2  C   UNL     1       6.299  -7.062   6.802  1.00  0.00     0.004 C 
BRANCH   2   3
ATOM      3  C   UNL     1       4.926  -6.607   7.318  1.00  0.00     0.027 C 
BRANCH   3   4
ATOM      4  C   UNL     1       3.816  -7.348   6.630  1.00  0.00    -0.025 C 
ATOM      5  C   UNL     1       4.036  -8.068   5.524  1.00  0.00     0.020 C 
BRANCH   5   6
ATOM      6  C   UNL     1       2.966  -8.814   4.843  1.00  0.00     0.064 C 
ATOM      7  O   UNL     1       2.199  -9.583   5.481  1.00  0.00    -0.545 OA
ATOM      8  O   UNL     1       2.799  -8.668   3.472  1.00  0.00    -0.545 OA
ENDBRANCH   5   6
ENDBRANCH   3   4
ENDBRANCH   2   3
ENDBRANCH   1   2
BRANCH   1   9
ATOM      9  C   UNL     1       7.084  -4.710   7.578  1.00  0.00     0.000 C 
BRANCH   9  10
ATOM     10  C   UNL     1       7.468  -3.327   7.014  1.00  0.00     0.000 C 
BRANCH  10  11
ATOM     11  C   UNL     1       6.312  -2.541   6.369  1.00  0.00    -0.000 C 
BRANCH  11  12
ATOM     12  C   UNL     1       5.073  -2.450   7.276  1.00  0.00    -0.000 C 
BRANCH  12  13
ATOM     13  C   UNL     1       3.758  -2.563   6.489  1.00  0.00    -0.003 C 
ATOM     14  C   UNL     1       2.813  -3.620   7.061  1.00  0.00     0.004 C 
ENDBRANCH  12  13
ENDBRANCH  11  12
ENDBRANCH  10  11
ENDBRANCH   9  10
ENDBRANCH   1   9
TORSDOF 9
ENDMDL
MODEL 7
REMARK VINA RESULT:    -3.676      7.477     10.969
REMARK INTER + INTRA:          -6.180
REMARK INTER:                  -5.071
REMARK INTRA:                  -1.109
REMARK UNBOUND:                -0.570
REMARK SMILES CCCCCCCCCC=CC(=O)[O-]
REMARK SMILES IDX 7 1 8 2 9 3 10 4 11 5 12 6 13 7 14 8 6 9 5 10 4 11 3 12 2 13
REMARK SMILES IDX 1 14
REMARK H PARENT
REMARK Flexibility Score: inf
ROOT
ATOM      1  C   UNL     1      11.435   4.527   1.912  1.00  0.00     0.000 C 
ENDROOT
BRANCH   1   2
ATOM      2  C   UNL     1      10.692   3.968   3.139  1.00  0.00     0.004 C 
BRANCH   2   3
ATOM      3  C   UNL     1      11.300   2.656   3.656  1.00  0.00     0.027 C 
BRANCH   3   4
ATOM      4  C   UNL     1      10.237   1.622   3.891  1.00  0.00    -0.025 C 
ATOM      5  C   UNL     1       8.948   1.873   3.633  1.00  0.00     0.020 C 
BRANCH   5   6
ATOM      6  C   UNL     1       7.892   0.870   3.843  1.00  0.00     0.064 C 
ATOM      7  O   UNL     1       6.831   0.888   3.163  1.00  0.00    -0.545 OA
ATOM      8  O   UNL     1       8.068  -0.115   4.805  1.00  0.00    -0.545 OA
ENDBRANCH   5   6
ENDBRANCH   3   4
ENDBRANCH   2   3
ENDBRANCH   1   2
BRANCH   1   9
ATOM      9  C   UNL     1      11.097   3.834   0.576  1.00  0.00     0.000 C 
BRANCH   9  10
ATOM     10  C   UNL     1      12.297   3.204  -0.159  1.00  0.00     0.000 C 
BRANCH  10  11
ATOM     11  C   UNL     1      13.663   3.414   0.520  1.00  0.00    -0.000 C 
BRANCH  11  12
ATOM     12  C   UNL     1      14.519   2.137   0.542  1.00  0.00    -0.000 C 
BRANCH  12  13
ATOM     13  C   UNL     1      13.669   0.860   0.641  1.00  0.00    -0.003 C 
ATOM     14  C   UNL     1      13.632   0.281   2.056  1.00  0.00     0.004 C 
ENDBRANCH  12  13
ENDBRANCH  11  12
ENDBRANCH  10  11
ENDBRANCH   9  10
ENDBRANCH   1   9
TORSDOF 9
ENDMDL
MODEL 8
REMARK VINA RESULT:    -3.572      5.378      8.104
REMARK INTER + INTRA:          -6.022
REMARK INTER:                  -4.545
REMARK INTRA:                  -1.477
REMARK UNBOUND:                -0.570
REMARK SMILES CCCCCCCCCC=CC(=O)[O-]
REMARK SMILES IDX 7 1 8 2 9 3 10 4 11 5 12 6 13 7 14 8 6 9 5 10 4 11 3 12 2 13
REMARK SMILES IDX 1 14
REMARK H PARENT
REMARK Flexibility Score: inf
ROOT
ATOM      1  C   UNL     1      10.145   1.311   5.428  1.00  0.00     0.000 C 
ENDROOT
BRANCH   1   2
ATOM      2  C   UNL     1       9.924  -0.153   5.848  1.00  0.00     0.004 C 
BRANCH   2   3
ATOM      3  C   UNL     1       9.054  -0.287   7.105  1.00  0.00     0.027 C 
BRANCH   3   4
ATOM      4  C   UNL     1       7.595  -0.324   6.753  1.00  0.00    -0.025 C 
ATOM      5  C   UNL     1       7.164  -0.879   5.614  1.00  0.00     0.020 C 
BRANCH   5   6
ATOM      6  C   UNL     1       5.739  -0.940   5.256  1.00  0.00     0.064 C 
ATOM      7  O   UNL     1       5.325  -1.722   4.358  1.00  0.00    -0.545 OA
ATOM      8  O   UNL     1       4.833  -0.123   5.919  1.00  0.00    -0.545 OA
ENDBRANCH   5   6
ENDBRANCH   3   4
ENDBRANCH   2   3
ENDBRANCH   1   2
BRANCH   1   9
ATOM      9  C   UNL     1      10.303   1.536   3.910  1.00  0.00     0.000 C 
BRANCH   9  10
ATOM     10  C   UNL     1       9.200   2.390   3.254  1.00  0.00     0.000 C 
BRANCH  10  11
ATOM     11  C   UNL     1       7.766   2.071   3.714  1.00  0.00    -0.000 C 
BRANCH  11  12
ATOM     12  C   UNL     1       7.053   3.288   4.328  1.00  0.00    -0.000 C 
BRANCH  12  13
ATOM     13  C   UNL     1       6.527   3.008   5.745  1.00  0.00    -0.003 C 
ATOM     14  C   UNL     1       7.504   3.445   6.837  1.00  0.00     0.004 C 
ENDBRANCH  12  13
ENDBRANCH  11  12
ENDBRANCH  10  11
ENDBRANCH   9  10
ENDBRANCH   1   9
TORSDOF 9
ENDMDL
MODEL 9
REMARK VINA RESULT:    -3.562      7.886     10.862
REMARK INTER + INTRA:          -6.006
REMARK INTER:                  -4.759
REMARK INTRA:                  -1.247
REMARK UNBOUND:                -0.570
REMARK SMILES CCCCCCCCCC=CC(=O)[O-]
REMARK SMILES IDX 7 1 8 2 9 3 10 4 11 5 12 6 13 7 14 8 6 9 5 10 4 11 3 12 2 13
REMARK SMILES IDX 1 14
REMARK H PARENT
REMARK Flexibility Score: inf
ROOT
ATOM      1  C   UNL     1      14.011   0.425   2.633  1.00  0.00     0.000 C 
ENDROOT
BRANCH   1   2
ATOM      2  C   UNL     1      12.823   0.700   3.571  1.00  0.00     0.004 C 
BRANCH   2   3
ATOM      3  C   UNL     1      12.230   2.104   3.384  1.00  0.00     0.027 C 
BRANCH   3   4
ATOM      4  C   UNL     1      10.734   2.051   3.270  1.00  0.00    -0.025 C 
ATOM      5  C   UNL     1       9.994   1.321   4.113  1.00  0.00     0.020 C 
BRANCH   5   6
ATOM      6  C   UNL     1       8.526   1.266   4.029  1.00  0.00     0.064 C 
ATOM      7  O   UNL     1       7.893   0.228   4.358  1.00  0.00    -0.545 OA
ATOM      8  O   UNL     1       7.827   2.378   3.579  1.00  0.00    -0.545 OA
ENDBRANCH   5   6
ENDBRANCH   3   4
ENDBRANCH   2   3
ENDBRANCH   1   2
BRANCH   1   9
ATOM      9  C   UNL     1      13.627  -0.083   1.228  1.00  0.00     0.000 C 
BRANCH   9  10
ATOM     10  C   UNL     1      13.921   0.896   0.073  1.00  0.00     0.000 C 
BRANCH  10  11
ATOM     11  C   UNL     1      14.644   2.192   0.483  1.00  0.00    -0.000 C 
BRANCH  11  12
ATOM     12  C   UNL     1      13.797   3.451   0.230  1.00  0.00    -0.000 C 
BRANCH  12  13
ATOM     13  C   UNL     1      12.355   3.117  -0.184  1.00  0.00    -0.003 C 
ATOM     14  C   UNL     1      11.351   4.188   0.245  1.00  0.00     0.004 C 
ENDBRANCH  12  13
ENDBRANCH  11  12
ENDBRANCH  10  11
ENDBRANCH   9  10
ENDBRANCH   1   9
TORSDOF 9
ENDMDL
