MODEL 1
REMARK VINA RESULT:    -2.569      0.000      0.000
REMARK INTER + INTRA:          -2.569
REMARK INTER:                  -2.569
REMARK INTRA:                   0.000
REMARK UNBOUND:                 0.000
REMARK SMILES c1cc[nH]c1
REMARK SMILES IDX 1 1 5 2 4 3 3 4 2 5
REMARK H PARENT 4 6
REMARK Flexibility Score: inf
ROOT
ATOM      1  C   UNL     1     129.085  30.316 -16.255  1.00  0.00     0.019 A 
ATOM      2  C   UNL     1     128.762  31.514 -16.858  1.00  0.00     0.082 A 
ATOM      3  N   UNL     1     128.024  31.289 -17.961  1.00  0.00    -0.368 N 
ATOM      4  C   UNL     1     127.871  29.957 -18.069  1.00  0.00     0.082 A 
ATOM      5  C   UNL     1     128.516  29.323 -17.028  1.00  0.00     0.019 A 
ATOM      6  H   UNL     1     127.641  32.012 -18.609  1.00  0.00     0.165 HD
ENDROOT
TORSDOF 0
ENDMDL
MODEL 2
REMARK VINA RESULT:    -2.513      0.640      1.629
REMARK INTER + INTRA:          -2.513
REMARK INTER:                  -2.513
REMARK INTRA:                   0.000
REMARK UNBOUND:                 0.000
REMARK SMILES c1cc[nH]c1
REMARK SMILES IDX 1 1 5 2 4 3 3 4 2 5
REMARK H PARENT 4 6
REMARK Flexibility Score: inf
ROOT
ATOM      1  C   UNL     1     128.898  29.624 -16.616  1.00  0.00     0.019 A 
ATOM      2  C   UNL     1     128.020  29.528 -17.678  1.00  0.00     0.082 A 
ATOM      3  N   UNL     1     127.706  30.758 -18.125  1.00  0.00    -0.368 N 
ATOM      4  C   UNL     1     128.373  31.640 -17.359  1.00  0.00     0.082 A 
ATOM      5  C   UNL     1     129.122  30.971 -16.414  1.00  0.00     0.019 A 
ATOM      6  H   UNL     1     127.064  30.984 -18.917  1.00  0.00     0.165 HD
ENDROOT
TORSDOF 0
ENDMDL
