MODEL 1
REMARK VINA RESULT:    -5.442      0.000      0.000
REMARK INTER + INTRA:          -5.919
REMARK INTER:                  -5.919
REMARK INTRA:                   0.000
REMARK UNBOUND:                 0.000
REMARK SMILES Cc1cc(O)c2c(c1)C(=O)c1cc(O)cc(O)c1C2=O
REMARK SMILES IDX 1 1 2 2 8 3 7 4 6 5 4 6 3 7 19 8 20 9 18 10 11 11 9 12 10 13
REMARK SMILES IDX 12 14 13 15 15 16 16 17 5 18 17 20 14 22
REMARK H PARENT 5 19 17 21 14 23
REMARK Flexibility Score: inf
ROOT
ATOM      1  C   UNL     1      21.498   2.476 -26.488  1.00  0.00     0.044 C 
ATOM      2  C   UNL     1      22.453   3.517 -25.982  1.00  0.00    -0.047 A 
ATOM      3  C   UNL     1      22.488   3.838 -24.619  1.00  0.00     0.016 A 
ATOM      4  C   UNL     1      23.351   4.839 -24.140  1.00  0.00     0.038 A 
ATOM      5  C   UNL     1      24.188   5.533 -25.039  1.00  0.00     0.076 A 
ATOM      6  C   UNL     1      24.130   5.226 -26.417  1.00  0.00     0.127 A 
ATOM      7  C   UNL     1      23.261   4.226 -26.877  1.00  0.00     0.050 A 
ATOM      8  C   UNL     1      25.125   6.559 -24.511  1.00  0.00     0.201 C 
ATOM      9  O   UNL     1      26.110   6.919 -25.211  1.00  0.00    -0.288 OA
ATOM     10  C   UNL     1      24.969   7.072 -23.121  1.00  0.00     0.076 A 
ATOM     11  C   UNL     1      24.173   6.328 -22.216  1.00  0.00     0.041 A 
ATOM     12  C   UNL     1      23.388   5.166 -22.697  1.00  0.00     0.194 C 
ATOM     13  O   UNL     1      22.734   4.465 -21.876  1.00  0.00    -0.289 OA
ATOM     14  C   UNL     1      24.120   6.700 -20.862  1.00  0.00     0.059 A 
ATOM     15  C   UNL     1      24.832   7.805 -20.401  1.00  0.00     0.120 A 
ATOM     16  C   UNL     1      25.581   8.572 -21.296  1.00  0.00     0.093 A 
ATOM     17  C   UNL     1      25.630   8.240 -22.654  1.00  0.00     0.131 A 
ENDROOT
BRANCH   6  18
ATOM     18  O   UNL     1      24.922   5.917 -27.335  1.00  0.00    -0.507 OA
ATOM     19  H   UNL     1      25.751   5.501 -27.744  1.00  0.00     0.293 HD
ENDBRANCH   6  18
BRANCH  17  20
ATOM     20  O   UNL     1      26.313   9.117 -23.499  1.00  0.00    -0.507 OA
ATOM     21  H   UNL     1      25.976  10.037 -23.745  1.00  0.00     0.293 HD
ENDBRANCH  17  20
BRANCH  15  22
ATOM     22  O   UNL     1      24.777   8.144 -19.050  1.00  0.00    -0.508 OA
ATOM     23  H   UNL     1      24.238   8.937 -18.724  1.00  0.00     0.293 HD
ENDBRANCH  15  22
TORSDOF 3
ENDMDL
MODEL 2
REMARK VINA RESULT:    -5.430     12.038     15.005
REMARK INTER + INTRA:          -5.907
REMARK INTER:                  -5.907
REMARK INTRA:                   0.000
REMARK UNBOUND:                 0.000
REMARK SMILES Cc1cc(O)c2c(c1)C(=O)c1cc(O)cc(O)c1C2=O
REMARK SMILES IDX 1 1 2 2 8 3 7 4 6 5 4 6 3 7 19 8 20 9 18 10 11 11 9 12 10 13
REMARK SMILES IDX 12 14 13 15 15 16 16 17 5 18 17 20 14 22
REMARK H PARENT 5 19 17 21 14 23
REMARK Flexibility Score: inf
ROOT
ATOM      1  C   UNL     1      33.102  -0.442 -30.712  1.00  0.00     0.044 C 
ATOM      2  C   UNL     1      32.053  -1.456 -30.363  1.00  0.00    -0.047 A 
ATOM      3  C   UNL     1      32.066  -2.720 -30.967  1.00  0.00     0.016 A 
ATOM      4  C   UNL     1      31.066  -3.664 -30.676  1.00  0.00     0.038 A 
ATOM      5  C   UNL     1      30.033  -3.336 -29.773  1.00  0.00     0.076 A 
ATOM      6  C   UNL     1      30.007  -2.050 -29.188  1.00  0.00     0.127 A 
ATOM      7  C   UNL     1      31.012  -1.121 -29.491  1.00  0.00     0.050 A 
ATOM      8  C   UNL     1      29.006  -4.360 -29.446  1.00  0.00     0.201 C 
ATOM      9  O   UNL     1      28.312  -4.230 -28.401  1.00  0.00    -0.288 OA
ATOM     10  C   UNL     1      28.880  -5.588 -30.279  1.00  0.00     0.076 A 
ATOM     11  C   UNL     1      29.953  -5.932 -31.135  1.00  0.00     0.041 A 
ATOM     12  C   UNL     1      31.093  -5.001 -31.312  1.00  0.00     0.194 C 
ATOM     13  O   UNL     1      32.080  -5.340 -32.021  1.00  0.00    -0.289 OA
ATOM     14  C   UNL     1      29.933  -7.157 -31.825  1.00  0.00     0.059 A 
ATOM     15  C   UNL     1      28.857  -8.031 -31.689  1.00  0.00     0.120 A 
ATOM     16  C   UNL     1      27.772  -7.677 -30.884  1.00  0.00     0.093 A 
ATOM     17  C   UNL     1      27.754  -6.453 -30.206  1.00  0.00     0.131 A 
ENDROOT
BRANCH   6  18
ATOM     18  O   UNL     1      28.980  -1.685 -28.316  1.00  0.00    -0.507 OA
ATOM     19  H   UNL     1      28.500  -2.368 -27.742  1.00  0.00     0.293 HD
ENDBRANCH   6  18
BRANCH  17  20
ATOM     20  O   UNL     1      26.588  -6.129 -29.509  1.00  0.00    -0.507 OA
ATOM     21  H   UNL     1      25.688  -6.548 -29.694  1.00  0.00     0.293 HD
ENDBRANCH  17  20
BRANCH  15  22
ATOM     22  O   UNL     1      28.868  -9.246 -32.370  1.00  0.00    -0.508 OA
ATOM     23  H   UNL     1      29.634  -9.901 -32.274  1.00  0.00     0.293 HD
ENDBRANCH  15  22
TORSDOF 3
ENDMDL
MODEL 3
REMARK VINA RESULT:    -5.258      2.499      4.482
REMARK INTER + INTRA:          -5.719
REMARK INTER:                  -5.719
REMARK INTRA:                   0.000
REMARK UNBOUND:                 0.000
REMARK SMILES Cc1cc(O)c2c(c1)C(=O)c1cc(O)cc(O)c1C2=O
REMARK SMILES IDX 1 1 2 2 8 3 7 4 6 5 4 6 3 7 19 8 20 9 18 10 11 11 9 12 10 13
REMARK SMILES IDX 12 14 13 15 15 16 16 17 5 18 17 20 14 22
REMARK H PARENT 5 19 17 21 14 23
REMARK Flexibility Score: inf
ROOT
ATOM      1  C   UNL     1      19.232   0.079 -22.698  1.00  0.00     0.044 C 
ATOM      2  C   UNL     1      20.099   0.879 -23.627  1.00  0.00    -0.047 A 
ATOM      3  C   UNL     1      20.944   1.874 -23.119  1.00  0.00     0.016 A 
ATOM      4  C   UNL     1      21.731   2.655 -23.983  1.00  0.00     0.038 A 
ATOM      5  C   UNL     1      21.668   2.441 -25.376  1.00  0.00     0.076 A 
ATOM      6  C   UNL     1      20.793   1.455 -25.886  1.00  0.00     0.127 A 
ATOM      7  C   UNL     1      20.014   0.687 -25.010  1.00  0.00     0.050 A 
ATOM      8  C   UNL     1      22.537   3.247 -26.272  1.00  0.00     0.201 C 
ATOM      9  O   UNL     1      22.768   2.840 -27.443  1.00  0.00    -0.288 OA
ATOM     10  C   UNL     1      23.224   4.463 -25.755  1.00  0.00     0.076 A 
ATOM     11  C   UNL     1      23.330   4.630 -24.353  1.00  0.00     0.041 A 
ATOM     12  C   UNL     1      22.628   3.699 -23.438  1.00  0.00     0.194 C 
ATOM     13  O   UNL     1      22.779   3.808 -22.190  1.00  0.00    -0.289 OA
ATOM     14  C   UNL     1      24.096   5.686 -23.830  1.00  0.00     0.059 A 
ATOM     15  C   UNL     1      24.740   6.584 -24.678  1.00  0.00     0.120 A 
ATOM     16  C   UNL     1      24.601   6.455 -26.061  1.00  0.00     0.093 A 
ATOM     17  C   UNL     1      23.824   5.429 -26.609  1.00  0.00     0.131 A 
ENDROOT
BRANCH   6  18
ATOM     18  O   UNL     1      20.684   1.242 -27.261  1.00  0.00    -0.507 OA
ATOM     19  H   UNL     1      20.849   0.332 -27.674  1.00  0.00     0.293 HD
ENDBRANCH   6  18
BRANCH  17  20
ATOM     20  O   UNL     1      23.649   5.433 -27.995  1.00  0.00    -0.507 OA
ATOM     21  H   UNL     1      22.907   4.937 -28.468  1.00  0.00     0.293 HD
ENDBRANCH  17  20
BRANCH  15  22
ATOM     22  O   UNL     1      25.507   7.613 -24.135  1.00  0.00    -0.508 OA
ATOM     23  H   UNL     1      25.125   8.256 -23.453  1.00  0.00     0.293 HD
ENDBRANCH  15  22
TORSDOF 3
ENDMDL
MODEL 4
REMARK VINA RESULT:    -5.194     11.746     14.674
REMARK INTER + INTRA:          -5.649
REMARK INTER:                  -5.649
REMARK INTRA:                   0.000
REMARK UNBOUND:                 0.000
REMARK SMILES Cc1cc(O)c2c(c1)C(=O)c1cc(O)cc(O)c1C2=O
REMARK SMILES IDX 1 1 2 2 8 3 7 4 6 5 4 6 3 7 19 8 20 9 18 10 11 11 9 12 10 13
REMARK SMILES IDX 12 14 13 15 15 16 16 17 5 18 17 20 14 22
REMARK H PARENT 5 19 17 21 14 23
REMARK Flexibility Score: inf
ROOT
ATOM      1  C   UNL     1      28.415   0.016 -28.170  1.00  0.00     0.044 C 
ATOM      2  C   UNL     1      28.276  -1.426 -28.560  1.00  0.00    -0.047 A 
ATOM      3  C   UNL     1      29.390  -2.143 -29.015  1.00  0.00     0.016 A 
ATOM      4  C   UNL     1      29.264  -3.483 -29.420  1.00  0.00     0.038 A 
ATOM      5  C   UNL     1      28.003  -4.114 -29.375  1.00  0.00     0.076 A 
ATOM      6  C   UNL     1      26.876  -3.379 -28.942  1.00  0.00     0.127 A 
ATOM      7  C   UNL     1      27.021  -2.043 -28.544  1.00  0.00     0.050 A 
ATOM      8  C   UNL     1      27.894  -5.543 -29.767  1.00  0.00     0.201 C 
ATOM      9  O   UNL     1      26.892  -6.213 -29.398  1.00  0.00    -0.288 OA
ATOM     10  C   UNL     1      29.014  -6.210 -30.489  1.00  0.00     0.076 A 
ATOM     11  C   UNL     1      30.286  -5.590 -30.473  1.00  0.00     0.041 A 
ATOM     12  C   UNL     1      30.448  -4.236 -29.892  1.00  0.00     0.194 C 
ATOM     13  O   UNL     1      31.595  -3.715 -29.817  1.00  0.00    -0.289 OA
ATOM     14  C   UNL     1      31.397  -6.258 -31.017  1.00  0.00     0.059 A 
ATOM     15  C   UNL     1      31.255  -7.521 -31.589  1.00  0.00     0.120 A 
ATOM     16  C   UNL     1      29.995  -8.118 -31.652  1.00  0.00     0.093 A 
ATOM     17  C   UNL     1      28.868  -7.464 -31.142  1.00  0.00     0.131 A 
ENDROOT
BRANCH   6  18
ATOM     18  O   UNL     1      25.610  -3.965 -28.916  1.00  0.00    -0.507 OA
ATOM     19  H   UNL     1      24.829  -3.572 -29.427  1.00  0.00     0.293 HD
ENDBRANCH   6  18
BRANCH  17  20
ATOM     20  O   UNL     1      27.630  -8.080 -31.340  1.00  0.00    -0.507 OA
ATOM     21  H   UNL     1      27.509  -8.950 -31.839  1.00  0.00     0.293 HD
ENDBRANCH  17  20
BRANCH  15  22
ATOM     22  O   UNL     1      32.374  -8.170 -32.107  1.00  0.00    -0.508 OA
ATOM     23  H   UNL     1      32.301  -8.812 -32.887  1.00  0.00     0.293 HD
ENDBRANCH  15  22
TORSDOF 3
ENDMDL
MODEL 5
REMARK VINA RESULT:    -5.067      2.125      5.452
REMARK INTER + INTRA:          -5.512
REMARK INTER:                  -5.512
REMARK INTRA:                   0.000
REMARK UNBOUND:                 0.000
REMARK SMILES Cc1cc(O)c2c(c1)C(=O)c1cc(O)cc(O)c1C2=O
REMARK SMILES IDX 1 1 2 2 8 3 7 4 6 5 4 6 3 7 19 8 20 9 18 10 11 11 9 12 10 13
REMARK SMILES IDX 12 14 13 15 15 16 16 17 5 18 17 20 14 22
REMARK H PARENT 5 19 17 21 14 23
REMARK Flexibility Score: inf
ROOT
ATOM      1  C   UNL     1      23.568   7.257 -18.902  1.00  0.00     0.044 C 
ATOM      2  C   UNL     1      23.767   6.855 -20.334  1.00  0.00    -0.047 A 
ATOM      3  C   UNL     1      24.727   7.504 -21.120  1.00  0.00     0.016 A 
ATOM      4  C   UNL     1      24.896   7.162 -22.473  1.00  0.00     0.038 A 
ATOM      5  C   UNL     1      24.086   6.161 -23.050  1.00  0.00     0.076 A 
ATOM      6  C   UNL     1      23.099   5.528 -22.261  1.00  0.00     0.127 A 
ATOM      7  C   UNL     1      22.945   5.883 -20.914  1.00  0.00     0.050 A 
ATOM      8  C   UNL     1      24.305   5.782 -24.471  1.00  0.00     0.201 C 
ATOM      9  O   UNL     1      23.869   4.677 -24.892  1.00  0.00    -0.288 OA
ATOM     10  C   UNL     1      25.134   6.646 -25.357  1.00  0.00     0.076 A 
ATOM     11  C   UNL     1      25.984   7.605 -24.756  1.00  0.00     0.041 A 
ATOM     12  C   UNL     1      25.919   7.846 -23.295  1.00  0.00     0.194 C 
ATOM     13  O   UNL     1      26.725   8.652 -22.753  1.00  0.00    -0.289 OA
ATOM     14  C   UNL     1      26.885   8.336 -25.550  1.00  0.00     0.059 A 
ATOM     15  C   UNL     1      26.939   8.138 -26.928  1.00  0.00     0.120 A 
ATOM     16  C   UNL     1      26.071   7.229 -27.534  1.00  0.00     0.093 A 
ATOM     17  C   UNL     1      25.146   6.507 -26.772  1.00  0.00     0.131 A 
ENDROOT
BRANCH   6  18
ATOM     18  O   UNL     1      22.262   4.556 -22.811  1.00  0.00    -0.507 OA
ATOM     19  H   UNL     1      21.495   4.799 -23.426  1.00  0.00     0.293 HD
ENDBRANCH   6  18
BRANCH  17  20
ATOM     20  O   UNL     1      24.242   5.699 -27.465  1.00  0.00    -0.507 OA
ATOM     21  H   UNL     1      24.492   5.138 -28.268  1.00  0.00     0.293 HD
ENDBRANCH  17  20
BRANCH  15  22
ATOM     22  O   UNL     1      27.853   8.863 -27.691  1.00  0.00    -0.508 OA
ATOM     23  H   UNL     1      28.218   9.754 -27.377  1.00  0.00     0.293 HD
ENDBRANCH  15  22
TORSDOF 3
ENDMDL
MODEL 6
REMARK VINA RESULT:    -5.043     15.035     17.299
REMARK INTER + INTRA:          -5.485
REMARK INTER:                  -5.485
REMARK INTRA:                   0.000
REMARK UNBOUND:                 0.000
REMARK SMILES Cc1cc(O)c2c(c1)C(=O)c1cc(O)cc(O)c1C2=O
REMARK SMILES IDX 1 1 2 2 8 3 7 4 6 5 4 6 3 7 19 8 20 9 18 10 11 11 9 12 10 13
REMARK SMILES IDX 12 14 13 15 15 16 16 17 5 18 17 20 14 22
REMARK H PARENT 5 19 17 21 14 23
REMARK Flexibility Score: inf
ROOT
ATOM      1  C   UNL     1      32.450  -8.122 -23.269  1.00  0.00     0.044 C 
ATOM      2  C   UNL     1      31.854  -8.021 -24.643  1.00  0.00    -0.047 A 
ATOM      3  C   UNL     1      32.648  -8.247 -25.774  1.00  0.00     0.016 A 
ATOM      4  C   UNL     1      32.109  -8.118 -27.065  1.00  0.00     0.038 A 
ATOM      5  C   UNL     1      30.757  -7.750 -27.228  1.00  0.00     0.076 A 
ATOM      6  C   UNL     1      29.966  -7.495 -26.085  1.00  0.00     0.127 A 
ATOM      7  C   UNL     1      30.521  -7.627 -24.804  1.00  0.00     0.050 A 
ATOM      8  C   UNL     1      30.191  -7.657 -28.600  1.00  0.00     0.201 C 
ATOM      9  O   UNL     1      28.941  -7.694 -28.759  1.00  0.00    -0.288 OA
ATOM     10  C   UNL     1      31.096  -7.641 -29.783  1.00  0.00     0.076 A 
ATOM     11  C   UNL     1      32.434  -8.071 -29.612  1.00  0.00     0.041 A 
ATOM     12  C   UNL     1      32.953  -8.367 -28.256  1.00  0.00     0.194 C 
ATOM     13  O   UNL     1      34.124  -8.815 -28.113  1.00  0.00    -0.289 OA
ATOM     14  C   UNL     1      33.273  -8.207 -30.731  1.00  0.00     0.059 A 
ATOM     15  C   UNL     1      32.806  -7.908 -32.009  1.00  0.00     0.120 A 
ATOM     16  C   UNL     1      31.503  -7.438 -32.181  1.00  0.00     0.093 A 
ATOM     17  C   UNL     1      30.655  -7.267 -31.082  1.00  0.00     0.131 A 
ENDROOT
BRANCH   6  18
ATOM     18  O   UNL     1      28.634  -7.098 -26.213  1.00  0.00    -0.507 OA
ATOM     19  H   UNL     1      28.319  -6.530 -26.991  1.00  0.00     0.293 HD
ENDBRANCH   6  18
BRANCH  17  20
ATOM     20  O   UNL     1      29.405  -6.693 -31.325  1.00  0.00    -0.507 OA
ATOM     21  H   UNL     1      29.141  -5.769 -31.013  1.00  0.00     0.293 HD
ENDBRANCH  17  20
BRANCH  15  22
ATOM     22  O   UNL     1      33.653  -8.068 -33.105  1.00  0.00    -0.508 OA
ATOM     23  H   UNL     1      34.648  -7.896 -33.035  1.00  0.00     0.293 HD
ENDBRANCH  15  22
TORSDOF 3
ENDMDL
MODEL 7
REMARK VINA RESULT:    -4.952      2.079      5.482
REMARK INTER + INTRA:          -5.386
REMARK INTER:                  -5.386
REMARK INTRA:                   0.000
REMARK UNBOUND:                 0.000
REMARK SMILES Cc1cc(O)c2c(c1)C(=O)c1cc(O)cc(O)c1C2=O
REMARK SMILES IDX 1 1 2 2 8 3 7 4 6 5 4 6 3 7 19 8 20 9 18 10 11 11 9 12 10 13
REMARK SMILES IDX 12 14 13 15 15 16 16 17 5 18 17 20 14 22
REMARK H PARENT 5 19 17 21 14 23
REMARK Flexibility Score: inf
ROOT
ATOM      1  C   UNL     1      26.689   8.418 -23.350  1.00  0.00     0.044 C 
ATOM      2  C   UNL     1      25.789   7.456 -24.069  1.00  0.00    -0.047 A 
ATOM      3  C   UNL     1      24.853   6.698 -23.353  1.00  0.00     0.016 A 
ATOM      4  C   UNL     1      24.032   5.766 -24.011  1.00  0.00     0.038 A 
ATOM      5  C   UNL     1      24.154   5.584 -25.405  1.00  0.00     0.076 A 
ATOM      6  C   UNL     1      25.120   6.330 -26.119  1.00  0.00     0.127 A 
ATOM      7  C   UNL     1      25.930   7.254 -25.446  1.00  0.00     0.050 A 
ATOM      8  C   UNL     1      23.251   4.624 -26.091  1.00  0.00     0.201 C 
ATOM      9  O   UNL     1      23.088   4.709 -27.338  1.00  0.00    -0.288 OA
ATOM     10  C   UNL     1      22.454   3.646 -25.298  1.00  0.00     0.076 A 
ATOM     11  C   UNL     1      22.294   3.879 -23.911  1.00  0.00     0.041 A 
ATOM     12  C   UNL     1      23.040   4.975 -23.249  1.00  0.00     0.194 C 
ATOM     13  O   UNL     1      22.843   5.223 -22.027  1.00  0.00    -0.289 OA
ATOM     14  C   UNL     1      21.432   3.062 -23.159  1.00  0.00     0.059 A 
ATOM     15  C   UNL     1      20.743   2.012 -23.763  1.00  0.00     0.120 A 
ATOM     16  C   UNL     1      20.933   1.746 -25.121  1.00  0.00     0.093 A 
ATOM     17  C   UNL     1      21.805   2.527 -25.886  1.00  0.00     0.131 A 
ENDROOT
BRANCH   6  18
ATOM     18  O   UNL     1      25.286   6.149 -27.493  1.00  0.00    -0.507 OA
ATOM     19  H   UNL     1      26.072   6.547 -27.992  1.00  0.00     0.293 HD
ENDBRANCH   6  18
BRANCH  17  20
ATOM     20  O   UNL     1      22.020   2.130 -27.209  1.00  0.00    -0.507 OA
ATOM     21  H   UNL     1      22.749   1.491 -27.491  1.00  0.00     0.293 HD
ENDBRANCH  17  20
BRANCH  15  22
ATOM     22  O   UNL     1      19.881   1.226 -23.001  1.00  0.00    -0.508 OA
ATOM     23  H   UNL     1      19.211   1.640 -22.364  1.00  0.00     0.293 HD
ENDBRANCH  15  22
TORSDOF 3
ENDMDL
MODEL 8
REMARK VINA RESULT:    -4.941     12.789     15.208
REMARK INTER + INTRA:          -5.374
REMARK INTER:                  -5.374
REMARK INTRA:                   0.000
REMARK UNBOUND:                 0.000
REMARK SMILES Cc1cc(O)c2c(c1)C(=O)c1cc(O)cc(O)c1C2=O
REMARK SMILES IDX 1 1 2 2 8 3 7 4 6 5 4 6 3 7 19 8 20 9 18 10 11 11 9 12 10 13
REMARK SMILES IDX 12 14 13 15 15 16 16 17 5 18 17 20 14 22
REMARK H PARENT 5 19 17 21 14 23
REMARK Flexibility Score: inf
ROOT
ATOM      1  C   UNL     1      34.110  -5.646 -32.389  1.00  0.00     0.044 C 
ATOM      2  C   UNL     1      32.750  -6.045 -31.894  1.00  0.00    -0.047 A 
ATOM      3  C   UNL     1      31.934  -5.109 -31.247  1.00  0.00     0.016 A 
ATOM      4  C   UNL     1      30.675  -5.481 -30.746  1.00  0.00     0.038 A 
ATOM      5  C   UNL     1      30.229  -6.812 -30.887  1.00  0.00     0.076 A 
ATOM      6  C   UNL     1      31.067  -7.761 -31.516  1.00  0.00     0.127 A 
ATOM      7  C   UNL     1      32.321  -7.371 -32.008  1.00  0.00     0.050 A 
ATOM      8  C   UNL     1      28.878  -7.180 -30.388  1.00  0.00     0.201 C 
ATOM      9  O   UNL     1      28.323  -8.228 -30.816  1.00  0.00    -0.288 OA
ATOM     10  C   UNL     1      28.138  -6.259 -29.481  1.00  0.00     0.076 A 
ATOM     11  C   UNL     1      28.565  -4.912 -29.398  1.00  0.00     0.041 A 
ATOM     12  C   UNL     1      29.814  -4.484 -30.071  1.00  0.00     0.194 C 
ATOM     13  O   UNL     1      30.156  -3.269 -30.052  1.00  0.00    -0.289 OA
ATOM     14  C   UNL     1      27.806  -3.981 -28.667  1.00  0.00     0.059 A 
ATOM     15  C   UNL     1      26.643  -4.375 -28.009  1.00  0.00     0.120 A 
ATOM     16  C   UNL     1      26.241  -5.711 -28.046  1.00  0.00     0.093 A 
ATOM     17  C   UNL     1      26.992  -6.663 -28.743  1.00  0.00     0.131 A 
ENDROOT
BRANCH   6  18
ATOM     18  O   UNL     1      30.667  -9.092 -31.643  1.00  0.00    -0.507 OA
ATOM     19  H   UNL     1      30.979  -9.806 -30.996  1.00  0.00     0.293 HD
ENDBRANCH   6  18
BRANCH  17  20
ATOM     20  O   UNL     1      26.582  -7.995 -28.643  1.00  0.00    -0.507 OA
ATOM     21  H   UNL     1      26.334  -8.442 -27.772  1.00  0.00     0.293 HD
ENDBRANCH  17  20
BRANCH  15  22
ATOM     22  O   UNL     1      25.898  -3.430 -27.305  1.00  0.00    -0.508 OA
ATOM     23  H   UNL     1      25.684  -2.522 -27.701  1.00  0.00     0.293 HD
ENDBRANCH  15  22
TORSDOF 3
ENDMDL
MODEL 9
REMARK VINA RESULT:    -4.908      1.861      6.458
REMARK INTER + INTRA:          -5.338
REMARK INTER:                  -5.338
REMARK INTRA:                   0.000
REMARK UNBOUND:                 0.000
REMARK SMILES Cc1cc(O)c2c(c1)C(=O)c1cc(O)cc(O)c1C2=O
REMARK SMILES IDX 1 1 2 2 8 3 7 4 6 5 4 6 3 7 19 8 20 9 18 10 11 11 9 12 10 13
REMARK SMILES IDX 12 14 13 15 15 16 16 17 5 18 17 20 14 22
REMARK H PARENT 5 19 17 21 14 23
REMARK Flexibility Score: inf
ROOT
ATOM      1  C   UNL     1      23.554   9.081 -18.468  1.00  0.00     0.044 C 
ATOM      2  C   UNL     1      23.549   7.789 -19.233  1.00  0.00    -0.047 A 
ATOM      3  C   UNL     1      23.777   7.789 -20.615  1.00  0.00     0.016 A 
ATOM      4  C   UNL     1      23.737   6.590 -21.347  1.00  0.00     0.038 A 
ATOM      5  C   UNL     1      23.458   5.374 -20.688  1.00  0.00     0.076 A 
ATOM      6  C   UNL     1      23.200   5.382 -19.299  1.00  0.00     0.127 A 
ATOM      7  C   UNL     1      23.243   6.588 -18.585  1.00  0.00     0.050 A 
ATOM      8  C   UNL     1      23.459   4.109 -21.470  1.00  0.00     0.201 C 
ATOM      9  O   UNL     1      23.577   3.008 -20.868  1.00  0.00    -0.288 OA
ATOM     10  C   UNL     1      23.441   4.149 -22.959  1.00  0.00     0.076 A 
ATOM     11  C   UNL     1      23.782   5.363 -23.603  1.00  0.00     0.041 A 
ATOM     12  C   UNL     1      23.987   6.596 -22.806  1.00  0.00     0.194 C 
ATOM     13  O   UNL     1      24.358   7.659 -23.376  1.00  0.00    -0.289 OA
ATOM     14  C   UNL     1      23.918   5.399 -25.001  1.00  0.00     0.059 A 
ATOM     15  C   UNL     1      23.703   4.254 -25.765  1.00  0.00     0.120 A 
ATOM     16  C   UNL     1      23.319   3.065 -25.142  1.00  0.00     0.093 A 
ATOM     17  C   UNL     1      23.151   3.007 -23.755  1.00  0.00     0.131 A 
ENDROOT
BRANCH   6  18
ATOM     18  O   UNL     1      22.890   4.201 -18.624  1.00  0.00    -0.507 OA
ATOM     19  H   UNL     1      23.568   3.456 -18.513  1.00  0.00     0.293 HD
ENDBRANCH   6  18
BRANCH  17  20
ATOM     20  O   UNL     1      22.664   1.812 -23.221  1.00  0.00    -0.507 OA
ATOM     21  H   UNL     1      21.685   1.560 -23.209  1.00  0.00     0.293 HD
ENDBRANCH  17  20
BRANCH  15  22
ATOM     22  O   UNL     1      23.859   4.311 -27.149  1.00  0.00    -0.508 OA
ATOM     23  H   UNL     1      24.652   3.882 -27.611  1.00  0.00     0.293 HD
ENDBRANCH  15  22
TORSDOF 3
ENDMDL
