MODEL 1
REMARK VINA RESULT:    -8.424      0.000      0.000
REMARK INTER + INTRA:         -13.898
REMARK INTER:                 -12.363
REMARK INTRA:                  -1.534
REMARK UNBOUND:                -1.534
REMARK SMILES Cc1cc2c(C(C)C)c(O)c(O)c(C=O)c2c(O)c1-c1c(C)cc2c(C(C)C)c(O)c(O)c(C=O)c2c1O
REMARK SMILES IDX 1 1 2 2 3 3 4 4 16 5 13 6 11 7 9 8 5 9 17 10 19 11 20 12
REMARK SMILES IDX 37 13 21 14 36 15 23 16 22 17 24 18 33 19 25 20 31 21 29 22
REMARK SMILES IDX 38 23 34 25 35 26 26 27 27 28 28 29 32 30 30 32 18 34 6 36
REMARK SMILES IDX 7 37 8 38 14 39 15 40 10 41 12 43
REMARK H PARENT 38 24 32 31 30 33 18 35 10 42 12 44
REMARK Flexibility Score: inf
ROOT
ATOM      1  C   UNL     1      22.173  23.212  24.333  1.00  0.00     0.045 C 
ATOM      2  C   UNL     1      21.394  24.088  23.381  1.00  0.00    -0.039 A 
ATOM      3  C   UNL     1      20.217  24.697  23.817  1.00  0.00     0.013 A 
ATOM      4  C   UNL     1      19.450  25.534  22.981  1.00  0.00    -0.006 A 
ATOM      5  C   UNL     1      19.962  25.855  21.686  1.00  0.00     0.039 A 
ATOM      6  C   UNL     1      19.284  26.834  20.899  1.00  0.00     0.072 A 
ATOM      7  C   UNL     1      18.116  27.447  21.393  1.00  0.00     0.169 A 
ATOM      8  C   UNL     1      17.570  27.054  22.618  1.00  0.00     0.162 A 
ATOM      9  C   UNL     1      18.194  26.067  23.413  1.00  0.00     0.008 A 
ATOM     10  C   UNL     1      21.124  25.170  21.214  1.00  0.00     0.132 A 
ATOM     11  C   UNL     1      21.834  24.297  22.065  1.00  0.00     0.031 A 
ENDROOT
BRANCH  11  12
ATOM     12  C   UNL     1      23.053  23.602  21.574  1.00  0.00     0.031 A 
ATOM     13  C   UNL     1      22.953  22.322  20.988  1.00  0.00     0.132 A 
ATOM     14  C   UNL     1      24.300  24.240  21.662  1.00  0.00    -0.039 A 
ATOM     15  C   UNL     1      24.123  21.640  20.535  1.00  0.00     0.039 A 
ATOM     16  C   UNL     1      25.435  23.609  21.152  1.00  0.00     0.013 A 
ATOM     17  C   UNL     1      24.426  25.625  22.253  1.00  0.00     0.045 C 
ATOM     18  C   UNL     1      25.387  22.300  20.622  1.00  0.00    -0.006 A 
ATOM     19  C   UNL     1      24.064  20.341  19.948  1.00  0.00     0.072 A 
ATOM     20  C   UNL     1      26.568  21.655  20.140  1.00  0.00     0.008 A 
ATOM     21  C   UNL     1      25.200  19.811  19.307  1.00  0.00     0.169 A 
ATOM     22  C   UNL     1      26.426  20.480  19.372  1.00  0.00     0.162 A 
BRANCH  13  23
ATOM     23  O   UNL     1      21.689  21.747  20.818  1.00  0.00    -0.507 OA
ATOM     24  H   UNL     1      21.385  20.901  21.284  1.00  0.00     0.293 HD
ENDBRANCH  13  23
BRANCH  19  25
ATOM     25  C   UNL     1      22.855  19.496  20.016  1.00  0.00     0.264 C 
ATOM     26  O   UNL     1      22.260  19.149  18.961  1.00  0.00    -0.298 OA
ENDBRANCH  19  25
BRANCH  20  27
ATOM     27  C   UNL     1      27.973  22.226  20.406  1.00  0.00     0.017 C 
ATOM     28  C   UNL     1      28.559  22.847  19.134  1.00  0.00     0.012 C 
ATOM     29  C   UNL     1      28.950  21.215  21.035  1.00  0.00     0.012 C 
ENDBRANCH  20  27
BRANCH  21  30
ATOM     30  O   UNL     1      25.151  18.594  18.616  1.00  0.00    -0.504 OA
ATOM     31  H   UNL     1      25.969  18.078  18.318  1.00  0.00     0.293 HD
ENDBRANCH  21  30
BRANCH  22  32
ATOM     32  O   UNL     1      27.521  19.968  18.672  1.00  0.00    -0.504 OA
ATOM     33  H   UNL     1      28.444  20.385  18.707  1.00  0.00     0.293 HD
ENDBRANCH  22  32
ENDBRANCH  11  12
BRANCH  10  34
ATOM     34  O   UNL     1      21.558  25.337  19.894  1.00  0.00    -0.507 OA
ATOM     35  H   UNL     1      21.734  26.237  19.465  1.00  0.00     0.293 HD
ENDBRANCH  10  34
BRANCH   9  36
ATOM     36  C   UNL     1      17.464  25.625  24.697  1.00  0.00     0.017 C 
ATOM     37  C   UNL     1      18.002  26.339  25.945  1.00  0.00     0.012 C 
ATOM     38  C   UNL     1      17.353  24.097  24.874  1.00  0.00     0.012 C 
ENDBRANCH   9  36
BRANCH   6  39
ATOM     39  C   UNL     1      19.814  27.293  19.597  1.00  0.00     0.264 C 
ATOM     40  O   UNL     1      19.258  26.947  18.521  1.00  0.00    -0.298 OA
ENDBRANCH   6  39
BRANCH   8  41
ATOM     41  O   UNL     1      16.395  27.666  23.069  1.00  0.00    -0.504 OA
ATOM     42  H   UNL     1      16.360  28.263  23.886  1.00  0.00     0.293 HD
ENDBRANCH   8  41
BRANCH   7  43
ATOM     43  O   UNL     1      17.475  28.477  20.693  1.00  0.00    -0.504 OA
ATOM     44  H   UNL     1      17.738  29.452  20.749  1.00  0.00     0.293 HD
ENDBRANCH   7  43
TORSDOF 11
ENDMDL
MODEL 2
REMARK VINA RESULT:    -8.414      6.361     10.666
REMARK INTER + INTRA:         -13.884
REMARK INTER:                 -12.602
REMARK INTRA:                  -1.282
REMARK UNBOUND:                -1.534
REMARK SMILES Cc1cc2c(C(C)C)c(O)c(O)c(C=O)c2c(O)c1-c1c(C)cc2c(C(C)C)c(O)c(O)c(C=O)c2c1O
REMARK SMILES IDX 1 1 2 2 3 3 4 4 16 5 13 6 11 7 9 8 5 9 17 10 19 11 20 12
REMARK SMILES IDX 37 13 21 14 36 15 23 16 22 17 24 18 33 19 25 20 31 21 29 22
REMARK SMILES IDX 38 23 34 25 35 26 26 27 27 28 28 29 32 30 30 32 18 34 6 36
REMARK SMILES IDX 7 37 8 38 14 39 15 40 10 41 12 43
REMARK H PARENT 38 24 32 31 30 33 18 35 10 42 12 44
REMARK Flexibility Score: inf
ROOT
ATOM      1  C   UNL     1      27.176  18.505  25.534  1.00  0.00     0.045 C 
ATOM      2  C   UNL     1      26.780  17.234  24.822  1.00  0.00    -0.039 A 
ATOM      3  C   UNL     1      26.673  16.046  25.546  1.00  0.00     0.013 A 
ATOM      4  C   UNL     1      26.298  14.830  24.942  1.00  0.00    -0.006 A 
ATOM      5  C   UNL     1      25.903  14.844  23.568  1.00  0.00     0.039 A 
ATOM      6  C   UNL     1      25.358  13.658  22.993  1.00  0.00     0.072 A 
ATOM      7  C   UNL     1      25.241  12.490  23.771  1.00  0.00     0.169 A 
ATOM      8  C   UNL     1      25.720  12.458  25.084  1.00  0.00     0.162 A 
ATOM      9  C   UNL     1      26.294  13.603  25.680  1.00  0.00     0.008 A 
ATOM     10  C   UNL     1      26.087  16.043  22.812  1.00  0.00     0.132 A 
ATOM     11  C   UNL     1      26.518  17.229  23.443  1.00  0.00     0.031 A 
ENDROOT
BRANCH  11  12
ATOM     12  C   UNL     1      26.689  18.477  22.653  1.00  0.00     0.031 A 
ATOM     13  C   UNL     1      27.952  18.812  22.121  1.00  0.00     0.132 A 
ATOM     14  C   UNL     1      25.580  19.301  22.408  1.00  0.00    -0.039 A 
ATOM     15  C   UNL     1      28.128  20.021  21.381  1.00  0.00     0.039 A 
ATOM     16  C   UNL     1      25.732  20.444  21.622  1.00  0.00     0.013 A 
ATOM     17  C   UNL     1      24.212  18.943  22.937  1.00  0.00     0.045 C 
ATOM     18  C   UNL     1      26.993  20.850  21.129  1.00  0.00    -0.006 A 
ATOM     19  C   UNL     1      29.392  20.400  20.837  1.00  0.00     0.072 A 
ATOM     20  C   UNL     1      27.134  22.045  20.359  1.00  0.00     0.008 A 
ATOM     21  C   UNL     1      29.467  21.468  19.923  1.00  0.00     0.169 A 
ATOM     22  C   UNL     1      28.342  22.257  19.661  1.00  0.00     0.162 A 
BRANCH  13  23
ATOM     23  O   UNL     1      29.022  17.926  22.292  1.00  0.00    -0.507 OA
ATOM     24  H   UNL     1      29.725  17.745  21.587  1.00  0.00     0.293 HD
ENDBRANCH  13  23
BRANCH  19  25
ATOM     25  C   UNL     1      30.652  19.735  21.225  1.00  0.00     0.264 C 
ATOM     26  O   UNL     1      31.125  18.806  20.518  1.00  0.00    -0.298 OA
ENDBRANCH  19  25
BRANCH  20  27
ATOM     27  C   UNL     1      25.998  23.078  20.244  1.00  0.00     0.017 C 
ATOM     28  C   UNL     1      25.376  23.051  18.844  1.00  0.00     0.012 C 
ATOM     29  C   UNL     1      26.410  24.508  20.644  1.00  0.00     0.012 C 
ENDBRANCH  20  27
BRANCH  21  30
ATOM     30  O   UNL     1      30.665  21.797  19.277  1.00  0.00    -0.504 OA
ATOM     31  H   UNL     1      31.001  21.339  18.439  1.00  0.00     0.293 HD
ENDBRANCH  21  30
BRANCH  22  32
ATOM     32  O   UNL     1      28.426  23.268  18.701  1.00  0.00    -0.504 OA
ATOM     33  H   UNL     1      28.031  23.182  17.772  1.00  0.00     0.293 HD
ENDBRANCH  22  32
ENDBRANCH  11  12
BRANCH  10  34
ATOM     34  O   UNL     1      25.867  16.049  21.429  1.00  0.00    -0.507 OA
ATOM     35  H   UNL     1      26.579  15.834  20.742  1.00  0.00     0.293 HD
ENDBRANCH  10  34
BRANCH   9  36
ATOM     36  C   UNL     1      26.889  13.444  27.094  1.00  0.00     0.017 C 
ATOM     37  C   UNL     1      28.251  12.737  27.073  1.00  0.00     0.012 C 
ATOM     38  C   UNL     1      25.914  12.851  28.132  1.00  0.00     0.012 C 
ENDBRANCH   9  36
BRANCH   6  39
ATOM     39  C   UNL     1      24.832  13.630  21.612  1.00  0.00     0.264 C 
ATOM     40  O   UNL     1      25.448  13.011  20.703  1.00  0.00    -0.298 OA
ENDBRANCH   6  39
BRANCH   8  41
ATOM     41  O   UNL     1      25.609  11.274  25.822  1.00  0.00    -0.504 OA
ATOM     42  H   UNL     1      26.406  10.701  26.071  1.00  0.00     0.293 HD
ENDBRANCH   8  41
BRANCH   7  43
ATOM     43  O   UNL     1      24.627  11.334  23.273  1.00  0.00    -0.504 OA
ATOM     44  H   UNL     1      24.135  11.287  22.390  1.00  0.00     0.293 HD
ENDBRANCH   7  43
TORSDOF 11
ENDMDL
MODEL 3
REMARK VINA RESULT:    -8.344      4.599      8.231
REMARK INTER + INTRA:         -13.780
REMARK INTER:                 -12.658
REMARK INTRA:                  -1.122
REMARK UNBOUND:                -1.534
REMARK SMILES Cc1cc2c(C(C)C)c(O)c(O)c(C=O)c2c(O)c1-c1c(C)cc2c(C(C)C)c(O)c(O)c(C=O)c2c1O
REMARK SMILES IDX 1 1 2 2 3 3 4 4 16 5 13 6 11 7 9 8 5 9 17 10 19 11 20 12
REMARK SMILES IDX 37 13 21 14 36 15 23 16 22 17 24 18 33 19 25 20 31 21 29 22
REMARK SMILES IDX 38 23 34 25 35 26 26 27 27 28 28 29 32 30 30 32 18 34 6 36
REMARK SMILES IDX 7 37 8 38 14 39 15 40 10 41 12 43
REMARK H PARENT 38 24 32 31 30 33 18 35 10 42 12 44
REMARK Flexibility Score: inf
ROOT
ATOM      1  C   UNL     1      28.600  20.566  17.397  1.00  0.00     0.045 C 
ATOM      2  C   UNL     1      27.760  21.665  18.004  1.00  0.00    -0.039 A 
ATOM      3  C   UNL     1      27.751  22.928  17.410  1.00  0.00     0.013 A 
ATOM      4  C   UNL     1      26.980  23.992  17.921  1.00  0.00    -0.006 A 
ATOM      5  C   UNL     1      26.096  23.729  19.014  1.00  0.00     0.039 A 
ATOM      6  C   UNL     1      25.188  24.749  19.427  1.00  0.00     0.072 A 
ATOM      7  C   UNL     1      25.192  25.999  18.779  1.00  0.00     0.169 A 
ATOM      8  C   UNL     1      26.127  26.278  17.778  1.00  0.00     0.162 A 
ATOM      9  C   UNL     1      27.063  25.306  17.361  1.00  0.00     0.008 A 
ATOM     10  C   UNL     1      26.166  22.460  19.667  1.00  0.00     0.132 A 
ATOM     11  C   UNL     1      26.991  21.437  19.155  1.00  0.00     0.031 A 
ENDROOT
BRANCH  11  12
ATOM     12  C   UNL     1      27.045  20.112  19.829  1.00  0.00     0.031 A 
ATOM     13  C   UNL     1      28.157  19.766  20.625  1.00  0.00     0.132 A 
ATOM     14  C   UNL     1      25.966  19.223  19.700  1.00  0.00    -0.039 A 
ATOM     15  C   UNL     1      28.224  18.486  21.256  1.00  0.00     0.039 A 
ATOM     16  C   UNL     1      25.995  18.003  20.376  1.00  0.00     0.013 A 
ATOM     17  C   UNL     1      24.750  19.588  18.883  1.00  0.00     0.045 C 
ATOM     18  C   UNL     1      27.119  17.591  21.126  1.00  0.00    -0.006 A 
ATOM     19  C   UNL     1      29.337  18.094  22.059  1.00  0.00     0.072 A 
ATOM     20  C   UNL     1      27.144  16.319  21.779  1.00  0.00     0.008 A 
ATOM     21  C   UNL     1      29.255  16.930  22.846  1.00  0.00     0.169 A 
ATOM     22  C   UNL     1      28.155  16.074  22.733  1.00  0.00     0.162 A 
BRANCH  13  23
ATOM     23  O   UNL     1      29.174  20.705  20.822  1.00  0.00    -0.507 OA
ATOM     24  H   UNL     1      30.157  20.517  20.666  1.00  0.00     0.293 HD
ENDBRANCH  13  23
BRANCH  19  25
ATOM     25  C   UNL     1      30.607  18.847  22.073  1.00  0.00     0.264 C 
ATOM     26  O   UNL     1      30.909  19.568  23.061  1.00  0.00    -0.298 OA
ENDBRANCH  19  25
BRANCH  20  27
ATOM     27  C   UNL     1      26.086  15.238  21.496  1.00  0.00     0.017 C 
ATOM     28  C   UNL     1      25.125  15.092  22.680  1.00  0.00     0.012 C 
ATOM     29  C   UNL     1      26.678  13.876  21.086  1.00  0.00     0.012 C 
ENDBRANCH  20  27
BRANCH  21  30
ATOM     30  O   UNL     1      30.276  16.574  23.736  1.00  0.00    -0.504 OA
ATOM     31  H   UNL     1      30.570  15.621  23.909  1.00  0.00     0.293 HD
ENDBRANCH  21  30
BRANCH  22  32
ATOM     32  O   UNL     1      28.066  14.961  23.573  1.00  0.00    -0.504 OA
ATOM     33  H   UNL     1      28.825  14.661  24.174  1.00  0.00     0.293 HD
ENDBRANCH  22  32
ENDBRANCH  11  12
BRANCH  10  34
ATOM     34  O   UNL     1      25.435  22.224  20.837  1.00  0.00    -0.507 OA
ATOM     35  H   UNL     1      24.934  21.366  21.029  1.00  0.00     0.293 HD
ENDBRANCH  10  34
BRANCH   9  36
ATOM     36  C   UNL     1      28.121  25.739  16.326  1.00  0.00     0.017 C 
ATOM     37  C   UNL     1      27.686  25.429  14.887  1.00  0.00     0.012 C 
ATOM     38  C   UNL     1      29.554  25.262  16.642  1.00  0.00     0.012 C 
ENDBRANCH   9  36
BRANCH   6  39
ATOM     39  C   UNL     1      24.174  24.513  20.477  1.00  0.00     0.264 C 
ATOM     40  O   UNL     1      24.274  25.069  21.603  1.00  0.00    -0.298 OA
ENDBRANCH   6  39
BRANCH   8  41
ATOM     41  O   UNL     1      26.119  27.539  17.170  1.00  0.00    -0.504 OA
ATOM     42  H   UNL     1      26.082  27.669  16.166  1.00  0.00     0.293 HD
ENDBRANCH   8  41
BRANCH   7  43
ATOM     43  O   UNL     1      24.255  26.992  19.092  1.00  0.00    -0.504 OA
ATOM     44  H   UNL     1      24.463  27.817  19.639  1.00  0.00     0.293 HD
ENDBRANCH   7  43
TORSDOF 11
ENDMDL
MODEL 4
REMARK VINA RESULT:    -8.295      3.340      5.209
REMARK INTER + INTRA:         -13.709
REMARK INTER:                 -12.180
REMARK INTRA:                  -1.529
REMARK UNBOUND:                -1.534
REMARK SMILES Cc1cc2c(C(C)C)c(O)c(O)c(C=O)c2c(O)c1-c1c(C)cc2c(C(C)C)c(O)c(O)c(C=O)c2c1O
REMARK SMILES IDX 1 1 2 2 3 3 4 4 16 5 13 6 11 7 9 8 5 9 17 10 19 11 20 12
REMARK SMILES IDX 37 13 21 14 36 15 23 16 22 17 24 18 33 19 25 20 31 21 29 22
REMARK SMILES IDX 38 23 34 25 35 26 26 27 27 28 28 29 32 30 30 32 18 34 6 36
REMARK SMILES IDX 7 37 8 38 14 39 15 40 10 41 12 43
REMARK H PARENT 38 24 32 31 30 33 18 35 10 42 12 44
REMARK Flexibility Score: inf
ROOT
ATOM      1  C   UNL     1      25.433  22.858  17.769  1.00  0.00     0.045 C 
ATOM      2  C   UNL     1      24.942  23.815  18.829  1.00  0.00    -0.039 A 
ATOM      3  C   UNL     1      24.230  24.953  18.448  1.00  0.00     0.013 A 
ATOM      4  C   UNL     1      23.736  25.880  19.388  1.00  0.00    -0.006 A 
ATOM      5  C   UNL     1      23.874  25.578  20.779  1.00  0.00     0.039 A 
ATOM      6  C   UNL     1      23.229  26.418  21.735  1.00  0.00     0.072 A 
ATOM      7  C   UNL     1      22.494  27.539  21.303  1.00  0.00     0.169 A 
ATOM      8  C   UNL     1      22.447  27.880  19.949  1.00  0.00     0.162 A 
ATOM      9  C   UNL     1      23.098  27.092  18.974  1.00  0.00     0.008 A 
ATOM     10  C   UNL     1      24.670  24.455  21.164  1.00  0.00     0.132 A 
ATOM     11  C   UNL     1      25.192  23.580  20.190  1.00  0.00     0.031 A 
ENDROOT
BRANCH  11  12
ATOM     12  C   UNL     1      26.004  22.403  20.599  1.00  0.00     0.031 A 
ATOM     13  C   UNL     1      25.370  21.193  20.952  1.00  0.00     0.132 A 
ATOM     14  C   UNL     1      27.405  22.490  20.595  1.00  0.00    -0.039 A 
ATOM     15  C   UNL     1      26.143  20.066  21.368  1.00  0.00     0.039 A 
ATOM     16  C   UNL     1      28.165  21.368  20.927  1.00  0.00     0.013 A 
ATOM     17  C   UNL     1      28.105  23.764  20.185  1.00  0.00     0.045 C 
ATOM     18  C   UNL     1      27.568  20.160  21.353  1.00  0.00    -0.006 A 
ATOM     19  C   UNL     1      25.539  18.829  21.744  1.00  0.00     0.072 A 
ATOM     20  C   UNL     1      28.366  19.035  21.727  1.00  0.00     0.008 A 
ATOM     21  C   UNL     1      26.339  17.684  21.917  1.00  0.00     0.169 A 
ATOM     22  C   UNL     1      27.734  17.781  21.872  1.00  0.00     0.162 A 
BRANCH  13  23
ATOM     23  O   UNL     1      23.978  21.097  20.853  1.00  0.00    -0.507 OA
ATOM     24  H   UNL     1      23.437  21.481  20.088  1.00  0.00     0.293 HD
ENDBRANCH  13  23
BRANCH  19  25
ATOM     25  C   UNL     1      24.091  18.702  22.002  1.00  0.00     0.264 C 
ATOM     26  O   UNL     1      23.347  18.104  21.180  1.00  0.00    -0.298 OA
ENDBRANCH  19  25
BRANCH  20  27
ATOM     27  C   UNL     1      29.887  19.149  21.938  1.00  0.00     0.017 C 
ATOM     28  C   UNL     1      30.649  18.534  20.760  1.00  0.00     0.012 C 
ATOM     29  C   UNL     1      30.377  18.575  23.281  1.00  0.00     0.012 C 
ENDBRANCH  20  27
BRANCH  21  30
ATOM     30  O   UNL     1      25.776  16.427  22.169  1.00  0.00    -0.504 OA
ATOM     31  H   UNL     1      26.314  15.577  22.281  1.00  0.00     0.293 HD
ENDBRANCH  21  30
BRANCH  22  32
ATOM     32  O   UNL     1      28.503  16.620  21.979  1.00  0.00    -0.504 OA
ATOM     33  H   UNL     1      28.110  15.689  21.908  1.00  0.00     0.293 HD
ENDBRANCH  22  32
ENDBRANCH  11  12
BRANCH  10  34
ATOM     34  O   UNL     1      24.962  24.223  22.514  1.00  0.00    -0.507 OA
ATOM     35  H   UNL     1      24.716  23.376  23.009  1.00  0.00     0.293 HD
ENDBRANCH  10  34
BRANCH   9  36
ATOM     36  C   UNL     1      23.079  27.604  17.519  1.00  0.00     0.017 C 
ATOM     37  C   UNL     1      22.041  26.870  16.660  1.00  0.00     0.012 C 
ATOM     38  C   UNL     1      24.468  27.686  16.854  1.00  0.00     0.012 C 
ENDBRANCH   9  36
BRANCH   6  39
ATOM     39  C   UNL     1      23.240  26.107  23.181  1.00  0.00     0.264 C 
ATOM     40  O   UNL     1      22.298  25.456  23.704  1.00  0.00    -0.298 OA
ENDBRANCH   6  39
BRANCH   8  41
ATOM     41  O   UNL     1      21.728  29.015  19.556  1.00  0.00    -0.504 OA
ATOM     42  H   UNL     1      22.140  29.779  19.034  1.00  0.00     0.293 HD
ENDBRANCH   8  41
BRANCH   7  43
ATOM     43  O   UNL     1      21.771  28.334  22.202  1.00  0.00    -0.504 OA
ATOM     44  H   UNL     1      21.431  28.012  23.098  1.00  0.00     0.293 HD
ENDBRANCH   7  43
TORSDOF 11
ENDMDL
MODEL 5
REMARK VINA RESULT:    -8.278      3.447      9.343
REMARK INTER + INTRA:         -13.683
REMARK INTER:                 -12.231
REMARK INTRA:                  -1.452
REMARK UNBOUND:                -1.534
REMARK SMILES Cc1cc2c(C(C)C)c(O)c(O)c(C=O)c2c(O)c1-c1c(C)cc2c(C(C)C)c(O)c(O)c(C=O)c2c1O
REMARK SMILES IDX 1 1 2 2 3 3 4 4 16 5 13 6 11 7 9 8 5 9 17 10 19 11 20 12
REMARK SMILES IDX 37 13 21 14 36 15 23 16 22 17 24 18 33 19 25 20 31 21 29 22
REMARK SMILES IDX 38 23 34 25 35 26 26 27 27 28 28 29 32 30 30 32 18 34 6 36
REMARK SMILES IDX 7 37 8 38 14 39 15 40 10 41 12 43
REMARK H PARENT 38 24 32 31 30 33 18 35 10 42 12 44
REMARK Flexibility Score: inf
ROOT
ATOM      1  C   UNL     1      27.673  23.533  20.170  1.00  0.00     0.045 C 
ATOM      2  C   UNL     1      27.065  22.264  20.717  1.00  0.00    -0.039 A 
ATOM      3  C   UNL     1      27.898  21.205  21.081  1.00  0.00     0.013 A 
ATOM      4  C   UNL     1      27.393  19.999  21.607  1.00  0.00    -0.006 A 
ATOM      5  C   UNL     1      25.993  19.909  21.881  1.00  0.00     0.039 A 
ATOM      6  C   UNL     1      25.496  18.763  22.571  1.00  0.00     0.072 A 
ATOM      7  C   UNL     1      26.379  17.732  22.947  1.00  0.00     0.169 A 
ATOM      8  C   UNL     1      27.729  17.785  22.587  1.00  0.00     0.162 A 
ATOM      9  C   UNL     1      28.253  18.888  21.877  1.00  0.00     0.008 A 
ATOM     10  C   UNL     1      25.134  20.962  21.437  1.00  0.00     0.132 A 
ATOM     11  C   UNL     1      25.675  22.132  20.864  1.00  0.00     0.031 A 
ENDROOT
BRANCH  11  12
ATOM     12  C   UNL     1      24.778  23.232  20.422  1.00  0.00     0.031 A 
ATOM     13  C   UNL     1      24.452  24.281  21.307  1.00  0.00     0.132 A 
ATOM     14  C   UNL     1      24.286  23.241  19.107  1.00  0.00    -0.039 A 
ATOM     15  C   UNL     1      23.572  25.329  20.895  1.00  0.00     0.039 A 
ATOM     16  C   UNL     1      23.489  24.302  18.677  1.00  0.00     0.013 A 
ATOM     17  C   UNL     1      24.652  22.147  18.132  1.00  0.00     0.045 C 
ATOM     18  C   UNL     1      23.084  25.334  19.553  1.00  0.00    -0.006 A 
ATOM     19  C   UNL     1      23.210  26.401  21.764  1.00  0.00     0.072 A 
ATOM     20  C   UNL     1      22.233  26.391  19.103  1.00  0.00     0.008 A 
ATOM     21  C   UNL     1      22.538  27.524  21.246  1.00  0.00     0.169 A 
ATOM     22  C   UNL     1      22.089  27.533  19.921  1.00  0.00     0.162 A 
BRANCH  13  23
ATOM     23  O   UNL     1      25.032  24.306  22.579  1.00  0.00    -0.507 OA
ATOM     24  H   UNL     1      25.061  25.126  23.173  1.00  0.00     0.293 HD
ENDBRANCH  13  23
BRANCH  19  25
ATOM     25  C   UNL     1      23.479  26.368  23.215  1.00  0.00     0.264 C 
ATOM     26  O   UNL     1      22.797  25.628  23.972  1.00  0.00    -0.298 OA
ENDBRANCH  19  25
BRANCH  20  27
ATOM     27  C   UNL     1      21.508  26.332  17.746  1.00  0.00     0.017 C 
ATOM     28  C   UNL     1      22.089  27.361  16.771  1.00  0.00     0.012 C 
ATOM     29  C   UNL     1      19.976  26.463  17.849  1.00  0.00     0.012 C 
ENDBRANCH  20  27
BRANCH  21  30
ATOM     30  O   UNL     1      22.269  28.648  22.038  1.00  0.00    -0.504 OA
ATOM     31  H   UNL     1      22.983  29.244  22.436  1.00  0.00     0.293 HD
ENDBRANCH  21  30
BRANCH  22  32
ATOM     32  O   UNL     1      21.484  28.684  19.412  1.00  0.00    -0.504 OA
ATOM     33  H   UNL     1      20.921  29.309  19.978  1.00  0.00     0.293 HD
ENDBRANCH  22  32
ENDBRANCH  11  12
BRANCH  10  34
ATOM     34  O   UNL     1      23.744  20.835  21.541  1.00  0.00    -0.507 OA
ATOM     35  H   UNL     1      23.102  20.991  20.774  1.00  0.00     0.293 HD
ENDBRANCH  10  34
BRANCH   9  36
ATOM     36  C   UNL     1      29.728  18.809  21.434  1.00  0.00     0.017 C 
ATOM     37  C   UNL     1      30.616  19.801  22.197  1.00  0.00     0.012 C 
ATOM     38  C   UNL     1      29.938  18.859  19.906  1.00  0.00     0.012 C 
ENDBRANCH   9  36
BRANCH   6  39
ATOM     39  C   UNL     1      24.080  18.651  22.982  1.00  0.00     0.264 C 
ATOM     40  O   UNL     1      23.301  17.860  22.387  1.00  0.00    -0.298 OA
ENDBRANCH   6  39
BRANCH   8  41
ATOM     41  O   UNL     1      28.574  16.732  22.955  1.00  0.00    -0.504 OA
ATOM     42  H   UNL     1      28.306  16.012  23.615  1.00  0.00     0.293 HD
ENDBRANCH   8  41
BRANCH   7  43
ATOM     43  O   UNL     1      25.949  16.636  23.705  1.00  0.00    -0.504 OA
ATOM     44  H   UNL     1      26.179  15.674  23.496  1.00  0.00     0.293 HD
ENDBRANCH   7  43
TORSDOF 11
ENDMDL
MODEL 6
REMARK VINA RESULT:    -8.277      3.479      9.214
REMARK INTER + INTRA:         -13.682
REMARK INTER:                 -12.380
REMARK INTRA:                  -1.303
REMARK UNBOUND:                -1.534
REMARK SMILES Cc1cc2c(C(C)C)c(O)c(O)c(C=O)c2c(O)c1-c1c(C)cc2c(C(C)C)c(O)c(O)c(C=O)c2c1O
REMARK SMILES IDX 1 1 2 2 3 3 4 4 16 5 13 6 11 7 9 8 5 9 17 10 19 11 20 12
REMARK SMILES IDX 37 13 21 14 36 15 23 16 22 17 24 18 33 19 25 20 31 21 29 22
REMARK SMILES IDX 38 23 34 25 35 26 26 27 27 28 28 29 32 30 30 32 18 34 6 36
REMARK SMILES IDX 7 37 8 38 14 39 15 40 10 41 12 43
REMARK H PARENT 38 24 32 31 30 33 18 35 10 42 12 44
REMARK Flexibility Score: inf
ROOT
ATOM      1  C   UNL     1      23.202  20.799  22.091  1.00  0.00     0.045 C 
ATOM      2  C   UNL     1      24.681  20.839  21.787  1.00  0.00    -0.039 A 
ATOM      3  C   UNL     1      25.508  19.824  22.271  1.00  0.00     0.013 A 
ATOM      4  C   UNL     1      26.893  19.798  22.014  1.00  0.00    -0.006 A 
ATOM      5  C   UNL     1      27.442  20.782  21.134  1.00  0.00     0.039 A 
ATOM      6  C   UNL     1      28.805  20.665  20.730  1.00  0.00     0.072 A 
ATOM      7  C   UNL     1      29.594  19.606  21.219  1.00  0.00     0.169 A 
ATOM      8  C   UNL     1      29.076  18.705  22.154  1.00  0.00     0.162 A 
ATOM      9  C   UNL     1      27.740  18.806  22.602  1.00  0.00     0.008 A 
ATOM     10  C   UNL     1      26.609  21.863  20.705  1.00  0.00     0.132 A 
ATOM     11  C   UNL     1      25.237  21.881  21.029  1.00  0.00     0.031 A 
ENDROOT
BRANCH  11  12
ATOM     12  C   UNL     1      24.374  22.998  20.564  1.00  0.00     0.031 A 
ATOM     13  C   UNL     1      24.161  24.122  21.390  1.00  0.00     0.132 A 
ATOM     14  C   UNL     1      23.801  22.947  19.283  1.00  0.00    -0.039 A 
ATOM     15  C   UNL     1      23.314  25.188  20.958  1.00  0.00     0.039 A 
ATOM     16  C   UNL     1      23.036  24.020  18.828  1.00  0.00     0.013 A 
ATOM     17  C   UNL     1      24.046  21.771  18.368  1.00  0.00     0.045 C 
ATOM     18  C   UNL     1      22.742  25.131  19.650  1.00  0.00    -0.006 A 
ATOM     19  C   UNL     1      23.065  26.335  21.769  1.00  0.00     0.072 A 
ATOM     20  C   UNL     1      21.922  26.203  19.178  1.00  0.00     0.008 A 
ATOM     21  C   UNL     1      22.422  27.458  21.214  1.00  0.00     0.169 A 
ATOM     22  C   UNL     1      21.891  27.403  19.921  1.00  0.00     0.162 A 
BRANCH  13  23
ATOM     23  O   UNL     1      24.821  24.199  22.621  1.00  0.00    -0.507 OA
ATOM     24  H   UNL     1      24.434  23.858  23.493  1.00  0.00     0.293 HD
ENDBRANCH  13  23
BRANCH  19  25
ATOM     25  C   UNL     1      23.423  26.385  23.201  1.00  0.00     0.264 C 
ATOM     26  O   UNL     1      22.767  25.717  24.044  1.00  0.00    -0.298 OA
ENDBRANCH  19  25
BRANCH  20  27
ATOM     27  C   UNL     1      21.111  26.094  17.874  1.00  0.00     0.017 C 
ATOM     28  C   UNL     1      21.742  26.943  16.766  1.00  0.00     0.012 C 
ATOM     29  C   UNL     1      19.614  26.417  18.041  1.00  0.00     0.012 C 
ENDBRANCH  20  27
BRANCH  21  30
ATOM     30  O   UNL     1      22.264  28.646  21.939  1.00  0.00    -0.504 OA
ATOM     31  H   UNL     1      21.695  28.730  22.771  1.00  0.00     0.293 HD
ENDBRANCH  21  30
BRANCH  22  32
ATOM     32  O   UNL     1      21.318  28.551  19.369  1.00  0.00    -0.504 OA
ATOM     33  H   UNL     1      20.319  28.720  19.360  1.00  0.00     0.293 HD
ENDBRANCH  22  32
ENDBRANCH  11  12
BRANCH  10  34
ATOM     34  O   UNL     1      27.152  22.930  19.980  1.00  0.00    -0.507 OA
ATOM     35  H   UNL     1      27.888  22.831  19.292  1.00  0.00     0.293 HD
ENDBRANCH  10  34
BRANCH   9  36
ATOM     36  C   UNL     1      27.290  17.834  23.712  1.00  0.00     0.017 C 
ATOM     37  C   UNL     1      26.102  16.966  23.274  1.00  0.00     0.012 C 
ATOM     38  C   UNL     1      27.084  18.492  25.091  1.00  0.00     0.012 C 
ENDBRANCH   9  36
BRANCH   6  39
ATOM     39  C   UNL     1      29.409  21.584  19.742  1.00  0.00     0.264 C 
ATOM     40  O   UNL     1      29.467  21.268  18.524  1.00  0.00    -0.298 OA
ENDBRANCH   6  39
BRANCH   8  41
ATOM     41  O   UNL     1      29.894  17.678  22.637  1.00  0.00    -0.504 OA
ATOM     42  H   UNL     1      29.691  17.160  23.484  1.00  0.00     0.293 HD
ENDBRANCH   8  41
BRANCH   7  43
ATOM     43  O   UNL     1      30.907  19.402  20.775  1.00  0.00    -0.504 OA
ATOM     44  H   UNL     1      31.501  18.645  21.085  1.00  0.00     0.293 HD
ENDBRANCH   7  43
TORSDOF 11
ENDMDL
MODEL 7
REMARK VINA RESULT:    -8.273      4.847      7.967
REMARK INTER + INTRA:         -13.677
REMARK INTER:                 -12.316
REMARK INTRA:                  -1.360
REMARK UNBOUND:                -1.534
REMARK SMILES Cc1cc2c(C(C)C)c(O)c(O)c(C=O)c2c(O)c1-c1c(C)cc2c(C(C)C)c(O)c(O)c(C=O)c2c1O
REMARK SMILES IDX 1 1 2 2 3 3 4 4 16 5 13 6 11 7 9 8 5 9 17 10 19 11 20 12
REMARK SMILES IDX 37 13 21 14 36 15 23 16 22 17 24 18 33 19 25 20 31 21 29 22
REMARK SMILES IDX 38 23 34 25 35 26 26 27 27 28 28 29 32 30 30 32 18 34 6 36
REMARK SMILES IDX 7 37 8 38 14 39 15 40 10 41 12 43
REMARK H PARENT 38 24 32 31 30 33 18 35 10 42 12 44
REMARK Flexibility Score: inf
ROOT
ATOM      1  C   UNL     1      28.802  20.204  17.733  1.00  0.00     0.045 C 
ATOM      2  C   UNL     1      28.009  21.430  18.118  1.00  0.00    -0.039 A 
ATOM      3  C   UNL     1      28.125  22.591  17.351  1.00  0.00     0.013 A 
ATOM      4  C   UNL     1      27.404  23.764  17.652  1.00  0.00    -0.006 A 
ATOM      5  C   UNL     1      26.441  23.720  18.707  1.00  0.00     0.039 A 
ATOM      6  C   UNL     1      25.585  24.844  18.908  1.00  0.00     0.072 A 
ATOM      7  C   UNL     1      25.717  25.983  18.090  1.00  0.00     0.169 A 
ATOM      8  C   UNL     1      26.727  26.054  17.126  1.00  0.00     0.162 A 
ATOM      9  C   UNL     1      27.613  24.974  16.917  1.00  0.00     0.008 A 
ATOM     10  C   UNL     1      26.381  22.558  19.537  1.00  0.00     0.132 A 
ATOM     11  C   UNL     1      27.159  21.422  19.235  1.00  0.00     0.031 A 
ENDROOT
BRANCH  11  12
ATOM     12  C   UNL     1      27.078  20.210  20.091  1.00  0.00     0.031 A 
ATOM     13  C   UNL     1      26.132  19.202  19.807  1.00  0.00     0.132 A 
ATOM     14  C   UNL     1      27.972  20.055  21.163  1.00  0.00    -0.039 A 
ATOM     15  C   UNL     1      26.034  18.045  20.640  1.00  0.00     0.039 A 
ATOM     16  C   UNL     1      27.930  18.892  21.932  1.00  0.00     0.013 A 
ATOM     17  C   UNL     1      29.016  21.104  21.463  1.00  0.00     0.045 C 
ATOM     18  C   UNL     1      26.953  17.892  21.722  1.00  0.00    -0.006 A 
ATOM     19  C   UNL     1      25.084  17.010  20.392  1.00  0.00     0.072 A 
ATOM     20  C   UNL     1      26.902  16.726  22.548  1.00  0.00     0.008 A 
ATOM     21  C   UNL     1      25.180  15.791  21.089  1.00  0.00     0.169 A 
ATOM     22  C   UNL     1      26.103  15.640  22.129  1.00  0.00     0.162 A 
BRANCH  13  23
ATOM     23  O   UNL     1      25.319  19.329  18.676  1.00  0.00    -0.507 OA
ATOM     24  H   UNL     1      24.894  18.547  18.193  1.00  0.00     0.293 HD
ENDBRANCH  13  23
BRANCH  19  25
ATOM     25  C   UNL     1      23.961  17.177  19.447  1.00  0.00     0.264 C 
ATOM     26  O   UNL     1      23.985  16.609  18.323  1.00  0.00    -0.298 OA
ENDBRANCH  19  25
BRANCH  20  27
ATOM     27  C   UNL     1      27.716  16.613  23.849  1.00  0.00     0.017 C 
ATOM     28  C   UNL     1      28.810  15.548  23.718  1.00  0.00     0.012 C 
ATOM     29  C   UNL     1      26.857  16.380  25.107  1.00  0.00     0.012 C 
ENDBRANCH  20  27
BRANCH  21  30
ATOM     30  O   UNL     1      24.342  14.709  20.792  1.00  0.00    -0.504 OA
ATOM     31  H   UNL     1      24.374  13.819  21.273  1.00  0.00     0.293 HD
ENDBRANCH  21  30
BRANCH  22  32
ATOM     32  O   UNL     1      26.224  14.400  22.760  1.00  0.00    -0.504 OA
ATOM     33  H   UNL     1      26.796  13.648  22.394  1.00  0.00     0.293 HD
ENDBRANCH  22  32
ENDBRANCH  11  12
BRANCH  10  34
ATOM     34  O   UNL     1      25.567  22.543  20.677  1.00  0.00    -0.507 OA
ATOM     35  H   UNL     1      24.555  22.543  20.650  1.00  0.00     0.293 HD
ENDBRANCH  10  34
BRANCH   9  36
ATOM     36  C   UNL     1      28.760  25.184  15.906  1.00  0.00     0.017 C 
ATOM     37  C   UNL     1      29.888  26.051  16.482  1.00  0.00     0.012 C 
ATOM     38  C   UNL     1      28.299  25.639  14.507  1.00  0.00     0.012 C 
ENDBRANCH   9  36
BRANCH   6  39
ATOM     39  C   UNL     1      24.497  24.828  19.909  1.00  0.00     0.264 C 
ATOM     40  O   UNL     1      24.594  25.495  20.973  1.00  0.00    -0.298 OA
ENDBRANCH   6  39
BRANCH   8  41
ATOM     41  O   UNL     1      26.845  27.210  16.346  1.00  0.00    -0.504 OA
ATOM     42  H   UNL     1      27.038  27.189  15.352  1.00  0.00     0.293 HD
ENDBRANCH   8  41
BRANCH   7  43
ATOM     43  O   UNL     1      24.837  27.068  18.194  1.00  0.00    -0.504 OA
ATOM     44  H   UNL     1      24.448  27.563  17.402  1.00  0.00     0.293 HD
ENDBRANCH   7  43
TORSDOF 11
ENDMDL
MODEL 8
REMARK VINA RESULT:    -8.248      6.080     10.169
REMARK INTER + INTRA:         -13.640
REMARK INTER:                 -12.204
REMARK INTRA:                  -1.436
REMARK UNBOUND:                -1.534
REMARK SMILES Cc1cc2c(C(C)C)c(O)c(O)c(C=O)c2c(O)c1-c1c(C)cc2c(C(C)C)c(O)c(O)c(C=O)c2c1O
REMARK SMILES IDX 1 1 2 2 3 3 4 4 16 5 13 6 11 7 9 8 5 9 17 10 19 11 20 12
REMARK SMILES IDX 37 13 21 14 36 15 23 16 22 17 24 18 33 19 25 20 31 21 29 22
REMARK SMILES IDX 38 23 34 25 35 26 26 27 27 28 28 29 32 30 30 32 18 34 6 36
REMARK SMILES IDX 7 37 8 38 14 39 15 40 10 41 12 43
REMARK H PARENT 38 24 32 31 30 33 18 35 10 42 12 44
REMARK Flexibility Score: inf
ROOT
ATOM      1  C   UNL     1      24.120  18.624  23.093  1.00  0.00     0.045 C 
ATOM      2  C   UNL     1      25.347  18.764  22.224  1.00  0.00    -0.039 A 
ATOM      3  C   UNL     1      25.434  19.829  21.325  1.00  0.00     0.013 A 
ATOM      4  C   UNL     1      26.556  20.021  20.495  1.00  0.00    -0.006 A 
ATOM      5  C   UNL     1      27.685  19.161  20.665  1.00  0.00     0.039 A 
ATOM      6  C   UNL     1      28.888  19.451  19.955  1.00  0.00     0.072 A 
ATOM      7  C   UNL     1      28.940  20.555  19.081  1.00  0.00     0.169 A 
ATOM      8  C   UNL     1      27.801  21.331  18.847  1.00  0.00     0.162 A 
ATOM      9  C   UNL     1      26.582  21.057  19.508  1.00  0.00     0.008 A 
ATOM     10  C   UNL     1      27.564  18.028  21.528  1.00  0.00     0.132 A 
ATOM     11  C   UNL     1      26.401  17.840  22.303  1.00  0.00     0.031 A 
ENDROOT
BRANCH  11  12
ATOM     12  C   UNL     1      26.289  16.670  23.213  1.00  0.00     0.031 A 
ATOM     13  C   UNL     1      25.601  15.510  22.795  1.00  0.00     0.132 A 
ATOM     14  C   UNL     1      26.903  16.708  24.475  1.00  0.00    -0.039 A 
ATOM     15  C   UNL     1      25.471  14.391  23.673  1.00  0.00     0.039 A 
ATOM     16  C   UNL     1      26.843  15.589  25.305  1.00  0.00     0.013 A 
ATOM     17  C   UNL     1      27.675  17.925  24.927  1.00  0.00     0.045 C 
ATOM     18  C   UNL     1      26.105  14.436  24.952  1.00  0.00    -0.006 A 
ATOM     19  C   UNL     1      24.773  13.206  23.292  1.00  0.00     0.072 A 
ATOM     20  C   UNL     1      26.023  13.314  25.834  1.00  0.00     0.008 A 
ATOM     21  C   UNL     1      24.871  12.050  24.090  1.00  0.00     0.169 A 
ATOM     22  C   UNL     1      25.521  12.096  25.328  1.00  0.00     0.162 A 
BRANCH  13  23
ATOM     23  O   UNL     1      25.083  15.454  21.497  1.00  0.00    -0.507 OA
ATOM     24  H   UNL     1      25.639  15.576  20.660  1.00  0.00     0.293 HD
ENDBRANCH  13  23
BRANCH  19  25
ATOM     25  C   UNL     1      23.907  13.147  22.098  1.00  0.00     0.264 C 
ATOM     26  O   UNL     1      24.257  12.477  21.090  1.00  0.00    -0.298 OA
ENDBRANCH  19  25
BRANCH  20  27
ATOM     27  C   UNL     1      26.498  13.392  27.296  1.00  0.00     0.017 C 
ATOM     28  C   UNL     1      27.898  12.788  27.448  1.00  0.00     0.012 C 
ATOM     29  C   UNL     1      25.512  12.777  28.308  1.00  0.00     0.012 C 
ENDBRANCH  20  27
BRANCH  21  30
ATOM     30  O   UNL     1      24.301  10.834  23.692  1.00  0.00    -0.504 OA
ATOM     31  H   UNL     1      23.586  10.749  22.982  1.00  0.00     0.293 HD
ENDBRANCH  21  30
BRANCH  22  32
ATOM     32  O   UNL     1      25.663  10.921  26.069  1.00  0.00    -0.504 OA
ATOM     33  H   UNL     1      25.267  10.034  25.779  1.00  0.00     0.293 HD
ENDBRANCH  22  32
ENDBRANCH  11  12
BRANCH  10  34
ATOM     34  O   UNL     1      28.587  17.075  21.594  1.00  0.00    -0.507 OA
ATOM     35  H   UNL     1      29.532  17.279  21.895  1.00  0.00     0.293 HD
ENDBRANCH  10  34
BRANCH   9  36
ATOM     36  C   UNL     1      25.354  21.901  19.108  1.00  0.00     0.017 C 
ATOM     37  C   UNL     1      24.917  22.855  20.228  1.00  0.00     0.012 C 
ATOM     38  C   UNL     1      24.187  21.085  18.515  1.00  0.00     0.012 C 
ENDBRANCH   9  36
BRANCH   6  39
ATOM     39  C   UNL     1      30.125  18.669  20.162  1.00  0.00     0.264 C 
ATOM     40  O   UNL     1      31.026  19.086  20.937  1.00  0.00    -0.298 OA
ENDBRANCH   6  39
BRANCH   8  41
ATOM     41  O   UNL     1      27.880  22.406  17.955  1.00  0.00    -0.504 OA
ATOM     42  H   UNL     1      27.295  22.487  17.132  1.00  0.00     0.293 HD
ENDBRANCH   8  41
BRANCH   7  43
ATOM     43  O   UNL     1      30.126  20.927  18.437  1.00  0.00    -0.504 OA
ATOM     44  H   UNL     1      30.812  21.558  18.830  1.00  0.00     0.293 HD
ENDBRANCH   7  43
TORSDOF 11
ENDMDL
MODEL 9
REMARK VINA RESULT:    -8.195      4.185     10.153
REMARK INTER + INTRA:         -13.563
REMARK INTER:                 -12.291
REMARK INTRA:                  -1.272
REMARK UNBOUND:                -1.534
REMARK SMILES Cc1cc2c(C(C)C)c(O)c(O)c(C=O)c2c(O)c1-c1c(C)cc2c(C(C)C)c(O)c(O)c(C=O)c2c1O
REMARK SMILES IDX 1 1 2 2 3 3 4 4 16 5 13 6 11 7 9 8 5 9 17 10 19 11 20 12
REMARK SMILES IDX 37 13 21 14 36 15 23 16 22 17 24 18 33 19 25 20 31 21 29 22
REMARK SMILES IDX 38 23 34 25 35 26 26 27 27 28 28 29 32 30 30 32 18 34 6 36
REMARK SMILES IDX 7 37 8 38 14 39 15 40 10 41 12 43
REMARK H PARENT 38 24 32 31 30 33 18 35 10 42 12 44
REMARK Flexibility Score: inf
ROOT
ATOM      1  C   UNL     1      24.349  18.145  19.281  1.00  0.00     0.045 C 
ATOM      2  C   UNL     1      25.346  17.752  20.344  1.00  0.00    -0.039 A 
ATOM      3  C   UNL     1      25.527  16.403  20.650  1.00  0.00     0.013 A 
ATOM      4  C   UNL     1      26.449  15.971  21.624  1.00  0.00    -0.006 A 
ATOM      5  C   UNL     1      27.304  16.943  22.232  1.00  0.00     0.039 A 
ATOM      6  C   UNL     1      28.355  16.499  23.089  1.00  0.00     0.072 A 
ATOM      7  C   UNL     1      28.520  15.124  23.345  1.00  0.00     0.169 A 
ATOM      8  C   UNL     1      27.619  14.190  22.824  1.00  0.00     0.162 A 
ATOM      9  C   UNL     1      26.547  14.592  21.996  1.00  0.00     0.008 A 
ATOM     10  C   UNL     1      27.063  18.328  21.975  1.00  0.00     0.132 A 
ATOM     11  C   UNL     1      26.092  18.723  21.032  1.00  0.00     0.031 A 
ENDROOT
BRANCH  11  12
ATOM     12  C   UNL     1      25.860  20.165  20.756  1.00  0.00     0.031 A 
ATOM     13  C   UNL     1      26.511  20.794  19.673  1.00  0.00     0.132 A 
ATOM     14  C   UNL     1      24.961  20.889  21.554  1.00  0.00    -0.039 A 
ATOM     15  C   UNL     1      26.310  22.185  19.417  1.00  0.00     0.039 A 
ATOM     16  C   UNL     1      24.703  22.228  21.260  1.00  0.00     0.013 A 
ATOM     17  C   UNL     1      24.225  20.227  22.695  1.00  0.00     0.045 C 
ATOM     18  C   UNL     1      25.387  22.912  20.229  1.00  0.00    -0.006 A 
ATOM     19  C   UNL     1      26.958  22.859  18.340  1.00  0.00     0.072 A 
ATOM     20  C   UNL     1      25.137  24.295  19.970  1.00  0.00     0.008 A 
ATOM     21  C   UNL     1      26.553  24.159  17.983  1.00  0.00     0.169 A 
ATOM     22  C   UNL     1      25.626  24.853  18.768  1.00  0.00     0.162 A 
BRANCH  13  23
ATOM     23  O   UNL     1      27.325  20.031  18.830  1.00  0.00    -0.507 OA
ATOM     24  H   UNL     1      27.016  19.634  17.951  1.00  0.00     0.293 HD
ENDBRANCH  13  23
BRANCH  19  25
ATOM     25  C   UNL     1      28.083  22.260  17.593  1.00  0.00     0.264 C 
ATOM     26  O   UNL     1      29.210  22.126  18.140  1.00  0.00    -0.298 OA
ENDBRANCH  19  25
BRANCH  20  27
ATOM     27  C   UNL     1      24.326  25.173  20.941  1.00  0.00     0.017 C 
ATOM     28  C   UNL     1      25.002  25.234  22.315  1.00  0.00     0.012 C 
ATOM     29  C   UNL     1      22.846  24.765  21.064  1.00  0.00     0.012 C 
ENDBRANCH  20  27
BRANCH  21  30
ATOM     30  O   UNL     1      27.081  24.810  16.861  1.00  0.00    -0.504 OA
ATOM     31  H   UNL     1      27.253  25.806  16.812  1.00  0.00     0.293 HD
ENDBRANCH  21  30
BRANCH  22  32
ATOM     32  O   UNL     1      25.190  26.114  18.356  1.00  0.00    -0.504 OA
ATOM     33  H   UNL     1      25.758  26.949  18.438  1.00  0.00     0.293 HD
ENDBRANCH  22  32
ENDBRANCH  11  12
BRANCH  10  34
ATOM     34  O   UNL     1      27.770  19.312  22.677  1.00  0.00    -0.507 OA
ATOM     35  H   UNL     1      27.332  20.065  23.192  1.00  0.00     0.293 HD
ENDBRANCH  10  34
BRANCH   9  36
ATOM     36  C   UNL     1      25.546  13.505  21.555  1.00  0.00     0.017 C 
ATOM     37  C   UNL     1      25.608  13.239  20.045  1.00  0.00     0.012 C 
ATOM     38  C   UNL     1      24.109  13.714  22.076  1.00  0.00     0.012 C 
ENDBRANCH   9  36
BRANCH   6  39
ATOM     39  C   UNL     1      29.340  17.437  23.667  1.00  0.00     0.264 C 
ATOM     40  O   UNL     1      30.475  17.580  23.140  1.00  0.00    -0.298 OA
ENDBRANCH   6  39
BRANCH   8  41
ATOM     41  O   UNL     1      27.798  12.833  23.117  1.00  0.00    -0.504 OA
ATOM     42  H   UNL     1      27.061  12.245  23.485  1.00  0.00     0.293 HD
ENDBRANCH   8  41
BRANCH   7  43
ATOM     43  O   UNL     1      29.593  14.641  24.104  1.00  0.00    -0.504 OA
ATOM     44  H   UNL     1      30.155  15.213  24.720  1.00  0.00     0.293 HD
ENDBRANCH   7  43
TORSDOF 11
ENDMDL
