MODEL 1
REMARK VINA RESULT:     0.744      0.000      0.000
REMARK INTER + INTRA:           0.772
REMARK INTER:                   0.830
REMARK INTRA:                  -0.058
REMARK UNBOUND:                -0.058
REMARK SMILES COc1ccc(C(=O)[O-])cc1
REMARK SMILES IDX 6 1 5 2 10 3 4 4 11 5 3 6 7 7 8 8 9 9 2 10 1 11
REMARK H PARENT
REMARK Flexibility Score: inf
ROOT
ATOM      1  C   UNL     1     -11.772   9.920 -32.913  1.00  0.00    -0.003 A 
ATOM      2  C   UNL     1     -11.873  11.320 -33.008  1.00  0.00     0.014 A 
ATOM      3  C   UNL     1     -10.713   9.270 -33.569  1.00  0.00     0.014 A 
ATOM      4  C   UNL     1     -10.935  12.051 -33.743  1.00  0.00     0.047 A 
ATOM      5  C   UNL     1      -9.776  10.003 -34.302  1.00  0.00     0.047 A 
ATOM      6  C   UNL     1      -9.876  11.394 -34.397  1.00  0.00     0.118 A 
ENDROOT
BRANCH   1   7
ATOM      7  C   UNL     1     -12.762   9.142 -32.138  1.00  0.00     0.071 C 
ATOM      8  O   UNL     1     -12.412   8.119 -31.493  1.00  0.00    -0.545 OA
ATOM      9  O   UNL     1     -14.098   9.530 -32.111  1.00  0.00    -0.545 OA
ENDBRANCH   1   7
BRANCH   6  10
ATOM     10  O   UNL     1      -8.911  12.083 -35.146  1.00  0.00    -0.497 OA
ATOM     11  C   UNL     1      -8.875  12.124 -36.569  1.00  0.00     0.278 C 
ENDBRANCH   6  10
TORSDOF 2
ENDMDL
MODEL 2
REMARK VINA RESULT:     0.857      1.150      4.736
REMARK INTER + INTRA:           0.899
REMARK INTER:                   0.958
REMARK INTRA:                  -0.058
REMARK UNBOUND:                -0.058
REMARK SMILES COc1ccc(C(=O)[O-])cc1
REMARK SMILES IDX 6 1 5 2 10 3 4 4 11 5 3 6 7 7 8 8 9 9 2 10 1 11
REMARK H PARENT
REMARK Flexibility Score: inf
ROOT
ATOM      1  C   UNL     1     -10.425  10.463 -34.204  1.00  0.00    -0.003 A 
ATOM      2  C   UNL     1     -11.300  11.348 -33.549  1.00  0.00     0.014 A 
ATOM      3  C   UNL     1     -10.580   9.081 -34.003  1.00  0.00     0.014 A 
ATOM      4  C   UNL     1     -12.307  10.860 -32.709  1.00  0.00     0.047 A 
ATOM      5  C   UNL     1     -11.587   8.595 -33.164  1.00  0.00     0.047 A 
ATOM      6  C   UNL     1     -12.456   9.475 -32.512  1.00  0.00     0.118 A 
ENDROOT
BRANCH   1   7
ATOM      7  C   UNL     1      -9.359  10.975 -35.092  1.00  0.00     0.071 C 
ATOM      8  O   UNL     1      -8.875  12.125 -34.916  1.00  0.00    -0.545 OA
ATOM      9  O   UNL     1      -8.875  10.194 -36.136  1.00  0.00    -0.545 OA
ENDBRANCH   1   7
BRANCH   6  10
ATOM     10  O   UNL     1     -13.450   8.936 -31.680  1.00  0.00    -0.497 OA
ATOM     11  C   UNL     1     -14.806   8.745 -32.068  1.00  0.00     0.278 C 
ENDBRANCH   6  10
TORSDOF 2
ENDMDL
MODEL 3
REMARK VINA RESULT:     1.007      1.144      4.944
REMARK INTER + INTRA:           1.066
REMARK INTER:                   1.124
REMARK INTRA:                  -0.057
REMARK UNBOUND:                -0.058
REMARK SMILES COc1ccc(C(=O)[O-])cc1
REMARK SMILES IDX 6 1 5 2 10 3 4 4 11 5 3 6 7 7 8 8 9 9 2 10 1 11
REMARK H PARENT
REMARK Flexibility Score: inf
ROOT
ATOM      1  C   UNL     1     -10.512  10.490 -33.952  1.00  0.00    -0.003 A 
ATOM      2  C   UNL     1     -10.648   9.114 -33.694  1.00  0.00     0.014 A 
ATOM      3  C   UNL     1     -11.465  11.378 -33.425  1.00  0.00     0.014 A 
ATOM      4  C   UNL     1     -11.715   8.638 -32.926  1.00  0.00     0.047 A 
ATOM      5  C   UNL     1     -12.530  10.900 -32.656  1.00  0.00     0.047 A 
ATOM      6  C   UNL     1     -12.666   9.532 -32.400  1.00  0.00     0.118 A 
ENDROOT
BRANCH   1   7
ATOM      7  C   UNL     1      -9.386  10.998 -34.766  1.00  0.00     0.071 C 
ATOM      8  O   UNL     1      -8.875  12.123 -34.522  1.00  0.00    -0.545 OA
ATOM      9  O   UNL     1      -8.875  10.239 -35.813  1.00  0.00    -0.545 OA
ENDBRANCH   1   7
BRANCH   6  10
ATOM     10  O   UNL     1     -13.753   9.104 -31.623  1.00  0.00    -0.497 OA
ATOM     11  C   UNL     1     -14.979   8.614 -32.157  1.00  0.00     0.278 C 
ENDBRANCH   6  10
TORSDOF 2
ENDMDL
MODEL 4
REMARK VINA RESULT:     1.287      0.182      1.755
REMARK INTER + INTRA:           1.380
REMARK INTER:                   1.434
REMARK INTRA:                  -0.055
REMARK UNBOUND:                -0.058
REMARK SMILES COc1ccc(C(=O)[O-])cc1
REMARK SMILES IDX 6 1 5 2 10 3 4 4 11 5 3 6 7 7 8 8 9 9 2 10 1 11
REMARK H PARENT
REMARK Flexibility Score: inf
ROOT
ATOM      1  C   UNL     1     -11.823   9.847 -32.879  1.00  0.00    -0.003 A 
ATOM      2  C   UNL     1     -10.868   9.136 -33.628  1.00  0.00     0.014 A 
ATOM      3  C   UNL     1     -11.774  11.251 -32.873  1.00  0.00     0.014 A 
ATOM      4  C   UNL     1      -9.885   9.816 -34.355  1.00  0.00     0.047 A 
ATOM      5  C   UNL     1     -10.792  11.929 -33.601  1.00  0.00     0.047 A 
ATOM      6  C   UNL     1      -9.842  11.223 -34.345  1.00  0.00     0.118 A 
ENDROOT
BRANCH   1   7
ATOM      7  C   UNL     1     -12.862   9.131 -32.108  1.00  0.00     0.071 C 
ATOM      8  O   UNL     1     -14.077   9.446 -32.222  1.00  0.00    -0.545 OA
ATOM      9  O   UNL     1     -12.513   8.099 -31.243  1.00  0.00    -0.545 OA
ENDBRANCH   1   7
BRANCH   6  10
ATOM     10  O   UNL     1      -8.877  11.950 -35.058  1.00  0.00    -0.497 OA
ATOM     11  C   UNL     1      -8.883  12.124 -36.471  1.00  0.00     0.278 C 
ENDBRANCH   6  10
TORSDOF 2
ENDMDL
MODEL 5
REMARK VINA RESULT:     1.369      1.221      1.517
REMARK INTER + INTRA:           1.471
REMARK INTER:                   1.532
REMARK INTRA:                  -0.061
REMARK UNBOUND:                -0.058
REMARK SMILES COc1ccc(C(=O)[O-])cc1
REMARK SMILES IDX 6 1 5 2 10 3 4 4 11 5 3 6 7 7 8 8 9 9 2 10 1 11
REMARK H PARENT
REMARK Flexibility Score: inf
ROOT
ATOM      1  C   UNL     1     -12.692   9.521 -32.715  1.00  0.00    -0.003 A 
ATOM      2  C   UNL     1     -12.745  10.914 -32.525  1.00  0.00     0.014 A 
ATOM      3  C   UNL     1     -11.515   8.949 -33.222  1.00  0.00     0.014 A 
ATOM      4  C   UNL     1     -11.642  11.715 -32.837  1.00  0.00     0.047 A 
ATOM      5  C   UNL     1     -10.413   9.751 -33.534  1.00  0.00     0.047 A 
ATOM      6  C   UNL     1     -10.465  11.136 -33.345  1.00  0.00     0.118 A 
ENDROOT
BRANCH   1   7
ATOM      7  C   UNL     1     -13.857   8.671 -32.387  1.00  0.00     0.071 C 
ATOM      8  O   UNL     1     -14.787   9.109 -31.659  1.00  0.00    -0.545 OA
ATOM      9  O   UNL     1     -13.941   7.372 -32.877  1.00  0.00    -0.545 OA
ENDBRANCH   1   7
BRANCH   6  10
ATOM     10  O   UNL     1      -9.332  11.897 -33.674  1.00  0.00    -0.497 OA
ATOM     11  C   UNL     1      -8.875  12.125 -35.002  1.00  0.00     0.278 C 
ENDBRANCH   6  10
TORSDOF 2
ENDMDL
MODEL 6
REMARK VINA RESULT:     3.582      1.749      2.190
REMARK INTER + INTRA:           3.943
REMARK INTER:                   4.009
REMARK INTRA:                  -0.066
REMARK UNBOUND:                -0.058
REMARK SMILES COc1ccc(C(=O)[O-])cc1
REMARK SMILES IDX 6 1 5 2 10 3 4 4 11 5 3 6 7 7 8 8 9 9 2 10 1 11
REMARK H PARENT
REMARK Flexibility Score: inf
ROOT
ATOM      1  C   UNL     1     -13.547   9.376 -32.471  1.00  0.00    -0.003 A 
ATOM      2  C   UNL     1     -13.629  10.779 -32.416  1.00  0.00     0.014 A 
ATOM      3  C   UNL     1     -12.313   8.779 -32.777  1.00  0.00     0.014 A 
ATOM      4  C   UNL     1     -12.500  11.567 -32.662  1.00  0.00     0.047 A 
ATOM      5  C   UNL     1     -11.185   9.568 -33.023  1.00  0.00     0.047 A 
ATOM      6  C   UNL     1     -11.267  10.963 -32.968  1.00  0.00     0.118 A 
ENDROOT
BRANCH   1   7
ATOM      7  C   UNL     1     -14.739   8.539 -32.212  1.00  0.00     0.071 C 
ATOM      8  O   UNL     1     -14.940   7.486 -32.875  1.00  0.00    -0.545 OA
ATOM      9  O   UNL     1     -15.656   8.903 -31.233  1.00  0.00    -0.545 OA
ENDBRANCH   1   7
BRANCH   6  10
ATOM     10  O   UNL     1     -10.107  11.710 -33.223  1.00  0.00    -0.497 OA
ATOM     11  C   UNL     1      -8.936  11.189 -33.844  1.00  0.00     0.278 C 
ENDBRANCH   6  10
TORSDOF 2
ENDMDL
