MODEL 1
REMARK VINA RESULT:    -4.040      0.000      0.000
REMARK INTER + INTRA:          -9.414
REMARK INTER:                  -7.583
REMARK INTRA:                  -1.830
REMARK UNBOUND:                -1.830
REMARK SMILES O=C([O-])CCCCCCCCCCCCCCC(=O)[O-]
REMARK SMILES IDX 10 1 9 2 8 3 7 4 6 5 5 6 4 7 2 8 1 9 3 10 11 11 12 12 13 13
REMARK SMILES IDX 14 14 15 15 16 16 17 17 18 18 19 19 20 20
REMARK H PARENT
REMARK Flexibility Score: inf
ROOT
ATOM      1  C   UNL     1     -10.097  -6.784 -13.046  1.00  0.00     0.000 C 
ENDROOT
BRANCH   1   2
ATOM      2  C   UNL     1      -9.823  -7.902 -14.066  1.00  0.00     0.000 C 
BRANCH   2   3
ATOM      3  C   UNL     1      -8.321  -8.105 -14.330  1.00  0.00     0.000 C 
BRANCH   3   4
ATOM      4  C   UNL     1      -7.443  -7.668 -13.144  1.00  0.00     0.000 C 
BRANCH   4   5
ATOM      5  C   UNL     1      -6.283  -6.751 -13.586  1.00  0.00     0.000 C 
BRANCH   5   6
ATOM      6  C   UNL     1      -6.718  -5.620 -14.533  1.00  0.00     0.006 C 
BRANCH   6   7
ATOM      7  C   UNL     1      -7.534  -4.532 -13.824  1.00  0.00     0.053 C 
BRANCH   7   8
ATOM      8  C   UNL     1      -6.625  -3.536 -13.176  1.00  0.00     0.041 C 
ATOM      9  O   UNL     1      -7.104  -2.534 -12.582  1.00  0.00    -0.550 OA
ATOM     10  O   UNL     1      -5.247  -3.687 -13.268  1.00  0.00    -0.550 OA
ENDBRANCH   7   8
ENDBRANCH   6   7
ENDBRANCH   5   6
ENDBRANCH   4   5
ENDBRANCH   3   4
ENDBRANCH   2   3
ENDBRANCH   1   2
BRANCH   1  11
ATOM     11  C   UNL     1     -11.086  -7.213 -11.949  1.00  0.00     0.000 C 
BRANCH  11  12
ATOM     12  C   UNL     1     -10.440  -8.125 -10.890  1.00  0.00     0.000 C 
BRANCH  12  13
ATOM     13  C   UNL     1      -9.835  -7.328  -9.722  1.00  0.00     0.000 C 
BRANCH  13  14
ATOM     14  C   UNL     1      -8.335  -7.048  -9.918  1.00  0.00     0.000 C 
BRANCH  14  15
ATOM     15  C   UNL     1      -8.047  -5.593 -10.332  1.00  0.00     0.000 C 
BRANCH  15  16
ATOM     16  C   UNL     1      -6.576  -5.157 -10.209  1.00  0.00     0.006 C 
BRANCH  16  17
ATOM     17  C   UNL     1      -6.383  -3.963  -9.267  1.00  0.00     0.053 C 
BRANCH  17  18
ATOM     18  C   UNL     1      -5.363  -4.283  -8.221  1.00  0.00     0.041 C 
ATOM     19  O   UNL     1      -4.849  -3.360  -7.534  1.00  0.00    -0.550 OA
ATOM     20  O   UNL     1      -4.942  -5.594  -8.037  1.00  0.00    -0.550 OA
ENDBRANCH  17  18
ENDBRANCH  16  17
ENDBRANCH  15  16
ENDBRANCH  14  15
ENDBRANCH  13  14
ENDBRANCH  12  13
ENDBRANCH  11  12
ENDBRANCH   1  11
TORSDOF 15
ENDMDL
MODEL 2
REMARK VINA RESULT:    -3.829      0.909      4.473
REMARK INTER + INTRA:          -9.017
REMARK INTER:                  -7.497
REMARK INTRA:                  -1.519
REMARK UNBOUND:                -1.830
REMARK SMILES O=C([O-])CCCCCCCCCCCCCCC(=O)[O-]
REMARK SMILES IDX 10 1 9 2 8 3 7 4 6 5 5 6 4 7 2 8 1 9 3 10 11 11 12 12 13 13
REMARK SMILES IDX 14 14 15 15 16 16 17 17 18 18 19 19 20 20
REMARK H PARENT
REMARK Flexibility Score: inf
ROOT
ATOM      1  C   UNL     1     -10.308  -6.878 -10.534  1.00  0.00     0.000 C 
ENDROOT
BRANCH   1   2
ATOM      2  C   UNL     1      -9.690  -8.111  -9.853  1.00  0.00     0.000 C 
BRANCH   2   3
ATOM      3  C   UNL     1      -8.173  -7.973  -9.644  1.00  0.00     0.000 C 
BRANCH   3   4
ATOM      4  C   UNL     1      -7.432  -7.545 -10.924  1.00  0.00     0.000 C 
BRANCH   4   5
ATOM      5  C   UNL     1      -6.921  -6.091 -10.842  1.00  0.00     0.000 C 
BRANCH   5   6
ATOM      6  C   UNL     1      -6.952  -5.507  -9.419  1.00  0.00     0.006 C 
BRANCH   6   7
ATOM      7  C   UNL     1      -6.042  -4.282  -9.259  1.00  0.00     0.053 C 
BRANCH   7   8
ATOM      8  C   UNL     1      -5.135  -4.457  -8.082  1.00  0.00     0.041 C 
ATOM      9  O   UNL     1      -4.618  -3.452  -7.527  1.00  0.00    -0.550 OA
ATOM     10  O   UNL     1      -4.822  -5.731  -7.627  1.00  0.00    -0.550 OA
ENDBRANCH   7   8
ENDBRANCH   6   7
ENDBRANCH   5   6
ENDBRANCH   4   5
ENDBRANCH   3   4
ENDBRANCH   2   3
ENDBRANCH   1   2
BRANCH   1  11
ATOM     11  C   UNL     1     -11.062  -7.232 -11.827  1.00  0.00     0.000 C 
BRANCH  11  12
ATOM     12  C   UNL     1     -10.212  -8.068 -12.801  1.00  0.00     0.000 C 
BRANCH  12  13
ATOM     13  C   UNL     1     -10.426  -7.656 -14.268  1.00  0.00     0.000 C 
BRANCH  13  14
ATOM     14  C   UNL     1      -9.506  -6.499 -14.693  1.00  0.00     0.000 C 
BRANCH  14  15
ATOM     15  C   UNL     1      -8.015  -6.799 -14.447  1.00  0.00     0.000 C 
BRANCH  15  16
ATOM     16  C   UNL     1      -7.107  -5.560 -14.356  1.00  0.00     0.006 C 
BRANCH  16  17
ATOM     17  C   UNL     1      -7.770  -4.384 -13.629  1.00  0.00     0.053 C 
BRANCH  17  18
ATOM     18  C   UNL     1      -6.733  -3.458 -13.079  1.00  0.00     0.041 C 
ATOM     19  O   UNL     1      -7.049  -2.292 -12.721  1.00  0.00    -0.550 OA
ATOM     20  O   UNL     1      -5.406  -3.862 -13.009  1.00  0.00    -0.550 OA
ENDBRANCH  17  18
ENDBRANCH  16  17
ENDBRANCH  15  16
ENDBRANCH  14  15
ENDBRANCH  13  14
ENDBRANCH  12  13
ENDBRANCH  11  12
ENDBRANCH   1  11
TORSDOF 15
ENDMDL
MODEL 3
REMARK VINA RESULT:    -3.816     13.912     16.157
REMARK INTER + INTRA:          -8.992
REMARK INTER:                  -8.079
REMARK INTRA:                  -0.913
REMARK UNBOUND:                -1.830
REMARK SMILES O=C([O-])CCCCCCCCCCCCCCC(=O)[O-]
REMARK SMILES IDX 10 1 9 2 8 3 7 4 6 5 5 6 4 7 2 8 1 9 3 10 11 11 12 12 13 13
REMARK SMILES IDX 14 14 15 15 16 16 17 17 18 18 19 19 20 20
REMARK H PARENT
REMARK Flexibility Score: inf
ROOT
ATOM      1  C   UNL     1       4.083  -1.082 -13.737  1.00  0.00     0.000 C 
ENDROOT
BRANCH   1   2
ATOM      2  C   UNL     1       5.008   0.084 -14.125  1.00  0.00     0.000 C 
BRANCH   2   3
ATOM      3  C   UNL     1       6.363   0.029 -13.400  1.00  0.00     0.000 C 
BRANCH   3   4
ATOM      4  C   UNL     1       7.167   1.334 -13.541  1.00  0.00     0.000 C 
BRANCH   4   5
ATOM      5  C   UNL     1       8.658   1.139 -13.189  1.00  0.00     0.000 C 
BRANCH   5   6
ATOM      6  C   UNL     1       8.967   1.321 -11.694  1.00  0.00     0.006 C 
BRANCH   6   7
ATOM      7  C   UNL     1       8.957   2.790 -11.257  1.00  0.00     0.053 C 
BRANCH   7   8
ATOM      8  C   UNL     1       8.597   2.903  -9.809  1.00  0.00     0.041 C 
ATOM      9  O   UNL     1       8.134   3.982  -9.354  1.00  0.00    -0.550 OA
ATOM     10  O   UNL     1       8.817   1.832  -8.952  1.00  0.00    -0.550 OA
ENDBRANCH   7   8
ENDBRANCH   6   7
ENDBRANCH   5   6
ENDBRANCH   4   5
ENDBRANCH   3   4
ENDBRANCH   2   3
ENDBRANCH   1   2
BRANCH   1  11
ATOM     11  C   UNL     1       4.673  -2.454 -14.104  1.00  0.00     0.000 C 
BRANCH  11  12
ATOM     12  C   UNL     1       4.802  -3.390 -12.888  1.00  0.00     0.000 C 
BRANCH  12  13
ATOM     13  C   UNL     1       6.192  -4.043 -12.796  1.00  0.00     0.000 C 
BRANCH  13  14
ATOM     14  C   UNL     1       7.226  -3.129 -12.117  1.00  0.00     0.000 C 
BRANCH  14  15
ATOM     15  C   UNL     1       8.366  -3.913 -11.440  1.00  0.00     0.000 C 
BRANCH  15  16
ATOM     16  C   UNL     1       8.100  -4.323  -9.981  1.00  0.00     0.006 C 
BRANCH  16  17
ATOM     17  C   UNL     1       9.097  -5.366  -9.462  1.00  0.00     0.053 C 
BRANCH  17  18
ATOM     18  C   UNL     1       8.600  -6.748  -9.741  1.00  0.00     0.041 C 
ATOM     19  O   UNL     1       9.123  -7.437 -10.658  1.00  0.00    -0.550 OA
ATOM     20  O   UNL     1       7.526  -7.260  -9.024  1.00  0.00    -0.550 OA
ENDBRANCH  17  18
ENDBRANCH  16  17
ENDBRANCH  15  16
ENDBRANCH  14  15
ENDBRANCH  13  14
ENDBRANCH  12  13
ENDBRANCH  11  12
ENDBRANCH   1  11
TORSDOF 15
ENDMDL
MODEL 4
REMARK VINA RESULT:    -3.121     12.541     14.411
REMARK INTER + INTRA:          -7.687
REMARK INTER:                  -7.372
REMARK INTRA:                  -0.315
REMARK UNBOUND:                -1.830
REMARK SMILES O=C([O-])CCCCCCCCCCCCCCC(=O)[O-]
REMARK SMILES IDX 10 1 9 2 8 3 7 4 6 5 5 6 4 7 2 8 1 9 3 10 11 11 12 12 13 13
REMARK SMILES IDX 14 14 15 15 16 16 17 17 18 18 19 19 20 20
REMARK H PARENT
REMARK Flexibility Score: inf
ROOT
ATOM      1  C   UNL     1       4.774  -3.647 -13.982  1.00  0.00     0.000 C 
ENDROOT
BRANCH   1   2
ATOM      2  C   UNL     1       4.780  -2.235 -14.592  1.00  0.00     0.000 C 
BRANCH   2   3
ATOM      3  C   UNL     1       4.023  -1.214 -13.726  1.00  0.00     0.000 C 
BRANCH   3   4
ATOM      4  C   UNL     1       2.858  -0.544 -14.475  1.00  0.00     0.000 C 
BRANCH   4   5
ATOM      5  C   UNL     1       3.144   0.940 -14.789  1.00  0.00     0.000 C 
BRANCH   5   6
ATOM      6  C   UNL     1       1.877   1.771 -15.047  1.00  0.00     0.006 C 
BRANCH   6   7
ATOM      7  C   UNL     1       2.137   3.282 -15.008  1.00  0.00     0.053 C 
BRANCH   7   8
ATOM      8  C   UNL     1       0.993   3.992 -14.354  1.00  0.00     0.041 C 
ATOM      9  O   UNL     1      -0.074   4.194 -14.992  1.00  0.00    -0.550 OA
ATOM     10  O   UNL     1       1.122   4.474 -13.058  1.00  0.00    -0.550 OA
ENDBRANCH   7   8
ENDBRANCH   6   7
ENDBRANCH   5   6
ENDBRANCH   4   5
ENDBRANCH   3   4
ENDBRANCH   2   3
ENDBRANCH   1   2
BRANCH   1  11
ATOM     11  C   UNL     1       5.816  -3.813 -12.864  1.00  0.00     0.000 C 
BRANCH  11  12
ATOM     12  C   UNL     1       6.741  -2.589 -12.727  1.00  0.00     0.000 C 
BRANCH  12  13
ATOM     13  C   UNL     1       7.718  -2.722 -11.547  1.00  0.00     0.000 C 
BRANCH  13  14
ATOM     14  C   UNL     1       8.922  -3.620 -11.879  1.00  0.00     0.000 C 
BRANCH  14  15
ATOM     15  C   UNL     1       8.877  -4.976 -11.149  1.00  0.00     0.000 C 
BRANCH  15  16
ATOM     16  C   UNL     1       8.072  -4.985  -9.838  1.00  0.00     0.006 C 
BRANCH  16  17
ATOM     17  C   UNL     1       8.530  -6.076  -8.862  1.00  0.00     0.053 C 
BRANCH  17  18
ATOM     18  C   UNL     1       8.076  -7.421  -9.333  1.00  0.00     0.041 C 
ATOM     19  O   UNL     1       7.065  -7.966  -8.815  1.00  0.00    -0.550 OA
ATOM     20  O   UNL     1       8.796  -8.096 -10.310  1.00  0.00    -0.550 OA
ENDBRANCH  17  18
ENDBRANCH  16  17
ENDBRANCH  15  16
ENDBRANCH  14  15
ENDBRANCH  13  14
ENDBRANCH  12  13
ENDBRANCH  11  12
ENDBRANCH   1  11
TORSDOF 15
ENDMDL
MODEL 5
REMARK VINA RESULT:    -3.082     13.923     16.395
REMARK INTER + INTRA:          -7.614
REMARK INTER:                  -6.692
REMARK INTRA:                  -0.923
REMARK UNBOUND:                -1.830
REMARK SMILES O=C([O-])CCCCCCCCCCCCCCC(=O)[O-]
REMARK SMILES IDX 10 1 9 2 8 3 7 4 6 5 5 6 4 7 2 8 1 9 3 10 11 11 12 12 13 13
REMARK SMILES IDX 14 14 15 15 16 16 17 17 18 18 19 19 20 20
REMARK H PARENT
REMARK Flexibility Score: inf
ROOT
ATOM      1  C   UNL     1       5.515  -3.281 -12.461  1.00  0.00     0.000 C 
ENDROOT
BRANCH   1   2
ATOM      2  C   UNL     1       6.862  -3.973 -12.189  1.00  0.00     0.000 C 
BRANCH   2   3
ATOM      3  C   UNL     1       7.980  -2.975 -11.844  1.00  0.00     0.000 C 
BRANCH   3   4
ATOM      4  C   UNL     1       8.659  -3.283 -10.497  1.00  0.00     0.000 C 
BRANCH   4   5
ATOM      5  C   UNL     1       9.040  -4.773 -10.366  1.00  0.00     0.000 C 
BRANCH   5   6
ATOM      6  C   UNL     1       8.665  -5.388  -9.007  1.00  0.00     0.006 C 
BRANCH   6   7
ATOM      7  C   UNL     1       9.078  -6.860  -8.884  1.00  0.00     0.053 C 
BRANCH   7   8
ATOM      8  C   UNL     1       8.035  -7.746  -9.490  1.00  0.00     0.041 C 
ATOM      9  O   UNL     1       8.143  -8.125 -10.686  1.00  0.00    -0.550 OA
ATOM     10  O   UNL     1       6.920  -8.116  -8.749  1.00  0.00    -0.550 OA
ENDBRANCH   7   8
ENDBRANCH   6   7
ENDBRANCH   5   6
ENDBRANCH   4   5
ENDBRANCH   3   4
ENDBRANCH   2   3
ENDBRANCH   1   2
BRANCH   1  11
ATOM     11  C   UNL     1       5.151  -3.262 -13.955  1.00  0.00     0.000 C 
BRANCH  11  12
ATOM     12  C   UNL     1       4.825  -1.847 -14.468  1.00  0.00     0.000 C 
BRANCH  12  13
ATOM     13  C   UNL     1       5.271  -0.751 -13.486  1.00  0.00     0.000 C 
BRANCH  13  14
ATOM     14  C   UNL     1       6.660  -0.184 -13.829  1.00  0.00     0.000 C 
BRANCH  14  15
ATOM     15  C   UNL     1       6.902   1.212 -13.226  1.00  0.00     0.000 C 
BRANCH  15  16
ATOM     16  C   UNL     1       8.380   1.577 -12.998  1.00  0.00     0.006 C 
BRANCH  16  17
ATOM     17  C   UNL     1       8.754   1.655 -11.513  1.00  0.00     0.053 C 
BRANCH  17  18
ATOM     18  C   UNL     1       8.433   3.009 -10.965  1.00  0.00     0.041 C 
ATOM     19  O   UNL     1       8.030   3.924 -11.731  1.00  0.00    -0.550 OA
ATOM     20  O   UNL     1       8.625   3.277  -9.615  1.00  0.00    -0.550 OA
ENDBRANCH  17  18
ENDBRANCH  16  17
ENDBRANCH  15  16
ENDBRANCH  14  15
ENDBRANCH  13  14
ENDBRANCH  12  13
ENDBRANCH  11  12
ENDBRANCH   1  11
TORSDOF 15
ENDMDL
MODEL 6
REMARK VINA RESULT:    -2.937      2.245      5.193
REMARK INTER + INTRA:          -7.343
REMARK INTER:                  -6.042
REMARK INTRA:                  -1.301
REMARK UNBOUND:                -1.830
REMARK SMILES O=C([O-])CCCCCCCCCCCCCCC(=O)[O-]
REMARK SMILES IDX 10 1 9 2 8 3 7 4 6 5 5 6 4 7 2 8 1 9 3 10 11 11 12 12 13 13
REMARK SMILES IDX 14 14 15 15 16 16 17 17 18 18 19 19 20 20
REMARK H PARENT
REMARK Flexibility Score: inf
ROOT
ATOM      1  C   UNL     1      -6.350  -4.833 -14.450  1.00  0.00     0.000 C 
ENDROOT
BRANCH   1   2
ATOM      2  C   UNL     1      -5.815  -3.910 -13.342  1.00  0.00     0.000 C 
BRANCH   2   3
ATOM      3  C   UNL     1      -6.843  -2.852 -12.907  1.00  0.00     0.000 C 
BRANCH   3   4
ATOM      4  C   UNL     1      -7.203  -2.950 -11.413  1.00  0.00     0.000 C 
BRANCH   4   5
ATOM      5  C   UNL     1      -6.727  -4.278 -10.787  1.00  0.00     0.000 C 
BRANCH   5   6
ATOM      6  C   UNL     1      -6.512  -4.199  -9.266  1.00  0.00     0.006 C 
BRANCH   6   7
ATOM      7  C   UNL     1      -5.902  -5.479  -8.683  1.00  0.00     0.053 C 
BRANCH   7   8
ATOM      8  C   UNL     1      -4.739  -5.149  -7.801  1.00  0.00     0.041 C 
ATOM      9  O   UNL     1      -4.310  -5.998  -6.975  1.00  0.00    -0.550 OA
ATOM     10  O   UNL     1      -4.159  -3.888  -7.855  1.00  0.00    -0.550 OA
ENDBRANCH   7   8
ENDBRANCH   6   7
ENDBRANCH   5   6
ENDBRANCH   4   5
ENDBRANCH   3   4
ENDBRANCH   2   3
ENDBRANCH   1   2
BRANCH   1  11
ATOM     11  C   UNL     1      -7.680  -5.506 -14.069  1.00  0.00     0.000 C 
BRANCH  11  12
ATOM     12  C   UNL     1      -7.641  -7.035 -14.238  1.00  0.00     0.000 C 
BRANCH  12  13
ATOM     13  C   UNL     1      -9.037  -7.673 -14.126  1.00  0.00     0.000 C 
BRANCH  13  14
ATOM     14  C   UNL     1      -9.535  -7.742 -12.672  1.00  0.00     0.000 C 
BRANCH  14  15
ATOM     15  C   UNL     1      -8.396  -7.625 -11.643  1.00  0.00     0.000 C 
BRANCH  15  16
ATOM     16  C   UNL     1      -8.850  -7.408 -10.188  1.00  0.00     0.006 C 
BRANCH  16  17
ATOM     17  C   UNL     1     -10.353  -7.640  -9.990  1.00  0.00     0.053 C 
BRANCH  17  18
ATOM     18  C   UNL     1     -10.888  -6.720  -8.940  1.00  0.00     0.041 C 
ATOM     19  O   UNL     1     -11.085  -5.504  -9.202  1.00  0.00    -0.550 OA
ATOM     20  O   UNL     1     -11.124  -7.193  -7.655  1.00  0.00    -0.550 OA
ENDBRANCH  17  18
ENDBRANCH  16  17
ENDBRANCH  15  16
ENDBRANCH  14  15
ENDBRANCH  13  14
ENDBRANCH  12  13
ENDBRANCH  11  12
ENDBRANCH   1  11
TORSDOF 15
ENDMDL
MODEL 7
REMARK VINA RESULT:    -2.592     12.967     15.168
REMARK INTER + INTRA:          -6.694
REMARK INTER:                  -5.988
REMARK INTRA:                  -0.707
REMARK UNBOUND:                -1.830
REMARK SMILES O=C([O-])CCCCCCCCCCCCCCC(=O)[O-]
REMARK SMILES IDX 10 1 9 2 8 3 7 4 6 5 5 6 4 7 2 8 1 9 3 10 11 11 12 12 13 13
REMARK SMILES IDX 14 14 15 15 16 16 17 17 18 18 19 19 20 20
REMARK H PARENT
REMARK Flexibility Score: inf
ROOT
ATOM      1  C   UNL     1       5.019  -2.743 -12.828  1.00  0.00     0.000 C 
ENDROOT
BRANCH   1   2
ATOM      2  C   UNL     1       6.419  -3.363 -12.682  1.00  0.00     0.000 C 
BRANCH   2   3
ATOM      3  C   UNL     1       7.475  -2.338 -12.235  1.00  0.00     0.000 C 
BRANCH   3   4
ATOM      4  C   UNL     1       8.400  -2.879 -11.130  1.00  0.00     0.000 C 
BRANCH   4   5
ATOM      5  C   UNL     1       8.554  -4.413 -11.199  1.00  0.00     0.000 C 
BRANCH   5   6
ATOM      6  C   UNL     1       8.322  -5.117  -9.852  1.00  0.00     0.006 C 
BRANCH   6   7
ATOM      7  C   UNL     1       9.055  -6.460  -9.747  1.00  0.00     0.053 C 
BRANCH   7   8
ATOM      8  C   UNL     1       8.084  -7.594  -9.853  1.00  0.00     0.041 C 
ATOM      9  O   UNL     1       7.850  -8.124 -10.972  1.00  0.00    -0.550 OA
ATOM     10  O   UNL     1       7.403  -8.035  -8.726  1.00  0.00    -0.550 OA
ENDBRANCH   7   8
ENDBRANCH   6   7
ENDBRANCH   5   6
ENDBRANCH   4   5
ENDBRANCH   3   4
ENDBRANCH   2   3
ENDBRANCH   1   2
BRANCH   1  11
ATOM     11  C   UNL     1       4.444  -2.907 -14.245  1.00  0.00     0.000 C 
BRANCH  11  12
ATOM     12  C   UNL     1       4.608  -1.639 -15.103  1.00  0.00     0.000 C 
BRANCH  12  13
ATOM     13  C   UNL     1       4.461  -0.350 -14.276  1.00  0.00     0.000 C 
BRANCH  13  14
ATOM     14  C   UNL     1       3.979   0.839 -15.125  1.00  0.00     0.000 C 
BRANCH  14  15
ATOM     15  C   UNL     1       2.592   1.357 -14.699  1.00  0.00     0.000 C 
BRANCH  15  16
ATOM     16  C   UNL     1       2.284   2.809 -15.103  1.00  0.00     0.006 C 
BRANCH  16  17
ATOM     17  C   UNL     1       0.788   3.141 -15.046  1.00  0.00     0.053 C 
BRANCH  17  18
ATOM     18  C   UNL     1       0.577   4.498 -14.452  1.00  0.00     0.041 C 
ATOM     19  O   UNL     1      -0.435   5.177 -14.768  1.00  0.00    -0.550 OA
ATOM     20  O   UNL     1       1.523   5.034 -13.587  1.00  0.00    -0.550 OA
ENDBRANCH  17  18
ENDBRANCH  16  17
ENDBRANCH  15  16
ENDBRANCH  14  15
ENDBRANCH  13  14
ENDBRANCH  12  13
ENDBRANCH  11  12
ENDBRANCH   1  11
TORSDOF 15
ENDMDL
MODEL 8
REMARK VINA RESULT:    -2.560      1.081      1.907
REMARK INTER + INTRA:          -6.634
REMARK INTER:                  -5.615
REMARK INTRA:                  -1.019
REMARK UNBOUND:                -1.830
REMARK SMILES O=C([O-])CCCCCCCCCCCCCCC(=O)[O-]
REMARK SMILES IDX 10 1 9 2 8 3 7 4 6 5 5 6 4 7 2 8 1 9 3 10 11 11 12 12 13 13
REMARK SMILES IDX 14 14 15 15 16 16 17 17 18 18 19 19 20 20
REMARK H PARENT
REMARK Flexibility Score: inf
ROOT
ATOM      1  C   UNL     1      -7.390  -7.219 -11.443  1.00  0.00     0.000 C 
ENDROOT
BRANCH   1   2
ATOM      2  C   UNL     1      -6.559  -8.058 -12.428  1.00  0.00     0.000 C 
BRANCH   2   3
ATOM      3  C   UNL     1      -7.188  -8.115 -13.831  1.00  0.00     0.000 C 
BRANCH   3   4
ATOM      4  C   UNL     1      -8.666  -7.686 -13.840  1.00  0.00     0.000 C 
BRANCH   4   5
ATOM      5  C   UNL     1      -8.852  -6.253 -14.384  1.00  0.00     0.000 C 
BRANCH   5   6
ATOM      6  C   UNL     1      -7.547  -5.441 -14.441  1.00  0.00     0.006 C 
BRANCH   6   7
ATOM      7  C   UNL     1      -7.715  -4.007 -13.924  1.00  0.00     0.053 C 
BRANCH   7   8
ATOM      8  C   UNL     1      -6.569  -3.634 -13.037  1.00  0.00     0.041 C 
ATOM      9  O   UNL     1      -5.572  -4.396 -12.936  1.00  0.00    -0.550 OA
ATOM     10  O   UNL     1      -6.622  -2.467 -12.285  1.00  0.00    -0.550 OA
ENDBRANCH   7   8
ENDBRANCH   6   7
ENDBRANCH   5   6
ENDBRANCH   4   5
ENDBRANCH   3   4
ENDBRANCH   2   3
ENDBRANCH   1   2
BRANCH   1  11
ATOM     11  C   UNL     1      -7.846  -8.026 -10.216  1.00  0.00     0.000 C 
BRANCH  11  12
ATOM     12  C   UNL     1      -9.359  -7.906  -9.954  1.00  0.00     0.000 C 
BRANCH  12  13
ATOM     13  C   UNL     1      -9.918  -6.534 -10.369  1.00  0.00     0.000 C 
BRANCH  13  14
ATOM     14  C   UNL     1      -9.369  -5.390  -9.499  1.00  0.00     0.000 C 
BRANCH  14  15
ATOM     15  C   UNL     1      -8.257  -4.586 -10.200  1.00  0.00     0.000 C 
BRANCH  15  16
ATOM     16  C   UNL     1      -7.156  -4.046  -9.270  1.00  0.00     0.006 C 
BRANCH  16  17
ATOM     17  C   UNL     1      -5.867  -4.875  -9.325  1.00  0.00     0.053 C 
BRANCH  17  18
ATOM     18  C   UNL     1      -5.077  -4.694  -8.068  1.00  0.00     0.041 C 
ATOM     19  O   UNL     1      -4.724  -3.542  -7.701  1.00  0.00    -0.550 OA
ATOM     20  O   UNL     1      -4.686  -5.802  -7.326  1.00  0.00    -0.550 OA
ENDBRANCH  17  18
ENDBRANCH  16  17
ENDBRANCH  15  16
ENDBRANCH  14  15
ENDBRANCH  13  14
ENDBRANCH  12  13
ENDBRANCH  11  12
ENDBRANCH   1  11
TORSDOF 15
ENDMDL
