MODEL 1
REMARK VINA RESULT:    -5.822      0.000      0.000
REMARK INTER + INTRA:          -7.024
REMARK INTER:                  -6.843
REMARK INTRA:                  -0.181
REMARK UNBOUND:                -0.181
REMARK SMILES O=c1c(O)c(-c2ccc(O)cc2)oc2cc(O)cc(O)c12
REMARK SMILES IDX 5 1 3 2 2 3 1 4 21 5 19 6 18 7 16 8 15 9 14 10 13 11 6 12
REMARK SMILES IDX 7 13 8 14 9 15 12 16 11 17 10 18 4 20 20 22 17 24
REMARK H PARENT 10 19 4 21 20 23 17 25
REMARK Flexibility Score: inf
ROOT
ATOM      1  C   UNL     1      75.221 -55.587 197.969  1.00  0.00     0.180 A 
ATOM      2  C   UNL     1      74.232 -55.449 196.979  1.00  0.00     0.208 A 
ATOM      3  C   UNL     1      74.601 -54.972 195.710  1.00  0.00     0.238 A 
ATOM      4  O   UNL     1      73.726 -54.922 194.808  1.00  0.00    -0.285 OA
ATOM      5  C   UNL     1      75.940 -54.586 195.464  1.00  0.00     0.111 A 
ATOM      6  C   UNL     1      76.417 -54.047 194.230  1.00  0.00     0.134 A 
ATOM      7  C   UNL     1      77.786 -53.801 194.067  1.00  0.00     0.093 A 
ATOM      8  C   UNL     1      78.687 -54.013 195.114  1.00  0.00     0.123 A 
ATOM      9  C   UNL     1      78.223 -54.485 196.339  1.00  0.00     0.094 A 
ATOM     10  C   UNL     1      76.870 -54.778 196.520  1.00  0.00     0.146 A 
ATOM     11  O   UNL     1      76.475 -55.248 197.698  1.00  0.00    -0.452 OA
ENDROOT
BRANCH   1  12
ATOM     12  C   UNL     1      74.913 -56.095 199.325  1.00  0.00     0.021 A 
ATOM     13  C   UNL     1      74.150 -55.341 200.236  1.00  0.00     0.016 A 
ATOM     14  C   UNL     1      73.851 -55.854 201.502  1.00  0.00     0.047 A 
ATOM     15  C   UNL     1      74.295 -57.127 201.868  1.00  0.00     0.115 A 
ATOM     16  C   UNL     1      75.338 -57.382 199.693  1.00  0.00     0.016 A 
ATOM     17  C   UNL     1      75.038 -57.892 200.959  1.00  0.00     0.047 A 
BRANCH  15  18
ATOM     18  O   UNL     1      73.991 -57.625 203.134  1.00  0.00    -0.508 OA
ATOM     19  H   UNL     1      74.052 -57.042 203.961  1.00  0.00     0.293 HD
ENDBRANCH  15  18
ENDBRANCH   1  12
BRANCH   2  20
ATOM     20  O   UNL     1      72.901 -55.762 197.265  1.00  0.00    -0.502 OA
ATOM     21  H   UNL     1      72.245 -56.057 196.552  1.00  0.00     0.293 HD
ENDBRANCH   2  20
BRANCH   6  22
ATOM     22  O   UNL     1      75.593 -53.715 193.151  1.00  0.00    -0.507 OA
ATOM     23  H   UNL     1      74.850 -53.033 193.179  1.00  0.00     0.293 HD
ENDBRANCH   6  22
BRANCH   8  24
ATOM     24  O   UNL     1      80.044 -53.749 194.948  1.00  0.00    -0.508 OA
ATOM     25  H   UNL     1      80.368 -52.894 194.512  1.00  0.00     0.293 HD
ENDBRANCH   8  24
TORSDOF 5
ENDMDL
MODEL 2
REMARK VINA RESULT:    -5.198      1.487      6.340
REMARK INTER + INTRA:          -6.291
REMARK INTER:                  -6.038
REMARK INTRA:                  -0.253
REMARK UNBOUND:                -0.181
REMARK SMILES O=c1c(O)c(-c2ccc(O)cc2)oc2cc(O)cc(O)c12
REMARK SMILES IDX 5 1 3 2 2 3 1 4 21 5 19 6 18 7 16 8 15 9 14 10 13 11 6 12
REMARK SMILES IDX 7 13 8 14 9 15 12 16 11 17 10 18 4 20 20 22 17 24
REMARK H PARENT 10 19 4 21 20 23 17 25
REMARK Flexibility Score: inf
ROOT
ATOM      1  C   UNL     1      76.256 -54.777 197.239  1.00  0.00     0.180 A 
ATOM      2  C   UNL     1      75.035 -54.333 196.701  1.00  0.00     0.208 A 
ATOM      3  C   UNL     1      73.835 -54.808 197.256  1.00  0.00     0.238 A 
ATOM      4  O   UNL     1      72.747 -54.350 196.821  1.00  0.00    -0.285 OA
ATOM      5  C   UNL     1      73.870 -55.761 198.302  1.00  0.00     0.111 A 
ATOM      6  C   UNL     1      72.716 -56.345 198.909  1.00  0.00     0.134 A 
ATOM      7  C   UNL     1      72.871 -57.198 200.009  1.00  0.00     0.093 A 
ATOM      8  C   UNL     1      74.140 -57.540 200.483  1.00  0.00     0.123 A 
ATOM      9  C   UNL     1      75.273 -57.020 199.863  1.00  0.00     0.094 A 
ATOM     10  C   UNL     1      75.150 -56.135 198.789  1.00  0.00     0.146 A 
ATOM     11  O   UNL     1      76.256 -55.647 198.242  1.00  0.00    -0.452 OA
ENDROOT
BRANCH   1  12
ATOM     12  C   UNL     1      77.562 -54.312 196.717  1.00  0.00     0.021 A 
ATOM     13  C   UNL     1      78.102 -54.829 195.526  1.00  0.00     0.016 A 
ATOM     14  C   UNL     1      79.324 -54.356 195.040  1.00  0.00     0.047 A 
ATOM     15  C   UNL     1      80.014 -53.353 195.728  1.00  0.00     0.115 A 
ATOM     16  C   UNL     1      78.250 -53.290 197.392  1.00  0.00     0.016 A 
ATOM     17  C   UNL     1      79.472 -52.819 196.904  1.00  0.00     0.047 A 
BRANCH  15  18
ATOM     18  O   UNL     1      81.232 -52.892 195.233  1.00  0.00    -0.508 OA
ATOM     19  H   UNL     1      81.467 -52.965 194.250  1.00  0.00     0.293 HD
ENDBRANCH  15  18
ENDBRANCH   1  12
BRANCH   2  20
ATOM     20  O   UNL     1      75.021 -53.451 195.619  1.00  0.00    -0.502 OA
ATOM     21  H   UNL     1      75.158 -52.453 195.728  1.00  0.00     0.293 HD
ENDBRANCH   2  20
BRANCH   6  22
ATOM     22  O   UNL     1      71.408 -56.142 198.460  1.00  0.00    -0.507 OA
ATOM     23  H   UNL     1      71.047 -55.268 198.107  1.00  0.00     0.293 HD
ENDBRANCH   6  22
BRANCH   8  24
ATOM     24  O   UNL     1      74.284 -58.403 201.567  1.00  0.00    -0.508 OA
ATOM     25  H   UNL     1      73.778 -59.279 201.618  1.00  0.00     0.293 HD
ENDBRANCH   8  24
TORSDOF 5
ENDMDL
MODEL 3
REMARK VINA RESULT:    -5.164      3.843      7.709
REMARK INTER + INTRA:          -6.251
REMARK INTER:                  -5.973
REMARK INTRA:                  -0.278
REMARK UNBOUND:                -0.181
REMARK SMILES O=c1c(O)c(-c2ccc(O)cc2)oc2cc(O)cc(O)c12
REMARK SMILES IDX 5 1 3 2 2 3 1 4 21 5 19 6 18 7 16 8 15 9 14 10 13 11 6 12
REMARK SMILES IDX 7 13 8 14 9 15 12 16 11 17 10 18 4 20 20 22 17 24
REMARK H PARENT 10 19 4 21 20 23 17 25
REMARK Flexibility Score: inf
ROOT
ATOM      1  C   UNL     1      72.333 -57.179 199.300  1.00  0.00     0.180 A 
ATOM      2  C   UNL     1      71.488 -57.639 198.275  1.00  0.00     0.208 A 
ATOM      3  C   UNL     1      70.706 -58.784 198.501  1.00  0.00     0.238 A 
ATOM      4  O   UNL     1      69.897 -59.147 197.608  1.00  0.00    -0.285 OA
ATOM      5  C   UNL     1      70.820 -59.485 199.725  1.00  0.00     0.111 A 
ATOM      6  C   UNL     1      70.110 -60.683 200.045  1.00  0.00     0.134 A 
ATOM      7  C   UNL     1      70.222 -61.231 201.328  1.00  0.00     0.093 A 
ATOM      8  C   UNL     1      71.068 -60.662 202.283  1.00  0.00     0.123 A 
ATOM      9  C   UNL     1      71.807 -59.527 201.964  1.00  0.00     0.094 A 
ATOM     10  C   UNL     1      71.687 -58.934 200.705  1.00  0.00     0.146 A 
ATOM     11  O   UNL     1      72.394 -57.839 200.450  1.00  0.00    -0.452 OA
ENDROOT
BRANCH   1  12
ATOM     12  C   UNL     1      73.177 -55.971 199.143  1.00  0.00     0.021 A 
ATOM     13  C   UNL     1      72.648 -54.679 199.316  1.00  0.00     0.016 A 
ATOM     14  C   UNL     1      73.471 -53.556 199.187  1.00  0.00     0.047 A 
ATOM     15  C   UNL     1      74.830 -53.709 198.899  1.00  0.00     0.115 A 
ATOM     16  C   UNL     1      74.548 -56.118 198.875  1.00  0.00     0.016 A 
ATOM     17  C   UNL     1      75.368 -54.993 198.746  1.00  0.00     0.047 A 
BRANCH  15  18
ATOM     18  O   UNL     1      75.638 -52.580 198.772  1.00  0.00    -0.508 OA
ATOM     19  H   UNL     1      76.233 -52.266 199.530  1.00  0.00     0.293 HD
ENDBRANCH  15  18
ENDBRANCH   1  12
BRANCH   2  20
ATOM     20  O   UNL     1      71.447 -56.977 197.046  1.00  0.00    -0.502 OA
ATOM     21  H   UNL     1      70.582 -56.653 196.630  1.00  0.00     0.293 HD
ENDBRANCH   2  20
BRANCH   6  22
ATOM     22  O   UNL     1      69.308 -61.383 199.138  1.00  0.00    -0.507 OA
ATOM     23  H   UNL     1      69.555 -61.581 198.181  1.00  0.00     0.293 HD
ENDBRANCH   6  22
BRANCH   8  24
ATOM     24  O   UNL     1      71.186 -61.224 203.553  1.00  0.00    -0.508 OA
ATOM     25  H   UNL     1      71.315 -62.221 203.681  1.00  0.00     0.293 HD
ENDBRANCH   8  24
TORSDOF 5
ENDMDL
MODEL 4
REMARK VINA RESULT:    -5.153      1.881      3.832
REMARK INTER + INTRA:          -6.238
REMARK INTER:                  -5.966
REMARK INTRA:                  -0.272
REMARK UNBOUND:                -0.181
REMARK SMILES O=c1c(O)c(-c2ccc(O)cc2)oc2cc(O)cc(O)c12
REMARK SMILES IDX 5 1 3 2 2 3 1 4 21 5 19 6 18 7 16 8 15 9 14 10 13 11 6 12
REMARK SMILES IDX 7 13 8 14 9 15 12 16 11 17 10 18 4 20 20 22 17 24
REMARK H PARENT 10 19 4 21 20 23 17 25
REMARK Flexibility Score: inf
ROOT
ATOM      1  C   UNL     1      74.139 -55.475 198.226  1.00  0.00     0.180 A 
ATOM      2  C   UNL     1      75.272 -54.804 197.733  1.00  0.00     0.208 A 
ATOM      3  C   UNL     1      75.228 -54.254 196.441  1.00  0.00     0.238 A 
ATOM      4  O   UNL     1      76.217 -53.590 196.035  1.00  0.00    -0.285 OA
ATOM      5  C   UNL     1      74.075 -54.429 195.639  1.00  0.00     0.111 A 
ATOM      6  C   UNL     1      73.937 -53.953 194.299  1.00  0.00     0.134 A 
ATOM      7  C   UNL     1      72.709 -54.093 193.640  1.00  0.00     0.093 A 
ATOM      8  C   UNL     1      71.635 -54.748 194.247  1.00  0.00     0.123 A 
ATOM      9  C   UNL     1      71.777 -55.264 195.532  1.00  0.00     0.094 A 
ATOM     10  C   UNL     1      72.976 -55.106 196.231  1.00  0.00     0.146 A 
ATOM     11  O   UNL     1      73.060 -55.595 197.462  1.00  0.00    -0.452 OA
ENDROOT
BRANCH   1  12
ATOM     12  C   UNL     1      74.104 -56.069 199.582  1.00  0.00     0.021 A 
ATOM     13  C   UNL     1      74.670 -57.330 199.845  1.00  0.00     0.016 A 
ATOM     14  C   UNL     1      74.647 -57.859 201.140  1.00  0.00     0.047 A 
ATOM     15  C   UNL     1      74.073 -57.132 202.186  1.00  0.00     0.115 A 
ATOM     16  C   UNL     1      73.547 -55.336 200.643  1.00  0.00     0.016 A 
ATOM     17  C   UNL     1      73.525 -55.867 201.936  1.00  0.00     0.047 A 
BRANCH  15  18
ATOM     18  O   UNL     1      74.055 -57.673 203.471  1.00  0.00    -0.508 OA
ATOM     19  H   UNL     1      73.206 -58.053 203.874  1.00  0.00     0.293 HD
ENDBRANCH  15  18
ENDBRANCH   1  12
BRANCH   2  20
ATOM     20  O   UNL     1      76.428 -54.708 198.511  1.00  0.00    -0.502 OA
ATOM     21  H   UNL     1      77.139 -55.429 198.522  1.00  0.00     0.293 HD
ENDBRANCH   2  20
BRANCH   6  22
ATOM     22  O   UNL     1      74.972 -53.364 193.567  1.00  0.00    -0.507 OA
ATOM     23  H   UNL     1      75.729 -53.867 193.129  1.00  0.00     0.293 HD
ENDBRANCH   6  22
BRANCH   8  24
ATOM     24  O   UNL     1      70.423 -54.896 193.576  1.00  0.00    -0.508 OA
ATOM     25  H   UNL     1      70.314 -54.615 192.609  1.00  0.00     0.293 HD
ENDBRANCH   8  24
TORSDOF 5
ENDMDL
MODEL 5
REMARK VINA RESULT:    -5.118      2.078      6.806
REMARK INTER + INTRA:          -6.197
REMARK INTER:                  -5.933
REMARK INTRA:                  -0.264
REMARK UNBOUND:                -0.181
REMARK SMILES O=c1c(O)c(-c2ccc(O)cc2)oc2cc(O)cc(O)c12
REMARK SMILES IDX 5 1 3 2 2 3 1 4 21 5 19 6 18 7 16 8 15 9 14 10 13 11 6 12
REMARK SMILES IDX 7 13 8 14 9 15 12 16 11 17 10 18 4 20 20 22 17 24
REMARK H PARENT 10 19 4 21 20 23 17 25
REMARK Flexibility Score: inf
ROOT
ATOM      1  C   UNL     1      75.793 -54.869 198.574  1.00  0.00     0.180 A 
ATOM      2  C   UNL     1      75.131 -53.717 199.033  1.00  0.00     0.208 A 
ATOM      3  C   UNL     1      74.139 -53.850 200.020  1.00  0.00     0.238 A 
ATOM      4  O   UNL     1      73.604 -52.809 200.481  1.00  0.00    -0.285 OA
ATOM      5  C   UNL     1      73.784 -55.136 200.493  1.00  0.00     0.111 A 
ATOM      6  C   UNL     1      72.763 -55.393 201.458  1.00  0.00     0.134 A 
ATOM      7  C   UNL     1      72.570 -56.698 201.930  1.00  0.00     0.093 A 
ATOM      8  C   UNL     1      73.318 -57.764 201.424  1.00  0.00     0.123 A 
ATOM      9  C   UNL     1      74.278 -57.532 200.443  1.00  0.00     0.094 A 
ATOM     10  C   UNL     1      74.520 -56.237 199.981  1.00  0.00     0.146 A 
ATOM     11  O   UNL     1      75.460 -56.058 199.060  1.00  0.00    -0.452 OA
ENDROOT
BRANCH   1  12
ATOM     12  C   UNL     1      76.858 -54.808 197.546  1.00  0.00     0.021 A 
ATOM     13  C   UNL     1      78.166 -54.404 197.869  1.00  0.00     0.016 A 
ATOM     14  C   UNL     1      79.161 -54.379 196.887  1.00  0.00     0.047 A 
ATOM     15  C   UNL     1      78.866 -54.769 195.577  1.00  0.00     0.115 A 
ATOM     16  C   UNL     1      76.575 -55.219 196.233  1.00  0.00     0.016 A 
ATOM     17  C   UNL     1      77.571 -55.192 195.253  1.00  0.00     0.047 A 
BRANCH  15  18
ATOM     18  O   UNL     1      79.867 -54.738 194.608  1.00  0.00    -0.508 OA
ATOM     19  H   UNL     1      79.833 -55.337 193.792  1.00  0.00     0.293 HD
ENDBRANCH  15  18
ENDBRANCH   1  12
BRANCH   2  20
ATOM     20  O   UNL     1      75.443 -52.465 198.499  1.00  0.00    -0.502 OA
ATOM     21  H   UNL     1      75.562 -52.311 197.505  1.00  0.00     0.293 HD
ENDBRANCH   2  20
BRANCH   6  22
ATOM     22  O   UNL     1      71.899 -54.417 201.964  1.00  0.00    -0.507 OA
ATOM     23  H   UNL     1      70.915 -54.349 201.752  1.00  0.00     0.293 HD
ENDBRANCH   6  22
BRANCH   8  24
ATOM     24  O   UNL     1      73.108 -59.061 201.888  1.00  0.00    -0.508 OA
ATOM     25  H   UNL     1      73.846 -59.589 202.338  1.00  0.00     0.293 HD
ENDBRANCH   8  24
TORSDOF 5
ENDMDL
MODEL 6
REMARK VINA RESULT:    -5.067      1.514      6.506
REMARK INTER + INTRA:          -6.137
REMARK INTER:                  -6.065
REMARK INTRA:                  -0.072
REMARK UNBOUND:                -0.181
REMARK SMILES O=c1c(O)c(-c2ccc(O)cc2)oc2cc(O)cc(O)c12
REMARK SMILES IDX 5 1 3 2 2 3 1 4 21 5 19 6 18 7 16 8 15 9 14 10 13 11 6 12
REMARK SMILES IDX 7 13 8 14 9 15 12 16 11 17 10 18 4 20 20 22 17 24
REMARK H PARENT 10 19 4 21 20 23 17 25
REMARK Flexibility Score: inf
ROOT
ATOM      1  C   UNL     1      75.083 -55.536 197.652  1.00  0.00     0.180 A 
ATOM      2  C   UNL     1      73.770 -55.268 197.227  1.00  0.00     0.208 A 
ATOM      3  C   UNL     1      72.701 -55.581 198.084  1.00  0.00     0.238 A 
ATOM      4  O   UNL     1      71.534 -55.270 197.730  1.00  0.00    -0.285 OA
ATOM      5  C   UNL     1      72.954 -56.207 199.328  1.00  0.00     0.111 A 
ATOM      6  C   UNL     1      71.946 -56.610 200.256  1.00  0.00     0.134 A 
ATOM      7  C   UNL     1      72.320 -57.124 201.503  1.00  0.00     0.093 A 
ATOM      8  C   UNL     1      73.665 -57.311 201.832  1.00  0.00     0.123 A 
ATOM      9  C   UNL     1      74.654 -56.974 200.912  1.00  0.00     0.094 A 
ATOM     10  C   UNL     1      74.314 -56.421 199.675  1.00  0.00     0.146 A 
ATOM     11  O   UNL     1      75.291 -56.094 198.838  1.00  0.00    -0.452 OA
ENDROOT
BRANCH   1  12
ATOM     12  C   UNL     1      76.262 -55.222 196.812  1.00  0.00     0.021 A 
ATOM     13  C   UNL     1      77.278 -54.361 197.265  1.00  0.00     0.016 A 
ATOM     14  C   UNL     1      78.393 -54.100 196.464  1.00  0.00     0.047 A 
ATOM     15  C   UNL     1      78.515 -54.705 195.210  1.00  0.00     0.115 A 
ATOM     16  C   UNL     1      76.401 -55.842 195.559  1.00  0.00     0.016 A 
ATOM     17  C   UNL     1      77.517 -55.580 194.760  1.00  0.00     0.047 A 
BRANCH  15  18
ATOM     18  O   UNL     1      79.631 -54.434 194.420  1.00  0.00    -0.508 OA
ATOM     19  H   UNL     1      80.296 -53.711 194.672  1.00  0.00     0.293 HD
ENDBRANCH  15  18
ENDBRANCH   1  12
BRANCH   2  20
ATOM     20  O   UNL     1      73.536 -54.720 195.964  1.00  0.00    -0.502 OA
ATOM     21  H   UNL     1      74.285 -54.492 195.322  1.00  0.00     0.293 HD
ENDBRANCH   2  20
BRANCH   6  22
ATOM     22  O   UNL     1      70.573 -56.550 199.995  1.00  0.00    -0.507 OA
ATOM     23  H   UNL     1      69.856 -56.431 200.695  1.00  0.00     0.293 HD
ENDBRANCH   6  22
BRANCH   8  24
ATOM     24  O   UNL     1      74.027 -57.839 203.069  1.00  0.00    -0.508 OA
ATOM     25  H   UNL     1      73.719 -57.417 203.936  1.00  0.00     0.293 HD
ENDBRANCH   8  24
TORSDOF 5
ENDMDL
MODEL 7
REMARK VINA RESULT:    -5.040      2.802      4.736
REMARK INTER + INTRA:          -6.105
REMARK INTER:                  -5.813
REMARK INTRA:                  -0.292
REMARK UNBOUND:                -0.181
REMARK SMILES O=c1c(O)c(-c2ccc(O)cc2)oc2cc(O)cc(O)c12
REMARK SMILES IDX 5 1 3 2 2 3 1 4 21 5 19 6 18 7 16 8 15 9 14 10 13 11 6 12
REMARK SMILES IDX 7 13 8 14 9 15 12 16 11 17 10 18 4 20 20 22 17 24
REMARK H PARENT 10 19 4 21 20 23 17 25
REMARK Flexibility Score: inf
ROOT
ATOM      1  C   UNL     1      74.221 -55.031 195.464  1.00  0.00     0.180 A 
ATOM      2  C   UNL     1      74.910 -55.281 196.664  1.00  0.00     0.208 A 
ATOM      3  C   UNL     1      76.288 -55.018 196.725  1.00  0.00     0.238 A 
ATOM      4  O   UNL     1      76.884 -55.172 197.823  1.00  0.00    -0.285 OA
ATOM      5  C   UNL     1      76.971 -54.562 195.572  1.00  0.00     0.111 A 
ATOM      6  C   UNL     1      78.375 -54.306 195.506  1.00  0.00     0.134 A 
ATOM      7  C   UNL     1      78.923 -53.756 194.341  1.00  0.00     0.093 A 
ATOM      8  C   UNL     1      78.130 -53.513 193.216  1.00  0.00     0.123 A 
ATOM      9  C   UNL     1      76.771 -53.811 193.251  1.00  0.00     0.094 A 
ATOM     10  C   UNL     1      76.187 -54.324 194.412  1.00  0.00     0.146 A 
ATOM     11  O   UNL     1      74.883 -54.573 194.409  1.00  0.00    -0.452 OA
ENDROOT
BRANCH   1  12
ATOM     12  C   UNL     1      72.766 -55.271 195.326  1.00  0.00     0.021 A 
ATOM     13  C   UNL     1      71.823 -54.305 195.723  1.00  0.00     0.016 A 
ATOM     14  C   UNL     1      70.455 -54.544 195.560  1.00  0.00     0.047 A 
ATOM     15  C   UNL     1      70.014 -55.739 194.987  1.00  0.00     0.115 A 
ATOM     16  C   UNL     1      72.316 -56.461 194.732  1.00  0.00     0.016 A 
ATOM     17  C   UNL     1      70.948 -56.697 194.570  1.00  0.00     0.047 A 
BRANCH  15  18
ATOM     18  O   UNL     1      68.647 -55.965 194.831  1.00  0.00    -0.508 OA
ATOM     19  H   UNL     1      68.120 -55.532 194.082  1.00  0.00     0.293 HD
ENDBRANCH  15  18
ENDBRANCH   1  12
BRANCH   2  20
ATOM     20  O   UNL     1      74.233 -55.804 197.769  1.00  0.00    -0.502 OA
ATOM     21  H   UNL     1      73.470 -56.463 197.678  1.00  0.00     0.293 HD
ENDBRANCH   2  20
BRANCH   6  22
ATOM     22  O   UNL     1      79.272 -54.595 196.538  1.00  0.00    -0.507 OA
ATOM     23  H   UNL     1      79.555 -53.945 197.256  1.00  0.00     0.293 HD
ENDBRANCH   6  22
BRANCH   8  24
ATOM     24  O   UNL     1      78.687 -52.981 192.056  1.00  0.00    -0.508 OA
ATOM     25  H   UNL     1      79.146 -53.570 191.370  1.00  0.00     0.293 HD
ENDBRANCH   8  24
TORSDOF 5
ENDMDL
MODEL 8
REMARK VINA RESULT:    -4.924      6.465      8.542
REMARK INTER + INTRA:          -5.969
REMARK INTER:                  -5.830
REMARK INTRA:                  -0.139
REMARK UNBOUND:                -0.181
REMARK SMILES O=c1c(O)c(-c2ccc(O)cc2)oc2cc(O)cc(O)c12
REMARK SMILES IDX 5 1 3 2 2 3 1 4 21 5 19 6 18 7 16 8 15 9 14 10 13 11 6 12
REMARK SMILES IDX 7 13 8 14 9 15 12 16 11 17 10 18 4 20 20 22 17 24
REMARK H PARENT 10 19 4 21 20 23 17 25
REMARK Flexibility Score: inf
ROOT
ATOM      1  C   UNL     1      70.799 -58.270 200.830  1.00  0.00     0.180 A 
ATOM      2  C   UNL     1      70.122 -57.948 199.640  1.00  0.00     0.208 A 
ATOM      3  C   UNL     1      69.457 -58.967 198.939  1.00  0.00     0.238 A 
ATOM      4  O   UNL     1      68.791 -58.660 197.917  1.00  0.00    -0.285 OA
ATOM      5  C   UNL     1      69.523 -60.302 199.404  1.00  0.00     0.111 A 
ATOM      6  C   UNL     1      68.925 -61.422 198.749  1.00  0.00     0.134 A 
ATOM      7  C   UNL     1      68.967 -62.682 199.359  1.00  0.00     0.093 A 
ATOM      8  C   UNL     1      69.640 -62.876 200.568  1.00  0.00     0.123 A 
ATOM      9  C   UNL     1      70.274 -61.802 201.186  1.00  0.00     0.094 A 
ATOM     10  C   UNL     1      70.216 -60.525 200.623  1.00  0.00     0.146 A 
ATOM     11  O   UNL     1      70.816 -59.526 201.258  1.00  0.00    -0.452 OA
ENDROOT
BRANCH   1  12
ATOM     12  C   UNL     1      71.512 -57.248 201.631  1.00  0.00     0.021 A 
ATOM     13  C   UNL     1      70.825 -56.176 202.230  1.00  0.00     0.016 A 
ATOM     14  C   UNL     1      71.517 -55.238 203.003  1.00  0.00     0.047 A 
ATOM     15  C   UNL     1      72.894 -55.367 203.200  1.00  0.00     0.115 A 
ATOM     16  C   UNL     1      72.892 -57.383 201.851  1.00  0.00     0.016 A 
ATOM     17  C   UNL     1      73.581 -56.444 202.624  1.00  0.00     0.047 A 
BRANCH  15  18
ATOM     18  O   UNL     1      73.571 -54.424 203.972  1.00  0.00    -0.508 OA
ATOM     19  H   UNL     1      73.916 -53.560 203.570  1.00  0.00     0.293 HD
ENDBRANCH  15  18
ENDBRANCH   1  12
BRANCH   2  20
ATOM     20  O   UNL     1      70.132 -56.637 199.156  1.00  0.00    -0.502 OA
ATOM     21  H   UNL     1      69.294 -56.071 199.100  1.00  0.00     0.293 HD
ENDBRANCH   2  20
BRANCH   6  22
ATOM     22  O   UNL     1      68.305 -61.358 197.498  1.00  0.00    -0.507 OA
ATOM     23  H   UNL     1      68.701 -60.922 196.679  1.00  0.00     0.293 HD
ENDBRANCH   6  22
BRANCH   8  24
ATOM     24  O   UNL     1      69.690 -64.137 201.158  1.00  0.00    -0.508 OA
ATOM     25  H   UNL     1      70.566 -64.545 201.464  1.00  0.00     0.293 HD
ENDBRANCH   8  24
TORSDOF 5
ENDMDL
MODEL 9
REMARK VINA RESULT:    -4.841      3.699      4.851
REMARK INTER + INTRA:          -5.871
REMARK INTER:                  -5.598
REMARK INTRA:                  -0.272
REMARK UNBOUND:                -0.181
REMARK SMILES O=c1c(O)c(-c2ccc(O)cc2)oc2cc(O)cc(O)c12
REMARK SMILES IDX 5 1 3 2 2 3 1 4 21 5 19 6 18 7 16 8 15 9 14 10 13 11 6 12
REMARK SMILES IDX 7 13 8 14 9 15 12 16 11 17 10 18 4 20 20 22 17 24
REMARK H PARENT 10 19 4 21 20 23 17 25
REMARK Flexibility Score: inf
ROOT
ATOM      1  C   UNL     1      71.777 -57.056 198.361  1.00  0.00     0.180 A 
ATOM      2  C   UNL     1      70.762 -57.923 197.918  1.00  0.00     0.208 A 
ATOM      3  C   UNL     1      70.305 -57.815 196.594  1.00  0.00     0.238 A 
ATOM      4  O   UNL     1      69.451 -58.642 196.182  1.00  0.00    -0.285 OA
ATOM      5  C   UNL     1      70.827 -56.807 195.748  1.00  0.00     0.111 A 
ATOM      6  C   UNL     1      70.406 -56.577 194.403  1.00  0.00     0.134 A 
ATOM      7  C   UNL     1      71.069 -55.618 193.626  1.00  0.00     0.093 A 
ATOM      8  C   UNL     1      72.095 -54.838 194.164  1.00  0.00     0.123 A 
ATOM      9  C   UNL     1      72.475 -55.017 195.492  1.00  0.00     0.094 A 
ATOM     10  C   UNL     1      71.860 -55.991 196.280  1.00  0.00     0.146 A 
ATOM     11  O   UNL     1      72.270 -56.143 197.534  1.00  0.00    -0.452 OA
ENDROOT
BRANCH   1  12
ATOM     12  C   UNL     1      72.320 -57.118 199.738  1.00  0.00     0.021 A 
ATOM     13  C   UNL     1      71.653 -56.510 200.817  1.00  0.00     0.016 A 
ATOM     14  C   UNL     1      72.173 -56.604 202.112  1.00  0.00     0.047 A 
ATOM     15  C   UNL     1      73.353 -57.315 202.346  1.00  0.00     0.115 A 
ATOM     16  C   UNL     1      73.494 -57.849 199.984  1.00  0.00     0.016 A 
ATOM     17  C   UNL     1      74.012 -57.940 201.279  1.00  0.00     0.047 A 
BRANCH  15  18
ATOM     18  O   UNL     1      73.861 -57.399 203.642  1.00  0.00    -0.508 OA
ATOM     19  H   UNL     1      73.888 -58.278 204.144  1.00  0.00     0.293 HD
ENDBRANCH  15  18
ENDBRANCH   1  12
BRANCH   2  20
ATOM     20  O   UNL     1      70.206 -58.861 198.791  1.00  0.00    -0.502 OA
ATOM     21  H   UNL     1      69.305 -59.293 198.624  1.00  0.00     0.293 HD
ENDBRANCH   2  20
BRANCH   6  22
ATOM     22  O   UNL     1      69.335 -57.237 193.794  1.00  0.00    -0.507 OA
ATOM     23  H   UNL     1      69.418 -58.043 193.194  1.00  0.00     0.293 HD
ENDBRANCH   6  22
BRANCH   8  24
ATOM     24  O   UNL     1      72.737 -53.875 193.389  1.00  0.00    -0.508 OA
ATOM     25  H   UNL     1      72.261 -53.401 192.631  1.00  0.00     0.293 HD
ENDBRANCH   8  24
TORSDOF 5
ENDMDL
