MODEL 1
REMARK VINA RESULT:    -7.445      0.000      0.000
REMARK INTER + INTRA:          -9.294
REMARK INTER:                  -9.186
REMARK INTRA:                  -0.108
REMARK UNBOUND:                -0.108
REMARK SMILES Oc1cc(O)c2cc(O)c(-c3cc(O)c(O)c(O)c3)[o+]c2c1.[Cl-]
REMARK SMILES IDX 10 1 20 2 21 3 22 4 2 5 3 6 4 7 6 8 7 9 8 10 11 11 12 12
REMARK SMILES IDX 13 13 19 14 15 15 17 16 14 17 16 19 18 21 9 23 1 25 5 27
REMARK H PARENT 14 18 16 20 18 22 9 24 1 26 5 28
REMARK Flexibility Score: inf
ROOT
ATOM      1  C   UNL     1       7.297  28.910 -13.646  1.00  0.00     0.402 A 
ATOM      2  O   UNL     1       7.685  29.878 -12.819  1.00  0.00    -0.202 OA
ATOM      3  C   UNL     1       7.442  31.166 -13.037  1.00  0.00     0.368 A 
ATOM      4  C   UNL     1       7.887  32.110 -12.107  1.00  0.00     0.162 A 
ATOM      5  C   UNL     1       7.643  33.468 -12.309  1.00  0.00     0.128 A 
ATOM      6  C   UNL     1       6.948  33.889 -13.448  1.00  0.00     0.093 A 
ATOM      7  C   UNL     1       6.491  32.964 -14.395  1.00  0.00     0.136 A 
ATOM      8  C   UNL     1       6.740  31.582 -14.194  1.00  0.00     0.125 A 
ATOM      9  C   UNL     1       6.330  30.585 -15.095  1.00  0.00     0.078 A 
ATOM     10  C   UNL     1       6.616  29.242 -14.832  1.00  0.00     0.223 A 
ENDROOT
BRANCH   1  11
ATOM     11  C   UNL     1       7.619  27.510 -13.287  1.00  0.00     0.091 A 
ATOM     12  C   UNL     1       6.591  26.557 -13.240  1.00  0.00     0.068 A 
ATOM     13  C   UNL     1       6.868  25.223 -12.924  1.00  0.00     0.162 A 
ATOM     14  C   UNL     1       8.942  27.102 -13.048  1.00  0.00     0.068 A 
ATOM     15  C   UNL     1       8.191  24.823 -12.664  1.00  0.00     0.200 A 
ATOM     16  C   UNL     1       9.229  25.767 -12.732  1.00  0.00     0.162 A 
BRANCH  13  17
ATOM     17  O   UNL     1       5.817  24.308 -12.872  1.00  0.00    -0.504 OA
ATOM     18  H   UNL     1       4.875  24.583 -12.620  1.00  0.00     0.293 HD
ENDBRANCH  13  17
BRANCH  15  19
ATOM     19  O   UNL     1       8.458  23.491 -12.347  1.00  0.00    -0.502 OA
ATOM     20  H   UNL     1       7.789  22.751 -12.519  1.00  0.00     0.293 HD
ENDBRANCH  15  19
BRANCH  16  21
ATOM     21  O   UNL     1      10.546  25.375 -12.491  1.00  0.00    -0.504 OA
ATOM     22  H   UNL     1      11.222  26.007 -12.079  1.00  0.00     0.293 HD
ENDBRANCH  16  21
ENDBRANCH   1  11
BRANCH  10  23
ATOM     23  O   UNL     1       6.254  28.257 -15.750  1.00  0.00    -0.500 OA
ATOM     24  H   UNL     1       5.835  27.382 -15.457  1.00  0.00     0.294 HD
ENDBRANCH  10  23
BRANCH   5  25
ATOM     25  O   UNL     1       8.096  34.393 -11.370  1.00  0.00    -0.507 OA
ATOM     26  H   UNL     1       8.516  35.271 -11.652  1.00  0.00     0.293 HD
ENDBRANCH   5  25
BRANCH   7  27
ATOM     27  O   UNL     1       5.802  33.464 -15.503  1.00  0.00    -0.507 OA
ATOM     28  H   UNL     1       4.868  33.844 -15.471  1.00  0.00     0.293 HD
ENDBRANCH   7  27
TORSDOF 7
ENDMDL
MODEL 2
REMARK VINA RESULT:    -7.356      0.150      1.800
REMARK INTER + INTRA:          -9.185
REMARK INTER:                  -9.001
REMARK INTRA:                  -0.183
REMARK UNBOUND:                -0.108
REMARK SMILES Oc1cc(O)c2cc(O)c(-c3cc(O)c(O)c(O)c3)[o+]c2c1.[Cl-]
REMARK SMILES IDX 10 1 20 2 21 3 22 4 2 5 3 6 4 7 6 8 7 9 8 10 11 11 12 12
REMARK SMILES IDX 13 13 19 14 15 15 17 16 14 17 16 19 18 21 9 23 1 25 5 27
REMARK H PARENT 14 18 16 20 18 22 9 24 1 26 5 28
REMARK Flexibility Score: inf
ROOT
ATOM      1  C   UNL     1       7.327  28.952 -13.694  1.00  0.00     0.402 A 
ATOM      2  O   UNL     1       7.722  29.885 -12.831  1.00  0.00    -0.202 OA
ATOM      3  C   UNL     1       7.538  31.186 -13.026  1.00  0.00     0.368 A 
ATOM      4  C   UNL     1       7.985  32.090 -12.058  1.00  0.00     0.162 A 
ATOM      5  C   UNL     1       7.802  33.461 -12.236  1.00  0.00     0.128 A 
ATOM      6  C   UNL     1       7.166  33.935 -13.389  1.00  0.00     0.093 A 
ATOM      7  C   UNL     1       6.709  33.051 -14.374  1.00  0.00     0.136 A 
ATOM      8  C   UNL     1       6.896  31.655 -14.198  1.00  0.00     0.125 A 
ATOM      9  C   UNL     1       6.481  30.696 -15.137  1.00  0.00     0.078 A 
ATOM     10  C   UNL     1       6.705  29.337 -14.895  1.00  0.00     0.223 A 
ENDROOT
BRANCH   1  11
ATOM     11  C   UNL     1       7.581  27.533 -13.358  1.00  0.00     0.091 A 
ATOM     12  C   UNL     1       8.888  27.119 -13.054  1.00  0.00     0.068 A 
ATOM     13  C   UNL     1       9.154  25.789 -12.713  1.00  0.00     0.162 A 
ATOM     14  C   UNL     1       6.533  26.601 -13.280  1.00  0.00     0.068 A 
ATOM     15  C   UNL     1       8.105  24.855 -12.657  1.00  0.00     0.200 A 
ATOM     16  C   UNL     1       6.791  25.266 -12.937  1.00  0.00     0.162 A 
BRANCH  13  17
ATOM     17  O   UNL     1      10.468  25.414 -12.433  1.00  0.00    -0.504 OA
ATOM     18  H   UNL     1      11.217  26.091 -12.356  1.00  0.00     0.293 HD
ENDBRANCH  13  17
BRANCH  15  19
ATOM     19  O   UNL     1       8.380  23.529 -12.319  1.00  0.00    -0.502 OA
ATOM     20  H   UNL     1       7.660  22.818 -12.296  1.00  0.00     0.293 HD
ENDBRANCH  15  19
BRANCH  16  21
ATOM     21  O   UNL     1       5.744  24.348 -12.869  1.00  0.00    -0.504 OA
ATOM     22  H   UNL     1       4.784  24.644 -12.737  1.00  0.00     0.293 HD
ENDBRANCH  16  21
ENDBRANCH   1  11
BRANCH  10  23
ATOM     23  O   UNL     1       6.338  28.388 -15.850  1.00  0.00    -0.500 OA
ATOM     24  H   UNL     1       6.812  27.496 -15.923  1.00  0.00     0.294 HD
ENDBRANCH  10  23
BRANCH   5  25
ATOM     25  O   UNL     1       8.255  34.346 -11.260  1.00  0.00    -0.507 OA
ATOM     26  H   UNL     1       8.929  34.061 -10.558  1.00  0.00     0.293 HD
ENDBRANCH   5  25
BRANCH   7  27
ATOM     27  O   UNL     1       6.082  33.603 -15.494  1.00  0.00    -0.507 OA
ATOM     28  H   UNL     1       5.300  34.240 -15.455  1.00  0.00     0.293 HD
ENDBRANCH   7  27
TORSDOF 7
ENDMDL
MODEL 3
REMARK VINA RESULT:    -7.135      1.886      7.131
REMARK INTER + INTRA:          -8.912
REMARK INTER:                  -8.584
REMARK INTRA:                  -0.328
REMARK UNBOUND:                -0.108
REMARK SMILES Oc1cc(O)c2cc(O)c(-c3cc(O)c(O)c(O)c3)[o+]c2c1.[Cl-]
REMARK SMILES IDX 10 1 20 2 21 3 22 4 2 5 3 6 4 7 6 8 7 9 8 10 11 11 12 12
REMARK SMILES IDX 13 13 19 14 15 15 17 16 14 17 16 19 18 21 9 23 1 25 5 27
REMARK H PARENT 14 18 16 20 18 22 9 24 1 26 5 28
REMARK Flexibility Score: inf
ROOT
ATOM      1  C   UNL     1       7.422  29.225 -14.201  1.00  0.00     0.402 A 
ATOM      2  O   UNL     1       6.820  28.093 -13.844  1.00  0.00    -0.202 OA
ATOM      3  C   UNL     1       7.459  27.066 -13.295  1.00  0.00     0.368 A 
ATOM      4  C   UNL     1       6.738  25.920 -12.950  1.00  0.00     0.162 A 
ATOM      5  C   UNL     1       7.384  24.829 -12.369  1.00  0.00     0.128 A 
ATOM      6  C   UNL     1       8.761  24.882 -12.128  1.00  0.00     0.093 A 
ATOM      7  C   UNL     1       9.507  26.019 -12.463  1.00  0.00     0.136 A 
ATOM      8  C   UNL     1       8.854  27.130 -13.057  1.00  0.00     0.125 A 
ATOM      9  C   UNL     1       9.522  28.306 -13.437  1.00  0.00     0.078 A 
ATOM     10  C   UNL     1       8.811  29.358 -14.023  1.00  0.00     0.223 A 
ENDROOT
BRANCH   1  11
ATOM     11  C   UNL     1       6.597  30.301 -14.795  1.00  0.00     0.091 A 
ATOM     12  C   UNL     1       5.830  31.125 -13.956  1.00  0.00     0.068 A 
ATOM     13  C   UNL     1       5.057  32.162 -14.488  1.00  0.00     0.162 A 
ATOM     14  C   UNL     1       6.610  30.554 -16.177  1.00  0.00     0.068 A 
ATOM     15  C   UNL     1       5.056  32.398 -15.874  1.00  0.00     0.200 A 
ATOM     16  C   UNL     1       5.839  31.593 -16.718  1.00  0.00     0.162 A 
BRANCH  13  17
ATOM     17  O   UNL     1       4.296  32.948 -13.623  1.00  0.00    -0.504 OA
ATOM     18  H   UNL     1       3.328  33.175 -13.812  1.00  0.00     0.293 HD
ENDBRANCH  13  17
BRANCH  15  19
ATOM     19  O   UNL     1       4.279  33.433 -16.396  1.00  0.00    -0.502 OA
ATOM     20  H   UNL     1       4.515  33.899 -17.264  1.00  0.00     0.293 HD
ENDBRANCH  15  19
BRANCH  16  21
ATOM     21  O   UNL     1       5.854  31.831 -18.092  1.00  0.00    -0.504 OA
ATOM     22  H   UNL     1       6.186  32.707 -18.476  1.00  0.00     0.293 HD
ENDBRANCH  16  21
ENDBRANCH   1  11
BRANCH  10  23
ATOM     23  O   UNL     1       9.483  30.505 -14.445  1.00  0.00    -0.500 OA
ATOM     24  H   UNL     1      10.454  30.671 -14.211  1.00  0.00     0.294 HD
ENDBRANCH  10  23
BRANCH   5  25
ATOM     25  O   UNL     1       6.647  23.695 -12.034  1.00  0.00    -0.507 OA
ATOM     26  H   UNL     1       6.086  23.658 -11.190  1.00  0.00     0.293 HD
ENDBRANCH   5  25
BRANCH   7  27
ATOM     27  O   UNL     1      10.877  25.995 -12.187  1.00  0.00    -0.507 OA
ATOM     28  H   UNL     1      11.365  26.703 -11.660  1.00  0.00     0.293 HD
ENDBRANCH   7  27
TORSDOF 7
ENDMDL
MODEL 4
REMARK VINA RESULT:    -7.118      1.899      7.187
REMARK INTER + INTRA:          -8.890
REMARK INTER:                  -8.532
REMARK INTRA:                  -0.358
REMARK UNBOUND:                -0.108
REMARK SMILES Oc1cc(O)c2cc(O)c(-c3cc(O)c(O)c(O)c3)[o+]c2c1.[Cl-]
REMARK SMILES IDX 10 1 20 2 21 3 22 4 2 5 3 6 4 7 6 8 7 9 8 10 11 11 12 12
REMARK SMILES IDX 13 13 19 14 15 15 17 16 14 17 16 19 18 21 9 23 1 25 5 27
REMARK H PARENT 14 18 16 20 18 22 9 24 1 26 5 28
REMARK Flexibility Score: inf
ROOT
ATOM      1  C   UNL     1       7.392  29.559 -14.261  1.00  0.00     0.402 A 
ATOM      2  O   UNL     1       6.802  28.401 -13.971  1.00  0.00    -0.202 OA
ATOM      3  C   UNL     1       7.438  27.377 -13.412  1.00  0.00     0.368 A 
ATOM      4  C   UNL     1       6.731  26.203 -13.142  1.00  0.00     0.162 A 
ATOM      5  C   UNL     1       7.372  25.113 -12.553  1.00  0.00     0.128 A 
ATOM      6  C   UNL     1       8.731  25.196 -12.230  1.00  0.00     0.093 A 
ATOM      7  C   UNL     1       9.463  26.361 -12.491  1.00  0.00     0.136 A 
ATOM      8  C   UNL     1       8.814  27.471 -13.092  1.00  0.00     0.125 A 
ATOM      9  C   UNL     1       9.470  28.674 -13.400  1.00  0.00     0.078 A 
ATOM     10  C   UNL     1       8.765  29.723 -13.998  1.00  0.00     0.223 A 
ENDROOT
BRANCH   1  11
ATOM     11  C   UNL     1       6.573  30.629 -14.874  1.00  0.00     0.091 A 
ATOM     12  C   UNL     1       6.574  30.784 -16.269  1.00  0.00     0.068 A 
ATOM     13  C   UNL     1       5.794  31.774 -16.877  1.00  0.00     0.162 A 
ATOM     14  C   UNL     1       5.750  31.457 -14.094  1.00  0.00     0.068 A 
ATOM     15  C   UNL     1       4.988  32.615 -16.090  1.00  0.00     0.200 A 
ATOM     16  C   UNL     1       4.964  32.450 -14.695  1.00  0.00     0.162 A 
BRANCH  13  17
ATOM     17  O   UNL     1       5.834  31.907 -18.264  1.00  0.00    -0.504 OA
ATOM     18  H   UNL     1       6.170  31.166 -18.868  1.00  0.00     0.293 HD
ENDBRANCH  13  17
BRANCH  15  19
ATOM     19  O   UNL     1       4.216  33.601 -16.705  1.00  0.00    -0.502 OA
ATOM     20  H   UNL     1       3.615  34.223 -16.176  1.00  0.00     0.293 HD
ENDBRANCH  15  19
BRANCH  16  21
ATOM     21  O   UNL     1       4.155  33.271 -13.910  1.00  0.00    -0.504 OA
ATOM     22  H   UNL     1       4.497  34.144 -13.526  1.00  0.00     0.293 HD
ENDBRANCH  16  21
ENDBRANCH   1  11
BRANCH  10  23
ATOM     23  O   UNL     1       9.426  30.899 -14.350  1.00  0.00    -0.500 OA
ATOM     24  H   UNL     1       9.253  31.774 -13.867  1.00  0.00     0.294 HD
ENDBRANCH  10  23
BRANCH   5  25
ATOM     25  O   UNL     1       6.650  23.951 -12.292  1.00  0.00    -0.507 OA
ATOM     26  H   UNL     1       6.235  23.405 -13.039  1.00  0.00     0.293 HD
ENDBRANCH   5  25
BRANCH   7  27
ATOM     27  O   UNL     1      10.815  26.366 -12.136  1.00  0.00    -0.507 OA
ATOM     28  H   UNL     1      11.390  27.194 -12.090  1.00  0.00     0.293 HD
ENDBRANCH   7  27
TORSDOF 7
ENDMDL
MODEL 5
REMARK VINA RESULT:    -7.001     10.131     12.768
REMARK INTER + INTRA:          -8.746
REMARK INTER:                  -8.387
REMARK INTRA:                  -0.359
REMARK UNBOUND:                -0.108
REMARK SMILES Oc1cc(O)c2cc(O)c(-c3cc(O)c(O)c(O)c3)[o+]c2c1.[Cl-]
REMARK SMILES IDX 10 1 20 2 21 3 22 4 2 5 3 6 4 7 6 8 7 9 8 10 11 11 12 12
REMARK SMILES IDX 13 13 19 14 15 15 17 16 14 17 16 19 18 21 9 23 1 25 5 27
REMARK H PARENT 14 18 16 20 18 22 9 24 1 26 5 28
REMARK Flexibility Score: inf
ROOT
ATOM      1  C   UNL     1      -1.444  33.926 -18.174  1.00  0.00     0.402 A 
ATOM      2  O   UNL     1      -2.450  34.696 -17.767  1.00  0.00    -0.202 OA
ATOM      3  C   UNL     1      -3.615  34.215 -17.346  1.00  0.00     0.368 A 
ATOM      4  C   UNL     1      -4.610  35.105 -16.934  1.00  0.00     0.162 A 
ATOM      5  C   UNL     1      -5.841  34.628 -16.486  1.00  0.00     0.128 A 
ATOM      6  C   UNL     1      -6.082  33.250 -16.445  1.00  0.00     0.093 A 
ATOM      7  C   UNL     1      -5.101  32.337 -16.852  1.00  0.00     0.136 A 
ATOM      8  C   UNL     1      -3.848  32.819 -17.312  1.00  0.00     0.125 A 
ATOM      9  C   UNL     1      -2.811  31.978 -17.750  1.00  0.00     0.078 A 
ATOM     10  C   UNL     1      -1.605  32.528 -18.195  1.00  0.00     0.223 A 
ENDROOT
BRANCH   1  11
ATOM     11  C   UNL     1      -0.190  34.581 -18.610  1.00  0.00     0.091 A 
ATOM     12  C   UNL     1       0.023  34.820 -19.976  1.00  0.00     0.068 A 
ATOM     13  C   UNL     1       1.189  35.455 -20.416  1.00  0.00     0.162 A 
ATOM     14  C   UNL     1       0.766  35.023 -17.681  1.00  0.00     0.068 A 
ATOM     15  C   UNL     1       2.154  35.876 -19.484  1.00  0.00     0.200 A 
ATOM     16  C   UNL     1       1.936  35.662 -18.112  1.00  0.00     0.162 A 
BRANCH  13  17
ATOM     17  O   UNL     1       1.372  35.660 -21.783  1.00  0.00    -0.504 OA
ATOM     18  H   UNL     1       2.022  35.108 -22.329  1.00  0.00     0.293 HD
ENDBRANCH  13  17
BRANCH  15  19
ATOM     19  O   UNL     1       3.315  36.507 -19.932  1.00  0.00    -0.502 OA
ATOM     20  H   UNL     1       3.393  36.894 -20.865  1.00  0.00     0.293 HD
ENDBRANCH  15  19
BRANCH  16  21
ATOM     21  O   UNL     1       2.882  36.091 -17.181  1.00  0.00    -0.504 OA
ATOM     22  H   UNL     1       3.718  35.552 -16.986  1.00  0.00     0.293 HD
ENDBRANCH  16  21
ENDBRANCH   1  11
BRANCH  10  23
ATOM     23  O   UNL     1      -0.594  31.697 -18.677  1.00  0.00    -0.500 OA
ATOM     24  H   UNL     1       0.386  31.931 -18.569  1.00  0.00     0.294 HD
ENDBRANCH  10  23
BRANCH   5  25
ATOM     25  O   UNL     1      -6.821  35.532 -16.080  1.00  0.00    -0.507 OA
ATOM     26  H   UNL     1      -7.188  35.527 -15.135  1.00  0.00     0.293 HD
ENDBRANCH   5  25
BRANCH   7  27
ATOM     27  O   UNL     1      -5.417  30.977 -16.779  1.00  0.00    -0.507 OA
ATOM     28  H   UNL     1      -4.864  30.240 -17.191  1.00  0.00     0.293 HD
ENDBRANCH   7  27
TORSDOF 7
ENDMDL
MODEL 6
REMARK VINA RESULT:    -6.858      1.638      2.755
REMARK INTER + INTRA:          -8.569
REMARK INTER:                  -8.308
REMARK INTRA:                  -0.262
REMARK UNBOUND:                -0.108
REMARK SMILES Oc1cc(O)c2cc(O)c(-c3cc(O)c(O)c(O)c3)[o+]c2c1.[Cl-]
REMARK SMILES IDX 10 1 20 2 21 3 22 4 2 5 3 6 4 7 6 8 7 9 8 10 11 11 12 12
REMARK SMILES IDX 13 13 19 14 15 15 17 16 14 17 16 19 18 21 9 23 1 25 5 27
REMARK H PARENT 14 18 16 20 18 22 9 24 1 26 5 28
REMARK Flexibility Score: inf
ROOT
ATOM      1  C   UNL     1       8.477  28.493 -13.666  1.00  0.00     0.402 A 
ATOM      2  O   UNL     1       7.368  28.956 -14.239  1.00  0.00    -0.202 OA
ATOM      3  C   UNL     1       7.061  30.248 -14.299  1.00  0.00     0.368 A 
ATOM      4  C   UNL     1       5.874  30.637 -14.925  1.00  0.00     0.162 A 
ATOM      5  C   UNL     1       5.529  31.986 -15.004  1.00  0.00     0.128 A 
ATOM      6  C   UNL     1       6.375  32.956 -14.456  1.00  0.00     0.093 A 
ATOM      7  C   UNL     1       7.571  32.592 -13.823  1.00  0.00     0.136 A 
ATOM      8  C   UNL     1       7.924  31.220 -13.738  1.00  0.00     0.125 A 
ATOM      9  C   UNL     1       9.096  30.762 -13.112  1.00  0.00     0.078 A 
ATOM     10  C   UNL     1       9.374  29.393 -13.062  1.00  0.00     0.223 A 
ENDROOT
BRANCH   1  11
ATOM     11  C   UNL     1       8.711  27.031 -13.673  1.00  0.00     0.091 A 
ATOM     12  C   UNL     1       7.806  26.185 -13.013  1.00  0.00     0.068 A 
ATOM     13  C   UNL     1       7.992  24.799 -13.019  1.00  0.00     0.162 A 
ATOM     14  C   UNL     1       9.789  26.467 -14.374  1.00  0.00     0.068 A 
ATOM     15  C   UNL     1       9.084  24.239 -13.705  1.00  0.00     0.200 A 
ATOM     16  C   UNL     1       9.981  25.078 -14.387  1.00  0.00     0.162 A 
BRANCH  13  17
ATOM     17  O   UNL     1       7.080  23.993 -12.339  1.00  0.00    -0.504 OA
ATOM     18  H   UNL     1       6.117  23.896 -12.639  1.00  0.00     0.293 HD
ENDBRANCH  13  17
BRANCH  15  19
ATOM     19  O   UNL     1       9.263  22.856 -13.704  1.00  0.00    -0.502 OA
ATOM     20  H   UNL     1      10.121  22.423 -13.384  1.00  0.00     0.293 HD
ENDBRANCH  15  19
BRANCH  16  21
ATOM     21  O   UNL     1      11.059  24.529 -15.082  1.00  0.00    -0.504 OA
ATOM     22  H   UNL     1      11.171  23.527 -15.183  1.00  0.00     0.293 HD
ENDBRANCH  16  21
ENDBRANCH   1  11
BRANCH  10  23
ATOM     23  O   UNL     1      10.511  28.935 -12.398  1.00  0.00    -0.500 OA
ATOM     24  H   UNL     1      10.929  28.037 -12.613  1.00  0.00     0.294 HD
ENDBRANCH  10  23
BRANCH   5  25
ATOM     25  O   UNL     1       4.341  32.354 -15.633  1.00  0.00    -0.507 OA
ATOM     26  H   UNL     1       4.271  32.411 -16.642  1.00  0.00     0.293 HD
ENDBRANCH   5  25
BRANCH   7  27
ATOM     27  O   UNL     1       8.363  33.619 -13.303  1.00  0.00    -0.507 OA
ATOM     28  H   UNL     1       9.319  33.506 -13.001  1.00  0.00     0.293 HD
ENDBRANCH   7  27
TORSDOF 7
ENDMDL
MODEL 7
REMARK VINA RESULT:    -6.856      1.244      7.319
REMARK INTER + INTRA:          -8.567
REMARK INTER:                  -8.184
REMARK INTRA:                  -0.382
REMARK UNBOUND:                -0.108
REMARK SMILES Oc1cc(O)c2cc(O)c(-c3cc(O)c(O)c(O)c3)[o+]c2c1.[Cl-]
REMARK SMILES IDX 10 1 20 2 21 3 22 4 2 5 3 6 4 7 6 8 7 9 8 10 11 11 12 12
REMARK SMILES IDX 13 13 19 14 15 15 17 16 14 17 16 19 18 21 9 23 1 25 5 27
REMARK H PARENT 14 18 16 20 18 22 9 24 1 26 5 28
REMARK Flexibility Score: inf
ROOT
ATOM      1  C   UNL     1       8.290  29.734 -13.230  1.00  0.00     0.402 A 
ATOM      2  O   UNL     1       7.389  28.755 -13.259  1.00  0.00    -0.202 OA
ATOM      3  C   UNL     1       7.696  27.473 -13.086  1.00  0.00     0.368 A 
ATOM      4  C   UNL     1       6.678  26.518 -13.130  1.00  0.00     0.162 A 
ATOM      5  C   UNL     1       6.971  25.166 -12.949  1.00  0.00     0.128 A 
ATOM      6  C   UNL     1       8.291  24.764 -12.721  1.00  0.00     0.093 A 
ATOM      7  C   UNL     1       9.331  25.702 -12.672  1.00  0.00     0.136 A 
ATOM      8  C   UNL     1       9.036  27.078 -12.859  1.00  0.00     0.125 A 
ATOM      9  C   UNL     1      10.014  28.086 -12.838  1.00  0.00     0.078 A 
ATOM     10  C   UNL     1       9.649  29.421 -13.035  1.00  0.00     0.223 A 
ENDROOT
BRANCH   1  11
ATOM     11  C   UNL     1       7.822  31.124 -13.426  1.00  0.00     0.091 A 
ATOM     12  C   UNL     1       7.626  31.608 -14.729  1.00  0.00     0.068 A 
ATOM     13  C   UNL     1       7.165  32.911 -14.944  1.00  0.00     0.162 A 
ATOM     14  C   UNL     1       7.514  31.953 -12.335  1.00  0.00     0.068 A 
ATOM     15  C   UNL     1       6.879  33.745 -13.848  1.00  0.00     0.200 A 
ATOM     16  C   UNL     1       7.050  33.259 -12.541  1.00  0.00     0.162 A 
BRANCH  13  17
ATOM     17  O   UNL     1       6.998  33.361 -16.253  1.00  0.00    -0.504 OA
ATOM     18  H   UNL     1       7.782  33.632 -16.835  1.00  0.00     0.293 HD
ENDBRANCH  13  17
BRANCH  15  19
ATOM     19  O   UNL     1       6.422  35.044 -14.072  1.00  0.00    -0.502 OA
ATOM     20  H   UNL     1       5.804  35.518 -13.424  1.00  0.00     0.293 HD
ENDBRANCH  15  19
BRANCH  16  21
ATOM     21  O   UNL     1       6.753  34.076 -11.450  1.00  0.00    -0.504 OA
ATOM     22  H   UNL     1       6.252  33.724 -10.643  1.00  0.00     0.293 HD
ENDBRANCH  16  21
ENDBRANCH   1  11
BRANCH  10  23
ATOM     23  O   UNL     1      10.625  30.416 -13.065  1.00  0.00    -0.500 OA
ATOM     24  H   UNL     1      11.610  30.200 -12.962  1.00  0.00     0.294 HD
ENDBRANCH  10  23
BRANCH   5  25
ATOM     25  O   UNL     1       5.941  24.228 -12.996  1.00  0.00    -0.507 OA
ATOM     26  H   UNL     1       5.388  24.091 -13.835  1.00  0.00     0.293 HD
ENDBRANCH   5  25
BRANCH   7  27
ATOM     27  O   UNL     1      10.622  25.221 -12.437  1.00  0.00    -0.507 OA
ATOM     28  H   UNL     1      11.130  24.619 -13.067  1.00  0.00     0.293 HD
ENDBRANCH   7  27
TORSDOF 7
ENDMDL
MODEL 8
REMARK VINA RESULT:    -6.848      1.424      3.065
REMARK INTER + INTRA:          -8.557
REMARK INTER:                  -9.018
REMARK INTRA:                   0.461
REMARK UNBOUND:                -0.108
REMARK SMILES Oc1cc(O)c2cc(O)c(-c3cc(O)c(O)c(O)c3)[o+]c2c1.[Cl-]
REMARK SMILES IDX 10 1 20 2 21 3 22 4 2 5 3 6 4 7 6 8 7 9 8 10 11 11 12 12
REMARK SMILES IDX 13 13 19 14 15 15 17 16 14 17 16 19 18 21 9 23 1 25 5 27
REMARK H PARENT 14 18 16 20 18 22 9 24 1 26 5 28
REMARK Flexibility Score: inf
ROOT
ATOM      1  C   UNL     1       7.898  28.739 -13.511  1.00  0.00     0.402 A 
ATOM      2  O   UNL     1       6.782  29.239 -14.037  1.00  0.00    -0.202 OA
ATOM      3  C   UNL     1       6.656  30.507 -14.415  1.00  0.00     0.368 A 
ATOM      4  C   UNL     1       5.444  30.938 -14.960  1.00  0.00     0.162 A 
ATOM      5  C   UNL     1       5.286  32.263 -15.367  1.00  0.00     0.128 A 
ATOM      6  C   UNL     1       6.346  33.165 -15.232  1.00  0.00     0.093 A 
ATOM      7  C   UNL     1       7.572  32.758 -14.688  1.00  0.00     0.136 A 
ATOM      8  C   UNL     1       7.736  31.412 -14.270  1.00  0.00     0.125 A 
ATOM      9  C   UNL     1       8.923  30.919 -13.704  1.00  0.00     0.078 A 
ATOM     10  C   UNL     1       9.008  29.580 -13.310  1.00  0.00     0.223 A 
ENDROOT
BRANCH   1  11
ATOM     11  C   UNL     1       7.917  27.306 -13.139  1.00  0.00     0.091 A 
ATOM     12  C   UNL     1       9.101  26.738 -12.645  1.00  0.00     0.068 A 
ATOM     13  C   UNL     1       9.144  25.392 -12.267  1.00  0.00     0.162 A 
ATOM     14  C   UNL     1       6.759  26.515 -13.216  1.00  0.00     0.068 A 
ATOM     15  C   UNL     1       7.987  24.599 -12.365  1.00  0.00     0.200 A 
ATOM     16  C   UNL     1       6.792  25.166 -12.837  1.00  0.00     0.162 A 
BRANCH  13  17
ATOM     17  O   UNL     1      10.344  24.861 -11.795  1.00  0.00    -0.504 OA
ATOM     18  H   UNL     1      10.631  24.952 -10.829  1.00  0.00     0.293 HD
ENDBRANCH  13  17
BRANCH  15  19
ATOM     19  O   UNL     1       8.039  23.256 -11.988  1.00  0.00    -0.502 OA
ATOM     20  H   UNL     1       8.844  22.859 -11.518  1.00  0.00     0.293 HD
ENDBRANCH  15  19
BRANCH  16  21
ATOM     21  O   UNL     1       5.637  24.388 -12.923  1.00  0.00    -0.504 OA
ATOM     22  H   UNL     1       5.679  23.377 -12.948  1.00  0.00     0.293 HD
ENDBRANCH  16  21
ENDBRANCH   1  11
BRANCH  10  23
ATOM     23  O   UNL     1      10.169  29.103 -12.703  1.00  0.00    -0.500 OA
ATOM     24  H   UNL     1      10.246  28.145 -12.379  1.00  0.00     0.294 HD
ENDBRANCH  10  23
BRANCH   5  25
ATOM     25  O   UNL     1       4.069  32.673 -15.908  1.00  0.00    -0.507 OA
ATOM     26  H   UNL     1       3.611  32.146 -16.643  1.00  0.00     0.293 HD
ENDBRANCH   5  25
BRANCH   7  27
ATOM     27  O   UNL     1       8.583  33.719 -14.589  1.00  0.00    -0.507 OA
ATOM     28  H   UNL     1       9.278  33.891 -15.300  1.00  0.00     0.293 HD
ENDBRANCH   7  27
TORSDOF 7
ENDMDL
MODEL 9
REMARK VINA RESULT:    -6.834     10.980     13.677
REMARK INTER + INTRA:          -8.539
REMARK INTER:                  -8.408
REMARK INTRA:                  -0.131
REMARK UNBOUND:                -0.108
REMARK SMILES Oc1cc(O)c2cc(O)c(-c3cc(O)c(O)c(O)c3)[o+]c2c1.[Cl-]
REMARK SMILES IDX 10 1 20 2 21 3 22 4 2 5 3 6 4 7 6 8 7 9 8 10 11 11 12 12
REMARK SMILES IDX 13 13 19 14 15 15 17 16 14 17 16 19 18 21 9 23 1 25 5 27
REMARK H PARENT 14 18 16 20 18 22 9 24 1 26 5 28
REMARK Flexibility Score: inf
ROOT
ATOM      1  C   UNL     1      -3.764  33.478 -17.832  1.00  0.00     0.402 A 
ATOM      2  O   UNL     1      -3.020  34.509 -17.436  1.00  0.00    -0.202 OA
ATOM      3  C   UNL     1      -1.752  34.677 -17.798  1.00  0.00     0.368 A 
ATOM      4  C   UNL     1      -1.054  35.795 -17.334  1.00  0.00     0.162 A 
ATOM      5  C   UNL     1       0.276  35.998 -17.701  1.00  0.00     0.128 A 
ATOM      6  C   UNL     1       0.915  35.079 -18.540  1.00  0.00     0.093 A 
ATOM      7  C   UNL     1       0.238  33.951 -19.020  1.00  0.00     0.136 A 
ATOM      8  C   UNL     1      -1.115  33.739 -18.646  1.00  0.00     0.125 A 
ATOM      9  C   UNL     1      -1.868  32.631 -19.069  1.00  0.00     0.078 A 
ATOM     10  C   UNL     1      -3.196  32.488 -18.654  1.00  0.00     0.223 A 
ENDROOT
BRANCH   1  11
ATOM     11  C   UNL     1      -5.168  33.408 -17.368  1.00  0.00     0.091 A 
ATOM     12  C   UNL     1      -5.590  32.301 -16.615  1.00  0.00     0.068 A 
ATOM     13  C   UNL     1      -6.905  32.217 -16.146  1.00  0.00     0.162 A 
ATOM     14  C   UNL     1      -6.073  34.453 -17.615  1.00  0.00     0.068 A 
ATOM     15  C   UNL     1      -7.814  33.255 -16.415  1.00  0.00     0.200 A 
ATOM     16  C   UNL     1      -7.392  34.377 -17.147  1.00  0.00     0.162 A 
BRANCH  13  17
ATOM     17  O   UNL     1      -7.291  31.093 -15.416  1.00  0.00    -0.504 OA
ATOM     18  H   UNL     1      -6.805  30.803 -14.576  1.00  0.00     0.293 HD
ENDBRANCH  13  17
BRANCH  15  19
ATOM     19  O   UNL     1      -9.125  33.162 -15.945  1.00  0.00    -0.502 OA
ATOM     20  H   UNL     1      -9.924  33.189 -16.568  1.00  0.00     0.293 HD
ENDBRANCH  15  19
BRANCH  16  21
ATOM     21  O   UNL     1      -8.285  35.418 -17.404  1.00  0.00    -0.504 OA
ATOM     22  H   UNL     1      -9.185  35.251 -17.838  1.00  0.00     0.293 HD
ENDBRANCH  16  21
ENDBRANCH   1  11
BRANCH  10  23
ATOM     23  O   UNL     1      -3.929  31.363 -19.033  1.00  0.00    -0.500 OA
ATOM     24  H   UNL     1      -4.452  30.816 -18.359  1.00  0.00     0.294 HD
ENDBRANCH  10  23
BRANCH   5  25
ATOM     25  O   UNL     1       0.955  37.118 -17.226  1.00  0.00    -0.507 OA
ATOM     26  H   UNL     1       1.601  37.056 -16.448  1.00  0.00     0.293 HD
ENDBRANCH   5  25
BRANCH   7  27
ATOM     27  O   UNL     1       0.945  33.082 -19.856  1.00  0.00    -0.507 OA
ATOM     28  H   UNL     1       1.257  32.160 -19.588  1.00  0.00     0.293 HD
ENDBRANCH   7  27
TORSDOF 7
ENDMDL
