MODEL 1
REMARK VINA RESULT:    -8.505      0.000      0.000
REMARK INTER + INTRA:         -10.031
REMARK INTER:                  -9.997
REMARK INTRA:                  -0.034
REMARK UNBOUND:                -0.034
REMARK SMILES O=c1c(O)c(-c2ccc(O)c(O)c2)oc2cc(O)ccc12
REMARK SMILES IDX 5 1 3 2 2 3 1 4 21 5 15 6 14 7 16 8 17 9 19 10 20 11 6 12
REMARK SMILES IDX 7 13 8 14 9 15 13 16 11 17 10 18 12 20 4 22 18 24
REMARK H PARENT 10 19 12 21 4 23 18 25
REMARK Flexibility Score: inf
ROOT
ATOM      1  C   UNL     1      16.390  22.566  40.782  1.00  0.00     0.180 A 
ATOM      2  C   UNL     1      15.996  23.597  39.904  1.00  0.00     0.208 A 
ATOM      3  C   UNL     1      14.921  24.422  40.269  1.00  0.00     0.235 A 
ATOM      4  O   UNL     1      14.557  25.358  39.504  1.00  0.00    -0.285 OA
ATOM      5  C   UNL     1      14.255  24.193  41.483  1.00  0.00     0.069 A 
ATOM      6  C   UNL     1      14.696  23.126  42.296  1.00  0.00     0.142 A 
ATOM      7  O   UNL     1      15.722  22.374  41.918  1.00  0.00    -0.452 OA
ATOM      8  C   UNL     1      14.052  22.859  43.509  1.00  0.00     0.094 A 
ATOM      9  C   UNL     1      12.972  23.645  43.923  1.00  0.00     0.119 A 
ATOM     10  C   UNL     1      12.533  24.707  43.119  1.00  0.00     0.047 A 
ATOM     11  C   UNL     1      13.169  24.981  41.905  1.00  0.00     0.020 A 
ENDROOT
BRANCH   1  12
ATOM     12  C   UNL     1      17.524  21.666  40.478  1.00  0.00     0.025 A 
ATOM     13  C   UNL     1      17.358  20.279  40.609  1.00  0.00     0.016 A 
ATOM     14  C   UNL     1      18.422  19.410  40.347  1.00  0.00     0.051 A 
ATOM     15  C   UNL     1      19.668  19.914  39.966  1.00  0.00     0.157 A 
ATOM     16  C   UNL     1      18.785  22.172  40.115  1.00  0.00     0.062 A 
ATOM     17  C   UNL     1      19.854  21.302  39.853  1.00  0.00     0.158 A 
BRANCH  15  18
ATOM     18  O   UNL     1      20.711  19.024  39.709  1.00  0.00    -0.504 OA
ATOM     19  H   UNL     1      20.585  18.020  39.761  1.00  0.00     0.293 HD
ENDBRANCH  15  18
BRANCH  17  20
ATOM     20  O   UNL     1      21.099  21.812  39.487  1.00  0.00    -0.504 OA
ATOM     21  H   UNL     1      21.206  22.763  39.154  1.00  0.00     0.293 HD
ENDBRANCH  17  20
ENDBRANCH   1  12
BRANCH   2  22
ATOM     22  O   UNL     1      16.645  23.770  38.679  1.00  0.00    -0.502 OA
ATOM     23  H   UNL     1      17.441  24.388  38.570  1.00  0.00     0.293 HD
ENDBRANCH   2  22
BRANCH   9  24
ATOM     24  O   UNL     1      12.342  23.365  45.134  1.00  0.00    -0.508 OA
ATOM     25  H   UNL     1      12.186  24.087  45.828  1.00  0.00     0.293 HD
ENDBRANCH   9  24
TORSDOF 5
ENDMDL
MODEL 2
REMARK VINA RESULT:    -8.115     14.871     15.791
REMARK INTER + INTRA:          -9.572
REMARK INTER:                  -9.786
REMARK INTRA:                   0.214
REMARK UNBOUND:                -0.034
REMARK SMILES O=c1c(O)c(-c2ccc(O)c(O)c2)oc2cc(O)ccc12
REMARK SMILES IDX 5 1 3 2 2 3 1 4 21 5 15 6 14 7 16 8 17 9 19 10 20 11 6 12
REMARK SMILES IDX 7 13 8 14 9 15 13 16 11 17 10 18 12 20 4 22 18 24
REMARK H PARENT 10 19 12 21 4 23 18 25
REMARK Flexibility Score: inf
ROOT
ATOM      1  C   UNL     1      24.854  12.135  35.167  1.00  0.00     0.180 A 
ATOM      2  C   UNL     1      25.367  13.177  34.367  1.00  0.00     0.208 A 
ATOM      3  C   UNL     1      26.532  13.839  34.785  1.00  0.00     0.235 A 
ATOM      4  O   UNL     1      27.017  14.767  34.081  1.00  0.00    -0.285 OA
ATOM      5  C   UNL     1      27.145  13.464  35.991  1.00  0.00     0.069 A 
ATOM      6  C   UNL     1      26.556  12.426  36.746  1.00  0.00     0.142 A 
ATOM      7  O   UNL     1      25.458  11.820  36.311  1.00  0.00    -0.452 OA
ATOM      8  C   UNL     1      27.131  12.030  37.958  1.00  0.00     0.094 A 
ATOM      9  C   UNL     1      28.290  12.656  38.428  1.00  0.00     0.119 A 
ATOM     10  C   UNL     1      28.879  13.685  37.680  1.00  0.00     0.047 A 
ATOM     11  C   UNL     1      28.312  14.089  36.468  1.00  0.00     0.020 A 
ENDROOT
BRANCH   1  12
ATOM     12  C   UNL     1      23.641  11.377  34.786  1.00  0.00     0.025 A 
ATOM     13  C   UNL     1      22.819  10.841  35.789  1.00  0.00     0.016 A 
ATOM     14  C   UNL     1      21.680  10.104  35.453  1.00  0.00     0.051 A 
ATOM     15  C   UNL     1      21.353   9.880  34.113  1.00  0.00     0.157 A 
ATOM     16  C   UNL     1      23.322  11.133  33.438  1.00  0.00     0.062 A 
ATOM     17  C   UNL     1      22.180  10.392  33.099  1.00  0.00     0.158 A 
BRANCH  15  18
ATOM     18  O   UNL     1      20.209   9.144  33.807  1.00  0.00    -0.504 OA
ATOM     19  H   UNL     1      20.129   8.158  34.028  1.00  0.00     0.293 HD
ENDBRANCH  15  18
BRANCH  17  20
ATOM     20  O   UNL     1      21.868  10.160  31.760  1.00  0.00    -0.504 OA
ATOM     21  H   UNL     1      21.363   9.330  31.469  1.00  0.00     0.293 HD
ENDBRANCH  17  20
ENDBRANCH   1  12
BRANCH   2  22
ATOM     22  O   UNL     1      24.708  13.562  33.197  1.00  0.00    -0.502 OA
ATOM     23  H   UNL     1      24.014  14.300  33.184  1.00  0.00     0.293 HD
ENDBRANCH   2  22
BRANCH   9  24
ATOM     24  O   UNL     1      28.850  12.249  39.637  1.00  0.00    -0.508 OA
ATOM     25  H   UNL     1      29.142  11.291  39.788  1.00  0.00     0.293 HD
ENDBRANCH   9  24
TORSDOF 5
ENDMDL
MODEL 3
REMARK VINA RESULT:    -7.888      1.986      7.572
REMARK INTER + INTRA:          -9.306
REMARK INTER:                  -9.733
REMARK INTRA:                   0.428
REMARK UNBOUND:                -0.034
REMARK SMILES O=c1c(O)c(-c2ccc(O)c(O)c2)oc2cc(O)ccc12
REMARK SMILES IDX 5 1 3 2 2 3 1 4 21 5 15 6 14 7 16 8 17 9 19 10 20 11 6 12
REMARK SMILES IDX 7 13 8 14 9 15 13 16 11 17 10 18 12 20 4 22 18 24
REMARK H PARENT 10 19 12 21 4 23 18 25
REMARK Flexibility Score: inf
ROOT
ATOM      1  C   UNL     1      18.001  21.940  39.812  1.00  0.00     0.180 A 
ATOM      2  C   UNL     1      17.974  20.742  40.556  1.00  0.00     0.208 A 
ATOM      3  C   UNL     1      19.052  19.850  40.439  1.00  0.00     0.235 A 
ATOM      4  O   UNL     1      19.056  18.777  41.102  1.00  0.00    -0.285 OA
ATOM      5  C   UNL     1      20.115  20.160  39.577  1.00  0.00     0.069 A 
ATOM      6  C   UNL     1      20.056  21.369  38.850  1.00  0.00     0.142 A 
ATOM      7  O   UNL     1      19.022  22.189  38.995  1.00  0.00    -0.452 OA
ATOM      8  C   UNL     1      21.092  21.709  37.973  1.00  0.00     0.094 A 
ATOM      9  C   UNL     1      22.189  20.857  37.812  1.00  0.00     0.119 A 
ATOM     10  C   UNL     1      22.253  19.657  38.535  1.00  0.00     0.047 A 
ATOM     11  C   UNL     1      21.223  19.308  39.412  1.00  0.00     0.020 A 
ENDROOT
BRANCH   1  12
ATOM     12  C   UNL     1      16.913  22.940  39.894  1.00  0.00     0.025 A 
ATOM     13  C   UNL     1      16.898  24.019  38.997  1.00  0.00     0.016 A 
ATOM     14  C   UNL     1      15.891  24.986  39.069  1.00  0.00     0.051 A 
ATOM     15  C   UNL     1      14.895  24.898  40.045  1.00  0.00     0.157 A 
ATOM     16  C   UNL     1      15.921  22.864  40.889  1.00  0.00     0.062 A 
ATOM     17  C   UNL     1      14.911  23.835  40.964  1.00  0.00     0.158 A 
BRANCH  15  18
ATOM     18  O   UNL     1      13.902  25.876  40.091  1.00  0.00    -0.504 OA
ATOM     19  H   UNL     1      13.432  26.205  39.256  1.00  0.00     0.293 HD
ENDBRANCH  15  18
BRANCH  17  20
ATOM     20  O   UNL     1      13.928  23.749  41.949  1.00  0.00    -0.504 OA
ATOM     21  H   UNL     1      12.965  24.005  41.762  1.00  0.00     0.293 HD
ENDBRANCH  17  20
ENDBRANCH   1  12
BRANCH   2  22
ATOM     22  O   UNL     1      16.879  20.437  41.368  1.00  0.00    -0.502 OA
ATOM     23  H   UNL     1      16.459  19.515  41.387  1.00  0.00     0.293 HD
ENDBRANCH   2  22
BRANCH   9  24
ATOM     24  O   UNL     1      23.212  21.212  36.935  1.00  0.00    -0.508 OA
ATOM     25  H   UNL     1      23.556  20.566  36.235  1.00  0.00     0.293 HD
ENDBRANCH   9  24
TORSDOF 5
ENDMDL
MODEL 4
REMARK VINA RESULT:    -7.702      1.200      6.619
REMARK INTER + INTRA:          -9.087
REMARK INTER:                  -9.588
REMARK INTRA:                   0.500
REMARK UNBOUND:                -0.034
REMARK SMILES O=c1c(O)c(-c2ccc(O)c(O)c2)oc2cc(O)ccc12
REMARK SMILES IDX 5 1 3 2 2 3 1 4 21 5 15 6 14 7 16 8 17 9 19 10 20 11 6 12
REMARK SMILES IDX 7 13 8 14 9 15 13 16 11 17 10 18 12 20 4 22 18 24
REMARK H PARENT 10 19 12 21 4 23 18 25
REMARK Flexibility Score: inf
ROOT
ATOM      1  C   UNL     1      14.887  23.506  41.498  1.00  0.00     0.180 A 
ATOM      2  C   UNL     1      14.957  24.465  40.466  1.00  0.00     0.208 A 
ATOM      3  C   UNL     1      15.930  24.312  39.465  1.00  0.00     0.235 A 
ATOM      4  O   UNL     1      16.005  25.151  38.526  1.00  0.00    -0.285 OA
ATOM      5  C   UNL     1      16.817  23.226  39.524  1.00  0.00     0.069 A 
ATOM      6  C   UNL     1      16.696  22.322  40.602  1.00  0.00     0.142 A 
ATOM      7  O   UNL     1      15.757  22.498  41.524  1.00  0.00    -0.452 OA
ATOM      8  C   UNL     1      17.568  21.232  40.701  1.00  0.00     0.094 A 
ATOM      9  C   UNL     1      18.559  21.030  39.737  1.00  0.00     0.119 A 
ATOM     10  C   UNL     1      18.681  21.924  38.663  1.00  0.00     0.047 A 
ATOM     11  C   UNL     1      17.816  23.017  38.556  1.00  0.00     0.020 A 
ENDROOT
BRANCH   1  12
ATOM     12  C   UNL     1      13.879  23.587  42.578  1.00  0.00     0.025 A 
ATOM     13  C   UNL     1      12.820  24.499  42.467  1.00  0.00     0.016 A 
ATOM     14  C   UNL     1      11.868  24.607  43.485  1.00  0.00     0.051 A 
ATOM     15  C   UNL     1      11.969  23.817  44.633  1.00  0.00     0.157 A 
ATOM     16  C   UNL     1      13.991  22.807  43.744  1.00  0.00     0.062 A 
ATOM     17  C   UNL     1      13.038  22.916  44.768  1.00  0.00     0.158 A 
BRANCH  15  18
ATOM     18  O   UNL     1      11.003  23.945  45.632  1.00  0.00    -0.504 OA
ATOM     19  H   UNL     1      10.259  24.630  45.576  1.00  0.00     0.293 HD
ENDBRANCH  15  18
BRANCH  17  20
ATOM     20  O   UNL     1      13.152  22.135  45.917  1.00  0.00    -0.504 OA
ATOM     21  H   UNL     1      13.231  22.553  46.837  1.00  0.00     0.293 HD
ENDBRANCH  17  20
ENDBRANCH   1  12
BRANCH   2  22
ATOM     22  O   UNL     1      14.094  25.563  40.460  1.00  0.00    -0.502 OA
ATOM     23  H   UNL     1      13.086  25.460  40.455  1.00  0.00     0.293 HD
ENDBRANCH   2  22
BRANCH   9  24
ATOM     24  O   UNL     1      19.418  19.939  39.851  1.00  0.00    -0.508 OA
ATOM     25  H   UNL     1      20.181  19.934  40.518  1.00  0.00     0.293 HD
ENDBRANCH   9  24
TORSDOF 5
ENDMDL
MODEL 5
REMARK VINA RESULT:    -7.386      1.507      6.674
REMARK INTER + INTRA:          -8.715
REMARK INTER:                  -9.170
REMARK INTRA:                   0.454
REMARK UNBOUND:                -0.034
REMARK SMILES O=c1c(O)c(-c2ccc(O)c(O)c2)oc2cc(O)ccc12
REMARK SMILES IDX 5 1 3 2 2 3 1 4 21 5 15 6 14 7 16 8 17 9 19 10 20 11 6 12
REMARK SMILES IDX 7 13 8 14 9 15 13 16 11 17 10 18 12 20 4 22 18 24
REMARK H PARENT 10 19 12 21 4 23 18 25
REMARK Flexibility Score: inf
ROOT
ATOM      1  C   UNL     1      16.817  23.097  40.220  1.00  0.00     0.180 A 
ATOM      2  C   UNL     1      17.246  24.011  39.235  1.00  0.00     0.208 A 
ATOM      3  C   UNL     1      18.412  23.723  38.508  1.00  0.00     0.235 A 
ATOM      4  O   UNL     1      18.810  24.520  37.614  1.00  0.00    -0.285 OA
ATOM      5  C   UNL     1      19.129  22.550  38.788  1.00  0.00     0.069 A 
ATOM      6  C   UNL     1      18.646  21.698  39.805  1.00  0.00     0.142 A 
ATOM      7  O   UNL     1      17.534  22.003  40.465  1.00  0.00    -0.452 OA
ATOM      8  C   UNL     1      19.338  20.524  40.121  1.00  0.00     0.094 A 
ATOM      9  C   UNL     1      20.508  20.187  39.434  1.00  0.00     0.119 A 
ATOM     10  C   UNL     1      20.990  21.029  38.421  1.00  0.00     0.047 A 
ATOM     11  C   UNL     1      20.306  22.205  38.099  1.00  0.00     0.020 A 
ENDROOT
BRANCH   1  12
ATOM     12  C   UNL     1      15.589  23.320  41.016  1.00  0.00     0.025 A 
ATOM     13  C   UNL     1      14.633  24.244  40.567  1.00  0.00     0.016 A 
ATOM     14  C   UNL     1      13.476  24.485  41.314  1.00  0.00     0.051 A 
ATOM     15  C   UNL     1      13.264  23.819  42.524  1.00  0.00     0.157 A 
ATOM     16  C   UNL     1      15.384  22.666  42.245  1.00  0.00     0.062 A 
ATOM     17  C   UNL     1      14.225  22.908  42.996  1.00  0.00     0.158 A 
BRANCH  15  18
ATOM     18  O   UNL     1      12.100  24.078  43.246  1.00  0.00    -0.504 OA
ATOM     19  H   UNL     1      11.514  24.882  43.052  1.00  0.00     0.293 HD
ENDBRANCH  15  18
BRANCH  17  20
ATOM     20  O   UNL     1      14.026  22.251  44.210  1.00  0.00    -0.504 OA
ATOM     21  H   UNL     1      14.405  22.614  45.077  1.00  0.00     0.293 HD
ENDBRANCH  17  20
ENDBRANCH   1  12
BRANCH   2  22
ATOM     22  O   UNL     1      16.539  25.195  39.012  1.00  0.00    -0.502 OA
ATOM     23  H   UNL     1      15.749  25.244  38.380  1.00  0.00     0.293 HD
ENDBRANCH   2  22
BRANCH   9  24
ATOM     24  O   UNL     1      21.184  19.014  39.761  1.00  0.00    -0.508 OA
ATOM     25  H   UNL     1      21.970  18.685  39.212  1.00  0.00     0.293 HD
ENDBRANCH   9  24
TORSDOF 5
ENDMDL
MODEL 6
REMARK VINA RESULT:    -7.377     16.053     18.544
REMARK INTER + INTRA:          -8.704
REMARK INTER:                  -8.381
REMARK INTRA:                  -0.324
REMARK UNBOUND:                -0.034
REMARK SMILES O=c1c(O)c(-c2ccc(O)c(O)c2)oc2cc(O)ccc12
REMARK SMILES IDX 5 1 3 2 2 3 1 4 21 5 15 6 14 7 16 8 17 9 19 10 20 11 6 12
REMARK SMILES IDX 7 13 8 14 9 15 13 16 11 17 10 18 12 20 4 22 18 24
REMARK H PARENT 10 19 12 21 4 23 18 25
REMARK Flexibility Score: inf
ROOT
ATOM      1  C   UNL     1      30.031  11.478  38.102  1.00  0.00     0.180 A 
ATOM      2  C   UNL     1      30.418  10.140  37.882  1.00  0.00     0.208 A 
ATOM      3  C   UNL     1      30.781   9.351  38.985  1.00  0.00     0.235 A 
ATOM      4  O   UNL     1      31.120   8.147  38.815  1.00  0.00    -0.285 OA
ATOM      5  C   UNL     1      30.769   9.914  40.270  1.00  0.00     0.069 A 
ATOM      6  C   UNL     1      30.392  11.267  40.404  1.00  0.00     0.142 A 
ATOM      7  O   UNL     1      30.048  11.977  39.336  1.00  0.00    -0.452 OA
ATOM      8  C   UNL     1      30.377  11.868  41.668  1.00  0.00     0.094 A 
ATOM      9  C   UNL     1      30.733  11.133  42.803  1.00  0.00     0.119 A 
ATOM     10  C   UNL     1      31.106   9.787  42.675  1.00  0.00     0.047 A 
ATOM     11  C   UNL     1      31.125   9.179  41.416  1.00  0.00     0.020 A 
ENDROOT
BRANCH   1  12
ATOM     12  C   UNL     1      29.618  12.369  36.995  1.00  0.00     0.025 A 
ATOM     13  C   UNL     1      30.574  13.183  36.370  1.00  0.00     0.016 A 
ATOM     14  C   UNL     1      30.203  14.047  35.336  1.00  0.00     0.051 A 
ATOM     15  C   UNL     1      28.870  14.121  34.921  1.00  0.00     0.157 A 
ATOM     16  C   UNL     1      28.274  12.460  36.590  1.00  0.00     0.062 A 
ATOM     17  C   UNL     1      27.898  13.327  35.554  1.00  0.00     0.158 A 
BRANCH  15  18
ATOM     18  O   UNL     1      28.529  14.990  33.885  1.00  0.00    -0.504 OA
ATOM     19  H   UNL     1      27.687  15.553  33.911  1.00  0.00     0.293 HD
ENDBRANCH  15  18
BRANCH  17  20
ATOM     20  O   UNL     1      26.565  13.407  35.154  1.00  0.00    -0.504 OA
ATOM     21  H   UNL     1      26.190  14.241  34.718  1.00  0.00     0.293 HD
ENDBRANCH  17  20
ENDBRANCH   1  12
BRANCH   2  22
ATOM     22  O   UNL     1      30.468   9.621  36.586  1.00  0.00    -0.502 OA
ATOM     23  H   UNL     1      29.771   8.976  36.233  1.00  0.00     0.293 HD
ENDBRANCH   2  22
BRANCH   9  24
ATOM     24  O   UNL     1      30.712  11.746  44.054  1.00  0.00    -0.508 OA
ATOM     25  H   UNL     1      30.324  11.280  44.866  1.00  0.00     0.293 HD
ENDBRANCH   9  24
TORSDOF 5
ENDMDL
MODEL 7
REMARK VINA RESULT:    -7.262     17.024     19.001
REMARK INTER + INTRA:          -8.570
REMARK INTER:                  -9.006
REMARK INTRA:                   0.436
REMARK UNBOUND:                -0.034
REMARK SMILES O=c1c(O)c(-c2ccc(O)c(O)c2)oc2cc(O)ccc12
REMARK SMILES IDX 5 1 3 2 2 3 1 4 21 5 15 6 14 7 16 8 17 9 19 10 20 11 6 12
REMARK SMILES IDX 7 13 8 14 9 15 13 16 11 17 10 18 12 20 4 22 18 24
REMARK H PARENT 10 19 12 21 4 23 18 25
REMARK Flexibility Score: inf
ROOT
ATOM      1  C   UNL     1      30.486  10.922  39.634  1.00  0.00     0.180 A 
ATOM      2  C   UNL     1      30.718   9.750  38.886  1.00  0.00     0.208 A 
ATOM      3  C   UNL     1      30.709   9.830  37.484  1.00  0.00     0.235 A 
ATOM      4  O   UNL     1      30.924   8.797  36.792  1.00  0.00    -0.285 OA
ATOM      5  C   UNL     1      30.452  11.062  36.864  1.00  0.00     0.069 A 
ATOM      6  C   UNL     1      30.207  12.185  37.684  1.00  0.00     0.142 A 
ATOM      7  O   UNL     1      30.233  12.069  39.007  1.00  0.00    -0.452 OA
ATOM      8  C   UNL     1      29.937  13.430  37.104  1.00  0.00     0.094 A 
ATOM      9  C   UNL     1      29.910  13.569  35.713  1.00  0.00     0.119 A 
ATOM     10  C   UNL     1      30.156  12.457  34.895  1.00  0.00     0.047 A 
ATOM     11  C   UNL     1      30.425  11.209  35.465  1.00  0.00     0.020 A 
ENDROOT
BRANCH   1  12
ATOM     12  C   UNL     1      30.498  10.924  41.114  1.00  0.00     0.025 A 
ATOM     13  C   UNL     1      31.120   9.871  41.801  1.00  0.00     0.016 A 
ATOM     14  C   UNL     1      31.125   9.842  43.199  1.00  0.00     0.051 A 
ATOM     15  C   UNL     1      30.497  10.854  43.929  1.00  0.00     0.157 A 
ATOM     16  C   UNL     1      29.849  11.931  41.851  1.00  0.00     0.062 A 
ATOM     17  C   UNL     1      29.851  11.903  43.253  1.00  0.00     0.158 A 
BRANCH  15  18
ATOM     18  O   UNL     1      30.520  10.800  45.322  1.00  0.00    -0.504 OA
ATOM     19  H   UNL     1      30.587  11.635  45.892  1.00  0.00     0.293 HD
ENDBRANCH  15  18
BRANCH  17  20
ATOM     20  O   UNL     1      29.210  12.909  43.976  1.00  0.00    -0.504 OA
ATOM     21  H   UNL     1      28.436  13.432  43.584  1.00  0.00     0.293 HD
ENDBRANCH  17  20
ENDBRANCH   1  12
BRANCH   2  22
ATOM     22  O   UNL     1      30.922   8.527  39.529  1.00  0.00    -0.502 OA
ATOM     23  H   UNL     1      31.056   7.662  39.020  1.00  0.00     0.293 HD
ENDBRANCH   2  22
BRANCH   9  24
ATOM     24  O   UNL     1      29.641  14.816  35.153  1.00  0.00    -0.508 OA
ATOM     25  H   UNL     1      29.338  14.909  34.190  1.00  0.00     0.293 HD
ENDBRANCH   9  24
TORSDOF 5
ENDMDL
MODEL 8
REMARK VINA RESULT:    -7.011     14.953     18.237
REMARK INTER + INTRA:          -8.275
REMARK INTER:                  -8.132
REMARK INTRA:                  -0.142
REMARK UNBOUND:                -0.034
REMARK SMILES O=c1c(O)c(-c2ccc(O)c(O)c2)oc2cc(O)ccc12
REMARK SMILES IDX 5 1 3 2 2 3 1 4 21 5 15 6 14 7 16 8 17 9 19 10 20 11 6 12
REMARK SMILES IDX 7 13 8 14 9 15 13 16 11 17 10 18 12 20 4 22 18 24
REMARK H PARENT 10 19 12 21 4 23 18 25
REMARK Flexibility Score: inf
ROOT
ATOM      1  C   UNL     1      28.642  11.581  37.639  1.00  0.00     0.180 A 
ATOM      2  C   UNL     1      29.359  12.261  38.645  1.00  0.00     0.208 A 
ATOM      3  C   UNL     1      30.189  11.520  39.501  1.00  0.00     0.235 A 
ATOM      4  O   UNL     1      30.849  12.108  40.403  1.00  0.00    -0.285 OA
ATOM      5  C   UNL     1      30.272  10.128  39.349  1.00  0.00     0.069 A 
ATOM      6  C   UNL     1      29.506   9.519  38.332  1.00  0.00     0.142 A 
ATOM      7  O   UNL     1      28.738  10.257  37.537  1.00  0.00    -0.452 OA
ATOM      8  C   UNL     1      29.554   8.132  38.154  1.00  0.00     0.094 A 
ATOM      9  C   UNL     1      30.359   7.343  38.980  1.00  0.00     0.119 A 
ATOM     10  C   UNL     1      31.124   7.943  39.990  1.00  0.00     0.047 A 
ATOM     11  C   UNL     1      31.082   9.328  40.176  1.00  0.00     0.020 A 
ENDROOT
BRANCH   1  12
ATOM     12  C   UNL     1      27.761  12.291  36.686  1.00  0.00     0.025 A 
ATOM     13  C   UNL     1      26.404  11.941  36.607  1.00  0.00     0.016 A 
ATOM     14  C   UNL     1      25.558  12.584  35.700  1.00  0.00     0.051 A 
ATOM     15  C   UNL     1      26.055  13.575  34.849  1.00  0.00     0.157 A 
ATOM     16  C   UNL     1      28.264  13.274  35.814  1.00  0.00     0.062 A 
ATOM     17  C   UNL     1      27.416  13.919  34.901  1.00  0.00     0.158 A 
BRANCH  15  18
ATOM     18  O   UNL     1      25.186  14.201  33.956  1.00  0.00    -0.504 OA
ATOM     19  H   UNL     1      25.480  14.977  33.374  1.00  0.00     0.293 HD
ENDBRANCH  15  18
BRANCH  17  20
ATOM     20  O   UNL     1      27.922  14.897  34.045  1.00  0.00    -0.504 OA
ATOM     21  H   UNL     1      27.616  15.861  34.102  1.00  0.00     0.293 HD
ENDBRANCH  17  20
ENDBRANCH   1  12
BRANCH   2  22
ATOM     22  O   UNL     1      29.218  13.642  38.805  1.00  0.00    -0.502 OA
ATOM     23  H   UNL     1      29.590  14.305  38.135  1.00  0.00     0.293 HD
ENDBRANCH   2  22
BRANCH   9  24
ATOM     24  O   UNL     1      30.396   5.963  38.789  1.00  0.00    -0.508 OA
ATOM     25  H   UNL     1      30.233   5.318  39.554  1.00  0.00     0.293 HD
ENDBRANCH   9  24
TORSDOF 5
ENDMDL
MODEL 9
REMARK VINA RESULT:    -6.936     16.983     18.722
REMARK INTER + INTRA:          -8.186
REMARK INTER:                  -8.259
REMARK INTRA:                   0.073
REMARK UNBOUND:                -0.034
REMARK SMILES O=c1c(O)c(-c2ccc(O)c(O)c2)oc2cc(O)ccc12
REMARK SMILES IDX 5 1 3 2 2 3 1 4 21 5 15 6 14 7 16 8 17 9 19 10 20 11 6 12
REMARK SMILES IDX 7 13 8 14 9 15 13 16 11 17 10 18 12 20 4 22 18 24
REMARK H PARENT 10 19 12 21 4 23 18 25
REMARK Flexibility Score: inf
ROOT
ATOM      1  C   UNL     1      30.399  11.883  40.179  1.00  0.00     0.180 A 
ATOM      2  C   UNL     1      30.398  13.258  39.867  1.00  0.00     0.208 A 
ATOM      3  C   UNL     1      30.443  13.646  38.518  1.00  0.00     0.235 A 
ATOM      4  O   UNL     1      30.432  14.870  38.214  1.00  0.00    -0.285 OA
ATOM      5  C   UNL     1      30.506  12.663  37.519  1.00  0.00     0.069 A 
ATOM      6  C   UNL     1      30.527  11.308  37.914  1.00  0.00     0.142 A 
ATOM      7  O   UNL     1      30.475  10.983  39.200  1.00  0.00    -0.452 OA
ATOM      8  C   UNL     1      30.599  10.298  36.948  1.00  0.00     0.094 A 
ATOM      9  C   UNL     1      30.651  10.624  35.589  1.00  0.00     0.119 A 
ATOM     10  C   UNL     1      30.628  11.969  35.192  1.00  0.00     0.047 A 
ATOM     11  C   UNL     1      30.557  12.985  36.150  1.00  0.00     0.020 A 
ENDROOT
BRANCH   1  12
ATOM     12  C   UNL     1      30.336  11.393  41.574  1.00  0.00     0.025 A 
ATOM     13  C   UNL     1      31.125  10.299  41.958  1.00  0.00     0.016 A 
ATOM     14  C   UNL     1      31.066   9.806  43.265  1.00  0.00     0.051 A 
ATOM     15  C   UNL     1      30.208  10.390  44.202  1.00  0.00     0.157 A 
ATOM     16  C   UNL     1      29.458  11.965  42.512  1.00  0.00     0.062 A 
ATOM     17  C   UNL     1      29.396  11.472  43.824  1.00  0.00     0.158 A 
BRANCH  15  18
ATOM     18  O   UNL     1      30.172   9.879  45.499  1.00  0.00    -0.504 OA
ATOM     19  H   UNL     1      31.016   9.651  46.011  1.00  0.00     0.293 HD
ENDBRANCH  15  18
BRANCH  17  20
ATOM     20  O   UNL     1      28.528  12.049  44.750  1.00  0.00    -0.504 OA
ATOM     21  H   UNL     1      27.744  11.535  45.135  1.00  0.00     0.293 HD
ENDBRANCH  17  20
ENDBRANCH   1  12
BRANCH   2  22
ATOM     22  O   UNL     1      30.385  14.215  40.885  1.00  0.00    -0.502 OA
ATOM     23  H   UNL     1      31.175  14.362  41.501  1.00  0.00     0.293 HD
ENDBRANCH   2  22
BRANCH   9  24
ATOM     24  O   UNL     1      30.722   9.606  34.640  1.00  0.00    -0.508 OA
ATOM     25  H   UNL     1      31.134   9.762  33.728  1.00  0.00     0.293 HD
ENDBRANCH   9  24
TORSDOF 5
ENDMDL
