MODEL 1
REMARK VINA RESULT:     3.301      0.000      0.000
REMARK INTER + INTRA:           8.482
REMARK INTER:                   4.652
REMARK INTRA:                   3.830
REMARK UNBOUND:                 3.830
REMARK SMILES CC1=CCC(=C(C)C)CCC(C)=CCC1
REMARK SMILES IDX 5 1 6 2 7 3 8 4 9 5 10 6 11 7 12 8 13 9 4 11 3 12 2 13 1 14
REMARK SMILES IDX 15 15 14 16
REMARK H PARENT
REMARK Flexibility Score: 60.00
ROOT
ATOM      1  C   UNL     1     137.368 154.593 162.624  1.00  0.00    -0.067 C 
ATOM      2  C   UNL     1     136.282 154.547 161.786  1.00  0.00    -0.077 C 
ATOM      3  C   UNL     1     134.969 153.922 162.217  1.00  0.00     0.039 C 
ATOM      4  C   UNL     1     136.359 155.095 160.375  1.00  0.00     0.039 C 
ENDROOT
BRANCH   1   5
ATOM      5  C   UNL     1     137.259 154.079 164.062  1.00  0.00     0.035 C 
BRANCH   5   6
ATOM      6  C   UNL     1     136.316 152.862 164.193  1.00  0.00     0.035 C 
BRANCH   6   7
ATOM      7  C   UNL     1     137.043 151.538 164.030  1.00  0.00    -0.077 C 
ATOM      8  C   UNL     1     137.113 150.600 165.209  1.00  0.00     0.039 C 
ATOM      9  C   UNL     1     137.647 151.159 162.881  1.00  0.00    -0.028 CG0
ATOM     10  G   UNL     1     137.624 151.932 161.584  1.00  0.00     0.000 G0
ENDBRANCH   6   7
ENDBRANCH   5   6
ENDBRANCH   1   5
BRANCH   1  11
ATOM     11  C   UNL     1     138.703 155.125 162.085  1.00  0.00     0.058 C 
BRANCH  11  12
ATOM     12  C   UNL     1     139.025 154.729 160.665  1.00  0.00    -0.024 C 
ATOM     13  C   UNL     1     139.169 153.462 160.219  1.00  0.00    -0.077 C 
ATOM     14  C   UNL     1     139.434 153.260 158.748  1.00  0.00     0.039 C 
BRANCH  13  15
ATOM     15  C   UNL     1     139.088 152.242 161.126  1.00  0.00     0.034 C 
BRANCH  15  16
ATOM     16  C   UNL     1     137.655 151.896 161.555  1.00  0.00     0.032 CG0
ATOM     17  G   UNL     1     137.636 151.173 162.882  1.00  0.00     0.000 G0
ENDBRANCH  15  16
ENDBRANCH  13  15
ENDBRANCH  11  12
ENDBRANCH   1  11
TORSDOF 0
ENDMDL
MODEL 2
REMARK VINA RESULT:     3.724      0.950      3.796
REMARK INTER + INTRA:           9.077
REMARK INTER:                   5.894
REMARK INTRA:                   3.183
REMARK UNBOUND:                 3.830
REMARK SMILES CC1=CCC(=C(C)C)CCC(C)=CCC1
REMARK SMILES IDX 5 1 6 2 7 3 8 4 9 5 10 6 11 7 12 8 13 9 4 11 3 12 2 13 1 14
REMARK SMILES IDX 15 15 14 16
REMARK H PARENT
REMARK Flexibility Score: 60.00
ROOT
ATOM      1  C   UNL     1     137.711 154.699 161.655  1.00  0.00    -0.067 C 
ATOM      2  C   UNL     1     136.372 154.658 161.354  1.00  0.00    -0.077 C 
ATOM      3  C   UNL     1     135.844 155.102 160.004  1.00  0.00     0.039 C 
ATOM      4  C   UNL     1     135.355 154.194 162.378  1.00  0.00     0.039 C 
ENDROOT
BRANCH   1   5
ATOM      5  C   UNL     1     138.729 155.125 160.594  1.00  0.00     0.035 C 
BRANCH   5   6
ATOM      6  C   UNL     1     138.961 154.041 159.517  1.00  0.00     0.035 C 
BRANCH   6   7
ATOM      7  C   UNL     1     139.822 152.894 160.017  1.00  0.00    -0.077 C 
ATOM      8  C   UNL     1     141.272 152.845 159.610  1.00  0.00     0.039 C 
ATOM      9  C   UNL     1     139.350 151.899 160.802  1.00  0.00    -0.028 CG0
ATOM     10  G   UNL     1     137.950 151.817 161.363  1.00  0.00     0.000 G0
ENDBRANCH   6   7
ENDBRANCH   5   6
ENDBRANCH   1   5
BRANCH   1  11
ATOM     11  C   UNL     1     138.166 154.356 163.080  1.00  0.00     0.058 C 
BRANCH  11  12
ATOM     12  C   UNL     1     137.215 153.486 163.865  1.00  0.00    -0.024 C 
ATOM     13  C   UNL     1     137.149 152.138 163.797  1.00  0.00    -0.077 C 
ATOM     14  C   UNL     1     136.170 151.435 164.703  1.00  0.00     0.039 C 
BRANCH  13  15
ATOM     15  C   UNL     1     138.002 151.307 162.850  1.00  0.00     0.034 C 
BRANCH  15  16
ATOM     16  C   UNL     1     137.951 151.795 161.395  1.00  0.00     0.032 CG0
ATOM     17  G   UNL     1     139.334 151.892 160.797  1.00  0.00     0.000 G0
ENDBRANCH  15  16
ENDBRANCH  13  15
ENDBRANCH  11  12
ENDBRANCH   1  11
TORSDOF 0
ENDMDL
MODEL 3
REMARK VINA RESULT:     4.367      1.421      4.468
REMARK INTER + INTRA:           9.983
REMARK INTER:                   8.458
REMARK INTRA:                   1.526
REMARK UNBOUND:                 3.830
REMARK SMILES CC1=CCC(=C(C)C)CCC(C)=CCC1
REMARK SMILES IDX 5 1 6 2 7 3 8 4 9 5 10 6 11 7 12 8 13 9 4 11 3 12 2 13 1 14
REMARK SMILES IDX 15 15 14 16
REMARK H PARENT
REMARK Flexibility Score: 60.00
ROOT
ATOM      1  C   UNL     1     136.753 151.483 163.796  1.00  0.00    -0.067 C 
ATOM      2  C   UNL     1     137.124 150.875 164.970  1.00  0.00    -0.077 C 
ATOM      3  C   UNL     1     138.276 149.890 165.028  1.00  0.00     0.039 C 
ATOM      4  C   UNL     1     136.373 151.142 166.260  1.00  0.00     0.039 C 
ENDROOT
BRANCH   1   5
ATOM      5  C   UNL     1     137.552 151.240 162.512  1.00  0.00     0.035 C 
BRANCH   5   6
ATOM      6  C   UNL     1     138.805 152.138 162.408  1.00  0.00     0.035 C 
BRANCH   6   7
ATOM      7  C   UNL     1     138.679 153.196 161.325  1.00  0.00    -0.077 C 
ATOM      8  C   UNL     1     138.795 152.774 159.883  1.00  0.00     0.039 C 
ATOM      9  C   UNL     1     138.479 154.507 161.588  1.00  0.00    -0.028 CG0
ATOM     10  G   UNL     1     138.272 155.103 162.960  1.00  0.00     0.000 G0
ENDBRANCH   6   7
ENDBRANCH   5   6
ENDBRANCH   1   5
BRANCH   1  11
ATOM     11  C   UNL     1     135.502 152.372 163.780  1.00  0.00     0.058 C 
BRANCH  11  12
ATOM     12  C   UNL     1     135.315 153.192 162.527  1.00  0.00    -0.024 C 
ATOM     13  C   UNL     1     135.884 154.393 162.285  1.00  0.00    -0.077 C 
ATOM     14  C   UNL     1     135.625 155.038 160.947  1.00  0.00     0.039 C 
BRANCH  13  15
ATOM     15  C   UNL     1     136.758 155.122 163.296  1.00  0.00     0.034 C 
BRANCH  15  16
ATOM     16  C   UNL     1     138.249 155.117 162.930  1.00  0.00     0.032 CG0
ATOM     17  G   UNL     1     138.481 154.493 161.573  1.00  0.00     0.000 G0
ENDBRANCH  15  16
ENDBRANCH  13  15
ENDBRANCH  11  12
ENDBRANCH   1  11
TORSDOF 0
ENDMDL
MODEL 4
REMARK VINA RESULT:     4.457     20.266     22.141
REMARK INTER + INTRA:          10.111
REMARK INTER:                   6.669
REMARK INTRA:                   3.442
REMARK UNBOUND:                 3.830
REMARK SMILES CC1=CCC(=C(C)C)CCC(C)=CCC1
REMARK SMILES IDX 5 1 6 2 7 3 8 4 9 5 10 6 11 7 12 8 13 9 4 11 3 12 2 13 1 14
REMARK SMILES IDX 15 15 14 16
REMARK H PARENT
REMARK Flexibility Score: 60.00
ROOT
ATOM      1  C   UNL     1     152.973 136.028 162.071  1.00  0.00    -0.067 C 
ATOM      2  C   UNL     1     154.274 135.593 162.131  1.00  0.00    -0.077 C 
ATOM      3  C   UNL     1     154.929 134.875 160.967  1.00  0.00     0.039 C 
ATOM      4  C   UNL     1     155.105 135.786 163.384  1.00  0.00     0.039 C 
ENDROOT
BRANCH   1   5
ATOM      5  C   UNL     1     152.163 135.868 160.781  1.00  0.00     0.035 C 
BRANCH   5   6
ATOM      6  C   UNL     1     150.734 136.446 160.896  1.00  0.00     0.035 C 
BRANCH   6   7
ATOM      7  C   UNL     1     150.631 137.862 160.356  1.00  0.00    -0.077 C 
ATOM      8  C   UNL     1     149.392 138.260 159.595  1.00  0.00     0.039 C 
ATOM      9  C   UNL     1     151.604 138.789 160.512  1.00  0.00    -0.028 CG0
ATOM     10  G   UNL     1     152.879 138.596 161.299  1.00  0.00     0.000 G0
ENDBRANCH   6   7
ENDBRANCH   5   6
ENDBRANCH   1   5
BRANCH   1  11
ATOM     11  C   UNL     1     152.331 136.633 163.326  1.00  0.00     0.058 C 
BRANCH  11  12
ATOM     12  C   UNL     1     153.215 137.573 164.109  1.00  0.00    -0.024 C 
ATOM     13  C   UNL     1     153.469 138.861 163.787  1.00  0.00    -0.077 C 
ATOM     14  C   UNL     1     154.334 139.663 164.725  1.00  0.00     0.039 C 
BRANCH  13  15
ATOM     15  C   UNL     1     152.934 139.528 162.527  1.00  0.00     0.034 C 
BRANCH  15  16
ATOM     16  C   UNL     1     152.899 138.593 161.310  1.00  0.00     0.032 CG0
ATOM     17  G   UNL     1     151.625 138.767 160.516  1.00  0.00     0.000 G0
ENDBRANCH  15  16
ENDBRANCH  13  15
ENDBRANCH  11  12
ENDBRANCH   1  11
TORSDOF 0
ENDMDL
MODEL 5
REMARK VINA RESULT:     4.562     20.511     22.105
REMARK INTER + INTRA:          10.258
REMARK INTER:                   9.017
REMARK INTRA:                   1.241
REMARK UNBOUND:                 3.830
REMARK SMILES CC1=CCC(=C(C)C)CCC(C)=CCC1
REMARK SMILES IDX 5 1 6 2 7 3 8 4 9 5 10 6 11 7 12 8 13 9 4 11 3 12 2 13 1 14
REMARK SMILES IDX 15 15 14 16
REMARK H PARENT
REMARK Flexibility Score: 60.00
ROOT
ATOM      1  C   UNL     1     151.358 138.317 161.032  1.00  0.00    -0.067 C 
ATOM      2  C   UNL     1     150.245 138.958 160.548  1.00  0.00    -0.077 C 
ATOM      3  C   UNL     1     150.071 140.459 160.672  1.00  0.00     0.039 C 
ATOM      4  C   UNL     1     149.120 138.181 159.891  1.00  0.00     0.039 C 
ENDROOT
BRANCH   1   5
ATOM      5  C   UNL     1     152.506 139.121 161.649  1.00  0.00     0.035 C 
BRANCH   5   6
ATOM      6  C   UNL     1     153.687 138.232 162.098  1.00  0.00     0.035 C 
BRANCH   6   7
ATOM      7  C   UNL     1     153.704 137.994 163.598  1.00  0.00    -0.077 C 
ATOM      8  C   UNL     1     153.271 139.111 164.513  1.00  0.00     0.039 C 
ATOM      9  C   UNL     1     154.104 136.831 164.161  1.00  0.00    -0.028 CG0
ATOM     10  G   UNL     1     154.505 135.586 163.406  1.00  0.00     0.000 G0
ENDBRANCH   6   7
ENDBRANCH   5   6
ENDBRANCH   1   5
BRANCH   1  11
ATOM     11  C   UNL     1     151.415 136.784 160.988  1.00  0.00     0.058 C 
BRANCH  11  12
ATOM     12  C   UNL     1     152.683 136.206 160.408  1.00  0.00    -0.024 C 
ATOM     13  C   UNL     1     153.552 135.408 161.067  1.00  0.00    -0.077 C 
ATOM     14  C   UNL     1     154.739 134.878 160.303  1.00  0.00     0.039 C 
BRANCH  13  15
ATOM     15  C   UNL     1     153.394 135.032 162.534  1.00  0.00     0.034 C 
BRANCH  15  16
ATOM     16  C   UNL     1     154.522 135.569 163.427  1.00  0.00     0.032 CG0
ATOM     17  G   UNL     1     154.108 136.838 164.133  1.00  0.00     0.000 G0
ENDBRANCH  15  16
ENDBRANCH  13  15
ENDBRANCH  11  12
ENDBRANCH   1  11
TORSDOF 0
ENDMDL
MODEL 6
REMARK VINA RESULT:     5.253     19.810     21.572
REMARK INTER + INTRA:          11.232
REMARK INTER:                  10.044
REMARK INTRA:                   1.188
REMARK UNBOUND:                 3.830
REMARK SMILES CC1=CCC(=C(C)C)CCC(C)=CCC1
REMARK SMILES IDX 5 1 6 2 7 3 8 4 9 5 10 6 11 7 12 8 13 9 4 11 3 12 2 13 1 14
REMARK SMILES IDX 15 15 14 16
REMARK H PARENT
REMARK Flexibility Score: 60.00
ROOT
ATOM      1  C   UNL     1     152.477 136.763 161.011  1.00  0.00    -0.067 C 
ATOM      2  C   UNL     1     153.418 136.938 161.995  1.00  0.00    -0.077 C 
ATOM      3  C   UNL     1     153.086 137.633 163.301  1.00  0.00     0.039 C 
ATOM      4  C   UNL     1     154.846 136.467 161.803  1.00  0.00     0.039 C 
ENDROOT
BRANCH   1   5
ATOM      5  C   UNL     1     151.027 137.201 161.240  1.00  0.00     0.035 C 
BRANCH   5   6
ATOM      6  C   UNL     1     150.634 138.435 160.398  1.00  0.00     0.035 C 
BRANCH   6   7
ATOM      7  C   UNL     1     149.471 138.158 159.461  1.00  0.00    -0.077 C 
ATOM      8  C   UNL     1     148.219 138.987 159.596  1.00  0.00     0.039 C 
ATOM      9  C   UNL     1     149.493 137.192 158.515  1.00  0.00    -0.028 CG0
ATOM     10  G   UNL     1     150.677 136.313 158.190  1.00  0.00     0.000 G0
ENDBRANCH   6   7
ENDBRANCH   5   6
ENDBRANCH   1   5
BRANCH   1  11
ATOM     11  C   UNL     1     152.907 136.165 159.665  1.00  0.00     0.058 C 
BRANCH  11  12
ATOM     12  C   UNL     1     153.438 137.160 158.662  1.00  0.00    -0.024 C 
ATOM     13  C   UNL     1     152.822 137.518 157.513  1.00  0.00    -0.077 C 
ATOM     14  C   UNL     1     153.480 138.574 156.662  1.00  0.00     0.039 C 
BRANCH  13  15
ATOM     15  C   UNL     1     151.512 136.903 157.041  1.00  0.00     0.034 C 
BRANCH  15  16
ATOM     16  C   UNL     1     150.673 136.306 158.179  1.00  0.00     0.032 CG0
ATOM     17  G   UNL     1     149.484 137.179 158.504  1.00  0.00     0.000 G0
ENDBRANCH  15  16
ENDBRANCH  13  15
ENDBRANCH  11  12
ENDBRANCH   1  11
TORSDOF 0
ENDMDL
MODEL 7
REMARK VINA RESULT:     6.055     20.926     22.101
REMARK INTER + INTRA:          12.363
REMARK INTER:                  11.352
REMARK INTRA:                   1.011
REMARK UNBOUND:                 3.830
REMARK SMILES CC1=CCC(=C(C)C)CCC(C)=CCC1
REMARK SMILES IDX 5 1 6 2 7 3 8 4 9 5 10 6 11 7 12 8 13 9 4 11 3 12 2 13 1 14
REMARK SMILES IDX 15 15 14 16
REMARK H PARENT
REMARK Flexibility Score: 60.00
ROOT
ATOM      1  C   UNL     1     152.701 136.832 162.647  1.00  0.00    -0.067 C 
ATOM      2  C   UNL     1     153.887 136.324 163.117  1.00  0.00    -0.077 C 
ATOM      3  C   UNL     1     154.282 134.878 162.887  1.00  0.00     0.039 C 
ATOM      4  C   UNL     1     154.843 137.186 163.918  1.00  0.00     0.039 C 
ENDROOT
BRANCH   1   5
ATOM      5  C   UNL     1     151.769 135.962 161.798  1.00  0.00     0.035 C 
BRANCH   5   6
ATOM      6  C   UNL     1     150.820 136.794 160.906  1.00  0.00     0.035 C 
BRANCH   6   7
ATOM      7  C   UNL     1     151.203 136.742 159.437  1.00  0.00    -0.077 C 
ATOM      8  C   UNL     1     150.255 136.090 158.464  1.00  0.00     0.039 C 
ATOM      9  C   UNL     1     152.363 137.242 158.954  1.00  0.00    -0.028 CG0
ATOM     10  G   UNL     1     153.399 137.987 159.763  1.00  0.00     0.000 G0
ENDBRANCH   6   7
ENDBRANCH   5   6
ENDBRANCH   1   5
BRANCH   1  11
ATOM     11  C   UNL     1     152.304 138.266 163.020  1.00  0.00     0.058 C 
BRANCH  11  12
ATOM     12  C   UNL     1     153.340 139.319 162.714  1.00  0.00    -0.024 C 
ATOM     13  C   UNL     1     153.605 139.825 161.489  1.00  0.00    -0.077 C 
ATOM     14  C   UNL     1     154.640 140.917 161.387  1.00  0.00     0.039 C 
BRANCH  13  15
ATOM     15  C   UNL     1     152.919 139.341 160.219  1.00  0.00     0.034 C 
BRANCH  15  16
ATOM     16  C   UNL     1     153.416 137.968 159.743  1.00  0.00     0.032 CG0
ATOM     17  G   UNL     1     152.345 137.231 158.974  1.00  0.00     0.000 G0
ENDBRANCH  15  16
ENDBRANCH  13  15
ENDBRANCH  11  12
ENDBRANCH   1  11
TORSDOF 0
ENDMDL
