MODEL 1
REMARK VINA RESULT:    -5.600      0.000      0.000
REMARK INTER + INTRA:          -7.626
REMARK INTER:                  -7.237
REMARK INTRA:                  -0.389
REMARK UNBOUND:                -0.389
REMARK SMILES CCO[C@@H]1O[C@@H](CO)[C@@H](O)[C@@H](O)[C@@H]1O
REMARK SMILES IDX 4 1 13 2 11 3 9 4 6 5 5 6 3 7 2 8 1 9 14 10 12 12 7 14 8 15
REMARK SMILES IDX 10 17
REMARK H PARENT 14 11 12 13 8 16 10 18
REMARK Flexibility Score: inf
ROOT
ATOM      1  C   UNL     1      21.689  -5.140  16.117  1.00  0.00     0.281 C 
ATOM      2  C   UNL     1      21.130  -5.863  14.871  1.00  0.00     0.202 C 
ATOM      3  C   UNL     1      19.934  -5.094  14.286  1.00  0.00     0.179 C 
ATOM      4  C   UNL     1      18.918  -4.724  15.388  1.00  0.00     0.177 C 
ATOM      5  C   UNL     1      19.584  -4.223  16.704  1.00  0.00     0.178 C 
ATOM      6  O   UNL     1      20.691  -5.016  17.114  1.00  0.00    -0.341 OA
ENDROOT
BRANCH   1   7
ATOM      7  O   UNL     1      22.747  -5.912  16.664  1.00  0.00    -0.350 OA
BRANCH   7   8
ATOM      8  C   UNL     1      24.014  -5.337  16.404  1.00  0.00     0.160 C 
ATOM      9  C   UNL     1      23.999  -3.847  16.728  1.00  0.00     0.035 C 
ENDBRANCH   7   8
ENDBRANCH   1   7
BRANCH   2  10
ATOM     10  O   UNL     1      20.787  -7.198  15.157  1.00  0.00    -0.385 OA
ATOM     11  H   UNL     1      19.893  -7.206  15.588  1.00  0.00     0.211 HD
ENDBRANCH   2  10
BRANCH   3  12
ATOM     12  O   UNL     1      20.403  -3.948  13.623  1.00  0.00    -0.387 OA
ATOM     13  H   UNL     1      21.304  -3.746  13.988  1.00  0.00     0.211 HD
ENDBRANCH   3  12
BRANCH   5  14
ATOM     14  C   UNL     1      19.869  -2.705  16.801  1.00  0.00     0.191 C 
BRANCH  14  15
ATOM     15  O   UNL     1      20.500  -2.198  15.656  1.00  0.00    -0.394 OA
ATOM     16  H   UNL     1      20.346  -2.851  14.924  1.00  0.00     0.210 HD
ENDBRANCH  14  15
ENDBRANCH   5  14
BRANCH   4  17
ATOM     17  O   UNL     1      17.993  -3.787  14.898  1.00  0.00    -0.387 OA
ATOM     18  H   UNL     1      18.400  -3.378  14.090  1.00  0.00     0.211 HD
ENDBRANCH   4  17
TORSDOF 7
ENDMDL
MODEL 2
REMARK VINA RESULT:    -5.566      1.436      3.221
REMARK INTER + INTRA:          -7.582
REMARK INTER:                  -7.215
REMARK INTRA:                  -0.368
REMARK UNBOUND:                -0.389
REMARK SMILES CCO[C@@H]1O[C@@H](CO)[C@@H](O)[C@@H](O)[C@@H]1O
REMARK SMILES IDX 4 1 13 2 11 3 9 4 6 5 5 6 3 7 2 8 1 9 14 10 12 12 7 14 8 15
REMARK SMILES IDX 10 17
REMARK H PARENT 14 11 12 13 8 16 10 18
REMARK Flexibility Score: inf
ROOT
ATOM      1  C   UNL     1      21.765  -4.227  16.509  1.00  0.00     0.281 C 
ATOM      2  C   UNL     1      20.487  -3.360  16.446  1.00  0.00     0.202 C 
ATOM      3  C   UNL     1      19.242  -4.240  16.251  1.00  0.00     0.179 C 
ATOM      4  C   UNL     1      19.451  -5.253  15.104  1.00  0.00     0.177 C 
ATOM      5  C   UNL     1      20.864  -5.910  15.106  1.00  0.00     0.178 C 
ATOM      6  O   UNL     1      21.918  -4.981  15.320  1.00  0.00    -0.341 OA
ENDROOT
BRANCH   1   7
ATOM      7  O   UNL     1      22.895  -3.376  16.625  1.00  0.00    -0.350 OA
BRANCH   7   8
ATOM      8  C   UNL     1      24.112  -4.087  16.492  1.00  0.00     0.160 C 
ATOM      9  C   UNL     1      25.293  -3.194  16.860  1.00  0.00     0.035 C 
ENDBRANCH   7   8
ENDBRANCH   1   7
BRANCH   2  10
ATOM     10  O   UNL     1      20.578  -2.375  15.445  1.00  0.00    -0.385 OA
ATOM     11  H   UNL     1      20.771  -1.504  15.880  1.00  0.00     0.211 HD
ENDBRANCH   2  10
BRANCH   3  12
ATOM     12  O   UNL     1      18.945  -4.895  17.457  1.00  0.00    -0.387 OA
ATOM     13  H   UNL     1      18.221  -5.548  17.267  1.00  0.00     0.211 HD
ENDBRANCH   3  12
BRANCH   5  14
ATOM     14  C   UNL     1      21.025  -7.201  15.945  1.00  0.00     0.191 C 
BRANCH  14  15
ATOM     15  O   UNL     1      20.548  -8.341  15.281  1.00  0.00    -0.394 OA
ATOM     16  H   UNL     1      19.810  -8.046  14.686  1.00  0.00     0.210 HD
ENDBRANCH  14  15
ENDBRANCH   5  14
BRANCH   4  17
ATOM     17  O   UNL     1      18.438  -6.226  15.128  1.00  0.00    -0.387 OA
ATOM     18  H   UNL     1      17.574  -5.740  15.181  1.00  0.00     0.211 HD
ENDBRANCH   4  17
TORSDOF 7
ENDMDL
MODEL 3
REMARK VINA RESULT:    -5.476      1.442      1.900
REMARK INTER + INTRA:          -7.466
REMARK INTER:                  -7.153
REMARK INTRA:                  -0.313
REMARK UNBOUND:                -0.389
REMARK SMILES CCO[C@@H]1O[C@@H](CO)[C@@H](O)[C@@H](O)[C@@H]1O
REMARK SMILES IDX 4 1 13 2 11 3 9 4 6 5 5 6 3 7 2 8 1 9 14 10 12 12 7 14 8 15
REMARK SMILES IDX 10 17
REMARK H PARENT 14 11 12 13 8 16 10 18
REMARK Flexibility Score: inf
ROOT
ATOM      1  C   UNL     1      21.732  -4.584  16.449  1.00  0.00     0.281 C 
ATOM      2  C   UNL     1      21.926  -6.073  16.087  1.00  0.00     0.202 C 
ATOM      3  C   UNL     1      20.729  -6.598  15.279  1.00  0.00     0.179 C 
ATOM      4  C   UNL     1      19.393  -6.216  15.954  1.00  0.00     0.177 C 
ATOM      5  C   UNL     1      19.369  -4.759  16.503  1.00  0.00     0.178 C 
ATOM      6  O   UNL     1      20.551  -4.403  17.210  1.00  0.00    -0.341 OA
ENDROOT
BRANCH   1   7
ATOM      7  O   UNL     1      22.825  -4.155  17.247  1.00  0.00    -0.350 OA
BRANCH   7   8
ATOM      8  C   UNL     1      24.001  -3.968  16.481  1.00  0.00     0.160 C 
ATOM      9  C   UNL     1      24.757  -2.733  16.959  1.00  0.00     0.035 C 
ENDBRANCH   7   8
ENDBRANCH   1   7
BRANCH   2  10
ATOM     10  O   UNL     1      22.153  -6.859  17.233  1.00  0.00    -0.385 OA
ATOM     11  H   UNL     1      23.113  -7.112  17.253  1.00  0.00     0.211 HD
ENDBRANCH   2  10
BRANCH   3  12
ATOM     12  O   UNL     1      20.798  -6.094  13.970  1.00  0.00    -0.387 OA
ATOM     13  H   UNL     1      19.908  -6.235  13.554  1.00  0.00     0.211 HD
ENDBRANCH   3  12
BRANCH   5  14
ATOM     14  C   UNL     1      18.905  -3.656  15.522  1.00  0.00     0.191 C 
BRANCH  14  15
ATOM     15  O   UNL     1      17.589  -3.848  15.076  1.00  0.00    -0.394 OA
ATOM     16  H   UNL     1      17.641  -4.158  14.135  1.00  0.00     0.210 HD
ENDBRANCH  14  15
ENDBRANCH   5  14
BRANCH   4  17
ATOM     17  O   UNL     1      18.324  -6.444  15.071  1.00  0.00    -0.387 OA
ATOM     18  H   UNL     1      17.517  -6.595  15.630  1.00  0.00     0.211 HD
ENDBRANCH   4  17
TORSDOF 7
ENDMDL
MODEL 4
REMARK VINA RESULT:    -5.388      1.691      2.329
REMARK INTER + INTRA:          -7.351
REMARK INTER:                  -7.047
REMARK INTRA:                  -0.304
REMARK UNBOUND:                -0.389
REMARK SMILES CCO[C@@H]1O[C@@H](CO)[C@@H](O)[C@@H](O)[C@@H]1O
REMARK SMILES IDX 4 1 13 2 11 3 9 4 6 5 5 6 3 7 2 8 1 9 14 10 12 12 7 14 8 15
REMARK SMILES IDX 10 17
REMARK H PARENT 14 11 12 13 8 16 10 18
REMARK Flexibility Score: inf
ROOT
ATOM      1  C   UNL     1      22.028  -5.217  16.297  1.00  0.00     0.281 C 
ATOM      2  C   UNL     1      21.719  -4.630  14.902  1.00  0.00     0.202 C 
ATOM      3  C   UNL     1      20.243  -4.851  14.533  1.00  0.00     0.179 C 
ATOM      4  C   UNL     1      19.822  -6.317  14.779  1.00  0.00     0.177 C 
ATOM      5  C   UNL     1      20.378  -6.908  16.108  1.00  0.00     0.178 C 
ATOM      6  O   UNL     1      21.750  -6.606  16.329  1.00  0.00    -0.341 OA
ENDROOT
BRANCH   1   7
ATOM      7  O   UNL     1      23.410  -5.050  16.573  1.00  0.00    -0.350 OA
BRANCH   7   8
ATOM      8  C   UNL     1      23.735  -3.703  16.865  1.00  0.00     0.160 C 
ATOM      9  C   UNL     1      25.221  -3.452  16.631  1.00  0.00     0.035 C 
ENDBRANCH   7   8
ENDBRANCH   1   7
BRANCH   2  10
ATOM     10  O   UNL     1      22.575  -5.157  13.917  1.00  0.00    -0.385 OA
ATOM     11  H   UNL     1      23.505  -4.889  14.136  1.00  0.00     0.211 HD
ENDBRANCH   2  10
BRANCH   3  12
ATOM     12  O   UNL     1      19.444  -3.963  15.273  1.00  0.00    -0.387 OA
ATOM     13  H   UNL     1      20.053  -3.440  15.858  1.00  0.00     0.211 HD
ENDBRANCH   3  12
BRANCH   5  14
ATOM     14  C   UNL     1      19.510  -6.705  17.373  1.00  0.00     0.191 C 
BRANCH  14  15
ATOM     15  O   UNL     1      19.172  -5.361  17.588  1.00  0.00    -0.394 OA
ATOM     16  H   UNL     1      20.018  -4.872  17.769  1.00  0.00     0.210 HD
ENDBRANCH  14  15
ENDBRANCH   5  14
BRANCH   4  17
ATOM     17  O   UNL     1      18.423  -6.434  14.717  1.00  0.00    -0.387 OA
ATOM     18  H   UNL     1      18.165  -7.141  15.365  1.00  0.00     0.211 HD
ENDBRANCH   4  17
TORSDOF 7
ENDMDL
MODEL 5
REMARK VINA RESULT:    -5.360      2.383      4.298
REMARK INTER + INTRA:          -7.316
REMARK INTER:                  -6.833
REMARK INTRA:                  -0.483
REMARK UNBOUND:                -0.389
REMARK SMILES CCO[C@@H]1O[C@@H](CO)[C@@H](O)[C@@H](O)[C@@H]1O
REMARK SMILES IDX 4 1 13 2 11 3 9 4 6 5 5 6 3 7 2 8 1 9 14 10 12 12 7 14 8 15
REMARK SMILES IDX 10 17
REMARK H PARENT 14 11 12 13 8 16 10 18
REMARK Flexibility Score: inf
ROOT
ATOM      1  C   UNL     1      18.838  -6.930  16.110  1.00  0.00     0.281 C 
ATOM      2  C   UNL     1      20.331  -7.253  16.339  1.00  0.00     0.202 C 
ATOM      3  C   UNL     1      21.151  -5.961  16.490  1.00  0.00     0.179 C 
ATOM      4  C   UNL     1      20.823  -4.959  15.362  1.00  0.00     0.177 C 
ATOM      5  C   UNL     1      19.302  -4.870  15.034  1.00  0.00     0.178 C 
ATOM      6  O   UNL     1      18.669  -6.140  14.946  1.00  0.00    -0.341 OA
ENDROOT
BRANCH   1   7
ATOM      7  O   UNL     1      18.128  -8.142  15.912  1.00  0.00    -0.350 OA
BRANCH   7   8
ATOM      8  C   UNL     1      17.139  -8.021  14.905  1.00  0.00     0.160 C 
ATOM      9  C   UNL     1      16.307  -9.297  14.820  1.00  0.00     0.035 C 
ENDBRANCH   7   8
ENDBRANCH   1   7
BRANCH   2  10
ATOM     10  O   UNL     1      20.848  -8.068  15.314  1.00  0.00    -0.385 OA
ATOM     11  H   UNL     1      21.398  -7.501  14.712  1.00  0.00     0.211 HD
ENDBRANCH   2  10
BRANCH   3  12
ATOM     12  O   UNL     1      20.901  -5.402  17.754  1.00  0.00    -0.387 OA
ATOM     13  H   UNL     1      21.417  -4.554  17.807  1.00  0.00     0.211 HD
ENDBRANCH   3  12
BRANCH   5  14
ATOM     14  C   UNL     1      18.477  -3.845  15.848  1.00  0.00     0.191 C 
BRANCH  14  15
ATOM     15  O   UNL     1      19.039  -3.574  17.104  1.00  0.00    -0.394 OA
ATOM     16  H   UNL     1      18.642  -4.217  17.748  1.00  0.00     0.210 HD
ENDBRANCH  14  15
ENDBRANCH   5  14
BRANCH   4  17
ATOM     17  O   UNL     1      21.350  -3.694  15.671  1.00  0.00    -0.387 OA
ATOM     18  H   UNL     1      20.819  -3.339  16.432  1.00  0.00     0.211 HD
ENDBRANCH   4  17
TORSDOF 7
ENDMDL
MODEL 6
REMARK VINA RESULT:    -5.351      2.141      4.218
REMARK INTER + INTRA:          -7.304
REMARK INTER:                  -6.867
REMARK INTRA:                  -0.438
REMARK UNBOUND:                -0.389
REMARK SMILES CCO[C@@H]1O[C@@H](CO)[C@@H](O)[C@@H](O)[C@@H]1O
REMARK SMILES IDX 4 1 13 2 11 3 9 4 6 5 5 6 3 7 2 8 1 9 14 10 12 12 7 14 8 15
REMARK SMILES IDX 10 17
REMARK H PARENT 14 11 12 13 8 16 10 18
REMARK Flexibility Score: inf
ROOT
ATOM      1  C   UNL     1      19.199  -6.220  15.382  1.00  0.00     0.281 C 
ATOM      2  C   UNL     1      19.063  -4.875  14.633  1.00  0.00     0.202 C 
ATOM      3  C   UNL     1      20.346  -4.040  14.776  1.00  0.00     0.179 C 
ATOM      4  C   UNL     1      20.803  -3.971  16.250  1.00  0.00     0.177 C 
ATOM      5  C   UNL     1      20.683  -5.331  17.002  1.00  0.00     0.178 C 
ATOM      6  O   UNL     1      19.454  -6.003  16.758  1.00  0.00    -0.341 OA
ENDROOT
BRANCH   1   7
ATOM      7  O   UNL     1      17.975  -6.931  15.280  1.00  0.00    -0.350 OA
BRANCH   7   8
ATOM      8  C   UNL     1      18.100  -8.271  15.722  1.00  0.00     0.160 C 
ATOM      9  C   UNL     1      16.888  -9.090  15.288  1.00  0.00     0.035 C 
ENDBRANCH   7   8
ENDBRANCH   1   7
BRANCH   2  10
ATOM     10  O   UNL     1      17.934  -4.154  15.065  1.00  0.00    -0.385 OA
ATOM     11  H   UNL     1      17.194  -4.320  14.425  1.00  0.00     0.211 HD
ENDBRANCH   2  10
BRANCH   3  12
ATOM     12  O   UNL     1      21.348  -4.590  13.960  1.00  0.00    -0.387 OA
ATOM     13  H   UNL     1      21.930  -3.841  13.666  1.00  0.00     0.211 HD
ENDBRANCH   3  12
BRANCH   5  14
ATOM     14  C   UNL     1      21.907  -6.275  16.924  1.00  0.00     0.191 C 
BRANCH  14  15
ATOM     15  O   UNL     1      22.698  -6.042  15.789  1.00  0.00    -0.394 OA
ATOM     16  H   UNL     1      23.647  -6.103  16.077  1.00  0.00     0.210 HD
ENDBRANCH  14  15
ENDBRANCH   5  14
BRANCH   4  17
ATOM     17  O   UNL     1      22.110  -3.462  16.327  1.00  0.00    -0.387 OA
ATOM     18  H   UNL     1      22.604  -3.820  15.544  1.00  0.00     0.211 HD
ENDBRANCH   4  17
TORSDOF 7
ENDMDL
MODEL 7
REMARK VINA RESULT:    -4.839      2.191      4.130
REMARK INTER + INTRA:          -6.642
REMARK INTER:                  -6.470
REMARK INTRA:                  -0.172
REMARK UNBOUND:                -0.389
REMARK SMILES CCO[C@@H]1O[C@@H](CO)[C@@H](O)[C@@H](O)[C@@H]1O
REMARK SMILES IDX 4 1 13 2 11 3 9 4 6 5 5 6 3 7 2 8 1 9 14 10 12 12 7 14 8 15
REMARK SMILES IDX 10 17
REMARK H PARENT 14 11 12 13 8 16 10 18
REMARK Flexibility Score: inf
ROOT
ATOM      1  C   UNL     1      20.031  -6.934  15.682  1.00  0.00     0.281 C 
ATOM      2  C   UNL     1      19.230  -6.012  16.629  1.00  0.00     0.202 C 
ATOM      3  C   UNL     1      19.783  -4.578  16.591  1.00  0.00     0.179 C 
ATOM      4  C   UNL     1      21.319  -4.571  16.750  1.00  0.00     0.177 C 
ATOM      5  C   UNL     1      22.034  -5.692  15.938  1.00  0.00     0.178 C 
ATOM      6  O   UNL     1      21.399  -6.960  16.048  1.00  0.00    -0.341 OA
ENDROOT
BRANCH   1   7
ATOM      7  O   UNL     1      19.532  -8.257  15.794  1.00  0.00    -0.350 OA
BRANCH   7   8
ATOM      8  C   UNL     1      18.127  -8.312  15.627  1.00  0.00     0.160 C 
ATOM      9  C   UNL     1      17.668  -9.755  15.445  1.00  0.00     0.035 C 
ENDBRANCH   7   8
ENDBRANCH   1   7
BRANCH   2  10
ATOM     10  O   UNL     1      19.206  -6.515  17.943  1.00  0.00    -0.385 OA
ATOM     11  H   UNL     1      18.305  -6.893  18.117  1.00  0.00     0.211 HD
ENDBRANCH   2  10
BRANCH   3  12
ATOM     12  O   UNL     1      19.396  -3.966  15.387  1.00  0.00    -0.387 OA
ATOM     13  H   UNL     1      18.792  -3.213  15.623  1.00  0.00     0.211 HD
ENDBRANCH   3  12
BRANCH   5  14
ATOM     14  C   UNL     1      22.430  -5.347  14.482  1.00  0.00     0.191 C 
BRANCH  14  15
ATOM     15  O   UNL     1      21.447  -4.599  13.817  1.00  0.00    -0.394 OA
ATOM     16  H   UNL     1      21.756  -4.477  12.881  1.00  0.00     0.210 HD
ENDBRANCH  14  15
ENDBRANCH   5  14
BRANCH   4  17
ATOM     17  O   UNL     1      21.833  -3.304  16.427  1.00  0.00    -0.387 OA
ATOM     18  H   UNL     1      22.686  -3.204  16.925  1.00  0.00     0.211 HD
ENDBRANCH   4  17
TORSDOF 7
ENDMDL
MODEL 8
REMARK VINA RESULT:    -4.822      1.766      3.283
REMARK INTER + INTRA:          -6.621
REMARK INTER:                  -6.304
REMARK INTRA:                  -0.316
REMARK UNBOUND:                -0.389
REMARK SMILES CCO[C@@H]1O[C@@H](CO)[C@@H](O)[C@@H](O)[C@@H]1O
REMARK SMILES IDX 4 1 13 2 11 3 9 4 6 5 5 6 3 7 2 8 1 9 14 10 12 12 7 14 8 15
REMARK SMILES IDX 10 17
REMARK H PARENT 14 11 12 13 8 16 10 18
REMARK Flexibility Score: inf
ROOT
ATOM      1  C   UNL     1      20.459  -6.117  15.478  1.00  0.00     0.281 C 
ATOM      2  C   UNL     1      21.893  -5.544  15.515  1.00  0.00     0.202 C 
ATOM      3  C   UNL     1      21.886  -4.092  16.021  1.00  0.00     0.179 C 
ATOM      4  C   UNL     1      20.820  -3.251  15.284  1.00  0.00     0.177 C 
ATOM      5  C   UNL     1      19.469  -4.001  15.081  1.00  0.00     0.178 C 
ATOM      6  O   UNL     1      19.630  -5.340  14.632  1.00  0.00    -0.341 OA
ENDROOT
BRANCH   1   7
ATOM      7  O   UNL     1      20.501  -7.433  14.946  1.00  0.00    -0.350 OA
BRANCH   7   8
ATOM      8  C   UNL     1      19.738  -8.343  15.718  1.00  0.00     0.160 C 
ATOM      9  C   UNL     1      19.079  -7.625  16.891  1.00  0.00     0.035 C 
ENDBRANCH   7   8
ENDBRANCH   1   7
BRANCH   2  10
ATOM     10  O   UNL     1      22.522  -5.643  14.260  1.00  0.00    -0.385 OA
ATOM     11  H   UNL     1      22.596  -6.604  14.022  1.00  0.00     0.211 HD
ENDBRANCH   2  10
BRANCH   3  12
ATOM     12  O   UNL     1      21.665  -4.088  17.408  1.00  0.00    -0.387 OA
ATOM     13  H   UNL     1      22.236  -3.373  17.794  1.00  0.00     0.211 HD
ENDBRANCH   3  12
BRANCH   5  14
ATOM     14  C   UNL     1      18.429  -3.872  16.219  1.00  0.00     0.191 C 
BRANCH  14  15
ATOM     15  O   UNL     1      18.967  -4.166  17.481  1.00  0.00    -0.394 OA
ATOM     16  H   UNL     1      18.602  -5.047  17.757  1.00  0.00     0.210 HD
ENDBRANCH  14  15
ENDBRANCH   5  14
BRANCH   4  17
ATOM     17  O   UNL     1      20.627  -2.028  15.947  1.00  0.00    -0.387 OA
ATOM     18  H   UNL     1      20.477  -1.341  15.245  1.00  0.00     0.211 HD
ENDBRANCH   4  17
TORSDOF 7
ENDMDL
MODEL 9
REMARK VINA RESULT:    -4.814      2.225      5.112
REMARK INTER + INTRA:          -6.610
REMARK INTER:                  -6.175
REMARK INTRA:                  -0.434
REMARK UNBOUND:                -0.389
REMARK SMILES CCO[C@@H]1O[C@@H](CO)[C@@H](O)[C@@H](O)[C@@H]1O
REMARK SMILES IDX 4 1 13 2 11 3 9 4 6 5 5 6 3 7 2 8 1 9 14 10 12 12 7 14 8 15
REMARK SMILES IDX 10 17
REMARK H PARENT 14 11 12 13 8 16 10 18
REMARK Flexibility Score: inf
ROOT
ATOM      1  C   UNL     1      22.744  -4.215  16.799  1.00  0.00     0.281 C 
ATOM      2  C   UNL     1      23.222  -5.476  16.045  1.00  0.00     0.202 C 
ATOM      3  C   UNL     1      24.709  -5.747  16.325  1.00  0.00     0.179 C 
ATOM      4  C   UNL     1      25.552  -4.466  16.141  1.00  0.00     0.177 C 
ATOM      5  C   UNL     1      24.879  -3.190  16.730  1.00  0.00     0.178 C 
ATOM      6  O   UNL     1      23.498  -3.082  16.409  1.00  0.00    -0.341 OA
ENDROOT
BRANCH   1   7
ATOM      7  O   UNL     1      21.388  -3.963  16.464  1.00  0.00    -0.350 OA
BRANCH   7   8
ATOM      8  C   UNL     1      20.508  -4.890  17.074  1.00  0.00     0.160 C 
ATOM      9  C   UNL     1      19.102  -4.307  17.169  1.00  0.00     0.035 C 
ENDBRANCH   7   8
ENDBRANCH   1   7
BRANCH   2  10
ATOM     10  O   UNL     1      22.974  -5.378  14.662  1.00  0.00    -0.385 OA
ATOM     11  H   UNL     1      22.457  -4.547  14.496  1.00  0.00     0.211 HD
ENDBRANCH   2  10
BRANCH   3  12
ATOM     12  O   UNL     1      24.847  -6.263  17.625  1.00  0.00    -0.387 OA
ATOM     13  H   UNL     1      25.543  -5.721  18.083  1.00  0.00     0.211 HD
ENDBRANCH   3  12
BRANCH   5  14
ATOM     14  C   UNL     1      25.174  -2.875  18.216  1.00  0.00     0.191 C 
BRANCH  14  15
ATOM     15  O   UNL     1      25.532  -4.015  18.950  1.00  0.00    -0.394 OA
ATOM     16  H   UNL     1      25.063  -3.960  19.824  1.00  0.00     0.210 HD
ENDBRANCH  14  15
ENDBRANCH   5  14
BRANCH   4  17
ATOM     17  O   UNL     1      26.838  -4.654  16.675  1.00  0.00    -0.387 OA
ATOM     18  H   UNL     1      26.995  -3.911  17.315  1.00  0.00     0.211 HD
ENDBRANCH   4  17
TORSDOF 7
ENDMDL
