MODEL 1
REMARK VINA RESULT:    -4.031      0.000      0.000
REMARK INTER + INTRA:          -9.646
REMARK INTER:                  -6.858
REMARK INTRA:                  -2.788
REMARK UNBOUND:                -2.788
REMARK SMILES CC(=O)CCC[C@H](C)CCC[C@H](C)CCCC(C)C
REMARK SMILES IDX 10 1 11 2 12 3 13 4 14 5 15 6 16 7 17 8 18 9 19 10 9 11 7 12
REMARK SMILES IDX 8 13 6 14 5 15 4 16 2 17 3 18 1 19
REMARK H PARENT
REMARK Flexibility Score: inf
ROOT
ATOM      1  C   UNL     1     140.152 136.151 129.763  1.00  0.00     0.001 C 
ENDROOT
BRANCH   1   2
ATOM      2  C   UNL     1     139.862 136.596 128.315  1.00  0.00     0.003 C 
BRANCH   2   3
ATOM      3  C   UNL     1     140.306 138.044 127.985  1.00  0.00    -0.014 C 
ATOM      4  C   UNL     1     141.568 138.437 128.768  1.00  0.00     0.007 C 
BRANCH   3   5
ATOM      5  C   UNL     1     139.204 139.115 128.175  1.00  0.00     0.003 C 
BRANCH   5   6
ATOM      6  C   UNL     1     139.525 140.117 129.298  1.00  0.00     0.001 C 
BRANCH   6   7
ATOM      7  C   UNL     1     138.610 139.930 130.528  1.00  0.00     0.003 C 
BRANCH   7   8
ATOM      8  C   UNL     1     139.359 139.436 131.788  1.00  0.00    -0.017 C 
ATOM      9  C   UNL     1     138.488 139.515 133.050  1.00  0.00     0.007 C 
ATOM     10  C   UNL     1     140.643 140.253 131.990  1.00  0.00     0.007 C 
ENDBRANCH   7   8
ENDBRANCH   6   7
ENDBRANCH   5   6
ENDBRANCH   3   5
ENDBRANCH   2   3
ENDBRANCH   1   2
BRANCH   1  11
ATOM     11  C   UNL     1     138.894 135.656 130.503  1.00  0.00     0.003 C 
BRANCH  11  12
ATOM     12  C   UNL     1     137.551 136.154 129.909  1.00  0.00    -0.014 C 
ATOM     13  C   UNL     1     136.745 135.014 129.260  1.00  0.00     0.007 C 
BRANCH  12  14
ATOM     14  C   UNL     1     136.712 136.921 130.959  1.00  0.00     0.004 C 
BRANCH  14  15
ATOM     15  C   UNL     1     135.279 137.269 130.507  1.00  0.00     0.008 C 
BRANCH  15  16
ATOM     16  C   UNL     1     135.141 138.750 130.129  1.00  0.00     0.075 C 
BRANCH  16  17
ATOM     17  C   UNL     1     135.336 138.974 128.651  1.00  0.00     0.129 C 
ATOM     18  O   UNL     1     135.180 138.043 127.876  1.00  0.00    -0.300 OA
ATOM     19  C   UNL     1     135.727 140.318 128.111  1.00  0.00     0.087 C 
ENDBRANCH  16  17
ENDBRANCH  15  16
ENDBRANCH  14  15
ENDBRANCH  12  14
ENDBRANCH  11  12
ENDBRANCH   1  11
TORSDOF 12
ENDMDL
MODEL 2
REMARK VINA RESULT:    -3.953      1.379      2.317
REMARK INTER + INTRA:          -9.515
REMARK INTER:                  -7.072
REMARK INTRA:                  -2.442
REMARK UNBOUND:                -2.788
REMARK SMILES CC(=O)CCC[C@H](C)CCC[C@H](C)CCCC(C)C
REMARK SMILES IDX 10 1 11 2 12 3 13 4 14 5 15 6 16 7 17 8 18 9 19 10 9 11 7 12
REMARK SMILES IDX 8 13 6 14 5 15 4 16 2 17 3 18 1 19
REMARK H PARENT
REMARK Flexibility Score: inf
ROOT
ATOM      1  C   UNL     1     137.466 134.605 129.377  1.00  0.00     0.001 C 
ENDROOT
BRANCH   1   2
ATOM      2  C   UNL     1     137.959 135.418 128.162  1.00  0.00     0.003 C 
BRANCH   2   3
ATOM      3  C   UNL     1     139.489 135.672 128.135  1.00  0.00    -0.014 C 
ATOM      4  C   UNL     1     140.202 134.931 129.276  1.00  0.00     0.007 C 
BRANCH   3   5
ATOM      5  C   UNL     1     139.894 137.166 128.132  1.00  0.00     0.003 C 
BRANCH   5   6
ATOM      6  C   UNL     1     138.881 138.067 128.862  1.00  0.00     0.001 C 
BRANCH   6   7
ATOM      7  C   UNL     1     139.224 138.239 130.358  1.00  0.00     0.003 C 
BRANCH   7   8
ATOM      8  C   UNL     1     139.202 139.711 130.833  1.00  0.00    -0.017 C 
ATOM      9  C   UNL     1     140.077 140.617 129.956  1.00  0.00     0.007 C 
ATOM     10  C   UNL     1     139.662 139.799 132.295  1.00  0.00     0.007 C 
ENDBRANCH   7   8
ENDBRANCH   6   7
ENDBRANCH   5   6
ENDBRANCH   3   5
ENDBRANCH   2   3
ENDBRANCH   1   2
BRANCH   1  11
ATOM     11  C   UNL     1     136.029 134.967 129.799  1.00  0.00     0.003 C 
BRANCH  11  12
ATOM     12  C   UNL     1     135.927 135.856 131.065  1.00  0.00    -0.014 C 
ATOM     13  C   UNL     1     137.159 135.715 131.976  1.00  0.00     0.007 C 
BRANCH  12  14
ATOM     14  C   UNL     1     135.650 137.336 130.702  1.00  0.00     0.004 C 
BRANCH  14  15
ATOM     15  C   UNL     1     134.767 137.536 129.453  1.00  0.00     0.008 C 
BRANCH  15  16
ATOM     16  C   UNL     1     135.365 138.569 128.489  1.00  0.00     0.075 C 
BRANCH  16  17
ATOM     17  C   UNL     1     135.295 139.967 129.050  1.00  0.00     0.129 C 
ATOM     18  O   UNL     1     134.320 140.304 129.705  1.00  0.00    -0.300 OA
ATOM     19  C   UNL     1     136.395 140.959 128.812  1.00  0.00     0.087 C 
ENDBRANCH  16  17
ENDBRANCH  15  16
ENDBRANCH  14  15
ENDBRANCH  12  14
ENDBRANCH  11  12
ENDBRANCH   1  11
TORSDOF 12
ENDMDL
MODEL 3
REMARK VINA RESULT:    -3.950      1.953      5.370
REMARK INTER + INTRA:          -9.509
REMARK INTER:                  -7.085
REMARK INTRA:                  -2.424
REMARK UNBOUND:                -2.788
REMARK SMILES CC(=O)CCC[C@H](C)CCC[C@H](C)CCCC(C)C
REMARK SMILES IDX 10 1 11 2 12 3 13 4 14 5 15 6 16 7 17 8 18 9 19 10 9 11 7 12
REMARK SMILES IDX 8 13 6 14 5 15 4 16 2 17 3 18 1 19
REMARK H PARENT
REMARK Flexibility Score: inf
ROOT
ATOM      1  C   UNL     1     137.846 140.247 129.862  1.00  0.00     0.001 C 
ENDROOT
BRANCH   1   2
ATOM      2  C   UNL     1     136.883 141.049 128.962  1.00  0.00     0.003 C 
BRANCH   2   3
ATOM      3  C   UNL     1     135.566 140.311 128.609  1.00  0.00    -0.014 C 
ATOM      4  C   UNL     1     134.648 140.182 129.834  1.00  0.00     0.007 C 
BRANCH   3   5
ATOM      5  C   UNL     1     135.762 138.928 127.941  1.00  0.00     0.003 C 
BRANCH   5   6
ATOM      6  C   UNL     1     134.869 137.832 128.549  1.00  0.00     0.001 C 
BRANCH   6   7
ATOM      7  C   UNL     1     135.693 136.713 129.223  1.00  0.00     0.003 C 
BRANCH   7   8
ATOM      8  C   UNL     1     135.500 136.638 130.755  1.00  0.00    -0.017 C 
ATOM      9  C   UNL     1     136.682 137.250 131.520  1.00  0.00     0.007 C 
ATOM     10  C   UNL     1     135.298 135.180 131.190  1.00  0.00     0.007 C 
ENDBRANCH   7   8
ENDBRANCH   6   7
ENDBRANCH   5   6
ENDBRANCH   3   5
ENDBRANCH   2   3
ENDBRANCH   1   2
BRANCH   1  11
ATOM     11  C   UNL     1     139.310 140.317 129.387  1.00  0.00     0.003 C 
BRANCH  11  12
ATOM     12  C   UNL     1     139.714 139.231 128.356  1.00  0.00    -0.014 C 
ATOM     13  C   UNL     1     141.232 139.202 128.108  1.00  0.00     0.007 C 
BRANCH  12  14
ATOM     14  C   UNL     1     139.172 137.837 128.754  1.00  0.00     0.004 C 
BRANCH  14  15
ATOM     15  C   UNL     1     140.238 136.869 129.308  1.00  0.00     0.008 C 
BRANCH  15  16
ATOM     16  C   UNL     1     139.987 135.424 128.856  1.00  0.00     0.075 C 
BRANCH  16  17
ATOM     17  C   UNL     1     139.065 134.692 129.799  1.00  0.00     0.129 C 
ATOM     18  O   UNL     1     138.093 134.102 129.353  1.00  0.00    -0.300 OA
ATOM     19  C   UNL     1     139.312 134.681 131.279  1.00  0.00     0.087 C 
ENDBRANCH  16  17
ENDBRANCH  15  16
ENDBRANCH  14  15
ENDBRANCH  12  14
ENDBRANCH  11  12
ENDBRANCH   1  11
TORSDOF 12
ENDMDL
MODEL 4
REMARK VINA RESULT:    -3.933      1.379      4.496
REMARK INTER + INTRA:          -9.481
REMARK INTER:                  -6.797
REMARK INTRA:                  -2.684
REMARK UNBOUND:                -2.788
REMARK SMILES CC(=O)CCC[C@H](C)CCC[C@H](C)CCCC(C)C
REMARK SMILES IDX 10 1 11 2 12 3 13 4 14 5 15 6 16 7 17 8 18 9 19 10 9 11 7 12
REMARK SMILES IDX 8 13 6 14 5 15 4 16 2 17 3 18 1 19
REMARK H PARENT
REMARK Flexibility Score: inf
ROOT
ATOM      1  C   UNL     1     140.302 139.711 131.344  1.00  0.00     0.001 C 
ENDROOT
BRANCH   1   2
ATOM      2  C   UNL     1     138.959 139.487 132.069  1.00  0.00     0.003 C 
BRANCH   2   3
ATOM      3  C   UNL     1     138.556 137.999 132.233  1.00  0.00    -0.014 C 
ATOM      4  C   UNL     1     139.774 137.118 132.548  1.00  0.00     0.007 C 
BRANCH   3   5
ATOM      5  C   UNL     1     137.765 137.411 131.039  1.00  0.00     0.003 C 
BRANCH   5   6
ATOM      6  C   UNL     1     138.238 136.002 130.638  1.00  0.00     0.001 C 
BRANCH   6   7
ATOM      7  C   UNL     1     138.260 135.806 129.106  1.00  0.00     0.003 C 
BRANCH   7   8
ATOM      8  C   UNL     1     139.555 135.141 128.585  1.00  0.00    -0.017 C 
ATOM      9  C   UNL     1     139.278 133.808 127.875  1.00  0.00     0.007 C 
ATOM     10  C   UNL     1     140.535 134.918 129.746  1.00  0.00     0.007 C 
ENDBRANCH   7   8
ENDBRANCH   6   7
ENDBRANCH   5   6
ENDBRANCH   3   5
ENDBRANCH   2   3
ENDBRANCH   1   2
BRANCH   1  11
ATOM     11  C   UNL     1     140.146 140.470 130.012  1.00  0.00     0.003 C 
BRANCH  11  12
ATOM     12  C   UNL     1     140.377 139.611 128.741  1.00  0.00    -0.014 C 
ATOM     13  C   UNL     1     141.267 138.387 129.022  1.00  0.00     0.007 C 
BRANCH  12  14
ATOM     14  C   UNL     1     139.039 139.205 128.076  1.00  0.00     0.004 C 
BRANCH  14  15
ATOM     15  C   UNL     1     137.859 140.150 128.380  1.00  0.00     0.008 C 
BRANCH  15  16
ATOM     16  C   UNL     1     136.526 139.581 127.875  1.00  0.00     0.075 C 
BRANCH  16  17
ATOM     17  C   UNL     1     135.573 139.293 129.007  1.00  0.00     0.129 C 
ATOM     18  O   UNL     1     134.887 138.283 128.974  1.00  0.00    -0.300 OA
ATOM     19  C   UNL     1     135.444 140.227 130.175  1.00  0.00     0.087 C 
ENDBRANCH  16  17
ENDBRANCH  15  16
ENDBRANCH  14  15
ENDBRANCH  12  14
ENDBRANCH  11  12
ENDBRANCH   1  11
TORSDOF 12
ENDMDL
MODEL 5
REMARK VINA RESULT:    -3.924      2.134      5.499
REMARK INTER + INTRA:          -9.464
REMARK INTER:                  -6.944
REMARK INTRA:                  -2.520
REMARK UNBOUND:                -2.788
REMARK SMILES CC(=O)CCC[C@H](C)CCC[C@H](C)CCCC(C)C
REMARK SMILES IDX 10 1 11 2 12 3 13 4 14 5 15 6 16 7 17 8 18 9 19 10 9 11 7 12
REMARK SMILES IDX 8 13 6 14 5 15 4 16 2 17 3 18 1 19
REMARK H PARENT
REMARK Flexibility Score: inf
ROOT
ATOM      1  C   UNL     1     137.738 140.739 129.373  1.00  0.00     0.001 C 
ENDROOT
BRANCH   1   2
ATOM      2  C   UNL     1     137.151 139.980 128.165  1.00  0.00     0.003 C 
BRANCH   2   3
ATOM      3  C   UNL     1     135.839 139.209 128.464  1.00  0.00    -0.014 C 
ATOM      4  C   UNL     1     134.967 139.958 129.482  1.00  0.00     0.007 C 
BRANCH   3   5
ATOM      5  C   UNL     1     136.043 137.741 128.911  1.00  0.00     0.003 C 
BRANCH   5   6
ATOM      6  C   UNL     1     135.367 137.421 130.257  1.00  0.00     0.001 C 
BRANCH   6   7
ATOM      7  C   UNL     1     136.165 136.388 131.082  1.00  0.00     0.003 C 
BRANCH   7   8
ATOM      8  C   UNL     1     135.429 135.040 131.264  1.00  0.00    -0.017 C 
ATOM      9  C   UNL     1     134.922 134.470 129.932  1.00  0.00     0.007 C 
ATOM     10  C   UNL     1     134.255 135.210 132.238  1.00  0.00     0.007 C 
ENDBRANCH   7   8
ENDBRANCH   6   7
ENDBRANCH   5   6
ENDBRANCH   3   5
ENDBRANCH   2   3
ENDBRANCH   1   2
BRANCH   1  11
ATOM     11  C   UNL     1     139.154 140.263 129.752  1.00  0.00     0.003 C 
BRANCH  11  12
ATOM     12  C   UNL     1     139.219 139.326 130.986  1.00  0.00    -0.014 C 
ATOM     13  C   UNL     1     137.991 139.485 131.900  1.00  0.00     0.007 C 
BRANCH  12  14
ATOM     14  C   UNL     1     139.437 137.851 130.571  1.00  0.00     0.004 C 
BRANCH  14  15
ATOM     15  C   UNL     1     140.220 137.663 129.256  1.00  0.00     0.008 C 
BRANCH  15  16
ATOM     16  C   UNL     1     139.685 136.482 128.435  1.00  0.00     0.075 C 
BRANCH  16  17
ATOM     17  C   UNL     1     139.799 135.179 129.184  1.00  0.00     0.129 C 
ATOM     18  O   UNL     1     140.856 134.884 129.721  1.00  0.00    -0.300 OA
ATOM     19  C   UNL     1     138.642 134.228 129.277  1.00  0.00     0.087 C 
ENDBRANCH  16  17
ENDBRANCH  15  16
ENDBRANCH  14  15
ENDBRANCH  12  14
ENDBRANCH  11  12
ENDBRANCH   1  11
TORSDOF 12
ENDMDL
MODEL 6
REMARK VINA RESULT:    -3.920      1.535      4.368
REMARK INTER + INTRA:          -9.458
REMARK INTER:                  -7.036
REMARK INTRA:                  -2.423
REMARK UNBOUND:                -2.788
REMARK SMILES CC(=O)CCC[C@H](C)CCC[C@H](C)CCCC(C)C
REMARK SMILES IDX 10 1 11 2 12 3 13 4 14 5 15 6 16 7 17 8 18 9 19 10 9 11 7 12
REMARK SMILES IDX 8 13 6 14 5 15 4 16 2 17 3 18 1 19
REMARK H PARENT
REMARK Flexibility Score: inf
ROOT
ATOM      1  C   UNL     1     139.918 137.183 127.875  1.00  0.00     0.001 C 
ENDROOT
BRANCH   1   2
ATOM      2  C   UNL     1     140.139 136.600 129.286  1.00  0.00     0.003 C 
BRANCH   2   3
ATOM      3  C   UNL     1     139.949 135.064 129.386  1.00  0.00    -0.014 C 
ATOM      4  C   UNL     1     139.615 134.449 128.018  1.00  0.00     0.007 C 
BRANCH   3   5
ATOM      5  C   UNL     1     138.914 134.610 130.443  1.00  0.00     0.003 C 
BRANCH   5   6
ATOM      6  C   UNL     1     138.260 135.786 131.191  1.00  0.00     0.001 C 
BRANCH   6   7
ATOM      7  C   UNL     1     136.788 135.999 130.775  1.00  0.00     0.003 C 
BRANCH   7   8
ATOM      8  C   UNL     1     136.371 135.178 129.532  1.00  0.00    -0.017 C 
ATOM      9  C   UNL     1     136.392 136.018 128.247  1.00  0.00     0.007 C 
ATOM     10  C   UNL     1     134.973 134.581 129.741  1.00  0.00     0.007 C 
ENDBRANCH   7   8
ENDBRANCH   6   7
ENDBRANCH   5   6
ENDBRANCH   3   5
ENDBRANCH   2   3
ENDBRANCH   1   2
BRANCH   1  11
ATOM     11  C   UNL     1     139.657 138.701 127.887  1.00  0.00     0.003 C 
BRANCH  11  12
ATOM     12  C   UNL     1     138.540 139.163 128.859  1.00  0.00    -0.014 C 
ATOM     13  C   UNL     1     139.049 140.195 129.880  1.00  0.00     0.007 C 
BRANCH  12  14
ATOM     14  C   UNL     1     137.297 139.679 128.095  1.00  0.00     0.004 C 
BRANCH  14  15
ATOM     15  C   UNL     1     136.600 140.891 128.747  1.00  0.00     0.008 C 
BRANCH  15  16
ATOM     16  C   UNL     1     135.140 140.586 129.108  1.00  0.00     0.075 C 
BRANCH  16  17
ATOM     17  C   UNL     1     135.022 139.368 129.989  1.00  0.00     0.129 C 
ATOM     18  O   UNL     1     134.489 138.359 129.553  1.00  0.00    -0.300 OA
ATOM     19  C   UNL     1     135.540 139.371 131.397  1.00  0.00     0.087 C 
ENDBRANCH  16  17
ENDBRANCH  15  16
ENDBRANCH  14  15
ENDBRANCH  12  14
ENDBRANCH  11  12
ENDBRANCH   1  11
TORSDOF 12
ENDMDL
MODEL 7
REMARK VINA RESULT:    -3.908      1.982      4.373
REMARK INTER + INTRA:          -9.437
REMARK INTER:                  -7.297
REMARK INTRA:                  -2.141
REMARK UNBOUND:                -2.788
REMARK SMILES CC(=O)CCC[C@H](C)CCC[C@H](C)CCCC(C)C
REMARK SMILES IDX 10 1 11 2 12 3 13 4 14 5 15 6 16 7 17 8 18 9 19 10 9 11 7 12
REMARK SMILES IDX 8 13 6 14 5 15 4 16 2 17 3 18 1 19
REMARK H PARENT
REMARK Flexibility Score: inf
ROOT
ATOM      1  C   UNL     1     137.425 135.946 130.693  1.00  0.00     0.001 C 
ENDROOT
BRANCH   1   2
ATOM      2  C   UNL     1     136.184 135.146 130.246  1.00  0.00     0.003 C 
BRANCH   2   3
ATOM      3  C   UNL     1     135.313 135.854 129.176  1.00  0.00    -0.014 C 
ATOM      4  C   UNL     1     136.097 136.083 127.875  1.00  0.00     0.007 C 
BRANCH   3   5
ATOM      5  C   UNL     1     134.662 137.177 129.648  1.00  0.00     0.003 C 
BRANCH   5   6
ATOM      6  C   UNL     1     135.190 138.411 128.896  1.00  0.00     0.001 C 
BRANCH   6   7
ATOM      7  C   UNL     1     134.975 139.718 129.691  1.00  0.00     0.003 C 
BRANCH   7   8
ATOM      8  C   UNL     1     135.358 139.604 131.185  1.00  0.00    -0.017 C 
ATOM      9  C   UNL     1     134.728 140.718 132.033  1.00  0.00     0.007 C 
ATOM     10  C   UNL     1     136.885 139.632 131.339  1.00  0.00     0.007 C 
ENDBRANCH   7   8
ENDBRANCH   6   7
ENDBRANCH   5   6
ENDBRANCH   3   5
ENDBRANCH   2   3
ENDBRANCH   1   2
BRANCH   1  11
ATOM     11  C   UNL     1     138.646 135.049 130.980  1.00  0.00     0.003 C 
BRANCH  11  12
ATOM     12  C   UNL     1     139.752 135.087 129.894  1.00  0.00    -0.014 C 
ATOM     13  C   UNL     1     139.312 134.394 128.592  1.00  0.00     0.007 C 
BRANCH  12  14
ATOM     14  C   UNL     1     140.247 136.530 129.634  1.00  0.00     0.004 C 
BRANCH  14  15
ATOM     15  C   UNL     1     139.775 137.140 128.298  1.00  0.00     0.008 C 
BRANCH  15  16
ATOM     16  C   UNL     1     139.170 138.537 128.490  1.00  0.00     0.075 C 
BRANCH  16  17
ATOM     17  C   UNL     1     140.230 139.581 128.730  1.00  0.00     0.129 C 
ATOM     18  O   UNL     1     141.222 139.607 128.018  1.00  0.00    -0.300 OA
ATOM     19  C   UNL     1     140.097 140.588 129.835  1.00  0.00     0.087 C 
ENDBRANCH  16  17
ENDBRANCH  15  16
ENDBRANCH  14  15
ENDBRANCH  12  14
ENDBRANCH  11  12
ENDBRANCH   1  11
TORSDOF 12
ENDMDL
MODEL 8
REMARK VINA RESULT:    -3.884      1.681      4.211
REMARK INTER + INTRA:          -9.396
REMARK INTER:                  -6.668
REMARK INTRA:                  -2.728
REMARK UNBOUND:                -2.788
REMARK SMILES CC(=O)CCC[C@H](C)CCC[C@H](C)CCCC(C)C
REMARK SMILES IDX 10 1 11 2 12 3 13 4 14 5 15 6 16 7 17 8 18 9 19 10 9 11 7 12
REMARK SMILES IDX 8 13 6 14 5 15 4 16 2 17 3 18 1 19
REMARK H PARENT
REMARK Flexibility Score: inf
ROOT
ATOM      1  C   UNL     1     134.749 139.973 130.034  1.00  0.00     0.001 C 
ENDROOT
BRANCH   1   2
ATOM      2  C   UNL     1     135.390 140.321 128.675  1.00  0.00     0.003 C 
BRANCH   2   3
ATOM      3  C   UNL     1     135.990 139.109 127.916  1.00  0.00    -0.014 C 
ATOM      4  C   UNL     1     135.061 137.888 127.985  1.00  0.00     0.007 C 
BRANCH   3   5
ATOM      5  C   UNL     1     137.421 138.718 128.357  1.00  0.00     0.003 C 
BRANCH   5   6
ATOM      6  C   UNL     1     138.410 139.897 128.312  1.00  0.00     0.001 C 
BRANCH   6   7
ATOM      7  C   UNL     1     139.032 140.191 129.695  1.00  0.00     0.003 C 
BRANCH   7   8
ATOM      8  C   UNL     1     139.621 138.941 130.388  1.00  0.00    -0.017 C 
ATOM      9  C   UNL     1     139.949 139.196 131.866  1.00  0.00     0.007 C 
ATOM     10  C   UNL     1     140.883 138.476 129.648  1.00  0.00     0.007 C 
ENDBRANCH   7   8
ENDBRANCH   6   7
ENDBRANCH   5   6
ENDBRANCH   3   5
ENDBRANCH   2   3
ENDBRANCH   1   2
BRANCH   1  11
ATOM     11  C   UNL     1     135.660 140.306 131.231  1.00  0.00     0.003 C 
BRANCH  11  12
ATOM     12  C   UNL     1     136.234 139.073 131.976  1.00  0.00    -0.014 C 
ATOM     13  C   UNL     1     136.214 139.257 133.504  1.00  0.00     0.007 C 
BRANCH  12  14
ATOM     14  C   UNL     1     135.523 137.767 131.548  1.00  0.00     0.004 C 
BRANCH  14  15
ATOM     15  C   UNL     1     136.290 136.475 131.899  1.00  0.00     0.008 C 
BRANCH  15  16
ATOM     16  C   UNL     1     137.269 136.071 130.788  1.00  0.00     0.075 C 
BRANCH  16  17
ATOM     17  C   UNL     1     136.676 135.035 129.866  1.00  0.00     0.129 C 
ATOM     18  O   UNL     1     137.390 134.484 129.042  1.00  0.00    -0.300 OA
ATOM     19  C   UNL     1     135.222 134.671 129.934  1.00  0.00     0.087 C 
ENDBRANCH  16  17
ENDBRANCH  15  16
ENDBRANCH  14  15
ENDBRANCH  12  14
ENDBRANCH  11  12
ENDBRANCH   1  11
TORSDOF 12
ENDMDL
MODEL 9
REMARK VINA RESULT:    -3.843      2.210      5.310
REMARK INTER + INTRA:          -9.328
REMARK INTER:                  -6.646
REMARK INTRA:                  -2.681
REMARK UNBOUND:                -2.788
REMARK SMILES CC(=O)CCC[C@H](C)CCC[C@H](C)CCCC(C)C
REMARK SMILES IDX 10 1 11 2 12 3 13 4 14 5 15 6 16 7 17 8 18 9 19 10 9 11 7 12
REMARK SMILES IDX 8 13 6 14 5 15 4 16 2 17 3 18 1 19
REMARK H PARENT
REMARK Flexibility Score: inf
ROOT
ATOM      1  C   UNL     1     135.041 137.865 129.718  1.00  0.00     0.001 C 
ENDROOT
BRANCH   1   2
ATOM      2  C   UNL     1     135.003 137.320 128.275  1.00  0.00     0.003 C 
BRANCH   2   3
ATOM      3  C   UNL     1     135.383 135.823 128.142  1.00  0.00    -0.014 C 
ATOM      4  C   UNL     1     134.873 135.005 129.338  1.00  0.00     0.007 C 
BRANCH   3   5
ATOM      5  C   UNL     1     136.892 135.558 127.918  1.00  0.00     0.003 C 
BRANCH   5   6
ATOM      6  C   UNL     1     137.531 134.721 129.041  1.00  0.00     0.001 C 
BRANCH   6   7
ATOM      7  C   UNL     1     138.966 135.185 129.372  1.00  0.00     0.003 C 
BRANCH   7   8
ATOM      8  C   UNL     1     139.127 135.717 130.816  1.00  0.00    -0.017 C 
ATOM      9  C   UNL     1     140.193 134.943 131.604  1.00  0.00     0.007 C 
ATOM     10  C   UNL     1     137.782 135.649 131.553  1.00  0.00     0.007 C 
ENDBRANCH   7   8
ENDBRANCH   6   7
ENDBRANCH   5   6
ENDBRANCH   3   5
ENDBRANCH   2   3
ENDBRANCH   1   2
BRANCH   1  11
ATOM     11  C   UNL     1     136.354 138.602 130.047  1.00  0.00     0.003 C 
BRANCH  11  12
ATOM     12  C   UNL     1     137.056 139.257 128.829  1.00  0.00    -0.014 C 
ATOM     13  C   UNL     1     136.878 140.786 128.809  1.00  0.00     0.007 C 
BRANCH  12  14
ATOM     14  C   UNL     1     138.549 138.854 128.747  1.00  0.00     0.004 C 
BRANCH  14  15
ATOM     15  C   UNL     1     139.526 139.882 129.355  1.00  0.00     0.008 C 
BRANCH  15  16
ATOM     16  C   UNL     1     140.412 139.256 130.440  1.00  0.00     0.075 C 
BRANCH  16  17
ATOM     17  C   UNL     1     140.158 139.866 131.795  1.00  0.00     0.129 C 
ATOM     18  O   UNL     1     140.946 140.685 132.244  1.00  0.00    -0.300 OA
ATOM     19  C   UNL     1     138.958 139.483 132.611  1.00  0.00     0.087 C 
ENDBRANCH  16  17
ENDBRANCH  15  16
ENDBRANCH  14  15
ENDBRANCH  12  14
ENDBRANCH  11  12
ENDBRANCH   1  11
TORSDOF 12
ENDMDL
