MODEL 1
REMARK VINA RESULT:    -7.699      0.000      0.000
REMARK INTER + INTRA:         -12.115
REMARK INTER:                 -10.849
REMARK INTRA:                  -1.266
REMARK UNBOUND:                -1.266
REMARK SMILES COc1c(O[C@H]2O[C@H](C(=O)[O-])[C@H](O)[C@@H](O)[C@@H]2O)cc(O)c2c(=O)cc(-c3ccccc3)oc12
REMARK SMILES IDX 5 1 6 2 8 3 12 4 7 5 14 6 16 7 9 8 10 9 11 10 13 11 15 13
REMARK SMILES IDX 17 15 4 17 3 18 18 19 33 20 19 21 21 22 32 23 22 24 25 25
REMARK SMILES IDX 24 26 23 27 2 28 1 29 20 30 26 32 27 33 31 34 28 35 30 36
REMARK SMILES IDX 29 37
REMARK H PARENT 13 12 15 14 17 16 20 31
REMARK Flexibility Score: inf
ROOT
ATOM      1  O   UNL     1       7.179  52.844  19.805  1.00  0.00    -0.458 OA
ENDROOT
BRANCH   1   2
ATOM      2  C   UNL     1       6.023  52.093  19.421  1.00  0.00     0.339 C 
ATOM      3  C   UNL     1       4.730  54.016  19.063  1.00  0.00     0.199 C 
ATOM      4  C   UNL     1       4.636  53.798  17.539  1.00  0.00     0.180 C 
ATOM      5  O   UNL     1       4.821  52.778  19.748  1.00  0.00    -0.328 OA
ATOM      6  C   UNL     1       5.858  52.998  17.045  1.00  0.00     0.181 C 
ATOM      7  C   UNL     1       6.091  51.746  17.919  1.00  0.00     0.214 C 
BRANCH   3   8
ATOM      8  C   UNL     1       3.529  54.769  19.556  1.00  0.00     0.073 C 
ATOM      9  O   UNL     1       2.875  55.500  18.770  1.00  0.00    -0.547 OA
ATOM     10  O   UNL     1       3.113  54.640  20.874  1.00  0.00    -0.547 OA
ENDBRANCH   3   8
BRANCH   4  11
ATOM     11  O   UNL     1       3.458  53.100  17.221  1.00  0.00    -0.387 OA
ATOM     12  H   UNL     1       2.710  53.596  17.634  1.00  0.00     0.211 HD
ENDBRANCH   4  11
BRANCH   6  13
ATOM     13  O   UNL     1       7.005  53.808  17.081  1.00  0.00    -0.387 OA
ATOM     14  H   UNL     1       7.788  53.209  16.957  1.00  0.00     0.211 HD
ENDBRANCH   6  13
BRANCH   7  15
ATOM     15  O   UNL     1       5.120  50.770  17.632  1.00  0.00    -0.384 OA
ATOM     16  H   UNL     1       5.407  49.932  18.080  1.00  0.00     0.211 HD
ENDBRANCH   7  15
ENDBRANCH   1   2
BRANCH   1  17
ATOM     17  C   UNL     1       8.073  52.504  20.833  1.00  0.00     0.172 A 
ATOM     18  C   UNL     1       9.419  52.245  20.520  1.00  0.00     0.205 A 
ATOM     19  C   UNL     1       7.662  52.464  22.175  1.00  0.00     0.097 A 
ATOM     20  C   UNL     1      10.356  52.077  21.547  1.00  0.00     0.188 A 
ATOM     21  C   UNL     1       8.570  52.229  23.211  1.00  0.00     0.134 A 
ATOM     22  C   UNL     1       9.956  52.092  22.910  1.00  0.00     0.111 A 
ATOM     23  O   UNL     1      11.635  51.908  21.216  1.00  0.00    -0.452 OA
ATOM     24  C   UNL     1      10.985  51.995  23.878  1.00  0.00     0.197 A 
ATOM     25  C   UNL     1      12.610  51.758  22.105  1.00  0.00     0.138 A 
ATOM     26  C   UNL     1      12.308  51.810  23.468  1.00  0.00     0.100 A 
ATOM     27  O   UNL     1      10.755  52.125  25.108  1.00  0.00    -0.289 OA
BRANCH  18  28
ATOM     28  O   UNL     1       9.882  52.189  19.195  1.00  0.00    -0.490 OA
ATOM     29  C   UNL     1      10.355  53.321  18.463  1.00  0.00     0.278 C 
ENDBRANCH  18  28
BRANCH  21  30
ATOM     30  O   UNL     1       8.029  52.118  24.497  1.00  0.00    -0.507 OA
ATOM     31  H   UNL     1       7.049  52.140  24.725  1.00  0.00     0.293 HD
ENDBRANCH  21  30
BRANCH  25  32
ATOM     32  C   UNL     1      13.997  51.568  21.619  1.00  0.00     0.017 A 
ATOM     33  C   UNL     1      14.308  51.620  20.247  1.00  0.00     0.012 A 
ATOM     34  C   UNL     1      15.033  51.359  22.543  1.00  0.00     0.012 A 
ATOM     35  C   UNL     1      15.627  51.449  19.815  1.00  0.00     0.001 A 
ATOM     36  C   UNL     1      16.350  51.186  22.106  1.00  0.00     0.001 A 
ATOM     37  C   UNL     1      16.648  51.232  20.744  1.00  0.00     0.000 A 
ENDBRANCH  25  32
ENDBRANCH   1  17
TORSDOF 9
ENDMDL
MODEL 2
REMARK VINA RESULT:    -7.031      1.704      3.520
REMARK INTER + INTRA:         -11.175
REMARK INTER:                  -9.989
REMARK INTRA:                  -1.186
REMARK UNBOUND:                -1.266
REMARK SMILES COc1c(O[C@H]2O[C@H](C(=O)[O-])[C@H](O)[C@@H](O)[C@@H]2O)cc(O)c2c(=O)cc(-c3ccccc3)oc12
REMARK SMILES IDX 5 1 6 2 8 3 12 4 7 5 14 6 16 7 9 8 10 9 11 10 13 11 15 13
REMARK SMILES IDX 17 15 4 17 3 18 18 19 33 20 19 21 21 22 32 23 22 24 25 25
REMARK SMILES IDX 24 26 23 27 2 28 1 29 20 30 26 32 27 33 31 34 28 35 30 36
REMARK SMILES IDX 29 37
REMARK H PARENT 13 12 15 14 17 16 20 31
REMARK Flexibility Score: inf
ROOT
ATOM      1  O   UNL     1       7.435  53.267  18.471  1.00  0.00    -0.458 OA
ENDROOT
BRANCH   1   2
ATOM      2  C   UNL     1       6.387  52.326  18.720  1.00  0.00     0.339 C 
ATOM      3  C   UNL     1       4.767  54.000  18.988  1.00  0.00     0.199 C 
ATOM      4  C   UNL     1       3.998  53.606  17.711  1.00  0.00     0.180 C 
ATOM      5  O   UNL     1       5.388  52.867  19.574  1.00  0.00    -0.328 OA
ATOM      6  C   UNL     1       4.954  52.936  16.705  1.00  0.00     0.181 C 
ATOM      7  C   UNL     1       5.789  51.831  17.386  1.00  0.00     0.214 C 
BRANCH   3   8
ATOM      8  C   UNL     1       3.836  54.627  19.984  1.00  0.00     0.073 C 
ATOM      9  O   UNL     1       3.023  53.915  20.625  1.00  0.00    -0.547 OA
ATOM     10  O   UNL     1       3.888  55.992  20.229  1.00  0.00    -0.547 OA
ENDBRANCH   3   8
BRANCH   4  11
ATOM     11  O   UNL     1       2.953  52.722  18.027  1.00  0.00    -0.387 OA
ATOM     12  H   UNL     1       2.633  52.965  18.929  1.00  0.00     0.211 HD
ENDBRANCH   4  11
BRANCH   6  13
ATOM     13  O   UNL     1       5.818  53.897  16.153  1.00  0.00    -0.387 OA
ATOM     14  H   UNL     1       6.676  53.837  16.651  1.00  0.00     0.211 HD
ENDBRANCH   6  13
BRANCH   7  15
ATOM     15  O   UNL     1       4.986  50.703  17.637  1.00  0.00    -0.384 OA
ATOM     16  H   UNL     1       4.049  51.021  17.699  1.00  0.00     0.211 HD
ENDBRANCH   7  15
ENDBRANCH   1   2
BRANCH   1  17
ATOM     17  C   UNL     1       8.811  52.988  18.498  1.00  0.00     0.172 A 
ATOM     18  C   UNL     1       9.473  52.902  19.735  1.00  0.00     0.205 A 
ATOM     19  C   UNL     1       9.532  52.747  17.318  1.00  0.00     0.097 A 
ATOM     20  C   UNL     1      10.799  52.456  19.789  1.00  0.00     0.188 A 
ATOM     21  C   UNL     1      10.876  52.367  17.346  1.00  0.00     0.134 A 
ATOM     22  C   UNL     1      11.517  52.155  18.601  1.00  0.00     0.111 A 
ATOM     23  O   UNL     1      11.372  52.314  20.983  1.00  0.00    -0.452 OA
ATOM     24  C   UNL     1      12.825  51.634  18.759  1.00  0.00     0.197 A 
ATOM     25  C   UNL     1      12.616  51.881  21.154  1.00  0.00     0.138 A 
ATOM     26  C   UNL     1      13.374  51.516  20.039  1.00  0.00     0.100 A 
ATOM     27  O   UNL     1      13.497  51.217  17.782  1.00  0.00    -0.289 OA
BRANCH  18  28
ATOM     28  O   UNL     1       8.836  53.210  20.948  1.00  0.00    -0.490 OA
ATOM     29  C   UNL     1       8.219  52.241  21.797  1.00  0.00     0.278 C 
ENDBRANCH  18  28
BRANCH  21  30
ATOM     30  O   UNL     1      11.513  52.247  16.106  1.00  0.00    -0.507 OA
ATOM     31  H   UNL     1      11.167  52.606  15.232  1.00  0.00     0.293 HD
ENDBRANCH  21  30
BRANCH  25  32
ATOM     32  C   UNL     1      13.151  51.772  22.532  1.00  0.00     0.017 A 
ATOM     33  C   UNL     1      12.497  51.004  23.514  1.00  0.00     0.012 A 
ATOM     34  C   UNL     1      14.350  52.423  22.863  1.00  0.00     0.012 A 
ATOM     35  C   UNL     1      13.029  50.908  24.804  1.00  0.00     0.001 A 
ATOM     36  C   UNL     1      14.876  52.326  24.155  1.00  0.00     0.001 A 
ATOM     37  C   UNL     1      14.219  51.568  25.125  1.00  0.00     0.000 A 
ENDBRANCH  25  32
ENDBRANCH   1  17
TORSDOF 9
ENDMDL
MODEL 3
REMARK VINA RESULT:    -6.873      2.461      8.695
REMARK INTER + INTRA:         -10.951
REMARK INTER:                  -9.548
REMARK INTRA:                  -1.403
REMARK UNBOUND:                -1.266
REMARK SMILES COc1c(O[C@H]2O[C@H](C(=O)[O-])[C@H](O)[C@@H](O)[C@@H]2O)cc(O)c2c(=O)cc(-c3ccccc3)oc12
REMARK SMILES IDX 5 1 6 2 8 3 12 4 7 5 14 6 16 7 9 8 10 9 11 10 13 11 15 13
REMARK SMILES IDX 17 15 4 17 3 18 18 19 33 20 19 21 21 22 32 23 22 24 25 25
REMARK SMILES IDX 24 26 23 27 2 28 1 29 20 30 26 32 27 33 31 34 28 35 30 36
REMARK SMILES IDX 29 37
REMARK H PARENT 13 12 15 14 17 16 20 31
REMARK Flexibility Score: inf
ROOT
ATOM      1  O   UNL     1      12.852  51.532  21.176  1.00  0.00    -0.458 OA
ENDROOT
BRANCH   1   2
ATOM      2  C   UNL     1      14.140  51.654  21.789  1.00  0.00     0.339 C 
ATOM      3  C   UNL     1      15.245  51.859  19.731  1.00  0.00     0.199 C 
ATOM      4  C   UNL     1      15.656  53.325  19.978  1.00  0.00     0.180 C 
ATOM      5  O   UNL     1      15.169  51.141  20.952  1.00  0.00    -0.328 OA
ATOM      6  C   UNL     1      14.654  53.998  20.936  1.00  0.00     0.181 C 
ATOM      7  C   UNL     1      14.404  53.122  22.183  1.00  0.00     0.214 C 
BRANCH   3   8
ATOM      8  C   UNL     1      16.232  51.188  18.821  1.00  0.00     0.073 C 
ATOM      9  O   UNL     1      17.337  50.793  19.270  1.00  0.00    -0.547 OA
ATOM     10  O   UNL     1      15.920  50.970  17.487  1.00  0.00    -0.547 OA
ENDBRANCH   3   8
BRANCH   4  11
ATOM     11  O   UNL     1      16.946  53.380  20.533  1.00  0.00    -0.387 OA
ATOM     12  H   UNL     1      16.887  52.988  21.437  1.00  0.00     0.211 HD
ENDBRANCH   4  11
BRANCH   6  13
ATOM     13  O   UNL     1      13.434  54.221  20.275  1.00  0.00    -0.387 OA
ATOM     14  H   UNL     1      13.431  53.643  19.467  1.00  0.00     0.211 HD
ENDBRANCH   6  13
BRANCH   7  15
ATOM     15  O   UNL     1      15.519  53.171  23.039  1.00  0.00    -0.384 OA
ATOM     16  H   UNL     1      16.196  52.546  22.672  1.00  0.00     0.211 HD
ENDBRANCH   7  15
ENDBRANCH   1   2
BRANCH   1  17
ATOM     17  C   UNL     1      11.619  51.765  21.807  1.00  0.00     0.172 A 
ATOM     18  C   UNL     1      10.556  52.307  21.065  1.00  0.00     0.205 A 
ATOM     19  C   UNL     1      11.411  51.424  23.153  1.00  0.00     0.097 A 
ATOM     20  C   UNL     1       9.276  52.382  21.629  1.00  0.00     0.188 A 
ATOM     21  C   UNL     1      10.157  51.556  23.755  1.00  0.00     0.134 A 
ATOM     22  C   UNL     1       9.046  51.986  22.973  1.00  0.00     0.111 A 
ATOM     23  O   UNL     1       8.276  52.830  20.872  1.00  0.00    -0.452 OA
ATOM     24  C   UNL     1       7.706  52.021  23.429  1.00  0.00     0.197 A 
ATOM     25  C   UNL     1       7.021  52.927  21.296  1.00  0.00     0.138 A 
ATOM     26  C   UNL     1       6.701  52.510  22.591  1.00  0.00     0.100 A 
ATOM     27  O   UNL     1       7.375  51.572  24.557  1.00  0.00    -0.289 OA
BRANCH  18  28
ATOM     28  O   UNL     1      10.714  52.745  19.740  1.00  0.00    -0.490 OA
ATOM     29  C   UNL     1      10.722  51.878  18.604  1.00  0.00     0.278 C 
ENDBRANCH  18  28
BRANCH  21  30
ATOM     30  O   UNL     1      10.094  51.276  25.125  1.00  0.00    -0.507 OA
ATOM     31  H   UNL     1      10.731  50.683  25.632  1.00  0.00     0.293 HD
ENDBRANCH  21  30
BRANCH  25  32
ATOM     32  C   UNL     1       5.991  53.449  20.367  1.00  0.00     0.017 A 
ATOM     33  C   UNL     1       5.840  52.925  19.069  1.00  0.00     0.012 A 
ATOM     34  C   UNL     1       5.126  54.469  20.793  1.00  0.00     0.012 A 
ATOM     35  C   UNL     1       4.853  53.428  18.215  1.00  0.00     0.001 A 
ATOM     36  C   UNL     1       4.142  54.970  19.935  1.00  0.00     0.001 A 
ATOM     37  C   UNL     1       4.004  54.450  18.648  1.00  0.00     0.000 A 
ENDBRANCH  25  32
ENDBRANCH   1  17
TORSDOF 9
ENDMDL
MODEL 4
REMARK VINA RESULT:    -6.794      2.414      9.161
REMARK INTER + INTRA:         -10.840
REMARK INTER:                  -9.506
REMARK INTRA:                  -1.334
REMARK UNBOUND:                -1.266
REMARK SMILES COc1c(O[C@H]2O[C@H](C(=O)[O-])[C@H](O)[C@@H](O)[C@@H]2O)cc(O)c2c(=O)cc(-c3ccccc3)oc12
REMARK SMILES IDX 5 1 6 2 8 3 12 4 7 5 14 6 16 7 9 8 10 9 11 10 13 11 15 13
REMARK SMILES IDX 17 15 4 17 3 18 18 19 33 20 19 21 21 22 32 23 22 24 25 25
REMARK SMILES IDX 24 26 23 27 2 28 1 29 20 30 26 32 27 33 31 34 28 35 30 36
REMARK SMILES IDX 29 37
REMARK H PARENT 13 12 15 14 17 16 20 31
REMARK Flexibility Score: inf
ROOT
ATOM      1  O   UNL     1      12.075  52.095  21.252  1.00  0.00    -0.458 OA
ENDROOT
BRANCH   1   2
ATOM      2  C   UNL     1      12.564  50.905  21.876  1.00  0.00     0.339 C 
ATOM      3  C   UNL     1      14.083  52.078  23.224  1.00  0.00     0.199 C 
ATOM      4  C   UNL     1      13.343  51.740  24.535  1.00  0.00     0.180 C 
ATOM      5  O   UNL     1      13.924  51.040  22.271  1.00  0.00    -0.328 OA
ATOM      6  C   UNL     1      11.848  51.498  24.248  1.00  0.00     0.181 C 
ATOM      7  C   UNL     1      11.661  50.520  23.067  1.00  0.00     0.214 C 
BRANCH   3   8
ATOM      8  C   UNL     1      15.545  52.287  23.491  1.00  0.00     0.073 C 
ATOM      9  O   UNL     1      15.985  53.440  23.727  1.00  0.00    -0.547 OA
ATOM     10  O   UNL     1      16.415  51.207  23.513  1.00  0.00    -0.547 OA
ENDBRANCH   3   8
BRANCH   4  11
ATOM     11  O   UNL     1      13.900  50.593  25.125  1.00  0.00    -0.387 OA
ATOM     12  H   UNL     1      13.150  50.067  25.494  1.00  0.00     0.211 HD
ENDBRANCH   4  11
BRANCH   6  13
ATOM     13  O   UNL     1      11.215  52.716  23.945  1.00  0.00    -0.387 OA
ATOM     14  H   UNL     1      10.545  52.528  23.237  1.00  0.00     0.211 HD
ENDBRANCH   6  13
BRANCH   7  15
ATOM     15  O   UNL     1      11.973  49.210  23.472  1.00  0.00    -0.384 OA
ATOM     16  H   UNL     1      11.184  48.645  23.263  1.00  0.00     0.211 HD
ENDBRANCH   7  15
ENDBRANCH   1   2
BRANCH   1  17
ATOM     17  C   UNL     1      11.216  52.145  20.142  1.00  0.00     0.172 A 
ATOM     18  C   UNL     1       9.855  52.441  20.336  1.00  0.00     0.205 A 
ATOM     19  C   UNL     1      11.695  51.953  18.837  1.00  0.00     0.097 A 
ATOM     20  C   UNL     1       9.024  52.665  19.232  1.00  0.00     0.188 A 
ATOM     21  C   UNL     1      10.866  52.105  17.723  1.00  0.00     0.134 A 
ATOM     22  C   UNL     1       9.517  52.528  17.907  1.00  0.00     0.111 A 
ATOM     23  O   UNL     1       7.759  53.017  19.453  1.00  0.00    -0.452 OA
ATOM     24  C   UNL     1       8.625  52.854  16.856  1.00  0.00     0.197 A 
ATOM     25  C   UNL     1       6.887  53.272  18.483  1.00  0.00     0.138 A 
ATOM     26  C   UNL     1       7.306  53.208  17.151  1.00  0.00     0.100 A 
ATOM     27  O   UNL     1       8.997  52.889  15.655  1.00  0.00    -0.289 OA
BRANCH  18  28
ATOM     28  O   UNL     1       9.291  52.565  21.617  1.00  0.00    -0.490 OA
ATOM     29  C   UNL     1       8.239  51.737  22.113  1.00  0.00     0.278 C 
ENDBRANCH  18  28
BRANCH  21  30
ATOM     30  O   UNL     1      11.431  51.795  16.481  1.00  0.00    -0.507 OA
ATOM     31  H   UNL     1      12.025  51.005  16.288  1.00  0.00     0.293 HD
ENDBRANCH  21  30
BRANCH  25  32
ATOM     32  C   UNL     1       5.501  53.647  18.849  1.00  0.00     0.017 A 
ATOM     33  C   UNL     1       4.525  53.899  17.866  1.00  0.00     0.012 A 
ATOM     34  C   UNL     1       5.139  53.726  20.203  1.00  0.00     0.012 A 
ATOM     35  C   UNL     1       3.220  54.240  18.238  1.00  0.00     0.001 A 
ATOM     36  C   UNL     1       3.834  54.070  20.570  1.00  0.00     0.001 A 
ATOM     37  C   UNL     1       2.875  54.325  19.589  1.00  0.00     0.000 A 
ENDBRANCH  25  32
ENDBRANCH   1  17
TORSDOF 9
ENDMDL
MODEL 5
REMARK VINA RESULT:    -6.707      2.562      8.862
REMARK INTER + INTRA:         -10.717
REMARK INTER:                  -9.282
REMARK INTRA:                  -1.435
REMARK UNBOUND:                -1.266
REMARK SMILES COc1c(O[C@H]2O[C@H](C(=O)[O-])[C@H](O)[C@@H](O)[C@@H]2O)cc(O)c2c(=O)cc(-c3ccccc3)oc12
REMARK SMILES IDX 5 1 6 2 8 3 12 4 7 5 14 6 16 7 9 8 10 9 11 10 13 11 15 13
REMARK SMILES IDX 17 15 4 17 3 18 18 19 33 20 19 21 21 22 32 23 22 24 25 25
REMARK SMILES IDX 24 26 23 27 2 28 1 29 20 30 26 32 27 33 31 34 28 35 30 36
REMARK SMILES IDX 29 37
REMARK H PARENT 13 12 15 14 17 16 20 31
REMARK Flexibility Score: inf
ROOT
ATOM      1  O   UNL     1      13.445  51.462  21.138  1.00  0.00    -0.458 OA
ENDROOT
BRANCH   1   2
ATOM      2  C   UNL     1      14.614  52.284  21.202  1.00  0.00     0.339 C 
ATOM      3  C   UNL     1      15.999  50.612  20.315  1.00  0.00     0.199 C 
ATOM      4  C   UNL     1      16.265  51.380  19.004  1.00  0.00     0.180 C 
ATOM      5  O   UNL     1      15.791  51.509  21.394  1.00  0.00    -0.328 OA
ATOM      6  C   UNL     1      15.085  52.325  18.699  1.00  0.00     0.181 C 
ATOM      7  C   UNL     1      14.713  53.166  19.940  1.00  0.00     0.214 C 
BRANCH   3   8
ATOM      8  C   UNL     1      17.156  49.711  20.634  1.00  0.00     0.073 C 
ATOM      9  O   UNL     1      18.079  50.111  21.389  1.00  0.00    -0.547 OA
ATOM     10  O   UNL     1      17.202  48.421  20.125  1.00  0.00    -0.547 OA
ENDBRANCH   3   8
BRANCH   4  11
ATOM     11  O   UNL     1      17.449  52.128  19.111  1.00  0.00    -0.387 OA
ATOM     12  H   UNL     1      17.828  51.941  20.004  1.00  0.00     0.211 HD
ENDBRANCH   4  11
BRANCH   6  13
ATOM     13  O   UNL     1      13.967  51.578  18.293  1.00  0.00    -0.387 OA
ATOM     14  H   UNL     1      13.410  52.172  17.724  1.00  0.00     0.211 HD
ENDBRANCH   6  13
BRANCH   7  15
ATOM     15  O   UNL     1      15.681  54.164  20.154  1.00  0.00    -0.384 OA
ATOM     16  H   UNL     1      16.159  54.296  19.296  1.00  0.00     0.211 HD
ENDBRANCH   7  15
ENDBRANCH   1   2
BRANCH   1  17
ATOM     17  C   UNL     1      12.211  51.744  21.746  1.00  0.00     0.172 A 
ATOM     18  C   UNL     1      11.119  52.123  20.945  1.00  0.00     0.205 A 
ATOM     19  C   UNL     1      12.030  51.609  23.131  1.00  0.00     0.097 A 
ATOM     20  C   UNL     1       9.844  52.238  21.512  1.00  0.00     0.188 A 
ATOM     21  C   UNL     1      10.778  51.786  23.726  1.00  0.00     0.134 A 
ATOM     22  C   UNL     1       9.643  52.047  22.905  1.00  0.00     0.111 A 
ATOM     23  O   UNL     1       8.819  52.526  20.711  1.00  0.00    -0.452 OA
ATOM     24  C   UNL     1       8.307  52.103  23.372  1.00  0.00     0.197 A 
ATOM     25  C   UNL     1       7.565  52.640  21.135  1.00  0.00     0.138 A 
ATOM     26  C   UNL     1       7.275  52.418  22.484  1.00  0.00     0.100 A 
ATOM     27  O   UNL     1       8.006  51.824  24.560  1.00  0.00    -0.289 OA
BRANCH  18  28
ATOM     28  O   UNL     1      11.247  52.355  19.566  1.00  0.00    -0.490 OA
ATOM     29  C   UNL     1      11.260  53.653  18.969  1.00  0.00     0.278 C 
ENDBRANCH  18  28
BRANCH  21  30
ATOM     30  O   UNL     1      10.741  51.720  25.123  1.00  0.00    -0.507 OA
ATOM     31  H   UNL     1      10.740  52.509  25.748  1.00  0.00     0.293 HD
ENDBRANCH  21  30
BRANCH  25  32
ATOM     32  C   UNL     1       6.506  52.973  20.153  1.00  0.00     0.017 A 
ATOM     33  C   UNL     1       5.489  53.898  20.455  1.00  0.00     0.012 A 
ATOM     34  C   UNL     1       6.528  52.377  18.882  1.00  0.00     0.012 A 
ATOM     35  C   UNL     1       4.508  54.203  19.507  1.00  0.00     0.001 A 
ATOM     36  C   UNL     1       5.544  52.683  17.938  1.00  0.00     0.001 A 
ATOM     37  C   UNL     1       4.535  53.596  18.248  1.00  0.00     0.000 A 
ENDBRANCH  25  32
ENDBRANCH   1  17
TORSDOF 9
ENDMDL
MODEL 6
REMARK VINA RESULT:    -6.686      2.649      8.950
REMARK INTER + INTRA:         -10.689
REMARK INTER:                  -9.573
REMARK INTRA:                  -1.116
REMARK UNBOUND:                -1.266
REMARK SMILES COc1c(O[C@H]2O[C@H](C(=O)[O-])[C@H](O)[C@@H](O)[C@@H]2O)cc(O)c2c(=O)cc(-c3ccccc3)oc12
REMARK SMILES IDX 5 1 6 2 8 3 12 4 7 5 14 6 16 7 9 8 10 9 11 10 13 11 15 13
REMARK SMILES IDX 17 15 4 17 3 18 18 19 33 20 19 21 21 22 32 23 22 24 25 25
REMARK SMILES IDX 24 26 23 27 2 28 1 29 20 30 26 32 27 33 31 34 28 35 30 36
REMARK SMILES IDX 29 37
REMARK H PARENT 13 12 15 14 17 16 20 31
REMARK Flexibility Score: inf
ROOT
ATOM      1  O   UNL     1      13.708  51.490  21.029  1.00  0.00    -0.458 OA
ENDROOT
BRANCH   1   2
ATOM      2  C   UNL     1      14.668  52.472  20.630  1.00  0.00     0.339 C 
ATOM      3  C   UNL     1      15.889  52.279  22.623  1.00  0.00     0.199 C 
ATOM      4  C   UNL     1      17.123  51.666  21.931  1.00  0.00     0.180 C 
ATOM      5  O   UNL     1      15.207  53.164  21.750  1.00  0.00    -0.328 OA
ATOM      6  C   UNL     1      16.695  50.929  20.647  1.00  0.00     0.181 C 
ATOM      7  C   UNL     1      15.776  51.817  19.779  1.00  0.00     0.214 C 
BRANCH   3   8
ATOM      8  C   UNL     1      16.301  53.022  23.860  1.00  0.00     0.073 C 
ATOM      9  O   UNL     1      15.787  52.735  24.971  1.00  0.00    -0.547 OA
ATOM     10  O   UNL     1      17.275  54.008  23.794  1.00  0.00    -0.547 OA
ENDBRANCH   3   8
BRANCH   4  11
ATOM     11  O   UNL     1      18.050  52.672  21.610  1.00  0.00    -0.387 OA
ATOM     12  H   UNL     1      18.747  52.253  21.051  1.00  0.00     0.211 HD
ENDBRANCH   4  11
BRANCH   6  13
ATOM     13  O   UNL     1      16.017  49.744  20.977  1.00  0.00    -0.387 OA
ATOM     14  H   UNL     1      16.707  49.044  21.122  1.00  0.00     0.211 HD
ENDBRANCH   6  13
BRANCH   7  15
ATOM     15  O   UNL     1      16.530  52.828  19.155  1.00  0.00    -0.384 OA
ATOM     16  H   UNL     1      15.963  53.641  19.129  1.00  0.00     0.211 HD
ENDBRANCH   7  15
ENDBRANCH   1   2
BRANCH   1  17
ATOM     17  C   UNL     1      12.496  51.749  21.690  1.00  0.00     0.172 A 
ATOM     18  C   UNL     1      11.368  52.123  20.939  1.00  0.00     0.205 A 
ATOM     19  C   UNL     1      12.374  51.596  23.079  1.00  0.00     0.097 A 
ATOM     20  C   UNL     1      10.115  52.214  21.558  1.00  0.00     0.188 A 
ATOM     21  C   UNL     1      11.146  51.751  23.727  1.00  0.00     0.134 A 
ATOM     22  C   UNL     1       9.975  52.006  22.956  1.00  0.00     0.111 A 
ATOM     23  O   UNL     1       9.055  52.498  20.804  1.00  0.00    -0.452 OA
ATOM     24  C   UNL     1       8.658  52.039  23.478  1.00  0.00     0.197 A 
ATOM     25  C   UNL     1       7.818  52.592  21.280  1.00  0.00     0.138 A 
ATOM     26  C   UNL     1       7.587  52.351  22.637  1.00  0.00     0.100 A 
ATOM     27  O   UNL     1       8.410  51.743  24.674  1.00  0.00    -0.289 OA
BRANCH  18  28
ATOM     28  O   UNL     1      11.436  52.372  19.558  1.00  0.00    -0.490 OA
ATOM     29  C   UNL     1      11.698  53.655  18.987  1.00  0.00     0.278 C 
ENDBRANCH  18  28
BRANCH  21  30
ATOM     30  O   UNL     1      11.166  51.668  25.124  1.00  0.00    -0.507 OA
ATOM     31  H   UNL     1      10.853  50.883  25.670  1.00  0.00     0.293 HD
ENDBRANCH  21  30
BRANCH  25  32
ATOM     32  C   UNL     1       6.716  52.921  20.346  1.00  0.00     0.017 A 
ATOM     33  C   UNL     1       5.761  53.908  20.656  1.00  0.00     0.012 A 
ATOM     34  C   UNL     1       6.633  52.258  19.111  1.00  0.00     0.012 A 
ATOM     35  C   UNL     1       4.737  54.209  19.752  1.00  0.00     0.001 A 
ATOM     36  C   UNL     1       5.605  52.560  18.212  1.00  0.00     0.001 A 
ATOM     37  C   UNL     1       4.659  53.535  18.530  1.00  0.00     0.000 A 
ENDBRANCH  25  32
ENDBRANCH   1  17
TORSDOF 9
ENDMDL
MODEL 7
REMARK VINA RESULT:    -6.521      3.727      7.278
REMARK INTER + INTRA:         -10.456
REMARK INTER:                  -8.915
REMARK INTRA:                  -1.541
REMARK UNBOUND:                -1.266
REMARK SMILES COc1c(O[C@H]2O[C@H](C(=O)[O-])[C@H](O)[C@@H](O)[C@@H]2O)cc(O)c2c(=O)cc(-c3ccccc3)oc12
REMARK SMILES IDX 5 1 6 2 8 3 12 4 7 5 14 6 16 7 9 8 10 9 11 10 13 11 15 13
REMARK SMILES IDX 17 15 4 17 3 18 18 19 33 20 19 21 21 22 32 23 22 24 25 25
REMARK SMILES IDX 24 26 23 27 2 28 1 29 20 30 26 32 27 33 31 34 28 35 30 36
REMARK SMILES IDX 29 37
REMARK H PARENT 13 12 15 14 17 16 20 31
REMARK Flexibility Score: inf
ROOT
ATOM      1  O   UNL     1       9.824  52.909  15.605  1.00  0.00    -0.458 OA
ENDROOT
BRANCH   1   2
ATOM      2  C   UNL     1       9.739  52.357  14.288  1.00  0.00     0.339 C 
ATOM      3  C   UNL     1      11.971  52.874  13.786  1.00  0.00     0.199 C 
ATOM      4  C   UNL     1      12.410  51.397  13.724  1.00  0.00     0.180 C 
ATOM      5  O   UNL     1      10.618  53.018  13.385  1.00  0.00    -0.328 OA
ATOM      6  C   UNL     1      11.492  50.537  14.615  1.00  0.00     0.181 C 
ATOM      7  C   UNL     1      10.004  50.838  14.330  1.00  0.00     0.214 C 
BRANCH   3   8
ATOM      8  C   UNL     1      12.843  53.714  12.898  1.00  0.00     0.073 C 
ATOM      9  O   UNL     1      14.011  53.340  12.624  1.00  0.00    -0.547 OA
ATOM     10  O   UNL     1      12.356  54.891  12.348  1.00  0.00    -0.547 OA
ENDBRANCH   3   8
BRANCH   4  11
ATOM     11  O   UNL     1      12.353  50.929  12.401  1.00  0.00    -0.387 OA
ATOM     12  H   UNL     1      11.477  50.488  12.289  1.00  0.00     0.211 HD
ENDBRANCH   4  11
BRANCH   6  13
ATOM     13  O   UNL     1      11.764  50.791  15.970  1.00  0.00    -0.387 OA
ATOM     14  H   UNL     1      12.647  51.245  16.010  1.00  0.00     0.211 HD
ENDBRANCH   6  13
BRANCH   7  15
ATOM     15  O   UNL     1       9.625  50.274  13.099  1.00  0.00    -0.384 OA
ATOM     16  H   UNL     1       8.987  50.904  12.673  1.00  0.00     0.211 HD
ENDBRANCH   7  15
ENDBRANCH   1   2
BRANCH   1  17
ATOM     17  C   UNL     1       8.809  52.873  16.576  1.00  0.00     0.172 A 
ATOM     18  C   UNL     1       9.139  52.566  17.907  1.00  0.00     0.205 A 
ATOM     19  C   UNL     1       7.479  53.182  16.253  1.00  0.00     0.097 A 
ATOM     20  C   UNL     1       8.174  52.697  18.914  1.00  0.00     0.188 A 
ATOM     21  C   UNL     1       6.486  53.250  17.234  1.00  0.00     0.134 A 
ATOM     22  C   UNL     1       6.839  53.065  18.602  1.00  0.00     0.111 A 
ATOM     23  O   UNL     1       8.540  52.472  20.175  1.00  0.00    -0.452 OA
ATOM     24  C   UNL     1       5.955  53.250  19.694  1.00  0.00     0.197 A 
ATOM     25  C   UNL     1       7.715  52.583  21.210  1.00  0.00     0.138 A 
ATOM     26  C   UNL     1       6.396  52.990  20.994  1.00  0.00     0.100 A 
ATOM     27  O   UNL     1       4.790  53.698  19.538  1.00  0.00    -0.289 OA
BRANCH  18  28
ATOM     28  O   UNL     1      10.432  52.169  18.286  1.00  0.00    -0.490 OA
ATOM     29  C   UNL     1      11.472  53.075  18.656  1.00  0.00     0.278 C 
ENDBRANCH  18  28
BRANCH  21  30
ATOM     30  O   UNL     1       5.180  53.473  16.780  1.00  0.00    -0.507 OA
ATOM     31  H   UNL     1       4.792  54.367  16.529  1.00  0.00     0.293 HD
ENDBRANCH  21  30
BRANCH  25  32
ATOM     32  C   UNL     1       8.232  52.299  22.569  1.00  0.00     0.017 A 
ATOM     33  C   UNL     1       7.375  51.900  23.613  1.00  0.00     0.012 A 
ATOM     34  C   UNL     1       9.609  52.400  22.822  1.00  0.00     0.012 A 
ATOM     35  C   UNL     1       7.890  51.626  24.884  1.00  0.00     0.001 A 
ATOM     36  C   UNL     1      10.119  52.129  24.095  1.00  0.00     0.001 A 
ATOM     37  C   UNL     1       9.262  51.741  25.125  1.00  0.00     0.000 A 
ENDBRANCH  25  32
ENDBRANCH   1  17
TORSDOF 9
ENDMDL
MODEL 8
REMARK VINA RESULT:    -6.482      3.215      8.422
REMARK INTER + INTRA:         -10.400
REMARK INTER:                  -9.124
REMARK INTRA:                  -1.277
REMARK UNBOUND:                -1.266
REMARK SMILES COc1c(O[C@H]2O[C@H](C(=O)[O-])[C@H](O)[C@@H](O)[C@@H]2O)cc(O)c2c(=O)cc(-c3ccccc3)oc12
REMARK SMILES IDX 5 1 6 2 8 3 12 4 7 5 14 6 16 7 9 8 10 9 11 10 13 11 15 13
REMARK SMILES IDX 17 15 4 17 3 18 18 19 33 20 19 21 21 22 32 23 22 24 25 25
REMARK SMILES IDX 24 26 23 27 2 28 1 29 20 30 26 32 27 33 31 34 28 35 30 36
REMARK SMILES IDX 29 37
REMARK H PARENT 13 12 15 14 17 16 20 31
REMARK Flexibility Score: inf
ROOT
ATOM      1  O   UNL     1      11.962  52.281  21.655  1.00  0.00    -0.458 OA
ENDROOT
BRANCH   1   2
ATOM      2  C   UNL     1      12.392  50.973  22.043  1.00  0.00     0.339 C 
ATOM      3  C   UNL     1      14.163  51.796  23.341  1.00  0.00     0.199 C 
ATOM      4  C   UNL     1      13.542  51.331  24.674  1.00  0.00     0.180 C 
ATOM      5  O   UNL     1      13.794  50.930  22.280  1.00  0.00    -0.328 OA
ATOM      6  C   UNL     1      12.007  51.264  24.544  1.00  0.00     0.181 C 
ATOM      7  C   UNL     1      11.592  50.493  23.272  1.00  0.00     0.214 C 
BRANCH   3   8
ATOM      8  C   UNL     1      15.659  51.837  23.451  1.00  0.00     0.073 C 
ATOM      9  O   UNL     1      16.245  52.919  23.704  1.00  0.00    -0.547 OA
ATOM     10  O   UNL     1      16.405  50.675  23.305  1.00  0.00    -0.547 OA
ENDBRANCH   3   8
BRANCH   4  11
ATOM     11  O   UNL     1      14.040  50.065  25.026  1.00  0.00    -0.387 OA
ATOM     12  H   UNL     1      14.087  49.534  24.195  1.00  0.00     0.211 HD
ENDBRANCH   4  11
BRANCH   6  13
ATOM     13  O   UNL     1      11.474  52.562  24.495  1.00  0.00    -0.387 OA
ATOM     14  H   UNL     1      12.200  53.187  24.757  1.00  0.00     0.211 HD
ENDBRANCH   6  13
BRANCH   7  15
ATOM     15  O   UNL     1      11.809  49.115  23.449  1.00  0.00    -0.384 OA
ATOM     16  H   UNL     1      10.922  48.672  23.412  1.00  0.00     0.211 HD
ENDBRANCH   7  15
ENDBRANCH   1   2
BRANCH   1  17
ATOM     17  C   UNL     1      11.070  52.575  20.611  1.00  0.00     0.172 A 
ATOM     18  C   UNL     1      11.499  52.438  19.279  1.00  0.00     0.205 A 
ATOM     19  C   UNL     1       9.745  52.958  20.868  1.00  0.00     0.097 A 
ATOM     20  C   UNL     1      10.576  52.557  18.232  1.00  0.00     0.188 A 
ATOM     21  C   UNL     1       8.825  53.149  19.834  1.00  0.00     0.134 A 
ATOM     22  C   UNL     1       9.219  52.888  18.489  1.00  0.00     0.111 A 
ATOM     23  O   UNL     1      11.000  52.347  16.987  1.00  0.00    -0.452 OA
ATOM     24  C   UNL     1       8.344  52.907  17.375  1.00  0.00     0.197 A 
ATOM     25  C   UNL     1      10.211  52.415  15.921  1.00  0.00     0.138 A 
ATOM     26  C   UNL     1       8.851  52.687  16.092  1.00  0.00     0.100 A 
ATOM     27  O   UNL     1       7.104  53.063  17.507  1.00  0.00    -0.289 OA
BRANCH  18  28
ATOM     28  O   UNL     1      12.830  52.137  18.948  1.00  0.00    -0.490 OA
ATOM     29  C   UNL     1      13.902  53.080  19.001  1.00  0.00     0.278 C 
ENDBRANCH  18  28
BRANCH  21  30
ATOM     30  O   UNL     1       7.561  53.621  20.206  1.00  0.00    -0.507 OA
ATOM     31  H   UNL     1       6.681  53.263  19.876  1.00  0.00     0.293 HD
ENDBRANCH  21  30
BRANCH  25  32
ATOM     32  C   UNL     1      10.797  52.170  14.582  1.00  0.00     0.017 A 
ATOM     33  C   UNL     1      12.101  52.594  14.262  1.00  0.00     0.012 A 
ATOM     34  C   UNL     1      10.050  51.477  13.616  1.00  0.00     0.012 A 
ATOM     35  C   UNL     1      12.634  52.340  12.995  1.00  0.00     0.001 A 
ATOM     36  C   UNL     1      10.587  51.229  12.349  1.00  0.00     0.001 A 
ATOM     37  C   UNL     1      11.878  51.658  12.038  1.00  0.00     0.000 A 
ENDBRANCH  25  32
ENDBRANCH   1  17
TORSDOF 9
ENDMDL
MODEL 9
REMARK VINA RESULT:    -6.208      3.808      6.976
REMARK INTER + INTRA:         -10.015
REMARK INTER:                  -8.683
REMARK INTRA:                  -1.331
REMARK UNBOUND:                -1.266
REMARK SMILES COc1c(O[C@H]2O[C@H](C(=O)[O-])[C@H](O)[C@@H](O)[C@@H]2O)cc(O)c2c(=O)cc(-c3ccccc3)oc12
REMARK SMILES IDX 5 1 6 2 8 3 12 4 7 5 14 6 16 7 9 8 10 9 11 10 13 11 15 13
REMARK SMILES IDX 17 15 4 17 3 18 18 19 33 20 19 21 21 22 32 23 22 24 25 25
REMARK SMILES IDX 24 26 23 27 2 28 1 29 20 30 26 32 27 33 31 34 28 35 30 36
REMARK SMILES IDX 29 37
REMARK H PARENT 13 12 15 14 17 16 20 31
REMARK Flexibility Score: inf
ROOT
ATOM      1  O   UNL     1      12.916  51.608  16.959  1.00  0.00    -0.458 OA
ENDROOT
BRANCH   1   2
ATOM      2  C   UNL     1      12.663  50.396  16.243  1.00  0.00     0.339 C 
ATOM      3  C   UNL     1      11.288  51.460  14.668  1.00  0.00     0.199 C 
ATOM      4  C   UNL     1      12.272  51.235  13.502  1.00  0.00     0.180 C 
ATOM      5  O   UNL     1      11.384  50.413  15.621  1.00  0.00    -0.328 OA
ATOM      6  C   UNL     1      13.712  51.129  14.041  1.00  0.00     0.181 C 
ATOM      7  C   UNL     1      13.790  50.137  15.222  1.00  0.00     0.214 C 
BRANCH   3   8
ATOM      8  C   UNL     1       9.880  51.536  14.155  1.00  0.00     0.073 C 
ATOM      9  O   UNL     1       9.403  50.591  13.478  1.00  0.00    -0.547 OA
ATOM     10  O   UNL     1       9.085  52.635  14.450  1.00  0.00    -0.547 OA
ENDBRANCH   3   8
BRANCH   4  11
ATOM     11  O   UNL     1      11.941  50.059  12.808  1.00  0.00    -0.387 OA
ATOM     12  H   UNL     1      12.444  49.323  13.233  1.00  0.00     0.211 HD
ENDBRANCH   4  11
BRANCH   6  13
ATOM     13  O   UNL     1      14.160  52.391  14.465  1.00  0.00    -0.387 OA
ATOM     14  H   UNL     1      13.352  52.938  14.653  1.00  0.00     0.211 HD
ENDBRANCH   6  13
BRANCH   7  15
ATOM     15  O   UNL     1      13.685  48.816  14.752  1.00  0.00    -0.384 OA
ATOM     16  H   UNL     1      13.210  48.294  15.450  1.00  0.00     0.211 HD
ENDBRANCH   7  15
ENDBRANCH   1   2
BRANCH   1  17
ATOM     17  C   UNL     1      13.033  51.727  18.354  1.00  0.00     0.172 A 
ATOM     18  C   UNL     1      11.871  51.755  19.144  1.00  0.00     0.205 A 
ATOM     19  C   UNL     1      14.289  51.773  18.981  1.00  0.00     0.097 A 
ATOM     20  C   UNL     1      11.972  51.697  20.539  1.00  0.00     0.188 A 
ATOM     21  C   UNL     1      14.411  51.785  20.373  1.00  0.00     0.134 A 
ATOM     22  C   UNL     1      13.240  51.685  21.180  1.00  0.00     0.111 A 
ATOM     23  O   UNL     1      10.850  51.649  21.255  1.00  0.00    -0.452 OA
ATOM     24  C   UNL     1      13.243  51.544  22.589  1.00  0.00     0.197 A 
ATOM     25  C   UNL     1      10.826  51.574  22.581  1.00  0.00     0.138 A 
ATOM     26  C   UNL     1      12.032  51.507  23.284  1.00  0.00     0.100 A 
ATOM     27  O   UNL     1      14.309  51.395  23.240  1.00  0.00    -0.289 OA
BRANCH  18  28
ATOM     28  O   UNL     1      10.584  51.794  18.582  1.00  0.00    -0.490 OA
ATOM     29  C   UNL     1       9.973  52.976  18.062  1.00  0.00     0.278 C 
ENDBRANCH  18  28
BRANCH  21  30
ATOM     30  O   UNL     1      15.707  51.927  20.880  1.00  0.00    -0.507 OA
ATOM     31  H   UNL     1      16.254  51.196  21.304  1.00  0.00     0.293 HD
ENDBRANCH  21  30
BRANCH  25  32
ATOM     32  C   UNL     1       9.516  51.535  23.271  1.00  0.00     0.017 A 
ATOM     33  C   UNL     1       9.345  50.840  24.484  1.00  0.00     0.012 A 
ATOM     34  C   UNL     1       8.423  52.226  22.723  1.00  0.00     0.012 A 
ATOM     35  C   UNL     1       8.100  50.828  25.121  1.00  0.00     0.001 A 
ATOM     36  C   UNL     1       7.180  52.208  23.362  1.00  0.00     0.001 A 
ATOM     37  C   UNL     1       7.018  51.512  24.561  1.00  0.00     0.000 A 
ENDBRANCH  25  32
ENDBRANCH   1  17
TORSDOF 9
ENDMDL
