MODEL 1
REMARK VINA RESULT:    -4.338      0.000      0.000
REMARK INTER + INTRA:          -6.435
REMARK INTER:                  -5.859
REMARK INTRA:                  -0.576
REMARK UNBOUND:                -0.576
REMARK SMILES CCCCCCCC(=O)[O-]
REMARK SMILES IDX 5 1 6 2 7 3 8 4 9 5 10 6 4 7 3 8 2 9 1 10
REMARK H PARENT
REMARK Flexibility Score: inf
ROOT
ATOM      1  C   UNL     1     -29.075  65.521  86.470  1.00  0.00     0.000 C 
ENDROOT
BRANCH   1   2
ATOM      2  C   UNL     1     -30.501  65.176  86.009  1.00  0.00     0.006 C 
BRANCH   2   3
ATOM      3  C   UNL     1     -31.194  66.349  85.304  1.00  0.00     0.053 C 
BRANCH   3   4
ATOM      4  C   UNL     1     -31.223  67.549  86.196  1.00  0.00     0.041 C 
ATOM      5  O   UNL     1     -32.011  67.592  87.177  1.00  0.00    -0.550 OA
ATOM      6  O   UNL     1     -30.345  68.603  85.973  1.00  0.00    -0.550 OA
ENDBRANCH   3   4
ENDBRANCH   2   3
ENDBRANCH   1   2
BRANCH   1   7
ATOM      7  C   UNL     1     -28.027  65.297  85.369  1.00  0.00     0.000 C 
BRANCH   7   8
ATOM      8  C   UNL     1     -27.581  66.633  84.757  1.00  0.00    -0.000 C 
BRANCH   8   9
ATOM      9  C   UNL     1     -28.183  66.875  83.364  1.00  0.00    -0.003 C 
ATOM     10  C   UNL     1     -28.550  65.577  82.645  1.00  0.00     0.004 C 
ENDBRANCH   8   9
ENDBRANCH   7   8
ENDBRANCH   1   7
TORSDOF 6
ENDMDL
MODEL 2
REMARK VINA RESULT:    -4.276      2.466      4.254
REMARK INTER + INTRA:          -6.352
REMARK INTER:                  -5.808
REMARK INTRA:                  -0.544
REMARK UNBOUND:                -0.576
REMARK SMILES CCCCCCCC(=O)[O-]
REMARK SMILES IDX 5 1 6 2 7 3 8 4 9 5 10 6 4 7 3 8 2 9 1 10
REMARK H PARENT
REMARK Flexibility Score: inf
ROOT
ATOM      1  C   UNL     1     -27.826  65.716  85.321  1.00  0.00     0.000 C 
ENDROOT
BRANCH   1   2
ATOM      2  C   UNL     1     -27.622  66.957  84.437  1.00  0.00     0.006 C 
BRANCH   2   3
ATOM      3  C   UNL     1     -28.660  67.058  83.312  1.00  0.00     0.053 C 
BRANCH   3   4
ATOM      4  C   UNL     1     -28.702  65.786  82.526  1.00  0.00     0.041 C 
ATOM      5  O   UNL     1     -27.823  65.548  81.656  1.00  0.00    -0.550 OA
ATOM      6  O   UNL     1     -29.684  64.838  82.789  1.00  0.00    -0.550 OA
ENDBRANCH   3   4
ENDBRANCH   2   3
ENDBRANCH   1   2
BRANCH   1   7
ATOM      7  C   UNL     1     -28.787  65.976  86.493  1.00  0.00     0.000 C 
BRANCH   7   8
ATOM      8  C   UNL     1     -30.156  65.331  86.233  1.00  0.00    -0.000 C 
BRANCH   8   9
ATOM      9  C   UNL     1     -31.235  66.362  85.866  1.00  0.00    -0.003 C 
ATOM     10  C   UNL     1     -30.935  67.754  86.421  1.00  0.00     0.004 C 
ENDBRANCH   8   9
ENDBRANCH   7   8
ENDBRANCH   1   7
TORSDOF 6
ENDMDL
MODEL 3
REMARK VINA RESULT:    -4.264      1.647      3.872
REMARK INTER + INTRA:          -6.335
REMARK INTER:                  -5.825
REMARK INTRA:                  -0.510
REMARK UNBOUND:                -0.576
REMARK SMILES CCCCCCCC(=O)[O-]
REMARK SMILES IDX 5 1 6 2 7 3 8 4 9 5 10 6 4 7 3 8 2 9 1 10
REMARK H PARENT
REMARK Flexibility Score: inf
ROOT
ATOM      1  C   UNL     1     -29.549  66.035  83.565  1.00  0.00     0.000 C 
ENDROOT
BRANCH   1   2
ATOM      2  C   UNL     1     -28.313  66.948  83.528  1.00  0.00     0.006 C 
BRANCH   2   3
ATOM      3  C   UNL     1     -27.410  66.768  84.755  1.00  0.00     0.053 C 
BRANCH   3   4
ATOM      4  C   UNL     1     -27.429  68.000  85.602  1.00  0.00     0.041 C 
ATOM      5  O   UNL     1     -26.390  68.703  85.722  1.00  0.00    -0.550 OA
ATOM      6  O   UNL     1     -28.606  68.402  86.219  1.00  0.00    -0.550 OA
ENDBRANCH   3   4
ENDBRANCH   2   3
ENDBRANCH   1   2
BRANCH   1   7
ATOM      7  C   UNL     1     -29.482  64.993  84.693  1.00  0.00     0.000 C 
BRANCH   7   8
ATOM      8  C   UNL     1     -30.526  65.294  85.779  1.00  0.00    -0.000 C 
BRANCH   8   9
ATOM      9  C   UNL     1     -31.472  66.440  85.388  1.00  0.00    -0.003 C 
ATOM     10  C   UNL     1     -31.917  67.275  86.589  1.00  0.00     0.004 C 
ENDBRANCH   8   9
ENDBRANCH   7   8
ENDBRANCH   1   7
TORSDOF 6
ENDMDL
MODEL 4
REMARK VINA RESULT:    -4.253      0.920      1.744
REMARK INTER + INTRA:          -6.321
REMARK INTER:                  -5.829
REMARK INTRA:                  -0.492
REMARK UNBOUND:                -0.576
REMARK SMILES CCCCCCCC(=O)[O-]
REMARK SMILES IDX 5 1 6 2 7 3 8 4 9 5 10 6 4 7 3 8 2 9 1 10
REMARK H PARENT
REMARK Flexibility Score: inf
ROOT
ATOM      1  C   UNL     1     -28.907  64.828  85.222  1.00  0.00     0.000 C 
ENDROOT
BRANCH   1   2
ATOM      2  C   UNL     1     -30.209  65.009  86.018  1.00  0.00     0.006 C 
BRANCH   2   3
ATOM      3  C   UNL     1     -31.137  66.064  85.402  1.00  0.00     0.053 C 
BRANCH   3   4
ATOM      4  C   UNL     1     -31.257  67.246  86.310  1.00  0.00     0.041 C 
ATOM      5  O   UNL     1     -32.343  67.486  86.900  1.00  0.00    -0.550 OA
ATOM      6  O   UNL     1     -30.154  68.058  86.544  1.00  0.00    -0.550 OA
ENDBRANCH   3   4
ENDBRANCH   2   3
ENDBRANCH   1   2
BRANCH   1   7
ATOM      7  C   UNL     1     -28.936  65.554  83.867  1.00  0.00     0.000 C 
BRANCH   7   8
ATOM      8  C   UNL     1     -28.022  66.788  83.887  1.00  0.00    -0.000 C 
BRANCH   8   9
ATOM      9  C   UNL     1     -27.098  66.820  85.115  1.00  0.00    -0.003 C 
ATOM     10  C   UNL     1     -26.734  68.241  85.544  1.00  0.00     0.004 C 
ENDBRANCH   8   9
ENDBRANCH   7   8
ENDBRANCH   1   7
TORSDOF 6
ENDMDL
MODEL 5
REMARK VINA RESULT:    -4.218      1.414      2.700
REMARK INTER + INTRA:          -6.274
REMARK INTER:                  -5.643
REMARK INTRA:                  -0.631
REMARK UNBOUND:                -0.576
REMARK SMILES CCCCCCCC(=O)[O-]
REMARK SMILES IDX 5 1 6 2 7 3 8 4 9 5 10 6 4 7 3 8 2 9 1 10
REMARK H PARENT
REMARK Flexibility Score: inf
ROOT
ATOM      1  C   UNL     1     -27.666  66.600  84.406  1.00  0.00     0.000 C 
ENDROOT
BRANCH   1   2
ATOM      2  C   UNL     1     -27.775  67.809  85.349  1.00  0.00     0.006 C 
BRANCH   2   3
ATOM      3  C   UNL     1     -28.607  67.506  86.602  1.00  0.00     0.053 C 
BRANCH   3   4
ATOM      4  C   UNL     1     -29.961  68.131  86.493  1.00  0.00     0.041 C 
ATOM      5  O   UNL     1     -30.994  67.411  86.498  1.00  0.00    -0.550 OA
ATOM      6  O   UNL     1     -30.087  69.514  86.435  1.00  0.00    -0.550 OA
ENDBRANCH   3   4
ENDBRANCH   2   3
ENDBRANCH   1   2
BRANCH   1   7
ATOM      7  C   UNL     1     -28.729  66.618  83.295  1.00  0.00     0.000 C 
BRANCH   7   8
ATOM      8  C   UNL     1     -29.844  65.603  83.588  1.00  0.00    -0.000 C 
BRANCH   8   9
ATOM      9  C   UNL     1     -29.339  64.377  84.364  1.00  0.00    -0.003 C 
ATOM     10  C   UNL     1     -30.142  64.110  85.637  1.00  0.00     0.004 C 
ENDBRANCH   8   9
ENDBRANCH   7   8
ENDBRANCH   1   7
TORSDOF 6
ENDMDL
MODEL 6
REMARK VINA RESULT:    -4.211      2.621      3.827
REMARK INTER + INTRA:          -6.263
REMARK INTER:                  -5.673
REMARK INTRA:                  -0.591
REMARK UNBOUND:                -0.576
REMARK SMILES CCCCCCCC(=O)[O-]
REMARK SMILES IDX 5 1 6 2 7 3 8 4 9 5 10 6 4 7 3 8 2 9 1 10
REMARK H PARENT
REMARK Flexibility Score: inf
ROOT
ATOM      1  C   UNL     1     -27.561  66.504  84.623  1.00  0.00     0.000 C 
ENDROOT
BRANCH   1   2
ATOM      2  C   UNL     1     -28.381  66.468  83.323  1.00  0.00     0.006 C 
BRANCH   2   3
ATOM      3  C   UNL     1     -29.756  65.813  83.510  1.00  0.00     0.053 C 
BRANCH   3   4
ATOM      4  C   UNL     1     -29.613  64.485  84.182  1.00  0.00     0.041 C 
ATOM      5  O   UNL     1     -30.120  64.292  85.319  1.00  0.00    -0.550 OA
ATOM      6  O   UNL     1     -28.963  63.443  83.533  1.00  0.00    -0.550 OA
ENDBRANCH   3   4
ENDBRANCH   2   3
ENDBRANCH   1   2
BRANCH   1   7
ATOM      7  C   UNL     1     -27.705  67.836  85.377  1.00  0.00     0.000 C 
BRANCH   7   8
ATOM      8  C   UNL     1     -28.638  67.682  86.587  1.00  0.00    -0.000 C 
BRANCH   8   9
ATOM      9  C   UNL     1     -29.972  68.421  86.403  1.00  0.00    -0.003 C 
ATOM     10  C   UNL     1     -31.181  67.491  86.503  1.00  0.00     0.004 C 
ENDBRANCH   8   9
ENDBRANCH   7   8
ENDBRANCH   1   7
TORSDOF 6
ENDMDL
MODEL 7
REMARK VINA RESULT:    -4.186      2.801      3.681
REMARK INTER + INTRA:          -6.230
REMARK INTER:                  -5.735
REMARK INTRA:                  -0.495
REMARK UNBOUND:                -0.576
REMARK SMILES CCCCCCCC(=O)[O-]
REMARK SMILES IDX 5 1 6 2 7 3 8 4 9 5 10 6 4 7 3 8 2 9 1 10
REMARK H PARENT
REMARK Flexibility Score: inf
ROOT
ATOM      1  C   UNL     1     -30.994  67.057  86.135  1.00  0.00     0.000 C 
ENDROOT
BRANCH   1   2
ATOM      2  C   UNL     1     -30.937  66.014  85.006  1.00  0.00     0.006 C 
BRANCH   2   3
ATOM      3  C   UNL     1     -30.181  64.743  85.414  1.00  0.00     0.053 C 
BRANCH   3   4
ATOM      4  C   UNL     1     -29.458  64.167  84.239  1.00  0.00     0.041 C 
ATOM      5  O   UNL     1     -29.422  64.794  83.147  1.00  0.00    -0.550 OA
ATOM      6  O   UNL     1     -28.781  62.960  84.362  1.00  0.00    -0.550 OA
ENDBRANCH   3   4
ENDBRANCH   2   3
ENDBRANCH   1   2
BRANCH   1   7
ATOM      7  C   UNL     1     -30.083  68.266  85.869  1.00  0.00     0.000 C 
BRANCH   7   8
ATOM      8  C   UNL     1     -28.752  68.126  86.622  1.00  0.00    -0.000 C 
BRANCH   8   9
ATOM      9  C   UNL     1     -27.533  68.247  85.695  1.00  0.00    -0.003 C 
ATOM     10  C   UNL     1     -27.125  66.910  85.076  1.00  0.00     0.004 C 
ENDBRANCH   8   9
ENDBRANCH   7   8
ENDBRANCH   1   7
TORSDOF 6
ENDMDL
MODEL 8
REMARK VINA RESULT:    -4.163      1.650      2.292
REMARK INTER + INTRA:          -6.199
REMARK INTER:                  -5.567
REMARK INTRA:                  -0.632
REMARK UNBOUND:                -0.576
REMARK SMILES CCCCCCCC(=O)[O-]
REMARK SMILES IDX 5 1 6 2 7 3 8 4 9 5 10 6 4 7 3 8 2 9 1 10
REMARK H PARENT
REMARK Flexibility Score: inf
ROOT
ATOM      1  C   UNL     1     -30.888  65.662  85.441  1.00  0.00     0.000 C 
ENDROOT
BRANCH   1   2
ATOM      2  C   UNL     1     -30.867  67.000  86.198  1.00  0.00     0.006 C 
BRANCH   2   3
ATOM      3  C   UNL     1     -30.064  68.081  85.463  1.00  0.00     0.053 C 
BRANCH   3   4
ATOM      4  C   UNL     1     -28.751  68.306  86.143  1.00  0.00     0.041 C 
ATOM      5  O   UNL     1     -28.714  68.657  87.352  1.00  0.00    -0.550 OA
ATOM      6  O   UNL     1     -27.564  68.080  85.456  1.00  0.00    -0.550 OA
ENDBRANCH   3   4
ENDBRANCH   2   3
ENDBRANCH   1   2
BRANCH   1   7
ATOM      7  C   UNL     1     -29.750  64.722  85.870  1.00  0.00     0.000 C 
BRANCH   7   8
ATOM      8  C   UNL     1     -28.642  64.682  84.807  1.00  0.00    -0.000 C 
BRANCH   8   9
ATOM      9  C   UNL     1     -29.171  64.962  83.392  1.00  0.00    -0.003 C 
ATOM     10  C   UNL     1     -28.399  66.073  82.681  1.00  0.00     0.004 C 
ENDBRANCH   8   9
ENDBRANCH   7   8
ENDBRANCH   1   7
TORSDOF 6
ENDMDL
MODEL 9
REMARK VINA RESULT:    -4.149      1.329      2.223
REMARK INTER + INTRA:          -6.181
REMARK INTER:                  -5.651
REMARK INTRA:                  -0.529
REMARK UNBOUND:                -0.576
REMARK SMILES CCCCCCCC(=O)[O-]
REMARK SMILES IDX 5 1 6 2 7 3 8 4 9 5 10 6 4 7 3 8 2 9 1 10
REMARK H PARENT
REMARK Flexibility Score: inf
ROOT
ATOM      1  C   UNL     1     -29.553  64.888  86.507  1.00  0.00     0.000 C 
ENDROOT
BRANCH   1   2
ATOM      2  C   UNL     1     -28.382  65.818  86.147  1.00  0.00     0.006 C 
BRANCH   2   3
ATOM      3  C   UNL     1     -28.667  67.286  86.489  1.00  0.00     0.053 C 
BRANCH   3   4
ATOM      4  C   UNL     1     -29.967  67.718  85.888  1.00  0.00     0.041 C 
ATOM      5  O   UNL     1     -30.088  67.810  84.638  1.00  0.00    -0.550 OA
ATOM      6  O   UNL     1     -31.061  67.973  86.706  1.00  0.00    -0.550 OA
ENDBRANCH   3   4
ENDBRANCH   2   3
ENDBRANCH   1   2
BRANCH   1   7
ATOM      7  C   UNL     1     -30.095  64.122  85.291  1.00  0.00     0.000 C 
BRANCH   7   8
ATOM      8  C   UNL     1     -29.018  63.985  84.204  1.00  0.00    -0.000 C 
BRANCH   8   9
ATOM      9  C   UNL     1     -29.427  64.649  82.880  1.00  0.00    -0.003 C 
ATOM     10  C   UNL     1     -28.403  65.674  82.393  1.00  0.00     0.004 C 
ENDBRANCH   8   9
ENDBRANCH   7   8
ENDBRANCH   1   7
TORSDOF 6
ENDMDL
