MODEL 1
REMARK VINA RESULT:    -4.285      0.000      0.000
REMARK INTER + INTRA:          -4.786
REMARK INTER:                  -4.786
REMARK INTRA:                   0.000
REMARK UNBOUND:                 0.000
REMARK SMILES Oc1cc(O)c2c(c1)CCc1cc(O)c(O)cc1-2
REMARK SMILES IDX 10 1 9 2 7 3 6 4 18 5 17 6 15 7 13 8 12 9 11 10 4 11 3 12
REMARK SMILES IDX 2 13 8 14 14 15 5 17 1 19 16 21
REMARK H PARENT 14 16 5 18 1 20 16 22
REMARK Flexibility Score: inf
ROOT
ATOM      1  C   UNL     1     122.157 122.522 105.609  1.00  0.00     0.041 C 
ATOM      2  C   UNL     1     122.289 123.656 106.632  1.00  0.00     0.041 C 
ATOM      3  C   UNL     1     120.957 123.945 107.278  1.00  0.00    -0.032 A 
ATOM      4  C   UNL     1     120.053 122.887 107.542  1.00  0.00     0.027 A 
ATOM      5  C   UNL     1     120.478 121.494 107.191  1.00  0.00    -0.007 A 
ATOM      6  C   UNL     1     119.962 120.357 107.843  1.00  0.00     0.059 A 
ATOM      7  C   UNL     1     120.377 119.068 107.490  1.00  0.00     0.158 A 
ATOM      8  C   UNL     1     121.344 118.901 106.473  1.00  0.00     0.157 A 
ATOM      9  C   UNL     1     121.906 120.028 105.867  1.00  0.00     0.054 A 
ATOM     10  C   UNL     1     121.507 121.318 106.242  1.00  0.00    -0.036 A 
ATOM     11  C   UNL     1     118.770 123.202 108.054  1.00  0.00     0.127 A 
ATOM     12  C   UNL     1     118.463 124.524 108.410  1.00  0.00     0.093 A 
ATOM     13  C   UNL     1     119.394 125.548 108.218  1.00  0.00     0.119 A 
ATOM     14  C   UNL     1     120.633 125.259 107.646  1.00  0.00     0.050 A 
ENDROOT
BRANCH   8  15
ATOM     15  O   UNL     1     121.778 117.645 106.044  1.00  0.00    -0.504 OA
ATOM     16  H   UNL     1     121.283 117.075 105.372  1.00  0.00     0.293 HD
ENDBRANCH   8  15
BRANCH  11  17
ATOM     17  O   UNL     1     117.782 122.224 108.174  1.00  0.00    -0.507 OA
ATOM     18  H   UNL     1     116.963 122.360 108.755  1.00  0.00     0.293 HD
ENDBRANCH  11  17
BRANCH  13  19
ATOM     19  O   UNL     1     119.093 126.859 108.577  1.00  0.00    -0.508 OA
ATOM     20  H   UNL     1     119.822 127.535 108.778  1.00  0.00     0.293 HD
ENDBRANCH  13  19
BRANCH   7  21
ATOM     21  O   UNL     1     119.815 117.991 108.178  1.00  0.00    -0.504 OA
ATOM     22  H   UNL     1     119.997 117.022 107.957  1.00  0.00     0.293 HD
ENDBRANCH   7  21
TORSDOF 4
ENDMDL
MODEL 2
REMARK VINA RESULT:    -4.256      2.842      4.486
REMARK INTER + INTRA:          -4.754
REMARK INTER:                  -4.754
REMARK INTRA:                   0.000
REMARK UNBOUND:                 0.000
REMARK SMILES Oc1cc(O)c2c(c1)CCc1cc(O)c(O)cc1-2
REMARK SMILES IDX 10 1 9 2 7 3 6 4 18 5 17 6 15 7 13 8 12 9 11 10 4 11 3 12
REMARK SMILES IDX 2 13 8 14 14 15 5 17 1 19 16 21
REMARK H PARENT 14 16 5 18 1 20 16 22
REMARK Flexibility Score: inf
ROOT
ATOM      1  C   UNL     1     122.503 120.875 105.586  1.00  0.00     0.041 C 
ATOM      2  C   UNL     1     123.649 120.733 106.595  1.00  0.00     0.041 C 
ATOM      3  C   UNL     1     123.940 122.056 107.257  1.00  0.00    -0.032 A 
ATOM      4  C   UNL     1     122.882 122.952 107.546  1.00  0.00     0.027 A 
ATOM      5  C   UNL     1     121.486 122.527 107.204  1.00  0.00    -0.007 A 
ATOM      6  C   UNL     1     120.355 123.028 107.876  1.00  0.00     0.059 A 
ATOM      7  C   UNL     1     119.064 122.614 107.531  1.00  0.00     0.158 A 
ATOM      8  C   UNL     1     118.889 121.661 106.501  1.00  0.00     0.157 A 
ATOM      9  C   UNL     1     120.011 121.113 105.875  1.00  0.00     0.054 A 
ATOM     10  C   UNL     1     121.304 121.511 106.241  1.00  0.00    -0.036 A 
ATOM     11  C   UNL     1     123.198 124.229 108.073  1.00  0.00     0.127 A 
ATOM     12  C   UNL     1     124.522 124.535 108.419  1.00  0.00     0.093 A 
ATOM     13  C   UNL     1     125.547 123.611 108.202  1.00  0.00     0.119 A 
ATOM     14  C   UNL     1     125.257 122.380 107.615  1.00  0.00     0.050 A 
ENDROOT
BRANCH   8  15
ATOM     15  O   UNL     1     117.630 121.228 106.080  1.00  0.00    -0.504 OA
ATOM     16  H   UNL     1     116.777 121.384 106.597  1.00  0.00     0.293 HD
ENDBRANCH   8  15
BRANCH  11  17
ATOM     17  O   UNL     1     122.217 125.210 108.219  1.00  0.00    -0.507 OA
ATOM     18  H   UNL     1     121.424 125.270 107.591  1.00  0.00     0.293 HD
ENDBRANCH  11  17
BRANCH  13  19
ATOM     19  O   UNL     1     126.861 123.912 108.552  1.00  0.00    -0.508 OA
ATOM     20  H   UNL     1     127.472 123.218 108.968  1.00  0.00     0.293 HD
ENDBRANCH  13  19
BRANCH   7  21
ATOM     21  O   UNL     1     117.992 123.161 108.239  1.00  0.00    -0.504 OA
ATOM     22  H   UNL     1     117.281 122.612 108.701  1.00  0.00     0.293 HD
ENDBRANCH   7  21
TORSDOF 4
ENDMDL
MODEL 3
REMARK VINA RESULT:    -4.217      1.957      6.064
REMARK INTER + INTRA:          -4.710
REMARK INTER:                  -4.710
REMARK INTRA:                   0.000
REMARK UNBOUND:                 0.000
REMARK SMILES Oc1cc(O)c2c(c1)CCc1cc(O)c(O)cc1-2
REMARK SMILES IDX 10 1 9 2 7 3 6 4 18 5 17 6 15 7 13 8 12 9 11 10 4 11 3 12
REMARK SMILES IDX 2 13 8 14 14 15 5 17 1 19 16 21
REMARK H PARENT 14 16 5 18 1 20 16 22
REMARK Flexibility Score: inf
ROOT
ATOM      1  C   UNL     1     119.210 122.479 105.973  1.00  0.00     0.041 C 
ATOM      2  C   UNL     1     119.175 121.057 106.544  1.00  0.00     0.041 C 
ATOM      3  C   UNL     1     120.559 120.456 106.554  1.00  0.00    -0.032 A 
ATOM      4  C   UNL     1     121.685 121.272 106.820  1.00  0.00     0.027 A 
ATOM      5  C   UNL     1     121.449 122.722 107.116  1.00  0.00    -0.007 A 
ATOM      6  C   UNL     1     122.342 123.494 107.884  1.00  0.00     0.059 A 
ATOM      7  C   UNL     1     122.095 124.847 108.141  1.00  0.00     0.158 A 
ATOM      8  C   UNL     1     120.919 125.449 107.638  1.00  0.00     0.157 A 
ATOM      9  C   UNL     1     119.998 124.672 106.931  1.00  0.00     0.054 A 
ATOM     10  C   UNL     1     120.236 123.311 106.698  1.00  0.00    -0.036 A 
ATOM     11  C   UNL     1     122.977 120.701 106.720  1.00  0.00     0.127 A 
ATOM     12  C   UNL     1     123.118 119.324 106.491  1.00  0.00     0.093 A 
ATOM     13  C   UNL     1     121.995 118.514 106.310  1.00  0.00     0.119 A 
ATOM     14  C   UNL     1     120.721 119.081 106.333  1.00  0.00     0.050 A 
ENDROOT
BRANCH   8  15
ATOM     15  O   UNL     1     120.624 126.802 107.825  1.00  0.00    -0.504 OA
ATOM     16  H   UNL     1     119.893 127.141 108.435  1.00  0.00     0.293 HD
ENDBRANCH   8  15
BRANCH  11  17
ATOM     17  O   UNL     1     124.123 121.492 106.804  1.00  0.00    -0.507 OA
ATOM     18  H   UNL     1     124.928 121.332 106.209  1.00  0.00     0.293 HD
ENDBRANCH  11  17
BRANCH  13  19
ATOM     19  O   UNL     1     122.134 117.145 106.090  1.00  0.00    -0.508 OA
ATOM     20  H   UNL     1     121.811 116.710 105.234  1.00  0.00     0.293 HD
ENDBRANCH  13  19
BRANCH   7  21
ATOM     21  O   UNL     1     123.031 125.548 108.904  1.00  0.00    -0.504 OA
ATOM     22  H   UNL     1     122.789 126.229 109.610  1.00  0.00     0.293 HD
ENDBRANCH   7  21
TORSDOF 4
ENDMDL
MODEL 4
REMARK VINA RESULT:    -4.207      1.656      2.193
REMARK INTER + INTRA:          -4.698
REMARK INTER:                  -4.698
REMARK INTRA:                   0.000
REMARK UNBOUND:                 0.000
REMARK SMILES Oc1cc(O)c2c(c1)CCc1cc(O)c(O)cc1-2
REMARK SMILES IDX 10 1 9 2 7 3 6 4 18 5 17 6 15 7 13 8 12 9 11 10 4 11 3 12
REMARK SMILES IDX 2 13 8 14 14 15 5 17 1 19 16 21
REMARK H PARENT 14 16 5 18 1 20 16 22
REMARK Flexibility Score: inf
ROOT
ATOM      1  C   UNL     1     123.675 120.348 105.855  1.00  0.00     0.041 C 
ATOM      2  C   UNL     1     123.769 121.769 106.423  1.00  0.00     0.041 C 
ATOM      3  C   UNL     1     122.402 122.400 106.501  1.00  0.00    -0.032 A 
ATOM      4  C   UNL     1     121.272 121.608 106.824  1.00  0.00     0.027 A 
ATOM      5  C   UNL     1     121.492 120.153 107.110  1.00  0.00    -0.007 A 
ATOM      6  C   UNL     1     120.621 119.401 107.922  1.00  0.00     0.059 A 
ATOM      7  C   UNL     1     120.852 118.042 108.167  1.00  0.00     0.158 A 
ATOM      8  C   UNL     1     121.988 117.415 107.607  1.00  0.00     0.157 A 
ATOM      9  C   UNL     1     122.889 118.172 106.854  1.00  0.00     0.054 A 
ATOM     10  C   UNL     1     122.669 119.538 106.631  1.00  0.00    -0.036 A 
ATOM     11  C   UNL     1     119.989 122.208 106.788  1.00  0.00     0.127 A 
ATOM     12  C   UNL     1     119.867 123.587 106.566  1.00  0.00     0.093 A 
ATOM     13  C   UNL     1     120.998 124.373 106.328  1.00  0.00     0.119 A 
ATOM     14  C   UNL     1     122.259 123.778 106.287  1.00  0.00     0.050 A 
ENDROOT
BRANCH   8  15
ATOM     15  O   UNL     1     122.262 116.057 107.780  1.00  0.00    -0.504 OA
ATOM     16  H   UNL     1     123.189 115.682 107.928  1.00  0.00     0.293 HD
ENDBRANCH   8  15
BRANCH  11  17
ATOM     17  O   UNL     1     118.832 121.441 106.930  1.00  0.00    -0.507 OA
ATOM     18  H   UNL     1     118.230 121.528 107.741  1.00  0.00     0.293 HD
ENDBRANCH  11  17
BRANCH  13  19
ATOM     19  O   UNL     1     120.878 125.744 106.114  1.00  0.00    -0.508 OA
ATOM     20  H   UNL     1     120.197 126.301 106.617  1.00  0.00     0.293 HD
ENDBRANCH  13  19
BRANCH   7  21
ATOM     21  O   UNL     1     119.940 117.363 108.977  1.00  0.00    -0.504 OA
ATOM     22  H   UNL     1     119.000 117.683 109.162  1.00  0.00     0.293 HD
ENDBRANCH   7  21
TORSDOF 4
ENDMDL
MODEL 5
REMARK VINA RESULT:    -4.205      2.684      6.377
REMARK INTER + INTRA:          -4.697
REMARK INTER:                  -4.697
REMARK INTRA:                   0.000
REMARK UNBOUND:                 0.000
REMARK SMILES Oc1cc(O)c2c(c1)CCc1cc(O)c(O)cc1-2
REMARK SMILES IDX 10 1 9 2 7 3 6 4 18 5 17 6 15 7 13 8 12 9 11 10 4 11 3 12
REMARK SMILES IDX 2 13 8 14 14 15 5 17 1 19 16 21
REMARK H PARENT 14 16 5 18 1 20 16 22
REMARK Flexibility Score: inf
ROOT
ATOM      1  C   UNL     1     120.994 120.466 105.557  1.00  0.00     0.041 C 
ATOM      2  C   UNL     1     120.866 119.305 106.549  1.00  0.00     0.041 C 
ATOM      3  C   UNL     1     122.186 119.041 107.230  1.00  0.00    -0.032 A 
ATOM      4  C   UNL     1     123.049 120.119 107.545  1.00  0.00     0.027 A 
ATOM      5  C   UNL     1     122.592 121.507 107.212  1.00  0.00    -0.007 A 
ATOM      6  C   UNL     1     123.053 122.643 107.906  1.00  0.00     0.059 A 
ATOM      7  C   UNL     1     122.610 123.927 107.568  1.00  0.00     0.158 A 
ATOM      8  C   UNL     1     121.669 124.089 106.526  1.00  0.00     0.157 A 
ATOM      9  C   UNL     1     121.161 122.960 105.878  1.00  0.00     0.054 A 
ATOM     10  C   UNL     1     121.588 121.674 106.235  1.00  0.00    -0.036 A 
ATOM     11  C   UNL     1     124.325 119.831 108.090  1.00  0.00     0.127 A 
ATOM     12  C   UNL     1     124.661 118.511 108.425  1.00  0.00     0.093 A 
ATOM     13  C   UNL     1     123.767 117.464 108.181  1.00  0.00     0.119 A 
ATOM     14  C   UNL     1     122.538 117.730 107.578  1.00  0.00     0.050 A 
ENDROOT
BRANCH   8  15
ATOM     15  O   UNL     1     121.210 125.341 106.111  1.00  0.00    -0.504 OA
ATOM     16  H   UNL     1     120.670 125.965 106.694  1.00  0.00     0.293 HD
ENDBRANCH   8  15
BRANCH  11  17
ATOM     17  O   UNL     1     125.278 120.835 108.262  1.00  0.00    -0.507 OA
ATOM     18  H   UNL     1     126.070 120.718 108.883  1.00  0.00     0.293 HD
ENDBRANCH  11  17
BRANCH  13  19
ATOM     19  O   UNL     1     124.098 116.155 108.521  1.00  0.00    -0.508 OA
ATOM     20  H   UNL     1     123.385 115.448 108.663  1.00  0.00     0.293 HD
ENDBRANCH  13  19
BRANCH   7  21
ATOM     21  O   UNL     1     123.117 125.004 108.298  1.00  0.00    -0.504 OA
ATOM     22  H   UNL     1     123.620 125.778 107.887  1.00  0.00     0.293 HD
ENDBRANCH   7  21
TORSDOF 4
ENDMDL
MODEL 6
REMARK VINA RESULT:    -4.185      2.905      4.552
REMARK INTER + INTRA:          -4.674
REMARK INTER:                  -4.674
REMARK INTRA:                   0.000
REMARK UNBOUND:                 0.000
REMARK SMILES Oc1cc(O)c2c(c1)CCc1cc(O)c(O)cc1-2
REMARK SMILES IDX 10 1 9 2 7 3 6 4 18 5 17 6 15 7 13 8 12 9 11 10 4 11 3 12
REMARK SMILES IDX 2 13 8 14 14 15 5 17 1 19 16 21
REMARK H PARENT 14 16 5 18 1 20 16 22
REMARK Flexibility Score: inf
ROOT
ATOM      1  C   UNL     1     120.239 122.008 105.709  1.00  0.00     0.041 C 
ATOM      2  C   UNL     1     119.124 122.124 106.755  1.00  0.00     0.041 C 
ATOM      3  C   UNL     1     118.858 120.785 107.397  1.00  0.00    -0.032 A 
ATOM      4  C   UNL     1     119.928 119.888 107.635  1.00  0.00     0.027 A 
ATOM      5  C   UNL     1     121.311 120.327 107.260  1.00  0.00    -0.007 A 
ATOM      6  C   UNL     1     122.464 119.817 107.886  1.00  0.00     0.059 A 
ATOM      7  C   UNL     1     123.743 120.244 107.511  1.00  0.00     0.158 A 
ATOM      8  C   UNL     1     123.882 121.219 106.497  1.00  0.00     0.157 A 
ATOM      9  C   UNL     1     122.740 121.776 105.917  1.00  0.00     0.054 A 
ATOM     10  C   UNL     1     121.460 121.364 106.314  1.00  0.00    -0.036 A 
ATOM     11  C   UNL     1     119.634 118.599 108.144  1.00  0.00     0.127 A 
ATOM     12  C   UNL     1     118.322 118.279 108.523  1.00  0.00     0.093 A 
ATOM     13  C   UNL     1     117.287 119.203 108.357  1.00  0.00     0.119 A 
ATOM     14  C   UNL     1     117.555 120.448 107.788  1.00  0.00     0.050 A 
ENDROOT
BRANCH   8  15
ATOM     15  O   UNL     1     125.126 121.667 106.047  1.00  0.00    -0.504 OA
ATOM     16  H   UNL     1     125.797 121.082 105.568  1.00  0.00     0.293 HD
ENDBRANCH   8  15
BRANCH  11  17
ATOM     17  O   UNL     1     120.622 117.619 108.239  1.00  0.00    -0.507 OA
ATOM     18  H   UNL     1     121.075 117.401 109.118  1.00  0.00     0.293 HD
ENDBRANCH  11  17
BRANCH  13  19
ATOM     19  O   UNL     1     115.985 118.889 108.740  1.00  0.00    -0.508 OA
ATOM     20  H   UNL     1     115.520 119.381 109.493  1.00  0.00     0.293 HD
ENDBRANCH  13  19
BRANCH   7  21
ATOM     21  O   UNL     1     124.838 119.687 108.175  1.00  0.00    -0.504 OA
ATOM     22  H   UNL     1     125.534 120.227 108.669  1.00  0.00     0.293 HD
ENDBRANCH   7  21
TORSDOF 4
ENDMDL
MODEL 7
REMARK VINA RESULT:    -4.181      2.495      4.704
REMARK INTER + INTRA:          -4.669
REMARK INTER:                  -4.669
REMARK INTRA:                   0.000
REMARK UNBOUND:                 0.000
REMARK SMILES Oc1cc(O)c2c(c1)CCc1cc(O)c(O)cc1-2
REMARK SMILES IDX 10 1 9 2 7 3 6 4 18 5 17 6 15 7 13 8 12 9 11 10 4 11 3 12
REMARK SMILES IDX 2 13 8 14 14 15 5 17 1 19 16 21
REMARK H PARENT 14 16 5 18 1 20 16 22
REMARK Flexibility Score: inf
ROOT
ATOM      1  C   UNL     1     120.475 119.277 105.971  1.00  0.00     0.041 C 
ATOM      2  C   UNL     1     121.901 119.220 106.533  1.00  0.00     0.041 C 
ATOM      3  C   UNL     1     122.509 120.600 106.577  1.00  0.00    -0.032 A 
ATOM      4  C   UNL     1     121.699 121.722 106.879  1.00  0.00     0.027 A 
ATOM      5  C   UNL     1     120.250 121.484 107.179  1.00  0.00    -0.007 A 
ATOM      6  C   UNL     1     119.488 122.360 107.975  1.00  0.00     0.059 A 
ATOM      7  C   UNL     1     118.135 122.112 108.234  1.00  0.00     0.158 A 
ATOM      8  C   UNL     1     117.524 120.953 107.703  1.00  0.00     0.157 A 
ATOM      9  C   UNL     1     118.292 120.048 106.966  1.00  0.00     0.054 A 
ATOM     10  C   UNL     1     119.653 120.287 106.730  1.00  0.00    -0.036 A 
ATOM     11  C   UNL     1     122.277 123.014 106.811  1.00  0.00     0.127 A 
ATOM     12  C   UNL     1     123.652 123.155 106.578  1.00  0.00     0.093 A 
ATOM     13  C   UNL     1     124.456 122.033 106.360  1.00  0.00     0.119 A 
ATOM     14  C   UNL     1     123.883 120.762 106.351  1.00  0.00     0.050 A 
ENDROOT
BRANCH   8  15
ATOM     15  O   UNL     1     116.172 120.660 107.890  1.00  0.00    -0.504 OA
ATOM     16  H   UNL     1     115.457 121.359 108.038  1.00  0.00     0.293 HD
ENDBRANCH   8  15
BRANCH  11  17
ATOM     17  O   UNL     1     121.491 124.161 106.932  1.00  0.00    -0.507 OA
ATOM     18  H   UNL     1     120.969 124.536 106.149  1.00  0.00     0.293 HD
ENDBRANCH  11  17
BRANCH  13  19
ATOM     19  O   UNL     1     125.824 122.172 106.135  1.00  0.00    -0.508 OA
ATOM     20  H   UNL     1     126.237 123.071 105.916  1.00  0.00     0.293 HD
ENDBRANCH  13  19
BRANCH   7  21
ATOM     21  O   UNL     1     117.444 123.030 109.028  1.00  0.00    -0.504 OA
ATOM     22  H   UNL     1     117.837 123.900 109.358  1.00  0.00     0.293 HD
ENDBRANCH   7  21
TORSDOF 4
ENDMDL
MODEL 8
REMARK VINA RESULT:    -4.169      2.871      4.393
REMARK INTER + INTRA:          -4.656
REMARK INTER:                  -4.656
REMARK INTRA:                   0.000
REMARK UNBOUND:                 0.000
REMARK SMILES Oc1cc(O)c2c(c1)CCc1cc(O)c(O)cc1-2
REMARK SMILES IDX 10 1 9 2 7 3 6 4 18 5 17 6 15 7 13 8 12 9 11 10 4 11 3 12
REMARK SMILES IDX 2 13 8 14 14 15 5 17 1 19 16 21
REMARK H PARENT 14 16 5 18 1 20 16 22
REMARK Flexibility Score: inf
ROOT
ATOM      1  C   UNL     1     122.568 123.754 105.932  1.00  0.00     0.041 C 
ATOM      2  C   UNL     1     121.157 123.805 106.529  1.00  0.00     0.041 C 
ATOM      3  C   UNL     1     120.545 122.427 106.560  1.00  0.00    -0.032 A 
ATOM      4  C   UNL     1     121.357 121.295 106.817  1.00  0.00     0.027 A 
ATOM      5  C   UNL     1     122.814 121.521 107.086  1.00  0.00    -0.007 A 
ATOM      6  C   UNL     1     123.592 120.626 107.845  1.00  0.00     0.059 A 
ATOM      7  C   UNL     1     124.952 120.864 108.075  1.00  0.00     0.158 A 
ATOM      8  C   UNL     1     125.554 122.031 107.553  1.00  0.00     0.157 A 
ATOM      9  C   UNL     1     124.772 122.954 106.855  1.00  0.00     0.054 A 
ATOM     10  C   UNL     1     123.405 122.725 106.648  1.00  0.00    -0.036 A 
ATOM     11  C   UNL     1     120.772 120.007 106.737  1.00  0.00     0.127 A 
ATOM     12  C   UNL     1     119.390 119.877 106.535  1.00  0.00     0.093 A 
ATOM     13  C   UNL     1     118.586 121.006 106.361  1.00  0.00     0.119 A 
ATOM     14  C   UNL     1     119.164 122.275 106.365  1.00  0.00     0.050 A 
ENDROOT
BRANCH   8  15
ATOM     15  O   UNL     1     126.912 122.315 107.713  1.00  0.00    -0.504 OA
ATOM     16  H   UNL     1     127.286 122.885 108.459  1.00  0.00     0.293 HD
ENDBRANCH   8  15
BRANCH  11  17
ATOM     17  O   UNL     1     121.555 118.855 106.814  1.00  0.00    -0.507 OA
ATOM     18  H   UNL     1     121.908 118.507 107.698  1.00  0.00     0.293 HD
ENDBRANCH  11  17
BRANCH  13  19
ATOM     19  O   UNL     1     117.213 120.878 106.168  1.00  0.00    -0.508 OA
ATOM     20  H   UNL     1     116.582 120.706 106.942  1.00  0.00     0.293 HD
ENDBRANCH  13  19
BRANCH   7  21
ATOM     21  O   UNL     1     125.658 119.926 108.831  1.00  0.00    -0.504 OA
ATOM     22  H   UNL     1     126.041 120.112 109.747  1.00  0.00     0.293 HD
ENDBRANCH   7  21
TORSDOF 4
ENDMDL
MODEL 9
REMARK VINA RESULT:    -4.119      1.752      5.591
REMARK INTER + INTRA:          -4.600
REMARK INTER:                  -4.600
REMARK INTRA:                   0.000
REMARK UNBOUND:                 0.000
REMARK SMILES Oc1cc(O)c2c(c1)CCc1cc(O)c(O)cc1-2
REMARK SMILES IDX 10 1 9 2 7 3 6 4 18 5 17 6 15 7 13 8 12 9 11 10 4 11 3 12
REMARK SMILES IDX 2 13 8 14 14 15 5 17 1 19 16 21
REMARK H PARENT 14 16 5 18 1 20 16 22
REMARK Flexibility Score: inf
ROOT
ATOM      1  C   UNL     1     123.831 121.711 106.378  1.00  0.00     0.041 C 
ATOM      2  C   UNL     1     123.626 120.281 105.863  1.00  0.00     0.041 C 
ATOM      3  C   UNL     1     122.696 119.518 106.774  1.00  0.00    -0.032 A 
ATOM      4  C   UNL     1     121.612 120.182 107.398  1.00  0.00     0.027 A 
ATOM      5  C   UNL     1     121.411 121.637 107.099  1.00  0.00    -0.007 A 
ATOM      6  C   UNL     1     120.154 122.264 107.198  1.00  0.00     0.059 A 
ATOM      7  C   UNL     1     120.000 123.626 106.914  1.00  0.00     0.158 A 
ATOM      8  C   UNL     1     121.119 124.384 106.503  1.00  0.00     0.157 A 
ATOM      9  C   UNL     1     122.355 123.753 106.342  1.00  0.00     0.054 A 
ATOM     10  C   UNL     1     122.501 122.384 106.602  1.00  0.00    -0.036 A 
ATOM     11  C   UNL     1     120.820 119.464 108.328  1.00  0.00     0.127 A 
ATOM     12  C   UNL     1     121.034 118.091 108.516  1.00  0.00     0.093 A 
ATOM     13  C   UNL     1     122.058 117.429 107.832  1.00  0.00     0.119 A 
ATOM     14  C   UNL     1     122.890 118.144 106.971  1.00  0.00     0.050 A 
ENDROOT
BRANCH   8  15
ATOM     15  O   UNL     1     121.047 125.754 106.238  1.00  0.00    -0.504 OA
ATOM     16  H   UNL     1     121.551 126.457 106.760  1.00  0.00     0.293 HD
ENDBRANCH   8  15
BRANCH  11  17
ATOM     17  O   UNL     1     119.850 120.108 109.096  1.00  0.00    -0.507 OA
ATOM     18  H   UNL     1     119.781 119.967 110.097  1.00  0.00     0.293 HD
ENDBRANCH  11  17
BRANCH  13  19
ATOM     19  O   UNL     1     122.266 116.064 108.013  1.00  0.00    -0.508 OA
ATOM     20  H   UNL     1     123.200 115.672 108.067  1.00  0.00     0.293 HD
ENDBRANCH  13  19
BRANCH   7  21
ATOM     21  O   UNL     1     118.723 124.177 107.041  1.00  0.00    -0.504 OA
ATOM     22  H   UNL     1     118.084 123.955 107.791  1.00  0.00     0.293 HD
ENDBRANCH   7  21
TORSDOF 4
ENDMDL
