MODEL 1
REMARK VINA RESULT:     7.003      0.000      0.000
REMARK INTER + INTRA:           7.413
REMARK INTER:                   7.413
REMARK INTRA:                   0.000
REMARK UNBOUND:                 0.000
REMARK SMILES CC1(C)[C@H](O)CC[C@@]2(C)[C@H]1CC[C@]1(C)[C@H]2C=CC2=C(O)C(=O)C(=O)[C@@]21C
REMARK SMILES IDX 1 1 2 2 10 3 11 4 12 5 13 6 15 7 8 8 7 9 6 10 4 11 9 12
REMARK SMILES IDX 16 13 17 14 18 15 19 16 21 17 22 18 23 19 24 20 25 21 26 22
REMARK SMILES IDX 14 23 3 24 5 25 20 27
REMARK H PARENT 5 26 20 28
REMARK Flexibility Score: inf
ROOT
ATOM      1  C   UNL     1       5.152  16.678  15.007  1.00  0.00     0.014 C 
ATOM      2  C   UNL     1       3.878  17.184  15.743  1.00  0.00    -0.006 C 
ATOM      3  C   UNL     1       4.093  18.714  16.124  1.00  0.00     0.004 C 
ATOM      4  C   UNL     1       5.002  18.948  17.363  1.00  0.00     0.005 C 
ATOM      5  C   UNL     1       5.410  20.423  17.528  1.00  0.00     0.009 C 
ATOM      6  C   UNL     1       4.218  21.439  17.537  1.00  0.00    -0.009 C 
ATOM      7  C   UNL     1       3.263  21.122  16.292  1.00  0.00     0.025 C 
ATOM      8  C   UNL     1       2.789  19.601  16.181  1.00  0.00    -0.022 C 
ATOM      9  C   UNL     1       1.878  19.396  14.899  1.00  0.00     0.010 C 
ATOM     10  C   UNL     1       2.351  18.265  13.980  1.00  0.00     0.033 C 
ATOM     11  C   UNL     1       2.625  17.004  14.807  1.00  0.00     0.120 C 
ATOM     12  C   UNL     1       1.875  19.199  17.382  1.00  0.00     0.012 C 
ATOM     13  C   UNL     1       3.907  21.592  14.964  1.00  0.00    -0.022 C 
ATOM     14  C   UNL     1       4.851  22.529  14.866  1.00  0.00     0.005 C 
ATOM     15  C   UNL     1       5.444  23.099  16.068  1.00  0.00     0.012 C 
ATOM     16  C   UNL     1       6.695  23.563  16.159  1.00  0.00     0.171 C 
ATOM     17  C   UNL     1       7.052  23.716  17.547  1.00  0.00     0.264 C 
ATOM     18  O   UNL     1       8.157  24.124  17.991  1.00  0.00    -0.282 OA
ATOM     19  C   UNL     1       5.922  23.281  18.333  1.00  0.00     0.217 C 
ATOM     20  O   UNL     1       5.893  23.284  19.592  1.00  0.00    -0.289 OA
ATOM     21  C   UNL     1       4.773  22.927  17.410  1.00  0.00     0.069 C 
ATOM     22  C   UNL     1       3.677  24.015  17.543  1.00  0.00     0.026 C 
ATOM     23  C   UNL     1       3.458  21.332  18.898  1.00  0.00     0.013 C 
ATOM     24  C   UNL     1       3.691  16.291  16.997  1.00  0.00     0.014 C 
ENDROOT
BRANCH  11  25
ATOM     25  O   UNL     1       2.773  15.915  13.928  1.00  0.00    -0.393 OA
ATOM     26  H   UNL     1       2.100  16.028  13.208  1.00  0.00     0.210 HD
ENDBRANCH  11  25
BRANCH  16  27
ATOM     27  O   UNL     1       7.572  23.793  15.100  1.00  0.00    -0.504 OA
ATOM     28  H   UNL     1       8.535  24.071  15.241  1.00  0.00     0.293 HD
ENDBRANCH  16  27
TORSDOF 2
ENDMDL
