MODEL 1
REMARK VINA RESULT:    -3.287      0.000      0.000
REMARK INTER + INTRA:          -4.004
REMARK INTER:                  -3.767
REMARK INTRA:                  -0.237
REMARK UNBOUND:                -0.237
REMARK SMILES CC=Cc1ccc(O)c(OC)c1
REMARK SMILES IDX 4 1 12 2 9 3 7 4 6 5 5 6 3 7 1 8 2 9 10 10 11 11 8 12
REMARK H PARENT 8 13
REMARK Flexibility Score: inf
ROOT
ATOM      1  C   UNL     1     134.462 141.910 142.241  1.00  0.00    -0.022 A 
ATOM      2  C   UNL     1     133.792 143.046 141.764  1.00  0.00     0.058 A 
ATOM      3  C   UNL     1     132.738 142.919 140.838  1.00  0.00     0.161 A 
ATOM      4  C   UNL     1     132.348 141.643 140.411  1.00  0.00     0.157 A 
ATOM      5  C   UNL     1     132.998 140.506 140.909  1.00  0.00     0.051 A 
ATOM      6  C   UNL     1     134.042 140.637 141.826  1.00  0.00     0.012 A 
ENDROOT
BRANCH   1   7
ATOM      7  C   UNL     1     135.545 142.075 143.234  1.00  0.00     0.003 C 
ATOM      8  C   UNL     1     137.391 142.075 141.534  1.00  0.00     0.035 C 
ATOM      9  C   UNL     1     136.850 142.128 142.931  1.00  0.00    -0.030 C 
ENDBRANCH   1   7
BRANCH   3  10
ATOM     10  O   UNL     1     132.055 144.034 140.324  1.00  0.00    -0.493 OA
ATOM     11  C   UNL     1     132.451 144.754 139.161  1.00  0.00     0.278 C 
ENDBRANCH   3  10
BRANCH   4  12
ATOM     12  O   UNL     1     131.307 141.511 139.493  1.00  0.00    -0.504 OA
ATOM     13  H   UNL     1     130.606 142.234 139.378  1.00  0.00     0.293 HD
ENDBRANCH   4  12
TORSDOF 3
ENDMDL
MODEL 2
REMARK VINA RESULT:    -3.253     12.363     14.984
REMARK INTER + INTRA:          -3.965
REMARK INTER:                  -3.727
REMARK INTRA:                  -0.238
REMARK UNBOUND:                -0.237
REMARK SMILES CC=Cc1ccc(O)c(OC)c1
REMARK SMILES IDX 4 1 12 2 9 3 7 4 6 5 5 6 3 7 1 8 2 9 10 10 11 11 8 12
REMARK H PARENT 8 13
REMARK Flexibility Score: inf
ROOT
ATOM      1  C   UNL     1     147.187 139.682 142.215  1.00  0.00    -0.022 A 
ATOM      2  C   UNL     1     147.865 138.546 141.750  1.00  0.00     0.058 A 
ATOM      3  C   UNL     1     148.945 138.672 140.854  1.00  0.00     0.161 A 
ATOM      4  C   UNL     1     149.352 139.949 140.444  1.00  0.00     0.157 A 
ATOM      5  C   UNL     1     148.694 141.086 140.931  1.00  0.00     0.051 A 
ATOM      6  C   UNL     1     147.624 140.955 141.818  1.00  0.00     0.012 A 
ENDROOT
BRANCH   1   7
ATOM      7  C   UNL     1     146.076 139.517 143.176  1.00  0.00     0.003 C 
ATOM      8  C   UNL     1     144.280 139.512 141.424  1.00  0.00     0.035 C 
ATOM      9  C   UNL     1     144.780 139.462 142.836  1.00  0.00    -0.030 C 
ENDBRANCH   1   7
BRANCH   3  10
ATOM     10  O   UNL     1     149.636 137.557 140.353  1.00  0.00    -0.493 OA
ATOM     11  C   UNL     1     149.271 136.845 139.175  1.00  0.00     0.278 C 
ENDBRANCH   3  10
BRANCH   4  12
ATOM     12  O   UNL     1     150.418 140.080 139.556  1.00  0.00    -0.504 OA
ATOM     13  H   UNL     1     150.797 139.282 139.060  1.00  0.00     0.293 HD
ENDBRANCH   4  12
TORSDOF 3
ENDMDL
MODEL 3
REMARK VINA RESULT:    -3.253      9.144     10.569
REMARK INTER + INTRA:          -3.965
REMARK INTER:                  -3.719
REMARK INTRA:                  -0.246
REMARK UNBOUND:                -0.237
REMARK SMILES CC=Cc1ccc(O)c(OC)c1
REMARK SMILES IDX 4 1 12 2 9 3 7 4 6 5 5 6 3 7 1 8 2 9 10 10 11 11 8 12
REMARK H PARENT 8 13
REMARK Flexibility Score: inf
ROOT
ATOM      1  C   UNL     1     141.953 147.119 142.199  1.00  0.00    -0.022 A 
ATOM      2  C   UNL     1     143.086 147.785 141.710  1.00  0.00     0.058 A 
ATOM      3  C   UNL     1     142.953 148.858 140.806  1.00  0.00     0.161 A 
ATOM      4  C   UNL     1     141.673 149.270 140.412  1.00  0.00     0.157 A 
ATOM      5  C   UNL     1     140.539 148.624 140.923  1.00  0.00     0.051 A 
ATOM      6  C   UNL     1     140.677 147.562 141.818  1.00  0.00     0.012 A 
ENDROOT
BRANCH   1   7
ATOM      7  C   UNL     1     142.126 146.016 143.167  1.00  0.00     0.003 C 
ATOM      8  C   UNL     1     142.118 144.206 141.430  1.00  0.00     0.035 C 
ATOM      9  C   UNL     1     142.178 144.718 142.838  1.00  0.00    -0.030 C 
ENDBRANCH   1   7
BRANCH   3  10
ATOM     10  O   UNL     1     144.065 149.537 140.281  1.00  0.00    -0.493 OA
ATOM     11  C   UNL     1     144.782 149.131 139.119  1.00  0.00     0.278 C 
ENDBRANCH   3  10
BRANCH   4  12
ATOM     12  O   UNL     1     141.534 150.328 139.517  1.00  0.00    -0.504 OA
ATOM     13  H   UNL     1     141.619 151.293 139.817  1.00  0.00     0.293 HD
ENDBRANCH   4  12
TORSDOF 3
ENDMDL
MODEL 4
REMARK VINA RESULT:    -3.234      9.091     10.531
REMARK INTER + INTRA:          -3.944
REMARK INTER:                  -3.704
REMARK INTRA:                  -0.240
REMARK UNBOUND:                -0.237
REMARK SMILES CC=Cc1ccc(O)c(OC)c1
REMARK SMILES IDX 4 1 12 2 9 3 7 4 6 5 5 6 3 7 1 8 2 9 10 10 11 11 8 12
REMARK H PARENT 8 13
REMARK Flexibility Score: inf
ROOT
ATOM      1  C   UNL     1     139.677 134.504 142.231  1.00  0.00    -0.022 A 
ATOM      2  C   UNL     1     138.545 133.819 141.765  1.00  0.00     0.058 A 
ATOM      3  C   UNL     1     138.679 132.742 140.867  1.00  0.00     0.161 A 
ATOM      4  C   UNL     1     139.959 132.344 140.457  1.00  0.00     0.157 A 
ATOM      5  C   UNL     1     141.092 133.009 140.946  1.00  0.00     0.051 A 
ATOM      6  C   UNL     1     140.953 134.076 141.834  1.00  0.00     0.012 A 
ENDROOT
BRANCH   1   7
ATOM      7  C   UNL     1     139.504 135.612 143.194  1.00  0.00     0.003 C 
ATOM      8  C   UNL     1     139.499 137.412 141.446  1.00  0.00     0.035 C 
ATOM      9  C   UNL     1     139.445 136.908 142.857  1.00  0.00    -0.030 C 
ENDBRANCH   1   7
BRANCH   3  10
ATOM     10  O   UNL     1     137.569 132.044 140.364  1.00  0.00    -0.493 OA
ATOM     11  C   UNL     1     136.848 132.415 139.193  1.00  0.00     0.278 C 
ENDBRANCH   3  10
BRANCH   4  12
ATOM     12  O   UNL     1     140.099 131.280 139.568  1.00  0.00    -0.504 OA
ATOM     13  H   UNL     1     140.389 131.426 138.607  1.00  0.00     0.293 HD
ENDBRANCH   4  12
TORSDOF 3
ENDMDL
MODEL 5
REMARK VINA RESULT:    -3.163      6.630      8.181
REMARK INTER + INTRA:          -3.862
REMARK INTER:                  -3.634
REMARK INTRA:                  -0.228
REMARK UNBOUND:                -0.237
REMARK SMILES CC=Cc1ccc(O)c(OC)c1
REMARK SMILES IDX 4 1 12 2 9 3 7 4 6 5 5 6 3 7 1 8 2 9 10 10 11 11 8 12
REMARK H PARENT 8 13
REMARK Flexibility Score: inf
ROOT
ATOM      1  C   UNL     1     139.906 136.298 142.908  1.00  0.00    -0.022 A 
ATOM      2  C   UNL     1     139.671 137.539 142.298  1.00  0.00     0.058 A 
ATOM      3  C   UNL     1     139.120 138.607 143.034  1.00  0.00     0.161 A 
ATOM      4  C   UNL     1     138.826 138.425 144.392  1.00  0.00     0.157 A 
ATOM      5  C   UNL     1     139.087 137.195 145.010  1.00  0.00     0.051 A 
ATOM      6  C   UNL     1     139.633 136.141 144.276  1.00  0.00     0.012 A 
ENDROOT
BRANCH   1   7
ATOM      7  C   UNL     1     140.512 135.208 142.116  1.00  0.00     0.003 C 
ATOM      8  C   UNL     1     138.353 133.977 141.767  1.00  0.00     0.035 C 
ATOM      9  C   UNL     1     139.834 134.161 141.623  1.00  0.00    -0.030 C 
ENDBRANCH   1   7
BRANCH   3  10
ATOM     10  O   UNL     1     138.854 139.857 142.453  1.00  0.00    -0.493 OA
ATOM     11  C   UNL     1     137.747 140.129 141.599  1.00  0.00     0.278 C 
ENDBRANCH   3  10
BRANCH   4  12
ATOM     12  O   UNL     1     138.278 139.477 145.125  1.00  0.00    -0.504 OA
ATOM     13  H   UNL     1     137.404 139.374 145.629  1.00  0.00     0.293 HD
ENDBRANCH   4  12
TORSDOF 3
ENDMDL
MODEL 6
REMARK VINA RESULT:    -3.153      8.927      9.921
REMARK INTER + INTRA:          -3.851
REMARK INTER:                  -3.621
REMARK INTRA:                  -0.230
REMARK UNBOUND:                -0.237
REMARK SMILES CC=Cc1ccc(O)c(OC)c1
REMARK SMILES IDX 4 1 12 2 9 3 7 4 6 5 5 6 3 7 1 8 2 9 10 10 11 11 8 12
REMARK H PARENT 8 13
REMARK Flexibility Score: inf
ROOT
ATOM      1  C   UNL     1     141.644 145.729 142.892  1.00  0.00    -0.022 A 
ATOM      2  C   UNL     1     141.955 144.514 142.263  1.00  0.00     0.058 A 
ATOM      3  C   UNL     1     142.478 143.436 143.005  1.00  0.00     0.161 A 
ATOM      4  C   UNL     1     142.667 143.580 144.386  1.00  0.00     0.157 A 
ATOM      5  C   UNL     1     142.330 144.783 145.020  1.00  0.00     0.051 A 
ATOM      6  C   UNL     1     141.813 145.848 144.280  1.00  0.00     0.012 A 
ENDROOT
BRANCH   1   7
ATOM      7  C   UNL     1     141.071 146.830 142.091  1.00  0.00     0.003 C 
ATOM      8  C   UNL     1     143.294 147.784 141.422  1.00  0.00     0.035 C 
ATOM      9  C   UNL     1     141.795 147.761 141.452  1.00  0.00    -0.030 C 
ENDBRANCH   1   7
BRANCH   3  10
ATOM     10  O   UNL     1     142.818 142.212 142.407  1.00  0.00    -0.493 OA
ATOM     11  C   UNL     1     143.189 142.058 141.041  1.00  0.00     0.278 C 
ENDBRANCH   3  10
BRANCH   4  12
ATOM     12  O   UNL     1     143.187 142.519 145.125  1.00  0.00    -0.504 OA
ATOM     13  H   UNL     1     143.438 142.624 146.102  1.00  0.00     0.293 HD
ENDBRANCH   4  12
TORSDOF 3
ENDMDL
MODEL 7
REMARK VINA RESULT:    -3.145      9.307     11.657
REMARK INTER + INTRA:          -3.841
REMARK INTER:                  -3.609
REMARK INTRA:                  -0.233
REMARK UNBOUND:                -0.237
REMARK SMILES CC=Cc1ccc(O)c(OC)c1
REMARK SMILES IDX 4 1 12 2 9 3 7 4 6 5 5 6 3 7 1 8 2 9 10 10 11 11 8 12
REMARK H PARENT 8 13
REMARK Flexibility Score: inf
ROOT
ATOM      1  C   UNL     1     145.585 139.947 142.822  1.00  0.00    -0.022 A 
ATOM      2  C   UNL     1     144.319 139.757 142.247  1.00  0.00     0.058 A 
ATOM      3  C   UNL     1     143.256 139.239 143.012  1.00  0.00     0.161 A 
ATOM      4  C   UNL     1     143.467 138.933 144.364  1.00  0.00     0.157 A 
ATOM      5  C   UNL     1     144.722 139.149 144.946  1.00  0.00     0.051 A 
ATOM      6  C   UNL     1     145.773 139.662 144.183  1.00  0.00     0.012 A 
ENDROOT
BRANCH   1   7
ATOM      7  C   UNL     1     146.672 140.519 142.000  1.00  0.00     0.003 C 
ATOM      8  C   UNL     1     147.800 138.317 141.580  1.00  0.00     0.035 C 
ATOM      9  C   UNL     1     147.672 139.806 141.462  1.00  0.00    -0.030 C 
ENDBRANCH   1   7
BRANCH   3  10
ATOM     10  O   UNL     1     141.980 139.018 142.467  1.00  0.00    -0.493 OA
ATOM     11  C   UNL     1     141.628 137.887 141.676  1.00  0.00     0.278 C 
ENDBRANCH   3  10
BRANCH   4  12
ATOM     12  O   UNL     1     142.419 138.417 145.125  1.00  0.00    -0.504 OA
ATOM     13  H   UNL     1     141.452 138.532 144.843  1.00  0.00     0.293 HD
ENDBRANCH   4  12
TORSDOF 3
ENDMDL
MODEL 8
REMARK VINA RESULT:    -3.096      3.662      5.714
REMARK INTER + INTRA:          -3.785
REMARK INTER:                  -3.534
REMARK INTRA:                  -0.251
REMARK UNBOUND:                -0.237
REMARK SMILES CC=Cc1ccc(O)c(OC)c1
REMARK SMILES IDX 4 1 12 2 9 3 7 4 6 5 5 6 3 7 1 8 2 9 10 10 11 11 8 12
REMARK H PARENT 8 13
REMARK Flexibility Score: inf
ROOT
ATOM      1  C   UNL     1     135.928 141.567 142.759  1.00  0.00    -0.022 A 
ATOM      2  C   UNL     1     137.198 141.770 142.199  1.00  0.00     0.058 A 
ATOM      3  C   UNL     1     138.256 142.267 142.985  1.00  0.00     0.161 A 
ATOM      4  C   UNL     1     138.035 142.539 144.343  1.00  0.00     0.157 A 
ATOM      5  C   UNL     1     136.774 142.309 144.909  1.00  0.00     0.051 A 
ATOM      6  C   UNL     1     135.730 141.817 144.126  1.00  0.00     0.012 A 
ENDROOT
BRANCH   1   7
ATOM      7  C   UNL     1     134.847 141.018 141.914  1.00  0.00     0.003 C 
ATOM      8  C   UNL     1     133.817 143.250 141.411  1.00  0.00     0.035 C 
ATOM      9  C   UNL     1     133.892 141.755 141.329  1.00  0.00    -0.030 C 
ENDBRANCH   1   7
BRANCH   3  10
ATOM     10  O   UNL     1     139.536 142.501 142.456  1.00  0.00    -0.493 OA
ATOM     11  C   UNL     1     139.876 143.611 141.632  1.00  0.00     0.278 C 
ENDBRANCH   3  10
BRANCH   4  12
ATOM     12  O   UNL     1     139.077 143.033 145.125  1.00  0.00    -0.504 OA
ATOM     13  H   UNL     1     139.048 143.967 145.520  1.00  0.00     0.293 HD
ENDBRANCH   4  12
TORSDOF 3
ENDMDL
MODEL 9
REMARK VINA RESULT:    -3.049      2.340      4.351
REMARK INTER + INTRA:          -3.732
REMARK INTER:                  -3.496
REMARK INTRA:                  -0.236
REMARK UNBOUND:                -0.237
REMARK SMILES CC=Cc1ccc(O)c(OC)c1
REMARK SMILES IDX 4 1 12 2 9 3 7 4 6 5 5 6 3 7 1 8 2 9 10 10 11 11 8 12
REMARK H PARENT 8 13
REMARK Flexibility Score: inf
ROOT
ATOM      1  C   UNL     1     132.749 142.321 140.985  1.00  0.00    -0.022 A 
ATOM      2  C   UNL     1     133.869 142.743 141.716  1.00  0.00     0.058 A 
ATOM      3  C   UNL     1     135.046 141.969 141.735  1.00  0.00     0.161 A 
ATOM      4  C   UNL     1     135.096 140.777 140.998  1.00  0.00     0.157 A 
ATOM      5  C   UNL     1     133.988 140.369 140.244  1.00  0.00     0.051 A 
ATOM      6  C   UNL     1     132.825 141.141 140.229  1.00  0.00     0.012 A 
ENDROOT
BRANCH   1   7
ATOM      7  C   UNL     1     131.540 143.171 140.962  1.00  0.00     0.003 C 
ATOM      8  C   UNL     1     132.288 144.550 139.003  1.00  0.00     0.035 C 
ATOM      9  C   UNL     1     131.336 144.177 140.100  1.00  0.00    -0.030 C 
ENDBRANCH   1   7
BRANCH   3  10
ATOM     10  O   UNL     1     136.181 142.349 142.470  1.00  0.00    -0.493 OA
ATOM     11  C   UNL     1     136.323 142.179 143.877  1.00  0.00     0.278 C 
ENDBRANCH   3  10
BRANCH   4  12
ATOM     12  O   UNL     1     136.257 140.005 141.015  1.00  0.00    -0.504 OA
ATOM     13  H   UNL     1     136.220 138.994 141.080  1.00  0.00     0.293 HD
ENDBRANCH   4  12
TORSDOF 3
ENDMDL
