MODEL 1
REMARK VINA RESULT:    -5.156      0.000      0.000
REMARK INTER + INTRA:         -10.832
REMARK INTER:                  -9.376
REMARK INTRA:                  -1.455
REMARK UNBOUND:                -1.455
REMARK SMILES CCCCCCCCCCCCCC[C@@H](C)C(=O)[O-]
REMARK SMILES IDX 9 1 10 2 11 3 12 4 13 5 14 6 15 7 16 8 17 9 18 10 19 11 8 12
REMARK SMILES IDX 7 13 6 14 5 15 4 16 3 17 2 18 1 19
REMARK H PARENT
REMARK Flexibility Score: inf
ROOT
ATOM      1  C   UNL     1     -10.280 -26.521 -30.603  1.00  0.00     0.000 C 
ENDROOT
BRANCH   1   2
ATOM      2  C   UNL     1     -10.987 -27.874 -30.412  1.00  0.00     0.000 C 
BRANCH   2   3
ATOM      3  C   UNL     1     -12.516 -27.761 -30.529  1.00  0.00     0.000 C 
BRANCH   3   4
ATOM      4  C   UNL     1     -13.093 -28.652 -31.645  1.00  0.00     0.000 C 
BRANCH   4   5
ATOM      5  C   UNL     1     -13.432 -27.861 -32.919  1.00  0.00     0.001 C 
BRANCH   5   6
ATOM      6  C   UNL     1     -12.569 -28.280 -34.123  1.00  0.00     0.009 C 
BRANCH   6   7
ATOM      7  C   UNL     1     -13.105 -27.703 -35.450  1.00  0.00     0.032 C 
ATOM      8  C   UNL     1     -14.633 -27.605 -35.417  1.00  0.00     0.014 C 
BRANCH   7   9
ATOM      9  C   UNL     1     -12.516 -26.347 -35.734  1.00  0.00     0.044 C 
ATOM     10  O   UNL     1     -13.234 -25.438 -36.229  1.00  0.00    -0.550 OA
ATOM     11  O   UNL     1     -11.182 -26.085 -35.448  1.00  0.00    -0.550 OA
ENDBRANCH   7   9
ENDBRANCH   6   7
ENDBRANCH   5   6
ENDBRANCH   4   5
ENDBRANCH   3   4
ENDBRANCH   2   3
ENDBRANCH   1   2
BRANCH   1  12
ATOM     12  C   UNL     1     -10.571 -25.879 -31.972  1.00  0.00     0.000 C 
BRANCH  12  13
ATOM     13  C   UNL     1     -10.972 -24.393 -31.929  1.00  0.00    -0.000 C 
BRANCH  13  14
ATOM     14  C   UNL     1     -12.199 -24.077 -32.801  1.00  0.00    -0.000 C 
BRANCH  14  15
ATOM     15  C   UNL     1     -12.240 -22.607 -33.249  1.00  0.00    -0.000 C 
BRANCH  15  16
ATOM     16  C   UNL     1     -12.807 -22.440 -34.669  1.00  0.00    -0.000 C 
BRANCH  16  17
ATOM     17  C   UNL     1     -13.428 -21.052 -34.906  1.00  0.00    -0.000 C 
BRANCH  17  18
ATOM     18  C   UNL     1     -12.414 -19.906 -35.061  1.00  0.00    -0.003 C 
ATOM     19  C   UNL     1     -11.206 -20.286 -35.915  1.00  0.00     0.004 C 
ENDBRANCH  17  18
ENDBRANCH  16  17
ENDBRANCH  15  16
ENDBRANCH  14  15
ENDBRANCH  13  14
ENDBRANCH  12  13
ENDBRANCH   1  12
TORSDOF 14
ENDMDL
MODEL 2
REMARK VINA RESULT:    -5.116      1.081      1.541
REMARK INTER + INTRA:         -10.759
REMARK INTER:                  -9.065
REMARK INTRA:                  -1.694
REMARK UNBOUND:                -1.455
REMARK SMILES CCCCCCCCCCCCCC[C@@H](C)C(=O)[O-]
REMARK SMILES IDX 9 1 10 2 11 3 12 4 13 5 14 6 15 7 16 8 17 9 18 10 19 11 8 12
REMARK SMILES IDX 7 13 6 14 5 15 4 16 3 17 2 18 1 19
REMARK H PARENT
REMARK Flexibility Score: inf
ROOT
ATOM      1  C   UNL     1     -10.323 -26.326 -31.371  1.00  0.00     0.000 C 
ENDROOT
BRANCH   1   2
ATOM      2  C   UNL     1     -10.783 -27.463 -30.442  1.00  0.00     0.000 C 
BRANCH   2   3
ATOM      3  C   UNL     1     -12.312 -27.526 -30.302  1.00  0.00     0.000 C 
BRANCH   3   4
ATOM      4  C   UNL     1     -12.934 -28.694 -31.090  1.00  0.00     0.000 C 
BRANCH   4   5
ATOM      5  C   UNL     1     -12.676 -28.592 -32.602  1.00  0.00     0.001 C 
BRANCH   5   6
ATOM      6  C   UNL     1     -13.485 -27.463 -33.265  1.00  0.00     0.009 C 
BRANCH   6   7
ATOM      7  C   UNL     1     -12.709 -26.794 -34.419  1.00  0.00     0.032 C 
ATOM      8  C   UNL     1     -11.571 -27.699 -34.900  1.00  0.00     0.014 C 
BRANCH   7   9
ATOM      9  C   UNL     1     -13.619 -26.468 -35.573  1.00  0.00     0.044 C 
ATOM     10  O   UNL     1     -13.384 -25.466 -36.300  1.00  0.00    -0.550 OA
ATOM     11  O   UNL     1     -14.720 -27.270 -35.848  1.00  0.00    -0.550 OA
ENDBRANCH   7   9
ENDBRANCH   6   7
ENDBRANCH   5   6
ENDBRANCH   4   5
ENDBRANCH   3   4
ENDBRANCH   2   3
ENDBRANCH   1   2
BRANCH   1  12
ATOM     12  C   UNL     1     -11.319 -25.153 -31.425  1.00  0.00     0.000 C 
BRANCH  12  13
ATOM     13  C   UNL     1     -10.688 -23.751 -31.345  1.00  0.00    -0.000 C 
BRANCH  13  14
ATOM     14  C   UNL     1     -11.454 -22.701 -32.167  1.00  0.00    -0.000 C 
BRANCH  14  15
ATOM     15  C   UNL     1     -12.213 -23.319 -33.352  1.00  0.00    -0.000 C 
BRANCH  15  16
ATOM     16  C   UNL     1     -13.014 -22.275 -34.148  1.00  0.00    -0.000 C 
BRANCH  16  17
ATOM     17  C   UNL     1     -12.531 -22.130 -35.602  1.00  0.00    -0.000 C 
BRANCH  17  18
ATOM     18  C   UNL     1     -11.832 -20.797 -35.923  1.00  0.00    -0.003 C 
ATOM     19  C   UNL     1     -12.804 -19.623 -36.036  1.00  0.00     0.004 C 
ENDBRANCH  17  18
ENDBRANCH  16  17
ENDBRANCH  15  16
ENDBRANCH  14  15
ENDBRANCH  13  14
ENDBRANCH  12  13
ENDBRANCH   1  12
TORSDOF 14
ENDMDL
MODEL 3
REMARK VINA RESULT:    -5.019      2.198      5.333
REMARK INTER + INTRA:         -10.582
REMARK INTER:                  -8.652
REMARK INTRA:                  -1.930
REMARK UNBOUND:                -1.455
REMARK SMILES CCCCCCCCCCCCCC[C@@H](C)C(=O)[O-]
REMARK SMILES IDX 9 1 10 2 11 3 12 4 13 5 14 6 15 7 16 8 17 9 18 10 19 11 8 12
REMARK SMILES IDX 7 13 6 14 5 15 4 16 3 17 2 18 1 19
REMARK H PARENT
REMARK Flexibility Score: inf
ROOT
ATOM      1  C   UNL     1     -10.464 -26.435 -31.186  1.00  0.00     0.000 C 
ENDROOT
BRANCH   1   2
ATOM      2  C   UNL     1     -11.185 -25.122 -30.835  1.00  0.00     0.000 C 
BRANCH   2   3
ATOM      3  C   UNL     1     -10.965 -24.028 -31.892  1.00  0.00     0.000 C 
BRANCH   3   4
ATOM      4  C   UNL     1     -12.242 -23.707 -32.690  1.00  0.00     0.000 C 
BRANCH   4   5
ATOM      5  C   UNL     1     -12.166 -22.350 -33.408  1.00  0.00     0.001 C 
BRANCH   5   6
ATOM      6  C   UNL     1     -12.862 -22.367 -34.781  1.00  0.00     0.009 C 
BRANCH   6   7
ATOM      7  C   UNL     1     -13.125 -20.945 -35.316  1.00  0.00     0.032 C 
ATOM      8  C   UNL     1     -14.315 -20.307 -34.592  1.00  0.00     0.014 C 
BRANCH   7   9
ATOM      9  C   UNL     1     -11.911 -20.069 -35.162  1.00  0.00     0.044 C 
ATOM     10  O   UNL     1     -11.940 -19.078 -34.385  1.00  0.00    -0.550 OA
ATOM     11  O   UNL     1     -10.748 -20.349 -35.871  1.00  0.00    -0.550 OA
ENDBRANCH   7   9
ENDBRANCH   6   7
ENDBRANCH   5   6
ENDBRANCH   4   5
ENDBRANCH   3   4
ENDBRANCH   2   3
ENDBRANCH   1   2
BRANCH   1  12
ATOM     12  C   UNL     1     -11.408 -27.651 -31.212  1.00  0.00     0.000 C 
BRANCH  12  13
ATOM     13  C   UNL     1     -12.874 -27.337 -31.560  1.00  0.00    -0.000 C 
BRANCH  13  14
ATOM     14  C   UNL     1     -13.253 -27.753 -32.992  1.00  0.00    -0.000 C 
BRANCH  14  15
ATOM     15  C   UNL     1     -12.149 -28.572 -33.679  1.00  0.00    -0.000 C 
BRANCH  15  16
ATOM     16  C   UNL     1     -11.733 -27.977 -35.035  1.00  0.00    -0.000 C 
BRANCH  16  17
ATOM     17  C   UNL     1     -11.058 -26.600 -34.904  1.00  0.00    -0.000 C 
BRANCH  17  18
ATOM     18  C   UNL     1     -11.733 -25.470 -35.701  1.00  0.00    -0.003 C 
ATOM     19  C   UNL     1     -13.197 -25.761 -36.029  1.00  0.00     0.004 C 
ENDBRANCH  17  18
ENDBRANCH  16  17
ENDBRANCH  15  16
ENDBRANCH  14  15
ENDBRANCH  13  14
ENDBRANCH  12  13
ENDBRANCH   1  12
TORSDOF 14
ENDMDL
MODEL 4
REMARK VINA RESULT:    -4.954      1.265      2.156
REMARK INTER + INTRA:         -10.463
REMARK INTER:                  -8.579
REMARK INTRA:                  -1.884
REMARK UNBOUND:                -1.455
REMARK SMILES CCCCCCCCCCCCCC[C@@H](C)C(=O)[O-]
REMARK SMILES IDX 9 1 10 2 11 3 12 4 13 5 14 6 15 7 16 8 17 9 18 10 19 11 8 12
REMARK SMILES IDX 7 13 6 14 5 15 4 16 3 17 2 18 1 19
REMARK H PARENT
REMARK Flexibility Score: inf
ROOT
ATOM      1  C   UNL     1     -11.506 -24.614 -31.712  1.00  0.00     0.000 C 
ENDROOT
BRANCH   1   2
ATOM      2  C   UNL     1     -12.665 -24.862 -30.731  1.00  0.00     0.000 C 
BRANCH   2   3
ATOM      3  C   UNL     1     -13.237 -26.284 -30.840  1.00  0.00     0.000 C 
BRANCH   3   4
ATOM      4  C   UNL     1     -12.262 -27.265 -31.518  1.00  0.00     0.000 C 
BRANCH   4   5
ATOM      5  C   UNL     1     -12.981 -28.298 -32.402  1.00  0.00     0.001 C 
BRANCH   5   6
ATOM      6  C   UNL     1     -12.481 -28.282 -33.857  1.00  0.00     0.009 C 
BRANCH   6   7
ATOM      7  C   UNL     1     -12.500 -26.862 -34.462  1.00  0.00     0.032 C 
ATOM      8  C   UNL     1     -11.158 -26.541 -35.127  1.00  0.00     0.014 C 
BRANCH   7   9
ATOM      9  C   UNL     1     -13.611 -26.711 -35.466  1.00  0.00     0.044 C 
ATOM     10  O   UNL     1     -13.614 -25.736 -36.264  1.00  0.00    -0.550 OA
ATOM     11  O   UNL     1     -14.639 -27.645 -35.524  1.00  0.00    -0.550 OA
ENDBRANCH   7   9
ENDBRANCH   6   7
ENDBRANCH   5   6
ENDBRANCH   4   5
ENDBRANCH   3   4
ENDBRANCH   2   3
ENDBRANCH   1   2
BRANCH   1  12
ATOM     12  C   UNL     1     -11.126 -23.126 -31.830  1.00  0.00     0.000 C 
BRANCH  12  13
ATOM     13  C   UNL     1     -11.936 -22.321 -32.862  1.00  0.00    -0.000 C 
BRANCH  13  14
ATOM     14  C   UNL     1     -12.562 -23.204 -33.955  1.00  0.00    -0.000 C 
BRANCH  14  15
ATOM     15  C   UNL     1     -12.735 -22.458 -35.288  1.00  0.00    -0.000 C 
BRANCH  15  16
ATOM     16  C   UNL     1     -13.160 -20.993 -35.091  1.00  0.00    -0.000 C 
BRANCH  16  17
ATOM     17  C   UNL     1     -12.461 -20.030 -36.066  1.00  0.00    -0.000 C 
BRANCH  17  18
ATOM     18  C   UNL     1     -10.930 -19.962 -35.924  1.00  0.00    -0.003 C 
ATOM     19  C   UNL     1     -10.478 -19.406 -34.574  1.00  0.00     0.004 C 
ENDBRANCH  17  18
ENDBRANCH  16  17
ENDBRANCH  15  16
ENDBRANCH  14  15
ENDBRANCH  13  14
ENDBRANCH  12  13
ENDBRANCH   1  12
TORSDOF 14
ENDMDL
MODEL 5
REMARK VINA RESULT:    -4.877      2.199      5.781
REMARK INTER + INTRA:         -10.323
REMARK INTER:                  -8.682
REMARK INTRA:                  -1.641
REMARK UNBOUND:                -1.455
REMARK SMILES CCCCCCCCCCCCCC[C@@H](C)C(=O)[O-]
REMARK SMILES IDX 9 1 10 2 11 3 12 4 13 5 14 6 15 7 16 8 17 9 18 10 19 11 8 12
REMARK SMILES IDX 7 13 6 14 5 15 4 16 3 17 2 18 1 19
REMARK H PARENT
REMARK Flexibility Score: inf
ROOT
ATOM      1  C   UNL     1     -11.823 -24.932 -30.657  1.00  0.00     0.000 C 
ENDROOT
BRANCH   1   2
ATOM      2  C   UNL     1     -11.226 -24.536 -32.018  1.00  0.00     0.000 C 
BRANCH   2   3
ATOM      3  C   UNL     1     -12.255 -23.865 -32.941  1.00  0.00     0.000 C 
BRANCH   3   4
ATOM      4  C   UNL     1     -12.246 -24.450 -34.365  1.00  0.00     0.000 C 
BRANCH   4   5
ATOM      5  C   UNL     1     -12.731 -23.445 -35.422  1.00  0.00     0.001 C 
BRANCH   5   6
ATOM      6  C   UNL     1     -13.015 -22.053 -34.828  1.00  0.00     0.009 C 
BRANCH   6   7
ATOM      7  C   UNL     1     -12.407 -20.922 -35.683  1.00  0.00     0.032 C 
ATOM      8  C   UNL     1     -13.419 -19.788 -35.876  1.00  0.00     0.014 C 
BRANCH   7   9
ATOM      9  C   UNL     1     -11.151 -20.378 -35.057  1.00  0.00     0.044 C 
ATOM     10  O   UNL     1     -11.020 -20.371 -33.805  1.00  0.00    -0.550 OA
ATOM     11  O   UNL     1     -10.125 -19.884 -35.855  1.00  0.00    -0.550 OA
ENDBRANCH   7   9
ENDBRANCH   6   7
ENDBRANCH   5   6
ENDBRANCH   4   5
ENDBRANCH   3   4
ENDBRANCH   2   3
ENDBRANCH   1   2
BRANCH   1  12
ATOM     12  C   UNL     1     -10.961 -25.956 -29.897  1.00  0.00     0.000 C 
BRANCH  12  13
ATOM     13  C   UNL     1     -10.671 -27.264 -30.656  1.00  0.00    -0.000 C 
BRANCH  13  14
ATOM     14  C   UNL     1     -11.681 -28.379 -30.335  1.00  0.00    -0.000 C 
BRANCH  14  15
ATOM     15  C   UNL     1     -12.909 -28.345 -31.259  1.00  0.00    -0.000 C 
BRANCH  15  16
ATOM     16  C   UNL     1     -12.543 -27.998 -32.712  1.00  0.00    -0.000 C 
BRANCH  16  17
ATOM     17  C   UNL     1     -13.776 -27.738 -33.595  1.00  0.00    -0.000 C 
BRANCH  17  18
ATOM     18  C   UNL     1     -13.518 -27.821 -35.110  1.00  0.00    -0.003 C 
ATOM     19  C   UNL     1     -12.032 -27.874 -35.462  1.00  0.00     0.004 C 
ENDBRANCH  17  18
ENDBRANCH  16  17
ENDBRANCH  15  16
ENDBRANCH  14  15
ENDBRANCH  13  14
ENDBRANCH  12  13
ENDBRANCH   1  12
TORSDOF 14
ENDMDL
MODEL 6
REMARK VINA RESULT:    -4.795      2.162      4.490
REMARK INTER + INTRA:         -10.175
REMARK INTER:                  -8.477
REMARK INTRA:                  -1.698
REMARK UNBOUND:                -1.455
REMARK SMILES CCCCCCCCCCCCCC[C@@H](C)C(=O)[O-]
REMARK SMILES IDX 9 1 10 2 11 3 12 4 13 5 14 6 15 7 16 8 17 9 18 10 19 11 8 12
REMARK SMILES IDX 7 13 6 14 5 15 4 16 3 17 2 18 1 19
REMARK H PARENT
REMARK Flexibility Score: inf
ROOT
ATOM      1  C   UNL     1     -12.471 -24.928 -35.266  1.00  0.00     0.000 C 
ENDROOT
BRANCH   1   2
ATOM      2  C   UNL     1     -13.485 -25.861 -35.949  1.00  0.00     0.000 C 
BRANCH   2   3
ATOM      3  C   UNL     1     -13.289 -27.334 -35.555  1.00  0.00     0.000 C 
BRANCH   3   4
ATOM      4  C   UNL     1     -11.983 -27.572 -34.774  1.00  0.00     0.000 C 
BRANCH   4   5
ATOM      5  C   UNL     1     -12.116 -28.686 -33.724  1.00  0.00     0.001 C 
BRANCH   5   6
ATOM      6  C   UNL     1     -12.867 -28.225 -32.462  1.00  0.00     0.009 C 
BRANCH   6   7
ATOM      7  C   UNL     1     -12.249 -26.949 -31.853  1.00  0.00     0.032 C 
ATOM      8  C   UNL     1     -13.267 -26.229 -30.963  1.00  0.00     0.014 C 
BRANCH   7   9
ATOM      9  C   UNL     1     -11.014 -27.268 -31.054  1.00  0.00     0.044 C 
ATOM     10  O   UNL     1      -9.979 -26.560 -31.180  1.00  0.00    -0.550 OA
ATOM     11  O   UNL     1     -11.006 -28.339 -30.168  1.00  0.00    -0.550 OA
ENDBRANCH   7   9
ENDBRANCH   6   7
ENDBRANCH   5   6
ENDBRANCH   4   5
ENDBRANCH   3   4
ENDBRANCH   2   3
ENDBRANCH   1   2
BRANCH   1  12
ATOM     12  C   UNL     1     -12.427 -23.524 -35.896  1.00  0.00     0.000 C 
BRANCH  12  13
ATOM     13  C   UNL     1     -12.968 -22.388 -35.008  1.00  0.00    -0.000 C 
BRANCH  13  14
ATOM     14  C   UNL     1     -12.441 -21.003 -35.419  1.00  0.00    -0.000 C 
BRANCH  14  15
ATOM     15  C   UNL     1     -11.478 -20.408 -34.379  1.00  0.00    -0.000 C 
BRANCH  15  16
ATOM     16  C   UNL     1     -11.885 -20.749 -32.936  1.00  0.00    -0.000 C 
BRANCH  16  17
ATOM     17  C   UNL     1     -10.685 -20.819 -31.975  1.00  0.00    -0.000 C 
BRANCH  17  18
ATOM     18  C   UNL     1     -10.437 -22.202 -31.348  1.00  0.00    -0.003 C 
ATOM     19  C   UNL     1     -11.331 -23.294 -31.933  1.00  0.00     0.004 C 
ENDBRANCH  17  18
ENDBRANCH  16  17
ENDBRANCH  15  16
ENDBRANCH  14  15
ENDBRANCH  13  14
ENDBRANCH  12  13
ENDBRANCH   1  12
TORSDOF 14
ENDMDL
MODEL 7
REMARK VINA RESULT:    -4.760      1.743      3.936
REMARK INTER + INTRA:         -10.111
REMARK INTER:                  -8.810
REMARK INTRA:                  -1.301
REMARK UNBOUND:                -1.455
REMARK SMILES CCCCCCCCCCCCCC[C@@H](C)C(=O)[O-]
REMARK SMILES IDX 9 1 10 2 11 3 12 4 13 5 14 6 15 7 16 8 17 9 18 10 19 11 8 12
REMARK SMILES IDX 7 13 6 14 5 15 4 16 3 17 2 18 1 19
REMARK H PARENT
REMARK Flexibility Score: inf
ROOT
ATOM      1  C   UNL     1     -13.803 -27.401 -35.268  1.00  0.00     0.000 C 
ENDROOT
BRANCH   1   2
ATOM      2  C   UNL     1     -12.424 -28.065 -35.114  1.00  0.00     0.000 C 
BRANCH   2   3
ATOM      3  C   UNL     1     -12.095 -28.409 -33.653  1.00  0.00     0.000 C 
BRANCH   3   4
ATOM      4  C   UNL     1     -13.305 -28.243 -32.716  1.00  0.00     0.000 C 
BRANCH   4   5
ATOM      5  C   UNL     1     -12.984 -28.619 -31.261  1.00  0.00     0.001 C 
BRANCH   5   6
ATOM      6  C   UNL     1     -13.269 -27.471 -30.276  1.00  0.00     0.009 C 
BRANCH   6   7
ATOM      7  C   UNL     1     -12.000 -26.656 -29.951  1.00  0.00     0.032 C 
ATOM      8  C   UNL     1     -10.750 -27.534 -30.070  1.00  0.00     0.014 C 
BRANCH   7   9
ATOM      9  C   UNL     1     -11.868 -25.464 -30.860  1.00  0.00     0.044 C 
ATOM     10  O   UNL     1     -12.497 -24.402 -30.605  1.00  0.00    -0.550 OA
ATOM     11  O   UNL     1     -11.051 -25.521 -31.982  1.00  0.00    -0.550 OA
ENDBRANCH   7   9
ENDBRANCH   6   7
ENDBRANCH   5   6
ENDBRANCH   4   5
ENDBRANCH   3   4
ENDBRANCH   2   3
ENDBRANCH   1   2
BRANCH   1  12
ATOM     12  C   UNL     1     -13.732 -26.018 -35.942  1.00  0.00     0.000 C 
BRANCH  12  13
ATOM     13  C   UNL     1     -12.435 -25.229 -35.688  1.00  0.00    -0.000 C 
BRANCH  13  14
ATOM     14  C   UNL     1     -12.627 -23.707 -35.802  1.00  0.00    -0.000 C 
BRANCH  14  15
ATOM     15  C   UNL     1     -12.625 -23.009 -34.433  1.00  0.00    -0.000 C 
BRANCH  15  16
ATOM     16  C   UNL     1     -13.160 -21.569 -34.506  1.00  0.00    -0.000 C 
BRANCH  16  17
ATOM     17  C   UNL     1     -12.921 -20.909 -35.875  1.00  0.00    -0.000 C 
BRANCH  17  18
ATOM     18  C   UNL     1     -12.019 -19.663 -35.846  1.00  0.00    -0.003 C 
ATOM     19  C   UNL     1     -10.529 -20.002 -35.875  1.00  0.00     0.004 C 
ENDBRANCH  17  18
ENDBRANCH  16  17
ENDBRANCH  15  16
ENDBRANCH  14  15
ENDBRANCH  13  14
ENDBRANCH  12  13
ENDBRANCH   1  12
TORSDOF 14
ENDMDL
MODEL 8
REMARK VINA RESULT:    -4.739      1.103      2.569
REMARK INTER + INTRA:         -10.074
REMARK INTER:                  -8.730
REMARK INTRA:                  -1.344
REMARK UNBOUND:                -1.455
REMARK SMILES CCCCCCCCCCCCCC[C@@H](C)C(=O)[O-]
REMARK SMILES IDX 9 1 10 2 11 3 12 4 13 5 14 6 15 7 16 8 17 9 18 10 19 11 8 12
REMARK SMILES IDX 7 13 6 14 5 15 4 16 3 17 2 18 1 19
REMARK H PARENT
REMARK Flexibility Score: inf
ROOT
ATOM      1  C   UNL     1     -12.254 -24.439 -32.585  1.00  0.00     0.000 C 
ENDROOT
BRANCH   1   2
ATOM      2  C   UNL     1     -10.871 -24.962 -32.162  1.00  0.00     0.000 C 
BRANCH   2   3
ATOM      3  C   UNL     1     -10.825 -26.496 -32.068  1.00  0.00     0.000 C 
BRANCH   3   4
ATOM      4  C   UNL     1     -12.168 -27.105 -31.627  1.00  0.00     0.000 C 
BRANCH   4   5
ATOM      5  C   UNL     1     -12.610 -28.275 -32.521  1.00  0.00     0.001 C 
BRANCH   5   6
ATOM      6  C   UNL     1     -11.942 -28.245 -33.907  1.00  0.00     0.009 C 
BRANCH   6   7
ATOM      7  C   UNL     1     -12.898 -27.727 -35.002  1.00  0.00     0.032 C 
ATOM      8  C   UNL     1     -14.315 -27.560 -34.445  1.00  0.00     0.014 C 
BRANCH   7   9
ATOM      9  C   UNL     1     -12.420 -26.418 -35.571  1.00  0.00     0.044 C 
ATOM     10  O   UNL     1     -13.242 -25.613 -36.083  1.00  0.00    -0.550 OA
ATOM     11  O   UNL     1     -11.071 -26.085 -35.531  1.00  0.00    -0.550 OA
ENDBRANCH   7   9
ENDBRANCH   6   7
ENDBRANCH   5   6
ENDBRANCH   4   5
ENDBRANCH   3   4
ENDBRANCH   2   3
ENDBRANCH   1   2
BRANCH   1  12
ATOM     12  C   UNL     1     -12.256 -22.931 -32.898  1.00  0.00     0.000 C 
BRANCH  12  13
ATOM     13  C   UNL     1     -12.666 -22.558 -34.334  1.00  0.00    -0.000 C 
BRANCH  13  14
ATOM     14  C   UNL     1     -13.175 -21.112 -34.456  1.00  0.00    -0.000 C 
BRANCH  14  15
ATOM     15  C   UNL     1     -12.063 -20.128 -34.854  1.00  0.00    -0.000 C 
BRANCH  15  16
ATOM     16  C   UNL     1     -12.126 -19.739 -36.340  1.00  0.00    -0.000 C 
BRANCH  16  17
ATOM     17  C   UNL     1     -10.931 -18.876 -36.784  1.00  0.00    -0.000 C 
BRANCH  17  18
ATOM     18  C   UNL     1      -9.613 -19.163 -36.044  1.00  0.00    -0.003 C 
ATOM     19  C   UNL     1      -8.516 -19.700 -36.961  1.00  0.00     0.004 C 
ENDBRANCH  17  18
ENDBRANCH  16  17
ENDBRANCH  15  16
ENDBRANCH  14  15
ENDBRANCH  13  14
ENDBRANCH  12  13
ENDBRANCH   1  12
TORSDOF 14
ENDMDL
MODEL 9
REMARK VINA RESULT:    -4.563      2.544      5.017
REMARK INTER + INTRA:          -9.753
REMARK INTER:                  -7.928
REMARK INTRA:                  -1.824
REMARK UNBOUND:                -1.455
REMARK SMILES CCCCCCCCCCCCCC[C@@H](C)C(=O)[O-]
REMARK SMILES IDX 9 1 10 2 11 3 12 4 13 5 14 6 15 7 16 8 17 9 18 10 19 11 8 12
REMARK SMILES IDX 7 13 6 14 5 15 4 16 3 17 2 18 1 19
REMARK H PARENT
REMARK Flexibility Score: inf
ROOT
ATOM      1  C   UNL     1     -12.181 -24.283 -36.041  1.00  0.00     0.000 C 
ENDROOT
BRANCH   1   2
ATOM      2  C   UNL     1     -13.310 -25.300 -36.280  1.00  0.00     0.000 C 
BRANCH   2   3
ATOM      3  C   UNL     1     -13.172 -26.552 -35.399  1.00  0.00     0.000 C 
BRANCH   3   4
ATOM      4  C   UNL     1     -11.705 -26.890 -35.073  1.00  0.00     0.000 C 
BRANCH   4   5
ATOM      5  C   UNL     1     -11.406 -26.839 -33.566  1.00  0.00     0.001 C 
BRANCH   5   6
ATOM      6  C   UNL     1     -12.644 -26.466 -32.730  1.00  0.00     0.009 C 
BRANCH   6   7
ATOM      7  C   UNL     1     -12.382 -26.598 -31.215  1.00  0.00     0.032 C 
ATOM      8  C   UNL     1     -13.517 -25.954 -30.413  1.00  0.00     0.014 C 
BRANCH   7   9
ATOM      9  C   UNL     1     -12.231 -28.040 -30.810  1.00  0.00     0.044 C 
ATOM     10  O   UNL     1     -11.192 -28.422 -30.208  1.00  0.00    -0.550 OA
ATOM     11  O   UNL     1     -13.236 -28.958 -31.091  1.00  0.00    -0.550 OA
ENDBRANCH   7   9
ENDBRANCH   6   7
ENDBRANCH   5   6
ENDBRANCH   4   5
ENDBRANCH   3   4
ENDBRANCH   2   3
ENDBRANCH   1   2
BRANCH   1  12
ATOM     12  C   UNL     1     -12.690 -22.936 -35.494  1.00  0.00     0.000 C 
BRANCH  12  13
ATOM     13  C   UNL     1     -12.705 -22.813 -33.959  1.00  0.00    -0.000 C 
BRANCH  13  14
ATOM     14  C   UNL     1     -12.009 -21.539 -33.453  1.00  0.00    -0.000 C 
BRANCH  14  15
ATOM     15  C   UNL     1     -11.341 -21.738 -32.083  1.00  0.00    -0.000 C 
BRANCH  15  16
ATOM     16  C   UNL     1     -11.061 -23.219 -31.774  1.00  0.00    -0.000 C 
BRANCH  16  17
ATOM     17  C   UNL     1     -10.056 -23.412 -30.625  1.00  0.00    -0.000 C 
BRANCH  17  18
ATOM     18  C   UNL     1      -8.937 -22.358 -30.559  1.00  0.00    -0.003 C 
ATOM     19  C   UNL     1      -7.578 -22.949 -30.185  1.00  0.00     0.004 C 
ENDBRANCH  17  18
ENDBRANCH  16  17
ENDBRANCH  15  16
ENDBRANCH  14  15
ENDBRANCH  13  14
ENDBRANCH  12  13
ENDBRANCH   1  12
TORSDOF 14
ENDMDL
