MODEL 1
REMARK VINA RESULT:    -4.469      0.000      0.000
REMARK INTER + INTRA:         -10.564
REMARK INTER:                  -8.126
REMARK INTRA:                  -2.438
REMARK UNBOUND:                -2.438
REMARK SMILES CCCCCCCCCCCCCC[C@H](C)C(=O)[O-]
REMARK SMILES IDX 9 1 10 2 11 3 12 4 13 5 14 6 15 7 16 8 17 9 18 10 19 11 8 12
REMARK SMILES IDX 7 13 6 14 5 15 4 16 3 17 2 18 1 19
REMARK H PARENT
REMARK Flexibility Score: inf
ROOT
ATOM      1  C   UNL     1      62.433  14.418  39.997  1.00  0.00     0.000 C 
ENDROOT
BRANCH   1   2
ATOM      2  C   UNL     1      60.969  14.806  39.707  1.00  0.00     0.000 C 
BRANCH   2   3
ATOM      3  C   UNL     1      60.674  15.206  38.247  1.00  0.00     0.000 C 
BRANCH   3   4
ATOM      4  C   UNL     1      60.811  14.065  37.224  1.00  0.00     0.000 C 
BRANCH   4   5
ATOM      5  C   UNL     1      62.167  14.079  36.497  1.00  0.00     0.001 C 
BRANCH   5   6
ATOM      6  C   UNL     1      62.891  15.433  36.614  1.00  0.00     0.009 C 
BRANCH   6   7
ATOM      7  C   UNL     1      64.411  15.364  36.344  1.00  0.00     0.032 C 
ATOM      8  C   UNL     1      65.088  14.404  37.328  1.00  0.00     0.014 C 
BRANCH   7   9
ATOM      9  C   UNL     1      65.055  16.722  36.429  1.00  0.00     0.044 C 
ATOM     10  O   UNL     1      65.352  17.357  35.382  1.00  0.00    -0.550 OA
ATOM     11  O   UNL     1      65.331  17.282  37.670  1.00  0.00    -0.550 OA
ENDBRANCH   7   9
ENDBRANCH   6   7
ENDBRANCH   5   6
ENDBRANCH   4   5
ENDBRANCH   3   4
ENDBRANCH   2   3
ENDBRANCH   1   2
BRANCH   1  12
ATOM     12  C   UNL     1      63.375  15.597  40.301  1.00  0.00     0.000 C 
BRANCH  12  13
ATOM     13  C   UNL     1      62.616  16.893  40.637  1.00  0.00    -0.000 C 
BRANCH  13  14
ATOM     14  C   UNL     1      63.483  18.149  40.448  1.00  0.00    -0.000 C 
BRANCH  14  15
ATOM     15  C   UNL     1      62.768  19.249  39.648  1.00  0.00    -0.000 C 
BRANCH  15  16
ATOM     16  C   UNL     1      62.174  18.682  38.349  1.00  0.00    -0.000 C 
BRANCH  16  17
ATOM     17  C   UNL     1      60.642  18.788  38.303  1.00  0.00    -0.000 C 
BRANCH  17  18
ATOM     18  C   UNL     1      60.043  19.297  39.623  1.00  0.00    -0.003 C 
ATOM     19  C   UNL     1      59.150  18.240  40.265  1.00  0.00     0.004 C 
ENDBRANCH  17  18
ENDBRANCH  16  17
ENDBRANCH  15  16
ENDBRANCH  14  15
ENDBRANCH  13  14
ENDBRANCH  12  13
ENDBRANCH   1  12
TORSDOF 14
ENDMDL
MODEL 2
REMARK VINA RESULT:    -4.461      1.278      4.618
REMARK INTER + INTRA:         -10.550
REMARK INTER:                  -7.898
REMARK INTRA:                  -2.652
REMARK UNBOUND:                -2.438
REMARK SMILES CCCCCCCCCCCCCC[C@H](C)C(=O)[O-]
REMARK SMILES IDX 9 1 10 2 11 3 12 4 13 5 14 6 15 7 16 8 17 9 18 10 19 11 8 12
REMARK SMILES IDX 7 13 6 14 5 15 4 16 3 17 2 18 1 19
REMARK H PARENT
REMARK Flexibility Score: inf
ROOT
ATOM      1  C   UNL     1      60.687  18.819  38.262  1.00  0.00     0.000 C 
ENDROOT
BRANCH   1   2
ATOM      2  C   UNL     1      61.331  19.246  39.597  1.00  0.00     0.000 C 
BRANCH   2   3
ATOM      3  C   UNL     1      62.870  19.170  39.638  1.00  0.00     0.000 C 
BRANCH   3   4
ATOM      4  C   UNL     1      63.438  18.041  40.517  1.00  0.00     0.000 C 
BRANCH   4   5
ATOM      5  C   UNL     1      62.764  16.684  40.249  1.00  0.00     0.001 C 
BRANCH   5   6
ATOM      6  C   UNL     1      63.493  15.859  39.171  1.00  0.00     0.009 C 
BRANCH   6   7
ATOM      7  C   UNL     1      63.120  16.243  37.722  1.00  0.00     0.032 C 
ATOM      8  C   UNL     1      62.516  15.042  36.987  1.00  0.00     0.014 C 
BRANCH   7   9
ATOM      9  C   UNL     1      64.310  16.764  36.960  1.00  0.00     0.044 C 
ATOM     10  O   UNL     1      65.303  17.241  37.570  1.00  0.00    -0.550 OA
ATOM     11  O   UNL     1      64.314  16.726  35.571  1.00  0.00    -0.550 OA
ENDBRANCH   7   9
ENDBRANCH   6   7
ENDBRANCH   5   6
ENDBRANCH   4   5
ENDBRANCH   3   4
ENDBRANCH   2   3
ENDBRANCH   1   2
BRANCH   1  12
ATOM     12  C   UNL     1      59.506  17.839  38.390  1.00  0.00     0.000 C 
BRANCH  12  13
ATOM     13  C   UNL     1      58.888  17.833  39.799  1.00  0.00    -0.000 C 
BRANCH  13  14
ATOM     14  C   UNL     1      59.029  16.470  40.498  1.00  0.00    -0.000 C 
BRANCH  14  15
ATOM     15  C   UNL     1      59.470  15.354  39.540  1.00  0.00    -0.000 C 
BRANCH  15  16
ATOM     16  C   UNL     1      59.911  14.106  40.320  1.00  0.00    -0.000 C 
BRANCH  16  17
ATOM     17  C   UNL     1      60.901  13.233  39.534  1.00  0.00    -0.000 C 
BRANCH  17  18
ATOM     18  C   UNL     1      62.048  12.705  40.409  1.00  0.00    -0.003 C 
ATOM     19  C   UNL     1      63.154  12.093  39.555  1.00  0.00     0.004 C 
ENDBRANCH  17  18
ENDBRANCH  16  17
ENDBRANCH  15  16
ENDBRANCH  14  15
ENDBRANCH  13  14
ENDBRANCH  12  13
ENDBRANCH   1  12
TORSDOF 14
ENDMDL
MODEL 3
REMARK VINA RESULT:    -4.432      2.623      4.202
REMARK INTER + INTRA:         -10.498
REMARK INTER:                  -8.105
REMARK INTRA:                  -2.393
REMARK UNBOUND:                -2.438
REMARK SMILES CCCCCCCCCCCCCC[C@H](C)C(=O)[O-]
REMARK SMILES IDX 9 1 10 2 11 3 12 4 13 5 14 6 15 7 16 8 17 9 18 10 19 11 8 12
REMARK SMILES IDX 7 13 6 14 5 15 4 16 3 17 2 18 1 19
REMARK H PARENT
REMARK Flexibility Score: inf
ROOT
ATOM      1  C   UNL     1      63.541  16.012  36.841  1.00  0.00     0.000 C 
ENDROOT
BRANCH   1   2
ATOM      2  C   UNL     1      64.546  14.878  36.549  1.00  0.00     0.000 C 
BRANCH   2   3
ATOM      3  C   UNL     1      64.923  14.006  37.764  1.00  0.00     0.000 C 
BRANCH   3   4
ATOM      4  C   UNL     1      64.027  14.199  39.001  1.00  0.00     0.000 C 
BRANCH   4   5
ATOM      5  C   UNL     1      63.422  12.878  39.507  1.00  0.00     0.001 C 
BRANCH   5   6
ATOM      6  C   UNL     1      62.199  12.429  38.685  1.00  0.00     0.009 C 
BRANCH   6   7
ATOM      7  C   UNL     1      61.188  13.559  38.386  1.00  0.00     0.032 C 
ATOM      8  C   UNL     1      60.298  13.819  39.607  1.00  0.00     0.014 C 
BRANCH   7   9
ATOM      9  C   UNL     1      60.334  13.241  37.188  1.00  0.00     0.044 C 
ATOM     10  O   UNL     1      59.404  14.016  36.840  1.00  0.00    -0.550 OA
ATOM     11  O   UNL     1      60.567  12.080  36.460  1.00  0.00    -0.550 OA
ENDBRANCH   7   9
ENDBRANCH   6   7
ENDBRANCH   5   6
ENDBRANCH   4   5
ENDBRANCH   3   4
ENDBRANCH   2   3
ENDBRANCH   1   2
BRANCH   1  12
ATOM     12  C   UNL     1      63.961  17.404  36.336  1.00  0.00     0.000 C 
BRANCH  12  13
ATOM     13  C   UNL     1      64.058  18.443  37.467  1.00  0.00    -0.000 C 
BRANCH  13  14
ATOM     14  C   UNL     1      64.385  17.804  38.827  1.00  0.00    -0.000 C 
BRANCH  14  15
ATOM     15  C   UNL     1      63.464  18.300  39.952  1.00  0.00    -0.000 C 
BRANCH  15  16
ATOM     16  C   UNL     1      62.500  17.191  40.399  1.00  0.00    -0.000 C 
BRANCH  16  17
ATOM     17  C   UNL     1      61.046  17.468  39.990  1.00  0.00    -0.000 C 
BRANCH  17  18
ATOM     18  C   UNL     1      60.873  18.832  39.306  1.00  0.00    -0.003 C 
ATOM     19  C   UNL     1      60.406  18.669  37.863  1.00  0.00     0.004 C 
ENDBRANCH  17  18
ENDBRANCH  16  17
ENDBRANCH  15  16
ENDBRANCH  14  15
ENDBRANCH  13  14
ENDBRANCH  12  13
ENDBRANCH   1  12
TORSDOF 14
ENDMDL
MODEL 4
REMARK VINA RESULT:    -4.430      2.227      5.359
REMARK INTER + INTRA:         -10.494
REMARK INTER:                  -8.145
REMARK INTRA:                  -2.349
REMARK UNBOUND:                -2.438
REMARK SMILES CCCCCCCCCCCCCC[C@H](C)C(=O)[O-]
REMARK SMILES IDX 9 1 10 2 11 3 12 4 13 5 14 6 15 7 16 8 17 9 18 10 19 11 8 12
REMARK SMILES IDX 7 13 6 14 5 15 4 16 3 17 2 18 1 19
REMARK H PARENT
REMARK Flexibility Score: inf
ROOT
ATOM      1  C   UNL     1      63.153  14.753  36.042  1.00  0.00     0.000 C 
ENDROOT
BRANCH   1   2
ATOM      2  C   UNL     1      64.599  15.266  35.884  1.00  0.00     0.000 C 
BRANCH   2   3
ATOM      3  C   UNL     1      64.733  16.775  35.596  1.00  0.00     0.000 C 
BRANCH   3   4
ATOM      4  C   UNL     1      65.545  17.562  36.639  1.00  0.00     0.000 C 
BRANCH   4   5
ATOM      5  C   UNL     1      64.808  17.703  37.982  1.00  0.00     0.001 C 
BRANCH   5   6
ATOM      6  C   UNL     1      63.481  18.474  37.855  1.00  0.00     0.009 C 
BRANCH   6   7
ATOM      7  C   UNL     1      62.769  18.733  39.202  1.00  0.00     0.032 C 
ATOM      8  C   UNL     1      63.278  17.765  40.274  1.00  0.00     0.014 C 
BRANCH   7   9
ATOM      9  C   UNL     1      61.273  18.615  39.073  1.00  0.00     0.044 C 
ATOM     10  O   UNL     1      60.515  19.486  39.576  1.00  0.00    -0.550 OA
ATOM     11  O   UNL     1      60.719  17.532  38.400  1.00  0.00    -0.550 OA
ENDBRANCH   7   9
ENDBRANCH   6   7
ENDBRANCH   5   6
ENDBRANCH   4   5
ENDBRANCH   3   4
ENDBRANCH   2   3
ENDBRANCH   1   2
BRANCH   1  12
ATOM     12  C   UNL     1      62.629  14.712  37.489  1.00  0.00     0.000 C 
BRANCH  12  13
ATOM     13  C   UNL     1      63.700  14.261  38.497  1.00  0.00    -0.000 C 
BRANCH  13  14
ATOM     14  C   UNL     1      63.121  14.009  39.899  1.00  0.00    -0.000 C 
BRANCH  14  15
ATOM     15  C   UNL     1      61.602  14.232  39.964  1.00  0.00    -0.000 C 
BRANCH  15  16
ATOM     16  C   UNL     1      60.870  12.922  40.290  1.00  0.00    -0.000 C 
BRANCH  16  17
ATOM     17  C   UNL     1      60.089  12.365  39.090  1.00  0.00    -0.000 C 
BRANCH  17  18
ATOM     18  C   UNL     1      60.938  11.434  38.211  1.00  0.00    -0.003 C 
ATOM     19  C   UNL     1      60.688  11.698  36.729  1.00  0.00     0.004 C 
ENDBRANCH  17  18
ENDBRANCH  16  17
ENDBRANCH  15  16
ENDBRANCH  14  15
ENDBRANCH  13  14
ENDBRANCH  12  13
ENDBRANCH   1  12
TORSDOF 14
ENDMDL
MODEL 5
REMARK VINA RESULT:    -4.409      2.547      5.573
REMARK INTER + INTRA:         -10.456
REMARK INTER:                  -8.084
REMARK INTRA:                  -2.373
REMARK UNBOUND:                -2.438
REMARK SMILES CCCCCCCCCCCCCC[C@H](C)C(=O)[O-]
REMARK SMILES IDX 9 1 10 2 11 3 12 4 13 5 14 6 15 7 16 8 17 9 18 10 19 11 8 12
REMARK SMILES IDX 7 13 6 14 5 15 4 16 3 17 2 18 1 19
REMARK H PARENT
REMARK Flexibility Score: inf
ROOT
ATOM      1  C   UNL     1      63.542  18.487  37.208  1.00  0.00     0.000 C 
ENDROOT
BRANCH   1   2
ATOM      2  C   UNL     1      63.171  18.745  38.683  1.00  0.00     0.000 C 
BRANCH   2   3
ATOM      3  C   UNL     1      63.895  17.849  39.709  1.00  0.00     0.000 C 
BRANCH   3   4
ATOM      4  C   UNL     1      62.973  16.923  40.522  1.00  0.00     0.000 C 
BRANCH   4   5
ATOM      5  C   UNL     1      61.484  17.271  40.355  1.00  0.00     0.001 C 
BRANCH   5   6
ATOM      6  C   UNL     1      60.676  16.135  39.699  1.00  0.00     0.009 C 
BRANCH   6   7
ATOM      7  C   UNL     1      60.409  16.338  38.191  1.00  0.00     0.032 C 
ATOM      8  C   UNL     1      59.668  17.657  37.949  1.00  0.00     0.014 C 
BRANCH   7   9
ATOM      9  C   UNL     1      59.624  15.195  37.605  1.00  0.00     0.044 C 
ATOM     10  O   UNL     1      58.370  15.155  37.715  1.00  0.00    -0.550 OA
ATOM     11  O   UNL     1      60.286  14.169  36.940  1.00  0.00    -0.550 OA
ENDBRANCH   7   9
ENDBRANCH   6   7
ENDBRANCH   5   6
ENDBRANCH   4   5
ENDBRANCH   3   4
ENDBRANCH   2   3
ENDBRANCH   1   2
BRANCH   1  12
ATOM     12  C   UNL     1      64.993  18.029  36.970  1.00  0.00     0.000 C 
BRANCH  12  13
ATOM     13  C   UNL     1      65.131  17.098  35.753  1.00  0.00    -0.000 C 
BRANCH  13  14
ATOM     14  C   UNL     1      64.200  15.878  35.835  1.00  0.00    -0.000 C 
BRANCH  14  15
ATOM     15  C   UNL     1      64.682  14.830  36.849  1.00  0.00    -0.000 C 
BRANCH  15  16
ATOM     16  C   UNL     1      63.615  14.579  37.926  1.00  0.00    -0.000 C 
BRANCH  16  17
ATOM     17  C   UNL     1      64.020  13.476  38.916  1.00  0.00    -0.000 C 
BRANCH  17  18
ATOM     18  C   UNL     1      62.895  13.124  39.901  1.00  0.00    -0.003 C 
ATOM     19  C   UNL     1      62.864  11.626  40.188  1.00  0.00     0.004 C 
ENDBRANCH  17  18
ENDBRANCH  16  17
ENDBRANCH  15  16
ENDBRANCH  14  15
ENDBRANCH  13  14
ENDBRANCH  12  13
ENDBRANCH   1  12
TORSDOF 14
ENDMDL
MODEL 6
REMARK VINA RESULT:    -4.409      2.326      4.730
REMARK INTER + INTRA:         -10.456
REMARK INTER:                  -7.614
REMARK INTRA:                  -2.843
REMARK UNBOUND:                -2.438
REMARK SMILES CCCCCCCCCCCCCC[C@H](C)C(=O)[O-]
REMARK SMILES IDX 9 1 10 2 11 3 12 4 13 5 14 6 15 7 16 8 17 9 18 10 19 11 8 12
REMARK SMILES IDX 7 13 6 14 5 15 4 16 3 17 2 18 1 19
REMARK H PARENT
REMARK Flexibility Score: inf
ROOT
ATOM      1  C   UNL     1      61.269  19.039  39.536  1.00  0.00     0.000 C 
ENDROOT
BRANCH   1   2
ATOM      2  C   UNL     1      60.853  18.802  38.070  1.00  0.00     0.000 C 
BRANCH   2   3
ATOM      3  C   UNL     1      59.911  17.603  37.840  1.00  0.00     0.000 C 
BRANCH   3   4
ATOM      4  C   UNL     1      59.010  17.250  39.036  1.00  0.00     0.000 C 
BRANCH   4   5
ATOM      5  C   UNL     1      59.224  15.810  39.535  1.00  0.00     0.001 C 
BRANCH   5   6
ATOM      6  C   UNL     1      59.709  14.860  38.424  1.00  0.00     0.009 C 
BRANCH   6   7
ATOM      7  C   UNL     1      60.066  13.440  38.917  1.00  0.00     0.032 C 
ATOM      8  C   UNL     1      60.450  13.467  40.400  1.00  0.00     0.014 C 
BRANCH   7   9
ATOM      9  C   UNL     1      61.183  12.834  38.110  1.00  0.00     0.044 C 
ATOM     10  O   UNL     1      62.142  12.250  38.680  1.00  0.00    -0.550 OA
ATOM     11  O   UNL     1      61.162  12.921  36.723  1.00  0.00    -0.550 OA
ENDBRANCH   7   9
ENDBRANCH   6   7
ENDBRANCH   5   6
ENDBRANCH   4   5
ENDBRANCH   3   4
ENDBRANCH   2   3
ENDBRANCH   1   2
BRANCH   1  12
ATOM     12  C   UNL     1      62.777  19.249  39.763  1.00  0.00     0.000 C 
BRANCH  12  13
ATOM     13  C   UNL     1      63.434  18.079  40.516  1.00  0.00    -0.000 C 
BRANCH  13  14
ATOM     14  C   UNL     1      62.616  16.781  40.418  1.00  0.00    -0.000 C 
BRANCH  14  15
ATOM     15  C   UNL     1      63.357  15.666  39.666  1.00  0.00    -0.000 C 
BRANCH  15  16
ATOM     16  C   UNL     1      63.214  15.843  38.146  1.00  0.00    -0.000 C 
BRANCH  16  17
ATOM     17  C   UNL     1      64.551  15.692  37.403  1.00  0.00    -0.000 C 
BRANCH  17  18
ATOM     18  C   UNL     1      65.401  16.970  37.450  1.00  0.00    -0.003 C 
ATOM     19  C   UNL     1      64.637  18.161  36.879  1.00  0.00     0.004 C 
ENDBRANCH  17  18
ENDBRANCH  16  17
ENDBRANCH  15  16
ENDBRANCH  14  15
ENDBRANCH  13  14
ENDBRANCH  12  13
ENDBRANCH   1  12
TORSDOF 14
ENDMDL
MODEL 7
REMARK VINA RESULT:    -4.404      2.605      4.281
REMARK INTER + INTRA:         -10.446
REMARK INTER:                  -8.041
REMARK INTRA:                  -2.405
REMARK UNBOUND:                -2.438
REMARK SMILES CCCCCCCCCCCCCC[C@H](C)C(=O)[O-]
REMARK SMILES IDX 9 1 10 2 11 3 12 4 13 5 14 6 15 7 16 8 17 9 18 10 19 11 8 12
REMARK SMILES IDX 7 13 6 14 5 15 4 16 3 17 2 18 1 19
REMARK H PARENT
REMARK Flexibility Score: inf
ROOT
ATOM      1  C   UNL     1      64.361  14.790  36.274  1.00  0.00     0.000 C 
ENDROOT
BRANCH   1   2
ATOM      2  C   UNL     1      65.092  14.490  37.598  1.00  0.00     0.000 C 
BRANCH   2   3
ATOM      3  C   UNL     1      64.361  13.519  38.546  1.00  0.00     0.000 C 
BRANCH   3   4
ATOM      4  C   UNL     1      63.463  14.194  39.598  1.00  0.00     0.000 C 
BRANCH   4   5
ATOM      5  C   UNL     1      62.209  13.366  39.929  1.00  0.00     0.001 C 
BRANCH   5   6
ATOM      6  C   UNL     1      60.931  13.936  39.285  1.00  0.00     0.009 C 
BRANCH   6   7
ATOM      7  C   UNL     1      61.013  14.097  37.751  1.00  0.00     0.032 C 
ATOM      8  C   UNL     1      60.439  15.451  37.321  1.00  0.00     0.014 C 
BRANCH   7   9
ATOM      9  C   UNL     1      60.292  12.985  37.034  1.00  0.00     0.044 C 
ATOM     10  O   UNL     1      60.921  11.973  36.625  1.00  0.00    -0.550 OA
ATOM     11  O   UNL     1      58.923  13.075  36.816  1.00  0.00    -0.550 OA
ENDBRANCH   7   9
ENDBRANCH   6   7
ENDBRANCH   5   6
ENDBRANCH   4   5
ENDBRANCH   3   4
ENDBRANCH   2   3
ENDBRANCH   1   2
BRANCH   1  12
ATOM     12  C   UNL     1      64.256  16.282  35.907  1.00  0.00     0.000 C 
BRANCH  12  13
ATOM     13  C   UNL     1      65.010  17.191  36.894  1.00  0.00    -0.000 C 
BRANCH  13  14
ATOM     14  C   UNL     1      64.061  18.044  37.751  1.00  0.00    -0.000 C 
BRANCH  14  15
ATOM     15  C   UNL     1      64.192  17.753  39.253  1.00  0.00    -0.000 C 
BRANCH  15  16
ATOM     16  C   UNL     1      63.029  18.381  40.036  1.00  0.00    -0.000 C 
BRANCH  16  17
ATOM     17  C   UNL     1      61.845  17.420  40.214  1.00  0.00    -0.000 C 
BRANCH  17  18
ATOM     18  C   UNL     1      60.490  18.096  39.955  1.00  0.00    -0.003 C 
ATOM     19  C   UNL     1      60.557  19.015  38.739  1.00  0.00     0.004 C 
ENDBRANCH  17  18
ENDBRANCH  16  17
ENDBRANCH  15  16
ENDBRANCH  14  15
ENDBRANCH  13  14
ENDBRANCH  12  13
ENDBRANCH   1  12
TORSDOF 14
ENDMDL
MODEL 8
REMARK VINA RESULT:    -4.352      2.942      4.603
REMARK INTER + INTRA:         -10.351
REMARK INTER:                  -8.040
REMARK INTRA:                  -2.312
REMARK UNBOUND:                -2.438
REMARK SMILES CCCCCCCCCCCCCC[C@H](C)C(=O)[O-]
REMARK SMILES IDX 9 1 10 2 11 3 12 4 13 5 14 6 15 7 16 8 17 9 18 10 19 11 8 12
REMARK SMILES IDX 7 13 6 14 5 15 4 16 3 17 2 18 1 19
REMARK H PARENT
REMARK Flexibility Score: inf
ROOT
ATOM      1  C   UNL     1      64.575  15.330  35.964  1.00  0.00     0.000 C 
ENDROOT
BRANCH   1   2
ATOM      2  C   UNL     1      63.161  14.739  36.134  1.00  0.00     0.000 C 
BRANCH   2   3
ATOM      3  C   UNL     1      62.671  14.617  37.591  1.00  0.00     0.000 C 
BRANCH   3   4
ATOM      4  C   UNL     1      63.736  14.138  38.594  1.00  0.00     0.000 C 
BRANCH   4   5
ATOM      5  C   UNL     1      63.155  13.870  39.993  1.00  0.00     0.001 C 
BRANCH   5   6
ATOM      6  C   UNL     1      61.653  13.529  39.960  1.00  0.00     0.009 C 
BRANCH   6   7
ATOM      7  C   UNL     1      61.345  12.018  40.043  1.00  0.00     0.032 C 
ATOM      8  C   UNL     1      62.482  11.276  40.755  1.00  0.00     0.014 C 
BRANCH   7   9
ATOM      9  C   UNL     1      61.118  11.419  38.681  1.00  0.00     0.044 C 
ATOM     10  O   UNL     1      61.836  10.469  38.270  1.00  0.00    -0.550 OA
ATOM     11  O   UNL     1      60.111  11.918  37.863  1.00  0.00    -0.550 OA
ENDBRANCH   7   9
ENDBRANCH   6   7
ENDBRANCH   5   6
ENDBRANCH   4   5
ENDBRANCH   3   4
ENDBRANCH   2   3
ENDBRANCH   1   2
BRANCH   1  12
ATOM     12  C   UNL     1      64.619  16.817  35.568  1.00  0.00     0.000 C 
BRANCH  12  13
ATOM     13  C   UNL     1      65.391  17.680  36.582  1.00  0.00    -0.000 C 
BRANCH  13  14
ATOM     14  C   UNL     1      64.718  17.710  37.964  1.00  0.00    -0.000 C 
BRANCH  14  15
ATOM     15  C   UNL     1      63.402  18.502  37.967  1.00  0.00    -0.000 C 
BRANCH  15  16
ATOM     16  C   UNL     1      62.916  18.750  39.403  1.00  0.00    -0.000 C 
BRANCH  16  17
ATOM     17  C   UNL     1      62.625  17.448  40.164  1.00  0.00    -0.000 C 
BRANCH  17  18
ATOM     18  C   UNL     1      61.130  17.252  40.453  1.00  0.00    -0.003 C 
ATOM     19  C   UNL     1      60.355  16.962  39.170  1.00  0.00     0.004 C 
ENDBRANCH  17  18
ENDBRANCH  16  17
ENDBRANCH  15  16
ENDBRANCH  14  15
ENDBRANCH  13  14
ENDBRANCH  12  13
ENDBRANCH   1  12
TORSDOF 14
ENDMDL
