MODEL 1
REMARK VINA RESULT:    -4.137      0.000      0.000
REMARK INTER + INTRA:          -6.627
REMARK INTER:                  -5.588
REMARK INTRA:                  -1.039
REMARK UNBOUND:                -1.039
REMARK SMILES CC[C@@H](CC[C@@H](C)[C@H]1CC[C@@H]2[C@H]3CC(=O)C4=CC(=O)CC[C@@]4(C)[C@@H]3CC[C@@]21C)C(C)C
REMARK SMILES IDX 4 1 3 2 2 3 1 4 29 5 30 6 31 7 5 8 6 9 7 10 8 11 9 12 27 13
REMARK SMILES IDX 10 14 11 15 26 16 28 17 12 18 25 19 24 20 13 21 22 22 14 23
REMARK SMILES IDX 16 24 21 25 23 26 15 27 17 28 20 29 18 30 19 31
REMARK H PARENT
REMARK Flexibility Score: inf
ROOT
ATOM      1  C   UNL     1     -22.760  10.226 -29.059  1.00  0.00     0.004 C 
ENDROOT
BRANCH   1   2
ATOM      2  C   UNL     1     -23.958  10.823 -28.256  1.00  0.00    -0.009 C 
BRANCH   2   3
ATOM      3  C   UNL     1     -24.508   9.875 -27.156  1.00  0.00     0.000 C 
ATOM      4  C   UNL     1     -26.026   9.987 -26.987  1.00  0.00     0.004 C 
ENDBRANCH   2   3
BRANCH   2   5
ATOM      5  C   UNL     1     -25.109  11.419 -29.135  1.00  0.00    -0.014 C 
ATOM      6  C   UNL     1     -24.842  12.881 -29.532  1.00  0.00     0.007 C 
ATOM      7  C   UNL     1     -25.453  10.591 -30.381  1.00  0.00     0.007 C 
ENDBRANCH   2   5
ENDBRANCH   1   2
BRANCH   1   8
ATOM      8  C   UNL     1     -21.347  10.639 -28.579  1.00  0.00     0.004 C 
BRANCH   8   9
ATOM      9  C   UNL     1     -20.508  11.373 -29.667  1.00  0.00    -0.011 C 
ATOM     10  C   UNL     1     -21.221  12.682 -30.068  1.00  0.00     0.008 C 
BRANCH   9  11
ATOM     11  C   UNL     1     -19.033  11.644 -29.174  1.00  0.00    -0.002 C 
ATOM     12  C   UNL     1     -18.672  10.831 -27.930  1.00  0.00     0.005 C 
ATOM     13  C   UNL     1     -17.849  11.366 -30.178  1.00  0.00    -0.026 C 
ATOM     14  C   UNL     1     -17.172  10.922 -27.818  1.00  0.00     0.005 C 
ATOM     15  C   UNL     1     -16.644  10.904 -29.257  1.00  0.00    -0.001 C 
ATOM     16  C   UNL     1     -17.567  12.632 -31.061  1.00  0.00     0.007 C 
ATOM     17  C   UNL     1     -18.179  10.178 -31.129  1.00  0.00     0.012 C 
ATOM     18  C   UNL     1     -15.255  11.639 -29.354  1.00  0.00     0.004 C 
ATOM     19  C   UNL     1     -16.343  13.438 -30.661  1.00  0.00     0.005 C 
ATOM     20  C   UNL     1     -15.109  12.523 -30.611  1.00  0.00     0.003 C 
ATOM     21  C   UNL     1     -14.109  10.615 -29.277  1.00  0.00     0.085 C 
ATOM     22  C   UNL     1     -13.737  13.315 -30.668  1.00  0.00    -0.000 C 
ATOM     23  C   UNL     1     -12.772  11.273 -29.378  1.00  0.00     0.159 C 
ATOM     24  C   UNL     1     -12.567  12.382 -30.334  1.00  0.00     0.005 C 
ATOM     25  C   UNL     1     -13.537  13.878 -32.114  1.00  0.00     0.020 C 
ATOM     26  C   UNL     1     -13.715  14.486 -29.648  1.00  0.00     0.017 C 
ATOM     27  O   UNL     1     -11.808  10.815 -28.706  1.00  0.00    -0.295 OA
ATOM     28  C   UNL     1     -11.333  12.601 -30.829  1.00  0.00     0.055 C 
ATOM     29  C   UNL     1     -12.165  14.534 -32.323  1.00  0.00     0.081 C 
ATOM     30  C   UNL     1     -11.064  13.659 -31.812  1.00  0.00     0.156 C 
ATOM     31  O   UNL     1      -9.885  13.851 -32.209  1.00  0.00    -0.295 OA
ENDBRANCH   9  11
ENDBRANCH   8   9
ENDBRANCH   1   8
TORSDOF 6
ENDMDL
MODEL 2
REMARK VINA RESULT:    -3.276      3.807      9.892
REMARK INTER + INTRA:          -5.464
REMARK INTER:                  -3.947
REMARK INTRA:                  -1.517
REMARK UNBOUND:                -1.039
REMARK SMILES CC[C@@H](CC[C@@H](C)[C@H]1CC[C@@H]2[C@H]3CC(=O)C4=CC(=O)CC[C@@]4(C)[C@@H]3CC[C@@]21C)C(C)C
REMARK SMILES IDX 4 1 3 2 2 3 1 4 29 5 30 6 31 7 5 8 6 9 7 10 8 11 9 12 27 13
REMARK SMILES IDX 10 14 11 15 26 16 28 17 12 18 25 19 24 20 13 21 22 22 14 23
REMARK SMILES IDX 16 24 21 25 23 26 15 27 17 28 20 29 18 30 19 31
REMARK H PARENT
REMARK Flexibility Score: inf
ROOT
ATOM      1  C   UNL     1     -14.219  12.167 -30.333  1.00  0.00     0.004 C 
ENDROOT
BRANCH   1   2
ATOM      2  C   UNL     1     -14.009  13.639 -30.806  1.00  0.00    -0.009 C 
BRANCH   2   3
ATOM      3  C   UNL     1     -14.626  13.945 -32.197  1.00  0.00     0.000 C 
ATOM      4  C   UNL     1     -16.155  13.996 -32.165  1.00  0.00     0.004 C 
ENDBRANCH   2   3
BRANCH   2   5
ATOM      5  C   UNL     1     -12.536  14.162 -30.698  1.00  0.00    -0.014 C 
ATOM      6  C   UNL     1     -11.670  13.281 -29.781  1.00  0.00     0.007 C 
ATOM      7  C   UNL     1     -11.833  14.365 -32.048  1.00  0.00     0.007 C 
ENDBRANCH   2   5
ENDBRANCH   1   2
BRANCH   1   8
ATOM      8  C   UNL     1     -14.911  11.986 -28.960  1.00  0.00     0.004 C 
BRANCH   8   9
ATOM      9  C   UNL     1     -16.099  10.979 -28.987  1.00  0.00    -0.011 C 
ATOM     10  C   UNL     1     -15.860   9.877 -27.934  1.00  0.00     0.008 C 
BRANCH   9  11
ATOM     11  C   UNL     1     -17.481  11.708 -28.759  1.00  0.00    -0.002 C 
ATOM     12  C   UNL     1     -17.350  13.232 -28.787  1.00  0.00     0.005 C 
ATOM     13  C   UNL     1     -18.660  11.399 -29.759  1.00  0.00    -0.026 C 
ATOM     14  C   UNL     1     -18.760  13.748 -28.922  1.00  0.00     0.005 C 
ATOM     15  C   UNL     1     -19.483  12.753 -29.837  1.00  0.00    -0.001 C 
ATOM     16  C   UNL     1     -19.475  10.148 -29.279  1.00  0.00     0.007 C 
ATOM     17  C   UNL     1     -18.126  11.106 -31.193  1.00  0.00     0.012 C 
ATOM     18  C   UNL     1     -21.031  12.747 -29.548  1.00  0.00     0.004 C 
ATOM     19  C   UNL     1     -20.810  10.460 -28.625  1.00  0.00     0.005 C 
ATOM     20  C   UNL     1     -21.659  11.336 -29.561  1.00  0.00     0.003 C 
ATOM     21  C   UNL     1     -21.757  13.671 -30.541  1.00  0.00     0.085 C 
ATOM     22  C   UNL     1     -23.202  11.330 -29.200  1.00  0.00    -0.000 C 
ATOM     23  C   UNL     1     -23.231  13.684 -30.307  1.00  0.00     0.159 C 
ATOM     24  C   UNL     1     -23.937  12.426 -29.981  1.00  0.00     0.005 C 
ATOM     25  C   UNL     1     -23.807   9.942 -29.589  1.00  0.00     0.020 C 
ATOM     26  C   UNL     1     -23.432  11.592 -27.687  1.00  0.00     0.017 C 
ATOM     27  O   UNL     1     -23.873  14.757 -30.476  1.00  0.00    -0.295 OA
ATOM     28  C   UNL     1     -25.239  12.303 -30.303  1.00  0.00     0.055 C 
ATOM     29  C   UNL     1     -25.332   9.879 -29.423  1.00  0.00     0.081 C 
ATOM     30  C   UNL     1     -25.993  11.068 -30.045  1.00  0.00     0.156 C 
ATOM     31  O   UNL     1     -27.219  11.021 -30.326  1.00  0.00    -0.295 OA
ENDBRANCH   9  11
ENDBRANCH   8   9
ENDBRANCH   1   8
TORSDOF 6
ENDMDL
MODEL 3
REMARK VINA RESULT:    -2.994      2.042      3.828
REMARK INTER + INTRA:          -5.082
REMARK INTER:                  -5.577
REMARK INTRA:                   0.495
REMARK UNBOUND:                -1.039
REMARK SMILES CC[C@@H](CC[C@@H](C)[C@H]1CC[C@@H]2[C@H]3CC(=O)C4=CC(=O)CC[C@@]4(C)[C@@H]3CC[C@@]21C)C(C)C
REMARK SMILES IDX 4 1 3 2 2 3 1 4 29 5 30 6 31 7 5 8 6 9 7 10 8 11 9 12 27 13
REMARK SMILES IDX 10 14 11 15 26 16 28 17 12 18 25 19 24 20 13 21 22 22 14 23
REMARK SMILES IDX 16 24 21 25 23 26 15 27 17 28 20 29 18 30 19 31
REMARK H PARENT
REMARK Flexibility Score: inf
ROOT
ATOM      1  C   UNL     1     -21.718  11.196 -30.147  1.00  0.00     0.004 C 
ENDROOT
BRANCH   1   2
ATOM      2  C   UNL     1     -22.840  11.150 -29.063  1.00  0.00    -0.009 C 
BRANCH   2   3
ATOM      3  C   UNL     1     -22.804   9.875 -28.178  1.00  0.00     0.000 C 
ATOM      4  C   UNL     1     -22.128  10.116 -26.826  1.00  0.00     0.004 C 
ENDBRANCH   2   3
BRANCH   2   5
ATOM      5  C   UNL     1     -24.283  11.445 -29.595  1.00  0.00    -0.014 C 
ATOM      6  C   UNL     1     -25.371  10.795 -28.724  1.00  0.00     0.007 C 
ATOM      7  C   UNL     1     -24.593  12.935 -29.799  1.00  0.00     0.007 C 
ENDBRANCH   2   5
ENDBRANCH   1   2
BRANCH   1   8
ATOM      8  C   UNL     1     -20.288  11.492 -29.634  1.00  0.00     0.004 C 
BRANCH   8   9
ATOM      9  C   UNL     1     -19.573  12.641 -30.405  1.00  0.00    -0.011 C 
ATOM     10  C   UNL     1     -19.904  13.991 -29.734  1.00  0.00     0.008 C 
BRANCH   9  11
ATOM     11  C   UNL     1     -18.015  12.401 -30.487  1.00  0.00    -0.002 C 
ATOM     12  C   UNL     1     -17.373  13.121 -31.673  1.00  0.00     0.005 C 
ATOM     13  C   UNL     1     -17.131  12.822 -29.251  1.00  0.00    -0.026 C 
ATOM     14  C   UNL     1     -15.891  13.095 -31.400  1.00  0.00     0.005 C 
ATOM     15  C   UNL     1     -15.745  13.263 -29.883  1.00  0.00    -0.001 C 
ATOM     16  C   UNL     1     -17.048  11.653 -28.209  1.00  0.00     0.007 C 
ATOM     17  C   UNL     1     -17.721  14.071 -28.530  1.00  0.00     0.012 C 
ATOM     18  C   UNL     1     -14.406  12.608 -29.373  1.00  0.00     0.004 C 
ATOM     19  C   UNL     1     -15.742  10.877 -28.212  1.00  0.00     0.005 C 
ATOM     20  C   UNL     1     -14.559  11.843 -28.041  1.00  0.00     0.003 C 
ATOM     21  C   UNL     1     -13.305  13.677 -29.260  1.00  0.00     0.085 C 
ATOM     22  C   UNL     1     -13.226  11.128 -27.568  1.00  0.00    -0.000 C 
ATOM     23  C   UNL     1     -12.021  13.097 -28.767  1.00  0.00     0.159 C 
ATOM     24  C   UNL     1     -12.035  12.085 -27.688  1.00  0.00     0.005 C 
ATOM     25  C   UNL     1     -13.383  10.702 -26.072  1.00  0.00     0.020 C 
ATOM     26  C   UNL     1     -12.917   9.877 -28.434  1.00  0.00     0.017 C 
ATOM     27  O   UNL     1     -10.930  13.542 -29.219  1.00  0.00    -0.295 OA
ATOM     28  C   UNL     1     -10.960  11.971 -26.884  1.00  0.00     0.055 C 
ATOM     29  C   UNL     1     -12.092  10.135 -25.466  1.00  0.00     0.081 C 
ATOM     30  C   UNL     1     -10.920  11.016 -25.767  1.00  0.00     0.156 C 
ATOM     31  O   UNL     1      -9.875  10.917 -25.073  1.00  0.00    -0.295 OA
ENDBRANCH   9  11
ENDBRANCH   8   9
ENDBRANCH   1   8
TORSDOF 6
ENDMDL
MODEL 4
REMARK VINA RESULT:    -2.895      1.158      1.877
REMARK INTER + INTRA:          -4.949
REMARK INTER:                  -4.885
REMARK INTRA:                  -0.063
REMARK UNBOUND:                -1.039
REMARK SMILES CC[C@@H](CC[C@@H](C)[C@H]1CC[C@@H]2[C@H]3CC(=O)C4=CC(=O)CC[C@@]4(C)[C@@H]3CC[C@@]21C)C(C)C
REMARK SMILES IDX 4 1 3 2 2 3 1 4 29 5 30 6 31 7 5 8 6 9 7 10 8 11 9 12 27 13
REMARK SMILES IDX 10 14 11 15 26 16 28 17 12 18 25 19 24 20 13 21 22 22 14 23
REMARK SMILES IDX 16 24 21 25 23 26 15 27 17 28 20 29 18 30 19 31
REMARK H PARENT
REMARK Flexibility Score: inf
ROOT
ATOM      1  C   UNL     1     -21.173  13.053 -30.007  1.00  0.00     0.004 C 
ENDROOT
BRANCH   1   2
ATOM      2  C   UNL     1     -22.672  12.709 -29.739  1.00  0.00    -0.009 C 
BRANCH   2   3
ATOM      3  C   UNL     1     -22.990  11.192 -29.814  1.00  0.00     0.000 C 
ATOM      4  C   UNL     1     -23.736  10.684 -28.577  1.00  0.00     0.004 C 
ENDBRANCH   2   3
BRANCH   2   5
ATOM      5  C   UNL     1     -23.700  13.558 -30.561  1.00  0.00    -0.014 C 
ATOM      6  C   UNL     1     -24.921  13.969 -29.721  1.00  0.00     0.007 C 
ATOM      7  C   UNL     1     -23.099  14.790 -31.253  1.00  0.00     0.007 C 
ENDBRANCH   2   5
ENDBRANCH   1   2
BRANCH   1   8
ATOM      8  C   UNL     1     -20.204  11.849 -30.091  1.00  0.00     0.004 C 
BRANCH   8   9
ATOM      9  C   UNL     1     -19.658  11.389 -28.708  1.00  0.00    -0.011 C 
ATOM     10  C   UNL     1     -19.908   9.875 -28.536  1.00  0.00     0.008 C 
BRANCH   9  11
ATOM     11  C   UNL     1     -18.129  11.746 -28.541  1.00  0.00    -0.002 C 
ATOM     12  C   UNL     1     -17.491  11.046 -27.340  1.00  0.00     0.005 C 
ATOM     13  C   UNL     1     -17.155  11.428 -29.740  1.00  0.00    -0.026 C 
ATOM     14  C   UNL     1     -16.004  11.194 -27.538  1.00  0.00     0.005 C 
ATOM     15  C   UNL     1     -15.771  11.078 -29.048  1.00  0.00    -0.001 C 
ATOM     16  C   UNL     1     -17.113  12.628 -30.749  1.00  0.00     0.007 C 
ATOM     17  C   UNL     1     -17.609  10.158 -30.518  1.00  0.00     0.012 C 
ATOM     18  C   UNL     1     -14.465  11.848 -29.474  1.00  0.00     0.004 C 
ATOM     19  C   UNL     1     -15.874  13.502 -30.661  1.00  0.00     0.005 C 
ATOM     20  C   UNL     1     -14.612  12.635 -30.795  1.00  0.00     0.003 C 
ATOM     21  C   UNL     1     -13.279  10.871 -29.556  1.00  0.00     0.085 C 
ATOM     22  C   UNL     1     -13.318  13.463 -31.182  1.00  0.00    -0.000 C 
ATOM     23  C   UNL     1     -12.021  11.561 -29.970  1.00  0.00     0.159 C 
ATOM     24  C   UNL     1     -12.062  12.598 -31.024  1.00  0.00     0.005 C 
ATOM     25  C   UNL     1     -13.434  13.916 -32.674  1.00  0.00     0.020 C 
ATOM     26  C   UNL     1     -13.150  14.711 -30.273  1.00  0.00     0.017 C 
ATOM     27  O   UNL     1     -10.922  11.190 -29.473  1.00  0.00    -0.295 OA
ATOM     28  C   UNL     1     -10.962  12.817 -31.770  1.00  0.00     0.055 C 
ATOM     29  C   UNL     1     -12.163  14.597 -33.200  1.00  0.00     0.081 C 
ATOM     30  C   UNL     1     -10.942  13.802 -32.860  1.00  0.00     0.156 C 
ATOM     31  O   UNL     1      -9.875  13.999 -33.498  1.00  0.00    -0.295 OA
ENDBRANCH   9  11
ENDBRANCH   8   9
ENDBRANCH   1   8
TORSDOF 6
ENDMDL
MODEL 5
REMARK VINA RESULT:    -2.718      2.419      4.669
REMARK INTER + INTRA:          -4.709
REMARK INTER:                  -5.849
REMARK INTRA:                   1.140
REMARK UNBOUND:                -1.039
REMARK SMILES CC[C@@H](CC[C@@H](C)[C@H]1CC[C@@H]2[C@H]3CC(=O)C4=CC(=O)CC[C@@]4(C)[C@@H]3CC[C@@]21C)C(C)C
REMARK SMILES IDX 4 1 3 2 2 3 1 4 29 5 30 6 31 7 5 8 6 9 7 10 8 11 9 12 27 13
REMARK SMILES IDX 10 14 11 15 26 16 28 17 12 18 25 19 24 20 13 21 22 22 14 23
REMARK SMILES IDX 16 24 21 25 23 26 15 27 17 28 20 29 18 30 19 31
REMARK H PARENT
REMARK Flexibility Score: inf
ROOT
ATOM      1  C   UNL     1     -26.261  11.386 -30.873  1.00  0.00     0.004 C 
ENDROOT
BRANCH   1   2
ATOM      2  C   UNL     1     -27.085  12.478 -30.121  1.00  0.00    -0.009 C 
BRANCH   2   3
ATOM      3  C   UNL     1     -26.216  13.440 -29.265  1.00  0.00     0.000 C 
ATOM      4  C   UNL     1     -26.079  14.827 -29.896  1.00  0.00     0.004 C 
ENDBRANCH   2   3
BRANCH   2   5
ATOM      5  C   UNL     1     -28.315  11.937 -29.316  1.00  0.00    -0.014 C 
ATOM      6  C   UNL     1     -29.021  13.045 -28.515  1.00  0.00     0.007 C 
ATOM      7  C   UNL     1     -29.338  11.166 -30.160  1.00  0.00     0.007 C 
ENDBRANCH   2   5
ENDBRANCH   1   2
BRANCH   1   8
ATOM      8  C   UNL     1     -25.327  10.515 -29.997  1.00  0.00     0.004 C 
BRANCH   8   9
ATOM      9  C   UNL     1     -25.127  11.069 -28.556  1.00  0.00    -0.011 C 
ATOM     10  C   UNL     1     -25.873  10.163 -27.552  1.00  0.00     0.008 C 
BRANCH   9  11
ATOM     11  C   UNL     1     -23.596  11.198 -28.193  1.00  0.00    -0.002 C 
ATOM     12  C   UNL     1     -23.179  10.248 -27.069  1.00  0.00     0.005 C 
ATOM     13  C   UNL     1     -22.537  10.944 -29.332  1.00  0.00    -0.026 C 
ATOM     14  C   UNL     1     -21.671  10.234 -27.102  1.00  0.00     0.005 C 
ATOM     15  C   UNL     1     -21.286  10.320 -28.583  1.00  0.00    -0.001 C 
ATOM     16  C   UNL     1     -22.250  12.268 -30.123  1.00  0.00     0.007 C 
ATOM     17  C   UNL     1     -23.041   9.875 -30.347  1.00  0.00     0.012 C 
ATOM     18  C   UNL     1     -19.863  10.972 -28.755  1.00  0.00     0.004 C 
ATOM     19  C   UNL     1     -20.938  12.953 -29.779  1.00  0.00     0.005 C 
ATOM     20  C   UNL     1     -19.774  11.962 -29.936  1.00  0.00     0.003 C 
ATOM     21  C   UNL     1     -18.791   9.876 -28.886  1.00  0.00     0.085 C 
ATOM     22  C   UNL     1     -18.360  12.668 -30.062  1.00  0.00    -0.000 C 
ATOM     23  C   UNL     1     -17.427  10.454 -29.063  1.00  0.00     0.159 C 
ATOM     24  C   UNL     1     -17.234  11.635 -29.933  1.00  0.00     0.005 C 
ATOM     25  C   UNL     1     -18.259  13.353 -31.464  1.00  0.00     0.020 C 
ATOM     26  C   UNL     1     -18.157  13.731 -28.949  1.00  0.00     0.017 C 
ATOM     27  O   UNL     1     -16.438   9.875 -28.536  1.00  0.00    -0.295 OA
ATOM     28  C   UNL     1     -16.040  11.822 -30.528  1.00  0.00     0.055 C 
ATOM     29  C   UNL     1     -16.869  13.938 -31.752  1.00  0.00     0.081 C 
ATOM     30  C   UNL     1     -15.790  12.951 -31.436  1.00  0.00     0.156 C 
ATOM     31  O   UNL     1     -14.643  13.105 -31.932  1.00  0.00    -0.295 OA
ENDBRANCH   9  11
ENDBRANCH   8   9
ENDBRANCH   1   8
TORSDOF 6
ENDMDL
MODEL 6
REMARK VINA RESULT:    -2.701      2.078      3.754
REMARK INTER + INTRA:          -4.688
REMARK INTER:                  -5.180
REMARK INTRA:                   0.492
REMARK UNBOUND:                -1.039
REMARK SMILES CC[C@@H](CC[C@@H](C)[C@H]1CC[C@@H]2[C@H]3CC(=O)C4=CC(=O)CC[C@@]4(C)[C@@H]3CC[C@@]21C)C(C)C
REMARK SMILES IDX 4 1 3 2 2 3 1 4 29 5 30 6 31 7 5 8 6 9 7 10 8 11 9 12 27 13
REMARK SMILES IDX 10 14 11 15 26 16 28 17 12 18 25 19 24 20 13 21 22 22 14 23
REMARK SMILES IDX 16 24 21 25 23 26 15 27 17 28 20 29 18 30 19 31
REMARK H PARENT
REMARK Flexibility Score: inf
ROOT
ATOM      1  C   UNL     1     -25.923  10.545 -29.956  1.00  0.00     0.004 C 
ENDROOT
BRANCH   1   2
ATOM      2  C   UNL     1     -26.795  11.822 -29.744  1.00  0.00    -0.009 C 
BRANCH   2   3
ATOM      3  C   UNL     1     -28.307  11.524 -29.555  1.00  0.00     0.000 C 
ATOM      4  C   UNL     1     -28.888  12.196 -28.308  1.00  0.00     0.004 C 
ENDBRANCH   2   3
BRANCH   2   5
ATOM      5  C   UNL     1     -26.556  12.964 -30.789  1.00  0.00    -0.014 C 
ATOM      6  C   UNL     1     -25.228  13.704 -30.551  1.00  0.00     0.007 C 
ATOM      7  C   UNL     1     -26.653  12.516 -32.254  1.00  0.00     0.007 C 
ENDBRANCH   2   5
ENDBRANCH   1   2
BRANCH   1   8
ATOM      8  C   UNL     1     -24.406  10.705 -29.690  1.00  0.00     0.004 C 
BRANCH   8   9
ATOM      9  C   UNL     1     -24.061  11.003 -28.201  1.00  0.00    -0.011 C 
ATOM     10  C   UNL     1     -24.686   9.914 -27.303  1.00  0.00     0.008 C 
BRANCH   9  11
ATOM     11  C   UNL     1     -22.501  11.110 -27.980  1.00  0.00    -0.002 C 
ATOM     12  C   UNL     1     -21.977  10.067 -26.992  1.00  0.00     0.005 C 
ATOM     13  C   UNL     1     -21.559  10.966 -29.235  1.00  0.00    -0.026 C 
ATOM     14  C   UNL     1     -20.480  10.067 -27.173  1.00  0.00     0.005 C 
ATOM     15  C   UNL     1     -20.241  10.287 -28.671  1.00  0.00    -0.001 C 
ATOM     16  C   UNL     1     -21.349  12.358 -29.929  1.00  0.00     0.007 C 
ATOM     17  C   UNL     1     -22.161   9.989 -30.288  1.00  0.00     0.012 C 
ATOM     18  C   UNL     1     -18.841  10.963 -28.922  1.00  0.00     0.004 C 
ATOM     19  C   UNL     1     -20.009  13.019 -29.655  1.00  0.00     0.005 C 
ATOM     20  C   UNL     1     -18.867  12.055 -30.013  1.00  0.00     0.003 C 
ATOM     21  C   UNL     1     -17.789   9.890 -29.255  1.00  0.00     0.085 C 
ATOM     22  C   UNL     1     -17.471  12.779 -30.212  1.00  0.00    -0.000 C 
ATOM     23  C   UNL     1     -16.448  10.492 -29.512  1.00  0.00     0.159 C 
ATOM     24  C   UNL     1     -16.340  11.747 -30.287  1.00  0.00     0.005 C 
ATOM     25  C   UNL     1     -17.506  13.587 -31.551  1.00  0.00     0.020 C 
ATOM     26  C   UNL     1     -17.158  13.740 -29.034  1.00  0.00     0.017 C 
ATOM     27  O   UNL     1     -15.413   9.875 -29.137  1.00  0.00    -0.295 OA
ATOM     28  C   UNL     1     -15.210  11.995 -30.977  1.00  0.00     0.055 C 
ATOM     29  C   UNL     1     -16.151  14.205 -31.920  1.00  0.00     0.081 C 
ATOM     30  C   UNL     1     -15.047  13.202 -31.800  1.00  0.00     0.156 C 
ATOM     31  O   UNL     1     -13.955  13.408 -32.390  1.00  0.00    -0.295 OA
ENDBRANCH   9  11
ENDBRANCH   8   9
ENDBRANCH   1   8
TORSDOF 6
ENDMDL
MODEL 7
REMARK VINA RESULT:    -2.172      3.465      9.472
REMARK INTER + INTRA:          -3.972
REMARK INTER:                  -5.226
REMARK INTRA:                   1.253
REMARK UNBOUND:                -1.039
REMARK SMILES CC[C@@H](CC[C@@H](C)[C@H]1CC[C@@H]2[C@H]3CC(=O)C4=CC(=O)CC[C@@]4(C)[C@@H]3CC[C@@]21C)C(C)C
REMARK SMILES IDX 4 1 3 2 2 3 1 4 29 5 30 6 31 7 5 8 6 9 7 10 8 11 9 12 27 13
REMARK SMILES IDX 10 14 11 15 26 16 28 17 12 18 25 19 24 20 13 21 22 22 14 23
REMARK SMILES IDX 16 24 21 25 23 26 15 27 17 28 20 29 18 30 19 31
REMARK H PARENT
REMARK Flexibility Score: inf
ROOT
ATOM      1  C   UNL     1      -9.926  14.602 -32.845  1.00  0.00     0.004 C 
ENDROOT
BRANCH   1   2
ATOM      2  C   UNL     1     -11.336  15.252 -33.005  1.00  0.00    -0.009 C 
BRANCH   2   3
ATOM      3  C   UNL     1     -12.396  14.304 -33.628  1.00  0.00     0.000 C 
ATOM      4  C   UNL     1     -11.773  13.055 -34.256  1.00  0.00     0.004 C 
ENDBRANCH   2   3
BRANCH   2   5
ATOM      5  C   UNL     1     -11.339  16.658 -33.694  1.00  0.00    -0.014 C 
ATOM      6  C   UNL     1     -12.434  17.581 -33.132  1.00  0.00     0.007 C 
ATOM      7  C   UNL     1      -9.984  17.378 -33.677  1.00  0.00     0.007 C 
ENDBRANCH   2   5
ENDBRANCH   1   2
BRANCH   1   8
ATOM      8  C   UNL     1      -9.904  13.145 -32.323  1.00  0.00     0.004 C 
BRANCH   8   9
ATOM      9  C   UNL     1      -9.875  13.039 -30.770  1.00  0.00    -0.011 C 
ATOM     10  C   UNL     1      -9.997  14.450 -30.158  1.00  0.00     0.008 C 
BRANCH   9  11
ATOM     11  C   UNL     1     -11.006  12.076 -30.235  1.00  0.00    -0.002 C 
ATOM     12  C   UNL     1     -10.524  11.187 -29.088  1.00  0.00     0.005 C 
ATOM     13  C   UNL     1     -12.339  12.721 -29.694  1.00  0.00    -0.026 C 
ATOM     14  C   UNL     1     -11.777  10.619 -28.471  1.00  0.00     0.005 C 
ATOM     15  C   UNL     1     -12.822  11.738 -28.547  1.00  0.00    -0.001 C 
ATOM     16  C   UNL     1     -13.362  12.935 -30.864  1.00  0.00     0.007 C 
ATOM     17  C   UNL     1     -12.071  14.103 -29.028  1.00  0.00     0.012 C 
ATOM     18  C   UNL     1     -14.279  11.143 -28.585  1.00  0.00     0.004 C 
ATOM     19  C   UNL     1     -14.494  11.923 -30.925  1.00  0.00     0.005 C 
ATOM     20  C   UNL     1     -15.220  11.869 -29.571  1.00  0.00     0.003 C 
ATOM     21  C   UNL     1     -14.884  11.132 -27.170  1.00  0.00     0.085 C 
ATOM     22  C   UNL     1     -16.664  11.222 -29.658  1.00  0.00    -0.000 C 
ATOM     23  C   UNL     1     -16.272  10.584 -27.166  1.00  0.00     0.159 C 
ATOM     24  C   UNL     1     -17.209  10.944 -28.252  1.00  0.00     0.005 C 
ATOM     25  C   UNL     1     -17.623  12.221 -30.383  1.00  0.00     0.020 C 
ATOM     26  C   UNL     1     -16.636   9.875 -30.429  1.00  0.00     0.017 C 
ATOM     27  O   UNL     1     -16.657   9.888 -26.187  1.00  0.00    -0.295 OA
ATOM     28  C   UNL     1     -18.533  10.938 -28.003  1.00  0.00     0.055 C 
ATOM     29  C   UNL     1     -19.087  11.758 -30.387  1.00  0.00     0.081 C 
ATOM     30  C   UNL     1     -19.520  11.323 -29.022  1.00  0.00     0.156 C 
ATOM     31  O   UNL     1     -20.748  11.258 -28.752  1.00  0.00    -0.295 OA
ENDBRANCH   9  11
ENDBRANCH   8   9
ENDBRANCH   1   8
TORSDOF 6
ENDMDL
MODEL 8
REMARK VINA RESULT:    -1.842      1.864      3.249
REMARK INTER + INTRA:          -3.527
REMARK INTER:                  -4.022
REMARK INTRA:                   0.495
REMARK UNBOUND:                -1.039
REMARK SMILES CC[C@@H](CC[C@@H](C)[C@H]1CC[C@@H]2[C@H]3CC(=O)C4=CC(=O)CC[C@@]4(C)[C@@H]3CC[C@@]21C)C(C)C
REMARK SMILES IDX 4 1 3 2 2 3 1 4 29 5 30 6 31 7 5 8 6 9 7 10 8 11 9 12 27 13
REMARK SMILES IDX 10 14 11 15 26 16 28 17 12 18 25 19 24 20 13 21 22 22 14 23
REMARK SMILES IDX 16 24 21 25 23 26 15 27 17 28 20 29 18 30 19 31
REMARK H PARENT
REMARK Flexibility Score: inf
ROOT
ATOM      1  C   UNL     1     -21.562  11.170 -29.397  1.00  0.00     0.004 C 
ENDROOT
BRANCH   1   2
ATOM      2  C   UNL     1     -22.732  11.983 -30.032  1.00  0.00    -0.009 C 
BRANCH   2   3
ATOM      3  C   UNL     1     -22.426  13.496 -30.197  1.00  0.00     0.000 C 
ATOM      4  C   UNL     1     -23.687  14.328 -30.445  1.00  0.00     0.004 C 
ENDBRANCH   2   3
BRANCH   2   5
ATOM      5  C   UNL     1     -24.134  11.744 -29.375  1.00  0.00    -0.014 C 
ATOM      6  C   UNL     1     -25.035  10.841 -30.235  1.00  0.00     0.007 C 
ATOM      7  C   UNL     1     -24.079  11.214 -27.936  1.00  0.00     0.007 C 
ENDBRANCH   2   5
ENDBRANCH   1   2
BRANCH   1   8
ATOM      8  C   UNL     1     -20.135  11.709 -29.663  1.00  0.00     0.004 C 
BRANCH   8   9
ATOM      9  C   UNL     1     -19.113  11.351 -28.544  1.00  0.00    -0.011 C 
ATOM     10  C   UNL     1     -19.299   9.875 -28.133  1.00  0.00     0.008 C 
BRANCH   9  11
ATOM     11  C   UNL     1     -17.630  11.643 -29.000  1.00  0.00    -0.002 C 
ATOM     12  C   UNL     1     -16.915  10.389 -29.503  1.00  0.00     0.005 C 
ATOM     13  C   UNL     1     -17.397  12.708 -30.139  1.00  0.00    -0.026 C 
ATOM     14  C   UNL     1     -15.687  10.893 -30.220  1.00  0.00     0.005 C 
ATOM     15  C   UNL     1     -16.113  12.191 -30.913  1.00  0.00    -0.001 C 
ATOM     16  C   UNL     1     -17.274  14.148 -29.529  1.00  0.00     0.007 C 
ATOM     17  C   UNL     1     -18.574  12.715 -31.159  1.00  0.00     0.012 C 
ATOM     18  C   UNL     1     -14.880  13.150 -31.115  1.00  0.00     0.004 C 
ATOM     19  C   UNL     1     -15.860  14.698 -29.450  1.00  0.00     0.005 C 
ATOM     20  C   UNL     1     -15.197  14.635 -30.835  1.00  0.00     0.003 C 
ATOM     21  C   UNL     1     -14.303  12.978 -32.531  1.00  0.00     0.085 C 
ATOM     22  C   UNL     1     -13.935  15.584 -30.971  1.00  0.00    -0.000 C 
ATOM     23  C   UNL     1     -13.137  13.879 -32.767  1.00  0.00     0.159 C 
ATOM     24  C   UNL     1     -13.165  15.268 -32.259  1.00  0.00     0.005 C 
ATOM     25  C   UNL     1     -14.423  17.069 -31.027  1.00  0.00     0.020 C 
ATOM     26  C   UNL     1     -12.957  15.404 -29.779  1.00  0.00     0.017 C 
ATOM     27  O   UNL     1     -12.175  13.471 -33.473  1.00  0.00    -0.295 OA
ATOM     28  C   UNL     1     -12.443  16.212 -32.893  1.00  0.00     0.055 C 
ATOM     29  C   UNL     1     -13.292  18.067 -31.313  1.00  0.00     0.081 C 
ATOM     30  C   UNL     1     -12.454  17.619 -32.469  1.00  0.00     0.156 C 
ATOM     31  O   UNL     1     -11.727  18.453 -33.068  1.00  0.00    -0.295 OA
ENDBRANCH   9  11
ENDBRANCH   8   9
ENDBRANCH   1   8
TORSDOF 6
ENDMDL
MODEL 9
REMARK VINA RESULT:    -1.709      1.532      3.101
REMARK INTER + INTRA:          -3.347
REMARK INTER:                  -2.929
REMARK INTRA:                  -0.418
REMARK UNBOUND:                -1.039
REMARK SMILES CC[C@@H](CC[C@@H](C)[C@H]1CC[C@@H]2[C@H]3CC(=O)C4=CC(=O)CC[C@@]4(C)[C@@H]3CC[C@@]21C)C(C)C
REMARK SMILES IDX 4 1 3 2 2 3 1 4 29 5 30 6 31 7 5 8 6 9 7 10 8 11 9 12 27 13
REMARK SMILES IDX 10 14 11 15 26 16 28 17 12 18 25 19 24 20 13 21 22 22 14 23
REMARK SMILES IDX 16 24 21 25 23 26 15 27 17 28 20 29 18 30 19 31
REMARK H PARENT
REMARK Flexibility Score: inf
ROOT
ATOM      1  C   UNL     1     -22.877  11.840 -28.956  1.00  0.00     0.004 C 
ENDROOT
BRANCH   1   2
ATOM      2  C   UNL     1     -24.298  11.535 -29.524  1.00  0.00    -0.009 C 
BRANCH   2   3
ATOM      3  C   UNL     1     -25.045  12.791 -30.051  1.00  0.00     0.000 C 
ATOM      4  C   UNL     1     -24.095  13.945 -30.383  1.00  0.00     0.004 C 
ENDBRANCH   2   3
BRANCH   2   5
ATOM      5  C   UNL     1     -25.209  10.668 -28.591  1.00  0.00    -0.014 C 
ATOM      6  C   UNL     1     -24.479  10.224 -27.312  1.00  0.00     0.007 C 
ATOM      7  C   UNL     1     -26.552  11.319 -28.231  1.00  0.00     0.007 C 
ENDBRANCH   2   5
ENDBRANCH   1   2
BRANCH   1   8
ATOM      8  C   UNL     1     -21.720  10.982 -29.523  1.00  0.00     0.004 C 
BRANCH   8   9
ATOM      9  C   UNL     1     -20.354  11.231 -28.817  1.00  0.00    -0.011 C 
ATOM     10  C   UNL     1     -19.706   9.875 -28.463  1.00  0.00     0.008 C 
BRANCH   9  11
ATOM     11  C   UNL     1     -19.396  12.116 -29.706  1.00  0.00    -0.002 C 
ATOM     12  C   UNL     1     -19.950  13.522 -29.941  1.00  0.00     0.005 C 
ATOM     13  C   UNL     1     -17.922  12.357 -29.200  1.00  0.00    -0.026 C 
ATOM     14  C   UNL     1     -18.788  14.323 -30.471  1.00  0.00     0.005 C 
ATOM     15  C   UNL     1     -17.552  13.807 -29.726  1.00  0.00    -0.001 C 
ATOM     16  C   UNL     1     -16.976  11.207 -29.693  1.00  0.00     0.007 C 
ATOM     17  C   UNL     1     -17.856  12.404 -27.645  1.00  0.00     0.012 C 
ATOM     18  C   UNL     1     -16.249  14.022 -30.584  1.00  0.00     0.004 C 
ATOM     19  C   UNL     1     -16.076  11.567 -30.862  1.00  0.00     0.005 C 
ATOM     20  C   UNL     1     -15.267  12.832 -30.528  1.00  0.00     0.003 C 
ATOM     21  C   UNL     1     -15.546  15.323 -30.161  1.00  0.00     0.085 C 
ATOM     22  C   UNL     1     -13.992  13.023 -31.449  1.00  0.00    -0.000 C 
ATOM     23  C   UNL     1     -14.297  15.557 -30.945  1.00  0.00     0.159 C 
ATOM     24  C   UNL     1     -13.399  14.424 -31.255  1.00  0.00     0.005 C 
ATOM     25  C   UNL     1     -12.915  11.961 -31.050  1.00  0.00     0.020 C 
ATOM     26  C   UNL     1     -14.348  12.863 -32.951  1.00  0.00     0.017 C 
ATOM     27  O   UNL     1     -13.979  16.737 -31.261  1.00  0.00    -0.295 OA
ATOM     28  C   UNL     1     -12.087  14.662 -31.445  1.00  0.00     0.055 C 
ATOM     29  C   UNL     1     -11.577  12.154 -31.777  1.00  0.00     0.081 C 
ATOM     30  C   UNL     1     -11.129  13.580 -31.717  1.00  0.00     0.156 C 
ATOM     31  O   UNL     1      -9.921  13.861 -31.930  1.00  0.00    -0.295 OA
ENDBRANCH   9  11
ENDBRANCH   8   9
ENDBRANCH   1   8
TORSDOF 6
ENDMDL
