MODEL 1
REMARK VINA RESULT:    -0.119      0.000      0.000
REMARK INTER + INTRA:          -0.475
REMARK INTER:                  -0.144
REMARK INTRA:                  -0.332
REMARK UNBOUND:                -0.332
REMARK SMILES O=c1c(O)c(-c2ccc(O)c(O)c2)oc2cc(O)cc(O)c12
REMARK SMILES IDX 5 1 3 2 2 3 1 4 22 5 20 6 19 7 17 8 16 9 15 10 14 11 6 12
REMARK SMILES IDX 7 13 8 14 9 15 13 16 11 17 10 18 12 20 4 22 21 24 18 26
REMARK H PARENT 10 19 12 21 4 23 21 25 18 27
REMARK Flexibility Score: inf
ROOT
ATOM      1  C   UNL     1       9.843 -17.656   7.825  1.00  0.00     0.180 A 
ATOM      2  C   UNL     1      10.243 -16.745   6.827  1.00  0.00     0.208 A 
ATOM      3  C   UNL     1      11.528 -16.184   6.897  1.00  0.00     0.238 A 
ATOM      4  O   UNL     1      11.894 -15.360   6.015  1.00  0.00    -0.285 OA
ATOM      5  C   UNL     1      12.395 -16.554   7.946  1.00  0.00     0.111 A 
ATOM      6  C   UNL     1      13.705 -16.038   8.087  1.00  0.00     0.134 A 
ATOM      7  C   UNL     1      14.509 -16.464   9.155  1.00  0.00     0.093 A 
ATOM      8  C   UNL     1      14.028 -17.394  10.083  1.00  0.00     0.123 A 
ATOM      9  C   UNL     1      12.736 -17.906   9.948  1.00  0.00     0.094 A 
ATOM     10  C   UNL     1      11.918 -17.493   8.891  1.00  0.00     0.146 A 
ATOM     11  O   UNL     1      10.692 -17.992   8.791  1.00  0.00    -0.452 OA
ENDROOT
BRANCH   1  12
ATOM     12  C   UNL     1       8.499 -18.275   7.830  1.00  0.00     0.025 A 
ATOM     13  C   UNL     1       8.305 -19.512   7.195  1.00  0.00     0.016 A 
ATOM     14  C   UNL     1       7.050 -20.125   7.207  1.00  0.00     0.051 A 
ATOM     15  C   UNL     1       5.973 -19.517   7.865  1.00  0.00     0.157 A 
ATOM     16  C   UNL     1       7.420 -17.678   8.509  1.00  0.00     0.062 A 
ATOM     17  C   UNL     1       6.160 -18.295   8.522  1.00  0.00     0.158 A 
BRANCH  15  18
ATOM     18  O   UNL     1       4.719 -20.125   7.877  1.00  0.00    -0.504 OA
ATOM     19  H   UNL     1       3.915 -19.672   8.294  1.00  0.00     0.293 HD
ENDBRANCH  15  18
BRANCH  17  20
ATOM     20  O   UNL     1       5.090 -17.699   9.189  1.00  0.00    -0.504 OA
ATOM     21  H   UNL     1       4.758 -18.052  10.079  1.00  0.00     0.293 HD
ENDBRANCH  17  20
ENDBRANCH   1  12
BRANCH   2  22
ATOM     22  O   UNL     1       9.384 -16.433   5.770  1.00  0.00    -0.502 OA
ATOM     23  H   UNL     1       8.381 -16.361   5.890  1.00  0.00     0.293 HD
ENDBRANCH   2  22
BRANCH   6  24
ATOM     24  O   UNL     1      14.213 -15.109   7.178  1.00  0.00    -0.507 OA
ATOM     25  H   UNL     1      13.606 -14.582   6.560  1.00  0.00     0.293 HD
ENDBRANCH   6  24
BRANCH   8  26
ATOM     26  O   UNL     1      14.826 -17.818  11.143  1.00  0.00    -0.508 OA
ATOM     27  H   UNL     1      14.426 -18.074  12.039  1.00  0.00     0.293 HD
ENDBRANCH   8  26
TORSDOF 6
ENDMDL
MODEL 2
REMARK VINA RESULT:     0.127      1.639      6.837
REMARK INTER + INTRA:          -0.179
REMARK INTER:                  -0.436
REMARK INTRA:                   0.257
REMARK UNBOUND:                -0.332
REMARK SMILES O=c1c(O)c(-c2ccc(O)c(O)c2)oc2cc(O)cc(O)c12
REMARK SMILES IDX 5 1 3 2 2 3 1 4 22 5 20 6 19 7 17 8 16 9 15 10 14 11 6 12
REMARK SMILES IDX 7 13 8 14 9 15 13 16 11 17 10 18 12 20 4 22 21 24 18 26
REMARK H PARENT 10 19 12 21 4 23 21 25 18 27
REMARK Flexibility Score: inf
ROOT
ATOM      1  C   UNL     1       9.436 -18.115   7.989  1.00  0.00     0.180 A 
ATOM      2  C   UNL     1       8.788 -18.337   6.758  1.00  0.00     0.208 A 
ATOM      3  C   UNL     1       7.510 -18.917   6.760  1.00  0.00     0.238 A 
ATOM      4  O   UNL     1       6.924 -19.130   5.663  1.00  0.00    -0.285 OA
ATOM      5  C   UNL     1       6.894 -19.247   7.985  1.00  0.00     0.111 A 
ATOM      6  C   UNL     1       5.608 -19.831   8.074  1.00  0.00     0.134 A 
ATOM      7  C   UNL     1       5.061 -20.121   9.332  1.00  0.00     0.093 A 
ATOM      8  C   UNL     1       5.775 -19.838  10.502  1.00  0.00     0.123 A 
ATOM      9  C   UNL     1       7.044 -19.263  10.420  1.00  0.00     0.094 A 
ATOM     10  C   UNL     1       7.608 -18.967   9.175  1.00  0.00     0.146 A 
ATOM     11  O   UNL     1       8.818 -18.425   9.126  1.00  0.00    -0.452 OA
ENDROOT
BRANCH   1  12
ATOM     12  C   UNL     1      10.790 -17.524   8.070  1.00  0.00     0.025 A 
ATOM     13  C   UNL     1      11.172 -16.539   7.145  1.00  0.00     0.016 A 
ATOM     14  C   UNL     1      12.438 -15.954   7.216  1.00  0.00     0.051 A 
ATOM     15  C   UNL     1      13.337 -16.334   8.221  1.00  0.00     0.157 A 
ATOM     16  C   UNL     1      11.688 -17.888   9.091  1.00  0.00     0.062 A 
ATOM     17  C   UNL     1      12.959 -17.299   9.163  1.00  0.00     0.158 A 
BRANCH  15  18
ATOM     18  O   UNL     1      14.601 -15.753   8.294  1.00  0.00    -0.504 OA
ATOM     19  H   UNL     1      14.790 -14.969   8.908  1.00  0.00     0.293 HD
ENDBRANCH  15  18
BRANCH  17  20
ATOM     20  O   UNL     1      13.849 -17.664  10.172  1.00  0.00    -0.504 OA
ATOM     21  H   UNL     1      13.570 -17.682  11.146  1.00  0.00     0.293 HD
ENDBRANCH  17  20
ENDBRANCH   1  12
BRANCH   2  22
ATOM     22  O   UNL     1       9.398 -17.956   5.561  1.00  0.00    -0.502 OA
ATOM     23  H   UNL     1       8.987 -18.154   4.656  1.00  0.00     0.293 HD
ENDBRANCH   2  22
BRANCH   6  24
ATOM     24  O   UNL     1       4.872 -20.125   6.925  1.00  0.00    -0.507 OA
ATOM     25  H   UNL     1       5.308 -20.176   6.011  1.00  0.00     0.293 HD
ENDBRANCH   6  24
BRANCH   8  26
ATOM     26  O   UNL     1       5.232 -20.125  11.752  1.00  0.00    -0.508 OA
ATOM     27  H   UNL     1       4.256 -20.380  11.861  1.00  0.00     0.293 HD
ENDBRANCH   8  26
TORSDOF 6
ENDMDL
MODEL 3
REMARK VINA RESULT:     1.577      2.186      3.007
REMARK INTER + INTRA:           1.568
REMARK INTER:                   1.210
REMARK INTRA:                   0.358
REMARK UNBOUND:                -0.332
REMARK SMILES O=c1c(O)c(-c2ccc(O)c(O)c2)oc2cc(O)cc(O)c12
REMARK SMILES IDX 5 1 3 2 2 3 1 4 22 5 20 6 19 7 17 8 16 9 15 10 14 11 6 12
REMARK SMILES IDX 7 13 8 14 9 15 13 16 11 17 10 18 12 20 4 22 21 24 18 26
REMARK H PARENT 10 19 12 21 4 23 21 25 18 27
REMARK Flexibility Score: inf
ROOT
ATOM      1  C   UNL     1       8.142 -19.198   8.227  1.00  0.00     0.180 A 
ATOM      2  C   UNL     1       8.414 -19.526   6.884  1.00  0.00     0.208 A 
ATOM      3  C   UNL     1       9.695 -19.270   6.369  1.00  0.00     0.238 A 
ATOM      4  O   UNL     1       9.947 -19.549   5.166  1.00  0.00    -0.285 OA
ATOM      5  C   UNL     1      10.684 -18.711   7.206  1.00  0.00     0.111 A 
ATOM      6  C   UNL     1      11.999 -18.426   6.766  1.00  0.00     0.134 A 
ATOM      7  C   UNL     1      12.928 -17.879   7.663  1.00  0.00     0.093 A 
ATOM      8  C   UNL     1      12.568 -17.612   8.989  1.00  0.00     0.123 A 
ATOM      9  C   UNL     1      11.272 -17.891   9.426  1.00  0.00     0.094 A 
ATOM     10  C   UNL     1      10.330 -18.436   8.548  1.00  0.00     0.146 A 
ATOM     11  O   UNL     1       9.104 -18.686   8.990  1.00  0.00    -0.452 OA
ENDROOT
BRANCH   1  12
ATOM     12  C   UNL     1       6.812 -19.420   8.837  1.00  0.00     0.025 A 
ATOM     13  C   UNL     1       5.673 -19.457   8.017  1.00  0.00     0.016 A 
ATOM     14  C   UNL     1       4.411 -19.686   8.570  1.00  0.00     0.051 A 
ATOM     15  C   UNL     1       4.270 -19.896   9.947  1.00  0.00     0.157 A 
ATOM     16  C   UNL     1       6.669 -19.653  10.217  1.00  0.00     0.062 A 
ATOM     17  C   UNL     1       5.402 -19.886  10.772  1.00  0.00     0.158 A 
BRANCH  15  18
ATOM     18  O   UNL     1       3.012 -20.124  10.502  1.00  0.00    -0.504 OA
ATOM     19  H   UNL     1       2.191 -20.251   9.922  1.00  0.00     0.293 HD
ENDBRANCH  15  18
BRANCH  17  20
ATOM     20  O   UNL     1       5.261 -20.110  12.140  1.00  0.00    -0.504 OA
ATOM     21  H   UNL     1       5.946 -19.773  12.807  1.00  0.00     0.293 HD
ENDBRANCH  17  20
ENDBRANCH   1  12
BRANCH   2  22
ATOM     22  O   UNL     1       7.432 -20.124   6.091  1.00  0.00    -0.502 OA
ATOM     23  H   UNL     1       7.628 -20.485   5.165  1.00  0.00     0.293 HD
ENDBRANCH   2  22
BRANCH   6  24
ATOM     24  O   UNL     1      12.387 -18.681   5.451  1.00  0.00    -0.507 OA
ATOM     25  H   UNL     1      11.784 -18.465   4.665  1.00  0.00     0.293 HD
ENDBRANCH   6  24
BRANCH   8  26
ATOM     26  O   UNL     1      13.491 -17.070   9.880  1.00  0.00    -0.508 OA
ATOM     27  H   UNL     1      14.415 -17.471   9.995  1.00  0.00     0.293 HD
ENDBRANCH   8  26
TORSDOF 6
ENDMDL
MODEL 4
REMARK VINA RESULT:     2.059      2.189      3.367
REMARK INTER + INTRA:           2.148
REMARK INTER:                   2.478
REMARK INTRA:                  -0.329
REMARK UNBOUND:                -0.332
REMARK SMILES O=c1c(O)c(-c2ccc(O)c(O)c2)oc2cc(O)cc(O)c12
REMARK SMILES IDX 5 1 3 2 2 3 1 4 22 5 20 6 19 7 17 8 16 9 15 10 14 11 6 12
REMARK SMILES IDX 7 13 8 14 9 15 13 16 11 17 10 18 12 20 4 22 21 24 18 26
REMARK H PARENT 10 19 12 21 4 23 21 25 18 27
REMARK Flexibility Score: inf
ROOT
ATOM      1  C   UNL     1       7.602 -19.040   8.250  1.00  0.00     0.180 A 
ATOM      2  C   UNL     1       7.806 -19.560   6.957  1.00  0.00     0.208 A 
ATOM      3  C   UNL     1       9.098 -19.529   6.409  1.00  0.00     0.238 A 
ATOM      4  O   UNL     1       9.292 -19.983   5.249  1.00  0.00    -0.285 OA
ATOM      5  C   UNL     1      10.164 -18.999   7.167  1.00  0.00     0.111 A 
ATOM      6  C   UNL     1      11.495 -18.934   6.690  1.00  0.00     0.134 A 
ATOM      7  C   UNL     1      12.501 -18.400   7.509  1.00  0.00     0.093 A 
ATOM      8  C   UNL     1      12.202 -17.931   8.793  1.00  0.00     0.123 A 
ATOM      9  C   UNL     1      10.890 -17.993   9.267  1.00  0.00     0.094 A 
ATOM     10  C   UNL     1       9.872 -18.521   8.466  1.00  0.00     0.146 A 
ATOM     11  O   UNL     1       8.633 -18.561   8.940  1.00  0.00    -0.452 OA
ENDROOT
BRANCH   1  12
ATOM     12  C   UNL     1       6.266 -19.020   8.888  1.00  0.00     0.025 A 
ATOM     13  C   UNL     1       5.858 -20.112   9.671  1.00  0.00     0.016 A 
ATOM     14  C   UNL     1       4.611 -20.105  10.299  1.00  0.00     0.051 A 
ATOM     15  C   UNL     1       3.759 -19.001  10.166  1.00  0.00     0.157 A 
ATOM     16  C   UNL     1       5.417 -17.904   8.774  1.00  0.00     0.062 A 
ATOM     17  C   UNL     1       4.165 -17.896   9.407  1.00  0.00     0.158 A 
BRANCH  15  18
ATOM     18  O   UNL     1       2.512 -18.990  10.790  1.00  0.00    -0.504 OA
ATOM     19  H   UNL     1       1.698 -18.590  10.340  1.00  0.00     0.293 HD
ENDBRANCH  15  18
BRANCH  17  20
ATOM     20  O   UNL     1       3.322 -16.793   9.288  1.00  0.00    -0.504 OA
ATOM     21  H   UNL     1       2.375 -16.807   9.649  1.00  0.00     0.293 HD
ENDBRANCH  17  20
ENDBRANCH   1  12
BRANCH   2  22
ATOM     22  O   UNL     1       6.743 -20.125   6.247  1.00  0.00    -0.502 OA
ATOM     23  H   UNL     1       5.833 -19.684   6.191  1.00  0.00     0.293 HD
ENDBRANCH   2  22
BRANCH   6  24
ATOM     24  O   UNL     1      11.825 -19.394   5.415  1.00  0.00    -0.507 OA
ATOM     25  H   UNL     1      11.970 -18.757   4.640  1.00  0.00     0.293 HD
ENDBRANCH   6  24
BRANCH   8  26
ATOM     26  O   UNL     1      13.201 -17.402   9.607  1.00  0.00    -0.508 OA
ATOM     27  H   UNL     1      13.998 -16.911   9.217  1.00  0.00     0.293 HD
ENDBRANCH   8  26
TORSDOF 6
ENDMDL
