MODEL 1
REMARK VINA RESULT:    -4.350      0.000      0.000
REMARK INTER + INTRA:          -5.086
REMARK INTER:                  -4.859
REMARK INTRA:                  -0.227
REMARK UNBOUND:                -0.227
REMARK SMILES CC(=O)c1ccc(O)cc1O
REMARK SMILES IDX 4 1 10 2 9 3 7 4 6 5 5 6 2 7 1 8 3 9 11 10 8 12
REMARK H PARENT 11 11 8 13
REMARK Flexibility Score: inf
ROOT
ATOM      1  C   UNL     1      27.599  37.207  20.140  1.00  0.00     0.059 A 
ATOM      2  C   UNL     1      26.661  38.109  19.578  1.00  0.00     0.130 A 
ATOM      3  C   UNL     1      26.952  38.751  18.368  1.00  0.00     0.093 A 
ATOM      4  C   UNL     1      28.142  38.487  17.689  1.00  0.00     0.119 A 
ATOM      5  C   UNL     1      29.058  37.575  18.224  1.00  0.00     0.047 A 
ATOM      6  C   UNL     1      28.789  36.941  19.438  1.00  0.00     0.019 A 
ENDROOT
BRANCH   1   7
ATOM      7  C   UNL     1      27.381  36.566  21.458  1.00  0.00     0.163 C 
ATOM      8  C   UNL     1      28.513  35.936  22.209  1.00  0.00     0.093 C 
ATOM      9  O   UNL     1      26.246  36.617  22.003  1.00  0.00    -0.294 OA
ENDBRANCH   1   7
BRANCH   2  10
ATOM     10  O   UNL     1      25.424  38.370  20.173  1.00  0.00    -0.507 OA
ATOM     11  H   UNL     1      25.113  39.299  20.424  1.00  0.00     0.293 HD
ENDBRANCH   2  10
BRANCH   4  12
ATOM     12  O   UNL     1      28.405  39.132  16.482  1.00  0.00    -0.508 OA
ATOM     13  H   UNL     1      27.696  39.221  15.763  1.00  0.00     0.293 HD
ENDBRANCH   4  12
TORSDOF 3
ENDMDL
MODEL 2
REMARK VINA RESULT:    -4.129      2.984      5.112
REMARK INTER + INTRA:          -4.839
REMARK INTER:                  -4.576
REMARK INTRA:                  -0.263
REMARK UNBOUND:                -0.227
REMARK SMILES CC(=O)c1ccc(O)cc1O
REMARK SMILES IDX 4 1 10 2 9 3 7 4 6 5 5 6 2 7 1 8 3 9 11 10 8 12
REMARK H PARENT 11 11 8 13
REMARK Flexibility Score: inf
ROOT
ATOM      1  C   UNL     1      27.841  35.594  21.710  1.00  0.00     0.059 A 
ATOM      2  C   UNL     1      27.876  34.967  22.981  1.00  0.00     0.130 A 
ATOM      3  C   UNL     1      28.289  33.633  23.087  1.00  0.00     0.093 A 
ATOM      4  C   UNL     1      28.698  32.921  21.959  1.00  0.00     0.119 A 
ATOM      5  C   UNL     1      28.693  33.543  20.706  1.00  0.00     0.047 A 
ATOM      6  C   UNL     1      28.269  34.867  20.583  1.00  0.00     0.019 A 
ENDROOT
BRANCH   1   7
ATOM      7  C   UNL     1      27.333  36.974  21.528  1.00  0.00     0.163 C 
ATOM      8  C   UNL     1      26.008  37.231  20.879  1.00  0.00     0.093 C 
ATOM      9  O   UNL     1      27.979  37.949  21.995  1.00  0.00    -0.294 OA
ENDBRANCH   1   7
BRANCH   2  10
ATOM     10  O   UNL     1      27.541  35.641  24.158  1.00  0.00    -0.507 OA
ATOM     11  H   UNL     1      27.806  36.599  24.344  1.00  0.00     0.293 HD
ENDBRANCH   2  10
BRANCH   4  12
ATOM     12  O   UNL     1      29.112  31.597  22.092  1.00  0.00    -0.508 OA
ATOM     13  H   UNL     1      29.462  31.237  22.972  1.00  0.00     0.293 HD
ENDBRANCH   4  12
TORSDOF 3
ENDMDL
MODEL 3
REMARK VINA RESULT:    -4.065      3.192      4.201
REMARK INTER + INTRA:          -4.768
REMARK INTER:                  -4.480
REMARK INTRA:                  -0.287
REMARK UNBOUND:                -0.227
REMARK SMILES CC(=O)c1ccc(O)cc1O
REMARK SMILES IDX 4 1 10 2 9 3 7 4 6 5 5 6 2 7 1 8 3 9 11 10 8 12
REMARK H PARENT 11 11 8 13
REMARK Flexibility Score: inf
ROOT
ATOM      1  C   UNL     1      26.813  39.913  20.106  1.00  0.00     0.059 A 
ATOM      2  C   UNL     1      27.335  40.625  18.996  1.00  0.00     0.130 A 
ATOM      3  C   UNL     1      27.360  42.024  19.018  1.00  0.00     0.093 A 
ATOM      4  C   UNL     1      26.907  42.729  20.135  1.00  0.00     0.119 A 
ATOM      5  C   UNL     1      26.418  42.031  21.244  1.00  0.00     0.047 A 
ATOM      6  C   UNL     1      26.371  40.636  21.229  1.00  0.00     0.019 A 
ENDROOT
BRANCH   1   7
ATOM      7  C   UNL     1      26.683  38.436  20.101  1.00  0.00     0.163 C 
ATOM      8  C   UNL     1      25.536  37.758  20.786  1.00  0.00     0.093 C 
ATOM      9  O   UNL     1      27.500  37.735  19.447  1.00  0.00    -0.294 OA
ENDBRANCH   1   7
BRANCH   2  10
ATOM     10  O   UNL     1      27.862  39.980  17.874  1.00  0.00    -0.507 OA
ATOM     11  H   UNL     1      27.959  40.427  16.972  1.00  0.00     0.293 HD
ENDBRANCH   2  10
BRANCH   4  12
ATOM     12  O   UNL     1      26.951  44.121  20.135  1.00  0.00    -0.508 OA
ATOM     13  H   UNL     1      27.829  44.624  20.094  1.00  0.00     0.293 HD
ENDBRANCH   4  12
TORSDOF 3
ENDMDL
MODEL 4
REMARK VINA RESULT:    -4.033      3.579      5.077
REMARK INTER + INTRA:          -4.732
REMARK INTER:                  -4.443
REMARK INTRA:                  -0.289
REMARK UNBOUND:                -0.227
REMARK SMILES CC(=O)c1ccc(O)cc1O
REMARK SMILES IDX 4 1 10 2 9 3 7 4 6 5 5 6 2 7 1 8 3 9 11 10 8 12
REMARK H PARENT 11 11 8 13
REMARK Flexibility Score: inf
ROOT
ATOM      1  C   UNL     1      26.922  41.814  20.102  1.00  0.00     0.059 A 
ATOM      2  C   UNL     1      26.360  40.971  21.093  1.00  0.00     0.130 A 
ATOM      3  C   UNL     1      26.404  39.581  20.929  1.00  0.00     0.093 A 
ATOM      4  C   UNL     1      27.024  39.013  19.815  1.00  0.00     0.119 A 
ATOM      5  C   UNL     1      27.606  39.840  18.849  1.00  0.00     0.047 A 
ATOM      6  C   UNL     1      27.555  41.228  18.991  1.00  0.00     0.019 A 
ENDROOT
BRANCH   1   7
ATOM      7  C   UNL     1      26.829  43.291  20.182  1.00  0.00     0.163 C 
ATOM      8  C   UNL     1      26.671  44.125  18.948  1.00  0.00     0.093 C 
ATOM      9  O   UNL     1      26.801  43.860  21.306  1.00  0.00    -0.294 OA
ENDBRANCH   1   7
BRANCH   2  10
ATOM     10  O   UNL     1      25.781  41.472  22.262  1.00  0.00    -0.507 OA
ATOM     11  H   UNL     1      26.202  41.374  23.176  1.00  0.00     0.293 HD
ENDBRANCH   2  10
BRANCH   4  12
ATOM     12  O   UNL     1      27.061  37.627  19.679  1.00  0.00    -0.508 OA
ATOM     13  H   UNL     1      27.189  37.186  18.776  1.00  0.00     0.293 HD
ENDBRANCH   4  12
TORSDOF 3
ENDMDL
MODEL 5
REMARK VINA RESULT:    -4.001      2.620      4.701
REMARK INTER + INTRA:          -4.696
REMARK INTER:                  -4.433
REMARK INTRA:                  -0.263
REMARK UNBOUND:                -0.227
REMARK SMILES CC(=O)c1ccc(O)cc1O
REMARK SMILES IDX 4 1 10 2 9 3 7 4 6 5 5 6 2 7 1 8 3 9 11 10 8 12
REMARK H PARENT 11 11 8 13
REMARK Flexibility Score: inf
ROOT
ATOM      1  C   UNL     1      27.197  40.687  19.690  1.00  0.00     0.059 A 
ATOM      2  C   UNL     1      27.305  39.632  18.749  1.00  0.00     0.130 A 
ATOM      3  C   UNL     1      26.632  38.425  18.978  1.00  0.00     0.093 A 
ATOM      4  C   UNL     1      25.828  38.260  20.107  1.00  0.00     0.119 A 
ATOM      5  C   UNL     1      25.695  39.308  21.023  1.00  0.00     0.047 A 
ATOM      6  C   UNL     1      26.373  40.510  20.817  1.00  0.00     0.019 A 
ENDROOT
BRANCH   1   7
ATOM      7  C   UNL     1      27.954  41.952  19.542  1.00  0.00     0.163 C 
ATOM      8  C   UNL     1      29.125  42.261  20.424  1.00  0.00     0.093 C 
ATOM      9  O   UNL     1      27.668  42.751  18.611  1.00  0.00    -0.294 OA
ENDBRANCH   1   7
BRANCH   2  10
ATOM     10  O   UNL     1      28.042  39.754  17.568  1.00  0.00    -0.507 OA
ATOM     11  H   UNL     1      28.580  40.577  17.332  1.00  0.00     0.293 HD
ENDBRANCH   2  10
BRANCH   4  12
ATOM     12  O   UNL     1      25.162  37.052  20.307  1.00  0.00    -0.508 OA
ATOM     13  H   UNL     1      25.516  36.352  20.949  1.00  0.00     0.293 HD
ENDBRANCH   4  12
TORSDOF 3
ENDMDL
MODEL 6
REMARK VINA RESULT:    -3.914      2.648      3.905
REMARK INTER + INTRA:          -4.598
REMARK INTER:                  -4.291
REMARK INTRA:                  -0.307
REMARK UNBOUND:                -0.227
REMARK SMILES CC(=O)c1ccc(O)cc1O
REMARK SMILES IDX 4 1 10 2 9 3 7 4 6 5 5 6 2 7 1 8 3 9 11 10 8 12
REMARK H PARENT 11 11 8 13
REMARK Flexibility Score: inf
ROOT
ATOM      1  C   UNL     1      26.795  39.418  20.895  1.00  0.00     0.059 A 
ATOM      2  C   UNL     1      25.759  38.450  20.853  1.00  0.00     0.130 A 
ATOM      3  C   UNL     1      26.082  37.087  20.834  1.00  0.00     0.093 A 
ATOM      4  C   UNL     1      27.413  36.669  20.890  1.00  0.00     0.119 A 
ATOM      5  C   UNL     1      28.437  37.619  20.961  1.00  0.00     0.047 A 
ATOM      6  C   UNL     1      28.130  38.981  20.963  1.00  0.00     0.019 A 
ENDROOT
BRANCH   1   7
ATOM      7  C   UNL     1      26.514  40.871  20.830  1.00  0.00     0.163 C 
ATOM      8  C   UNL     1      27.098  41.725  19.747  1.00  0.00     0.093 C 
ATOM      9  O   UNL     1      25.708  41.394  21.646  1.00  0.00    -0.294 OA
ENDBRANCH   1   7
BRANCH   2  10
ATOM     10  O   UNL     1      24.407  38.799  20.859  1.00  0.00    -0.507 OA
ATOM     11  H   UNL     1      24.051  39.651  20.446  1.00  0.00     0.293 HD
ENDBRANCH   2  10
BRANCH   4  12
ATOM     12  O   UNL     1      27.708  35.307  20.878  1.00  0.00    -0.508 OA
ATOM     13  H   UNL     1      28.321  34.903  20.180  1.00  0.00     0.293 HD
ENDBRANCH   4  12
TORSDOF 3
ENDMDL
MODEL 7
REMARK VINA RESULT:    -3.872     13.834     15.317
REMARK INTER + INTRA:          -4.552
REMARK INTER:                  -4.243
REMARK INTRA:                  -0.310
REMARK UNBOUND:                -0.227
REMARK SMILES CC(=O)c1ccc(O)cc1O
REMARK SMILES IDX 4 1 10 2 9 3 7 4 6 5 5 6 2 7 1 8 3 9 11 10 8 12
REMARK H PARENT 11 11 8 13
REMARK Flexibility Score: inf
ROOT
ATOM      1  C   UNL     1      24.773  26.643  28.792  1.00  0.00     0.059 A 
ATOM      2  C   UNL     1      25.655  27.193  29.757  1.00  0.00     0.130 A 
ATOM      3  C   UNL     1      26.687  26.406  30.282  1.00  0.00     0.093 A 
ATOM      4  C   UNL     1      26.880  25.095  29.842  1.00  0.00     0.119 A 
ATOM      5  C   UNL     1      26.031  24.558  28.869  1.00  0.00     0.047 A 
ATOM      6  C   UNL     1      24.987  25.325  28.349  1.00  0.00     0.019 A 
ENDROOT
BRANCH   1   7
ATOM      7  C   UNL     1      23.613  27.402  28.266  1.00  0.00     0.163 C 
ATOM      8  C   UNL     1      22.244  26.795  28.230  1.00  0.00     0.093 C 
ATOM      9  O   UNL     1      23.753  28.604  27.917  1.00  0.00    -0.294 OA
ENDBRANCH   1   7
BRANCH   2  10
ATOM     10  O   UNL     1      25.557  28.516  30.193  1.00  0.00    -0.507 OA
ATOM     11  H   UNL     1      24.803  28.855  30.776  1.00  0.00     0.293 HD
ENDBRANCH   2  10
BRANCH   4  12
ATOM     12  O   UNL     1      27.920  24.336  30.374  1.00  0.00    -0.508 OA
ATOM     13  H   UNL     1      28.390  23.624  29.827  1.00  0.00     0.293 HD
ENDBRANCH   4  12
TORSDOF 3
ENDMDL
MODEL 8
REMARK VINA RESULT:    -3.781     11.849     14.878
REMARK INTER + INTRA:          -4.450
REMARK INTER:                  -4.142
REMARK INTRA:                  -0.308
REMARK UNBOUND:                -0.227
REMARK SMILES CC(=O)c1ccc(O)cc1O
REMARK SMILES IDX 4 1 10 2 9 3 7 4 6 5 5 6 2 7 1 8 3 9 11 10 8 12
REMARK H PARENT 11 11 8 13
REMARK Flexibility Score: inf
ROOT
ATOM      1  C   UNL     1      28.006  27.603  29.132  1.00  0.00     0.059 A 
ATOM      2  C   UNL     1      26.859  27.465  29.955  1.00  0.00     0.130 A 
ATOM      3  C   UNL     1      26.541  26.215  30.499  1.00  0.00     0.093 A 
ATOM      4  C   UNL     1      27.357  25.107  30.267  1.00  0.00     0.119 A 
ATOM      5  C   UNL     1      28.505  25.244  29.480  1.00  0.00     0.047 A 
ATOM      6  C   UNL     1      28.826  26.480  28.918  1.00  0.00     0.019 A 
ENDROOT
BRANCH   1   7
ATOM      7  C   UNL     1      28.343  28.881  28.462  1.00  0.00     0.163 C 
ATOM      8  C   UNL     1      28.485  28.960  26.973  1.00  0.00     0.093 C 
ATOM      9  O   UNL     1      28.435  29.941  29.137  1.00  0.00    -0.294 OA
ENDBRANCH   1   7
BRANCH   2  10
ATOM     10  O   UNL     1      26.035  28.546  30.278  1.00  0.00    -0.507 OA
ATOM     11  H   UNL     1      25.268  28.483  30.933  1.00  0.00     0.293 HD
ENDBRANCH   2  10
BRANCH   4  12
ATOM     12  O   UNL     1      27.022  23.875  30.826  1.00  0.00    -0.508 OA
ATOM     13  H   UNL     1      26.687  23.800  31.780  1.00  0.00     0.293 HD
ENDBRANCH   4  12
TORSDOF 3
ENDMDL
MODEL 9
REMARK VINA RESULT:    -3.636      2.300      2.574
REMARK INTER + INTRA:          -4.288
REMARK INTER:                  -3.993
REMARK INTRA:                  -0.295
REMARK UNBOUND:                -0.227
REMARK SMILES CC(=O)c1ccc(O)cc1O
REMARK SMILES IDX 4 1 10 2 9 3 7 4 6 5 5 6 2 7 1 8 3 9 11 10 8 12
REMARK H PARENT 11 11 8 13
REMARK Flexibility Score: inf
ROOT
ATOM      1  C   UNL     1      27.092  38.424  20.637  1.00  0.00     0.059 A 
ATOM      2  C   UNL     1      26.928  39.025  19.363  1.00  0.00     0.130 A 
ATOM      3  C   UNL     1      27.601  40.216  19.065  1.00  0.00     0.093 A 
ATOM      4  C   UNL     1      28.460  40.803  19.997  1.00  0.00     0.119 A 
ATOM      5  C   UNL     1      28.648  40.198  21.243  1.00  0.00     0.047 A 
ATOM      6  C   UNL     1      27.970  39.020  21.560  1.00  0.00     0.019 A 
ENDROOT
BRANCH   1   7
ATOM      7  C   UNL     1      26.339  37.212  21.035  1.00  0.00     0.163 C 
ATOM      8  C   UNL     1      26.880  36.268  22.065  1.00  0.00     0.093 C 
ATOM      9  O   UNL     1      25.188  37.003  20.567  1.00  0.00    -0.294 OA
ENDBRANCH   1   7
BRANCH   2  10
ATOM     10  O   UNL     1      26.134  38.458  18.363  1.00  0.00    -0.507 OA
ATOM     11  H   UNL     1      26.513  38.019  17.535  1.00  0.00     0.293 HD
ENDBRANCH   2  10
BRANCH   4  12
ATOM     12  O   UNL     1      29.125  41.984  19.673  1.00  0.00    -0.508 OA
ATOM     13  H   UNL     1      28.722  42.892  19.876  1.00  0.00     0.293 HD
ENDBRANCH   4  12
TORSDOF 3
ENDMDL
