MODEL 1
REMARK VINA RESULT:    -3.845      0.000      0.000
REMARK INTER + INTRA:          -4.882
REMARK INTER:                  -4.744
REMARK INTRA:                  -0.137
REMARK UNBOUND:                -0.137
REMARK SMILES CCCCCC(C)=O
REMARK SMILES IDX 4 1 3 2 2 3 1 4 5 5 6 6 8 7 7 8
REMARK H PARENT
REMARK Flexibility Score: inf
ROOT
ATOM      1  C   UNL     1      25.113  58.091  -8.412  1.00  0.00     0.008 C 
ENDROOT
BRANCH   1   2
ATOM      2  C   UNL     1      26.153  59.165  -8.751  1.00  0.00     0.000 C 
BRANCH   2   3
ATOM      3  C   UNL     1      27.066  58.707  -9.893  1.00  0.00    -0.003 C 
ATOM      4  C   UNL     1      28.203  59.697 -10.122  1.00  0.00     0.004 C 
ENDBRANCH   2   3
ENDBRANCH   1   2
BRANCH   1   5
ATOM      5  C   UNL     1      25.574  56.709  -8.888  1.00  0.00     0.075 C 
BRANCH   5   6
ATOM      6  C   UNL     1      25.224  55.652  -7.874  1.00  0.00     0.129 C 
ATOM      7  O   UNL     1      26.103  54.924  -7.437  1.00  0.00    -0.300 OA
ATOM      8  C   UNL     1      23.818  55.479  -7.377  1.00  0.00     0.087 C 
ENDBRANCH   5   6
ENDBRANCH   1   5
TORSDOF 4
ENDMDL
MODEL 2
REMARK VINA RESULT:    -3.696      1.821      4.752
REMARK INTER + INTRA:          -4.698
REMARK INTER:                  -4.622
REMARK INTRA:                  -0.075
REMARK UNBOUND:                -0.137
REMARK SMILES CCCCCC(C)=O
REMARK SMILES IDX 4 1 3 2 2 3 1 4 5 5 6 6 8 7 7 8
REMARK H PARENT
REMARK Flexibility Score: inf
ROOT
ATOM      1  C   UNL     1      25.641  56.608  -8.626  1.00  0.00     0.008 C 
ENDROOT
BRANCH   1   2
ATOM      2  C   UNL     1      24.300  55.906  -8.381  1.00  0.00     0.000 C 
BRANCH   2   3
ATOM      3  C   UNL     1      24.127  55.551  -6.900  1.00  0.00    -0.003 C 
ATOM      4  C   UNL     1      22.812  54.818  -6.658  1.00  0.00     0.004 C 
ENDBRANCH   2   3
ENDBRANCH   1   2
BRANCH   1   5
ATOM      5  C   UNL     1      25.506  58.126  -8.464  1.00  0.00     0.075 C 
BRANCH   5   6
ATOM      6  C   UNL     1      26.556  58.844  -9.271  1.00  0.00     0.129 C 
ATOM      7  O   UNL     1      27.006  58.316 -10.277  1.00  0.00    -0.300 OA
ATOM      8  C   UNL     1      27.057  60.201  -8.873  1.00  0.00     0.087 C 
ENDBRANCH   5   6
ENDBRANCH   1   5
TORSDOF 4
ENDMDL
MODEL 3
REMARK VINA RESULT:    -3.480      2.254      4.761
REMARK INTER + INTRA:          -4.431
REMARK INTER:                  -4.359
REMARK INTRA:                  -0.072
REMARK UNBOUND:                -0.137
REMARK SMILES CCCCCC(C)=O
REMARK SMILES IDX 4 1 3 2 2 3 1 4 5 5 6 6 8 7 7 8
REMARK H PARENT
REMARK Flexibility Score: inf
ROOT
ATOM      1  C   UNL     1      26.312  58.122  -9.142  1.00  0.00     0.008 C 
ENDROOT
BRANCH   1   2
ATOM      2  C   UNL     1      25.021  57.816  -8.374  1.00  0.00     0.000 C 
BRANCH   2   3
ATOM      3  C   UNL     1      24.644  56.335  -8.499  1.00  0.00    -0.003 C 
ATOM      4  C   UNL     1      25.504  55.468  -7.585  1.00  0.00     0.004 C 
ENDBRANCH   2   3
ENDBRANCH   1   2
BRANCH   1   5
ATOM      5  C   UNL     1      26.620  59.624  -9.123  1.00  0.00     0.075 C 
BRANCH   5   6
ATOM      6  C   UNL     1      27.999  59.891  -9.670  1.00  0.00     0.129 C 
ATOM      7  O   UNL     1      28.409  59.232 -10.613  1.00  0.00    -0.300 OA
ATOM      8  C   UNL     1      28.877  60.959  -9.088  1.00  0.00     0.087 C 
ENDBRANCH   5   6
ENDBRANCH   1   5
TORSDOF 4
ENDMDL
MODEL 4
REMARK VINA RESULT:    -3.448     16.913     18.806
REMARK INTER + INTRA:          -4.392
REMARK INTER:                  -4.185
REMARK INTRA:                  -0.206
REMARK UNBOUND:                -0.137
REMARK SMILES CCCCCC(C)=O
REMARK SMILES IDX 4 1 3 2 2 3 1 4 5 5 6 6 8 7 7 8
REMARK H PARENT
REMARK Flexibility Score: inf
ROOT
ATOM      1  C   UNL     1      17.204  43.161   1.764  1.00  0.00     0.008 C 
ENDROOT
BRANCH   1   2
ATOM      2  C   UNL     1      16.047  44.111   2.096  1.00  0.00     0.000 C 
BRANCH   2   3
ATOM      3  C   UNL     1      15.569  44.855   0.843  1.00  0.00    -0.003 C 
ATOM      4  C   UNL     1      14.401  45.782   1.165  1.00  0.00     0.004 C 
ENDBRANCH   2   3
ENDBRANCH   1   2
BRANCH   1   5
ATOM      5  C   UNL     1      18.501  43.614   2.444  1.00  0.00     0.075 C 
BRANCH   5   6
ATOM      6  C   UNL     1      19.572  43.886   1.420  1.00  0.00     0.129 C 
ATOM      7  O   UNL     1      20.605  43.234   1.443  1.00  0.00    -0.300 OA
ATOM      8  C   UNL     1      19.395  44.935   0.362  1.00  0.00     0.087 C 
ENDBRANCH   5   6
ENDBRANCH   1   5
TORSDOF 4
ENDMDL
MODEL 5
REMARK VINA RESULT:    -3.409     16.836     19.133
REMARK INTER + INTRA:          -4.344
REMARK INTER:                  -3.962
REMARK INTRA:                  -0.382
REMARK UNBOUND:                -0.137
REMARK SMILES CCCCCC(C)=O
REMARK SMILES IDX 4 1 3 2 2 3 1 4 5 5 6 6 8 7 7 8
REMARK H PARENT
REMARK Flexibility Score: inf
ROOT
ATOM      1  C   UNL     1      17.392  43.376   2.132  1.00  0.00     0.008 C 
ENDROOT
BRANCH   1   2
ATOM      2  C   UNL     1      17.247  41.910   1.708  1.00  0.00     0.000 C 
BRANCH   2   3
ATOM      3  C   UNL     1      16.745  41.801   0.263  1.00  0.00    -0.003 C 
ATOM      4  C   UNL     1      17.870  41.392  -0.682  1.00  0.00     0.004 C 
ENDBRANCH   2   3
ENDBRANCH   1   2
BRANCH   1   5
ATOM      5  C   UNL     1      18.841  43.698   2.515  1.00  0.00     0.075 C 
BRANCH   5   6
ATOM      6  C   UNL     1      19.689  43.878   1.283  1.00  0.00     0.129 C 
ATOM      7  O   UNL     1      20.616  43.110   1.075  1.00  0.00    -0.300 OA
ATOM      8  C   UNL     1      19.415  44.975   0.297  1.00  0.00     0.087 C 
ENDBRANCH   5   6
ENDBRANCH   1   5
TORSDOF 4
ENDMDL
MODEL 6
REMARK VINA RESULT:    -3.379     16.769     17.875
REMARK INTER + INTRA:          -4.307
REMARK INTER:                  -4.139
REMARK INTRA:                  -0.168
REMARK UNBOUND:                -0.137
REMARK SMILES CCCCCC(C)=O
REMARK SMILES IDX 4 1 3 2 2 3 1 4 5 5 6 6 8 7 7 8
REMARK H PARENT
REMARK Flexibility Score: inf
ROOT
ATOM      1  C   UNL     1      17.985  44.520   0.235  1.00  0.00     0.008 C 
ENDROOT
BRANCH   1   2
ATOM      2  C   UNL     1      19.450  44.776   0.609  1.00  0.00     0.000 C 
BRANCH   2   3
ATOM      3  C   UNL     1      19.825  44.041   1.901  1.00  0.00    -0.003 C 
ATOM      4  C   UNL     1      18.649  43.229   2.435  1.00  0.00     0.004 C 
ENDBRANCH   2   3
ENDBRANCH   1   2
BRANCH   1   5
ATOM      5  C   UNL     1      17.379  45.734  -0.477  1.00  0.00     0.075 C 
BRANCH   5   6
ATOM      6  C   UNL     1      15.876  45.647  -0.493  1.00  0.00     0.129 C 
ATOM      7  O   UNL     1      15.277  45.775  -1.550  1.00  0.00    -0.300 OA
ATOM      8  C   UNL     1      15.093  45.395   0.763  1.00  0.00     0.087 C 
ENDBRANCH   5   6
ENDBRANCH   1   5
TORSDOF 4
ENDMDL
MODEL 7
REMARK VINA RESULT:    -3.369     17.039     18.989
REMARK INTER + INTRA:          -4.294
REMARK INTER:                  -3.929
REMARK INTRA:                  -0.365
REMARK UNBOUND:                -0.137
REMARK SMILES CCCCCC(C)=O
REMARK SMILES IDX 4 1 3 2 2 3 1 4 5 5 6 6 8 7 7 8
REMARK H PARENT
REMARK Flexibility Score: inf
ROOT
ATOM      1  C   UNL     1      17.980  42.348   2.049  1.00  0.00     0.008 C 
ENDROOT
BRANCH   1   2
ATOM      2  C   UNL     1      18.572  43.723   2.384  1.00  0.00     0.000 C 
BRANCH   2   3
ATOM      3  C   UNL     1      19.749  44.055   1.460  1.00  0.00    -0.003 C 
ATOM      4  C   UNL     1      19.325  45.005   0.345  1.00  0.00     0.004 C 
ENDBRANCH   2   3
ENDBRANCH   1   2
BRANCH   1   5
ATOM      5  C   UNL     1      16.661  42.490   1.282  1.00  0.00     0.075 C 
BRANCH   5   6
ATOM      6  C   UNL     1      16.878  42.283  -0.194  1.00  0.00     0.129 C 
ATOM      7  O   UNL     1      16.116  42.807  -0.993  1.00  0.00    -0.300 OA
ATOM      8  C   UNL     1      18.019  41.456  -0.709  1.00  0.00     0.087 C 
ENDBRANCH   5   6
ENDBRANCH   1   5
TORSDOF 4
ENDMDL
MODEL 8
REMARK VINA RESULT:    -3.367      6.002      7.339
REMARK INTER + INTRA:          -4.292
REMARK INTER:                  -3.994
REMARK INTRA:                  -0.298
REMARK UNBOUND:                -0.137
REMARK SMILES CCCCCC(C)=O
REMARK SMILES IDX 4 1 3 2 2 3 1 4 5 5 6 6 8 7 7 8
REMARK H PARENT
REMARK Flexibility Score: inf
ROOT
ATOM      1  C   UNL     1      30.277  57.293 -13.074  1.00  0.00     0.008 C 
ENDROOT
BRANCH   1   2
ATOM      2  C   UNL     1      31.493  56.550 -13.640  1.00  0.00     0.000 C 
BRANCH   2   3
ATOM      3  C   UNL     1      32.660  57.514 -13.889  1.00  0.00    -0.003 C 
ATOM      4  C   UNL     1      33.960  56.968 -13.308  1.00  0.00     0.004 C 
ENDBRANCH   2   3
ENDBRANCH   1   2
BRANCH   1   5
ATOM      5  C   UNL     1      30.604  58.768 -12.816  1.00  0.00     0.075 C 
BRANCH   5   6
ATOM      6  C   UNL     1      30.486  59.090 -11.348  1.00  0.00     0.129 C 
ATOM      7  O   UNL     1      29.392  59.364 -10.879  1.00  0.00    -0.300 OA
ATOM      8  C   UNL     1      31.684  59.070 -10.445  1.00  0.00     0.087 C 
ENDBRANCH   5   6
ENDBRANCH   1   5
TORSDOF 4
ENDMDL
MODEL 9
REMARK VINA RESULT:    -3.343     17.088     18.610
REMARK INTER + INTRA:          -4.263
REMARK INTER:                  -4.009
REMARK INTRA:                  -0.253
REMARK UNBOUND:                -0.137
REMARK SMILES CCCCCC(C)=O
REMARK SMILES IDX 4 1 3 2 2 3 1 4 5 5 6 6 8 7 7 8
REMARK H PARENT
REMARK Flexibility Score: inf
ROOT
ATOM      1  C   UNL     1      17.193  43.486   1.475  1.00  0.00     0.008 C 
ENDROOT
BRANCH   1   2
ATOM      2  C   UNL     1      18.412  43.746   2.369  1.00  0.00     0.000 C 
BRANCH   2   3
ATOM      3  C   UNL     1      19.681  43.929   1.529  1.00  0.00    -0.003 C 
ATOM      4  C   UNL     1      19.462  44.946   0.413  1.00  0.00     0.004 C 
ENDBRANCH   2   3
ENDBRANCH   1   2
BRANCH   1   5
ATOM      5  C   UNL     1      15.937  44.149   2.051  1.00  0.00     0.075 C 
BRANCH   5   6
ATOM      6  C   UNL     1      15.396  45.183   1.099  1.00  0.00     0.129 C 
ATOM      7  O   UNL     1      14.500  45.928   1.465  1.00  0.00    -0.300 OA
ATOM      8  C   UNL     1      15.943  45.328  -0.292  1.00  0.00     0.087 C 
ENDBRANCH   5   6
ENDBRANCH   1   5
TORSDOF 4
ENDMDL
