MODEL 1
REMARK VINA RESULT:    -6.211      0.000      0.000
REMARK INTER + INTRA:          -7.007
REMARK INTER:                  -6.937
REMARK INTRA:                  -0.070
REMARK UNBOUND:                -0.070
REMARK SMILES COc1cc2ccc(=O)oc2c(O)c1O
REMARK SMILES IDX 3 1 14 2 12 3 11 4 5 5 4 6 6 7 7 8 8 9 9 10 10 11 2 12 1 13
REMARK SMILES IDX 15 14 13 16
REMARK H PARENT 15 15 13 17
REMARK Flexibility Score: inf
ROOT
ATOM      1  C   UNL     1      12.889   9.812  13.296  1.00  0.00     0.165 A 
ATOM      2  C   UNL     1      12.637  10.242  14.609  1.00  0.00     0.204 A 
ATOM      3  C   UNL     1      11.316  10.221  15.122  1.00  0.00     0.205 A 
ATOM      4  C   UNL     1      10.266   9.768  14.311  1.00  0.00     0.184 A 
ATOM      5  C   UNL     1      10.523   9.337  12.994  1.00  0.00     0.025 A 
ATOM      6  C   UNL     1      11.828   9.358  12.491  1.00  0.00     0.062 A 
ATOM      7  C   UNL     1       9.449   8.891  12.215  1.00  0.00     0.020 A 
ATOM      8  C   UNL     1       8.165   8.885  12.757  1.00  0.00     0.094 A 
ATOM      9  C   UNL     1       7.984   9.328  14.070  1.00  0.00     0.336 A 
ATOM     10  O   UNL     1       6.833   9.331  14.579  1.00  0.00    -0.246 OA
ATOM     11  O   UNL     1       9.023   9.746  14.789  1.00  0.00    -0.419 OA
ENDROOT
BRANCH   1  12
ATOM     12  O   UNL     1      14.212   9.848  12.826  1.00  0.00    -0.493 OA
ATOM     13  C   UNL     1      15.013   8.698  12.572  1.00  0.00     0.278 C 
ENDBRANCH   1  12
BRANCH   2  14
ATOM     14  O   UNL     1      13.724  10.682  15.367  1.00  0.00    -0.502 OA
ATOM     15  H   UNL     1      13.785  11.593  15.801  1.00  0.00     0.293 HD
ENDBRANCH   2  14
BRANCH   3  16
ATOM     16  O   UNL     1      11.008  10.637  16.420  1.00  0.00    -0.502 OA
ATOM     17  H   UNL     1      10.646  10.028  17.141  1.00  0.00     0.293 HD
ENDBRANCH   3  16
TORSDOF 3
ENDMDL
MODEL 2
REMARK VINA RESULT:    -6.009      1.196      4.629
REMARK INTER + INTRA:          -6.781
REMARK INTER:                  -6.724
REMARK INTRA:                  -0.057
REMARK UNBOUND:                -0.070
REMARK SMILES COc1cc2ccc(=O)oc2c(O)c1O
REMARK SMILES IDX 3 1 14 2 12 3 11 4 5 5 4 6 6 7 7 8 8 9 9 10 10 11 2 12 1 13
REMARK SMILES IDX 15 14 13 16
REMARK H PARENT 15 15 13 17
REMARK Flexibility Score: inf
ROOT
ATOM      1  C   UNL     1       9.801   9.545  14.381  1.00  0.00     0.165 A 
ATOM      2  C   UNL     1      10.813  10.039  15.220  1.00  0.00     0.204 A 
ATOM      3  C   UNL     1      12.070  10.403  14.676  1.00  0.00     0.205 A 
ATOM      4  C   UNL     1      12.295  10.266  13.299  1.00  0.00     0.184 A 
ATOM      5  C   UNL     1      11.275   9.771  12.461  1.00  0.00     0.025 A 
ATOM      6  C   UNL     1      10.036   9.413  13.000  1.00  0.00     0.062 A 
ATOM      7  C   UNL     1      11.536   9.648  11.091  1.00  0.00     0.020 A 
ATOM      8  C   UNL     1      12.785  10.017  10.595  1.00  0.00     0.094 A 
ATOM      9  C   UNL     1      13.749  10.501  11.485  1.00  0.00     0.336 A 
ATOM     10  O   UNL     1      14.883  10.840  11.058  1.00  0.00    -0.246 OA
ATOM     11  O   UNL     1      13.474  10.607  12.783  1.00  0.00    -0.419 OA
ENDROOT
BRANCH   1  12
ATOM     12  O   UNL     1       8.569   9.196  14.960  1.00  0.00    -0.493 OA
ATOM     13  C   UNL     1       7.300   9.400  14.347  1.00  0.00     0.278 C 
ENDBRANCH   1  12
BRANCH   2  14
ATOM     14  O   UNL     1      10.530  10.152  16.583  1.00  0.00    -0.502 OA
ATOM     15  H   UNL     1      10.911   9.546  17.296  1.00  0.00     0.293 HD
ENDBRANCH   2  14
BRANCH   3  16
ATOM     16  O   UNL     1      13.114  10.900  15.462  1.00  0.00    -0.502 OA
ATOM     17  H   UNL     1      13.216  11.870  15.723  1.00  0.00     0.293 HD
ENDBRANCH   3  16
TORSDOF 3
ENDMDL
MODEL 3
REMARK VINA RESULT:    -5.743      1.217      4.825
REMARK INTER + INTRA:          -6.484
REMARK INTER:                  -6.427
REMARK INTRA:                  -0.057
REMARK UNBOUND:                -0.070
REMARK SMILES COc1cc2ccc(=O)oc2c(O)c1O
REMARK SMILES IDX 3 1 14 2 12 3 11 4 5 5 4 6 6 7 7 8 8 9 9 10 10 11 2 12 1 13
REMARK SMILES IDX 15 14 13 16
REMARK H PARENT 15 15 13 17
REMARK Flexibility Score: inf
ROOT
ATOM      1  C   UNL     1      10.420  10.094  13.919  1.00  0.00     0.165 A 
ATOM      2  C   UNL     1      11.481  10.308  14.815  1.00  0.00     0.204 A 
ATOM      3  C   UNL     1      12.819  10.270  14.352  1.00  0.00     0.205 A 
ATOM      4  C   UNL     1      13.077  10.019  12.997  1.00  0.00     0.184 A 
ATOM      5  C   UNL     1      12.009   9.805  12.101  1.00  0.00     0.025 A 
ATOM      6  C   UNL     1      10.689   9.843  12.561  1.00  0.00     0.062 A 
ATOM      7  C   UNL     1      12.304   9.557  10.755  1.00  0.00     0.020 A 
ATOM      8  C   UNL     1      13.634   9.529  10.340  1.00  0.00     0.094 A 
ATOM      9  C   UNL     1      14.642   9.749  11.284  1.00  0.00     0.336 A 
ATOM     10  O   UNL     1      15.850   9.728  10.930  1.00  0.00    -0.246 OA
ATOM     11  O   UNL     1      14.333   9.983  12.557  1.00  0.00    -0.419 OA
ENDROOT
BRANCH   1  12
ATOM     12  O   UNL     1       9.108  10.140  14.419  1.00  0.00    -0.493 OA
ATOM     13  C   UNL     1       8.042   9.309  13.972  1.00  0.00     0.278 C 
ENDBRANCH   1  12
BRANCH   2  14
ATOM     14  O   UNL     1      11.161  10.554  16.153  1.00  0.00    -0.502 OA
ATOM     15  H   UNL     1      10.252  10.855  16.475  1.00  0.00     0.293 HD
ENDBRANCH   2  14
BRANCH   3  16
ATOM     16  O   UNL     1      13.913  10.476  15.197  1.00  0.00    -0.502 OA
ATOM     17  H   UNL     1      14.454   9.735  15.619  1.00  0.00     0.293 HD
ENDBRANCH   3  16
TORSDOF 3
ENDMDL
MODEL 4
REMARK VINA RESULT:    -5.650      1.944      3.319
REMARK INTER + INTRA:          -6.380
REMARK INTER:                  -6.315
REMARK INTRA:                  -0.065
REMARK UNBOUND:                -0.070
REMARK SMILES COc1cc2ccc(=O)oc2c(O)c1O
REMARK SMILES IDX 3 1 14 2 12 3 11 4 5 5 4 6 6 7 7 8 8 9 9 10 10 11 2 12 1 13
REMARK SMILES IDX 15 14 13 16
REMARK H PARENT 15 15 13 17
REMARK Flexibility Score: inf
ROOT
ATOM      1  C   UNL     1      11.074  10.561  14.851  1.00  0.00     0.165 A 
ATOM      2  C   UNL     1       9.822  10.108  15.299  1.00  0.00     0.204 A 
ATOM      3  C   UNL     1       8.987   9.360  14.432  1.00  0.00     0.205 A 
ATOM      4  C   UNL     1       9.417   9.077  13.129  1.00  0.00     0.184 A 
ATOM      5  C   UNL     1      10.675   9.533  12.683  1.00  0.00     0.025 A 
ATOM      6  C   UNL     1      11.498  10.271  13.541  1.00  0.00     0.062 A 
ATOM      7  C   UNL     1      11.072   9.231  11.375  1.00  0.00     0.020 A 
ATOM      8  C   UNL     1      10.221   8.493  10.555  1.00  0.00     0.094 A 
ATOM      9  C   UNL     1       8.988   8.073  11.063  1.00  0.00     0.336 A 
ATOM     10  O   UNL     1       8.204   7.405  10.339  1.00  0.00    -0.246 OA
ATOM     11  O   UNL     1       8.636   8.374  12.311  1.00  0.00    -0.419 OA
ENDROOT
BRANCH   1  12
ATOM     12  O   UNL     1      11.872  11.299  15.741  1.00  0.00    -0.493 OA
ATOM     13  C   UNL     1      12.370  12.608  15.487  1.00  0.00     0.278 C 
ENDBRANCH   1  12
BRANCH   2  14
ATOM     14  O   UNL     1       9.449  10.422  16.607  1.00  0.00    -0.502 OA
ATOM     15  H   UNL     1       8.853  11.198  16.859  1.00  0.00     0.293 HD
ENDBRANCH   2  14
BRANCH   3  16
ATOM     16  O   UNL     1       7.733   8.884  14.824  1.00  0.00    -0.502 OA
ATOM     17  H   UNL     1       6.951   8.759  14.197  1.00  0.00     0.293 HD
ENDBRANCH   3  16
TORSDOF 3
ENDMDL
MODEL 5
REMARK VINA RESULT:    -5.525      1.875      4.476
REMARK INTER + INTRA:          -6.241
REMARK INTER:                  -6.189
REMARK INTRA:                  -0.052
REMARK UNBOUND:                -0.070
REMARK SMILES COc1cc2ccc(=O)oc2c(O)c1O
REMARK SMILES IDX 3 1 14 2 12 3 11 4 5 5 4 6 6 7 7 8 8 9 9 10 10 11 2 12 1 13
REMARK SMILES IDX 15 14 13 16
REMARK H PARENT 15 15 13 17
REMARK Flexibility Score: inf
ROOT
ATOM      1  C   UNL     1       9.240   8.906  12.509  1.00  0.00     0.165 A 
ATOM      2  C   UNL     1       8.486   9.375  13.597  1.00  0.00     0.204 A 
ATOM      3  C   UNL     1       9.055  10.299  14.509  1.00  0.00     0.205 A 
ATOM      4  C   UNL     1      10.372  10.740  14.316  1.00  0.00     0.184 A 
ATOM      5  C   UNL     1      11.125  10.268  13.222  1.00  0.00     0.025 A 
ATOM      6  C   UNL     1      10.561   9.356  12.324  1.00  0.00     0.062 A 
ATOM      7  C   UNL     1      12.436  10.731  13.062  1.00  0.00     0.020 A 
ATOM      8  C   UNL     1      12.958  11.640  13.980  1.00  0.00     0.094 A 
ATOM      9  C   UNL     1      12.154  12.066  15.042  1.00  0.00     0.336 A 
ATOM     10  O   UNL     1      12.606  12.887  15.882  1.00  0.00    -0.246 OA
ATOM     11  O   UNL     1      10.911  11.609  15.170  1.00  0.00    -0.419 OA
ENDROOT
BRANCH   1  12
ATOM     12  O   UNL     1       8.639   7.991  11.629  1.00  0.00    -0.493 OA
ATOM     13  C   UNL     1       9.240   7.504  10.433  1.00  0.00     0.278 C 
ENDBRANCH   1  12
BRANCH   2  14
ATOM     14  O   UNL     1       7.181   8.899  13.736  1.00  0.00    -0.502 OA
ATOM     15  H   UNL     1       6.852   8.361  14.526  1.00  0.00     0.293 HD
ENDBRANCH   2  14
BRANCH   3  16
ATOM     16  O   UNL     1       8.352  10.800  15.608  1.00  0.00    -0.502 OA
ATOM     17  H   UNL     1       7.523  11.372  15.540  1.00  0.00     0.293 HD
ENDBRANCH   3  16
TORSDOF 3
ENDMDL
MODEL 6
REMARK VINA RESULT:    -5.482      1.420      2.188
REMARK INTER + INTRA:          -6.192
REMARK INTER:                  -6.137
REMARK INTRA:                  -0.055
REMARK UNBOUND:                -0.070
REMARK SMILES COc1cc2ccc(=O)oc2c(O)c1O
REMARK SMILES IDX 3 1 14 2 12 3 11 4 5 5 4 6 6 7 7 8 8 9 9 10 10 11 2 12 1 13
REMARK SMILES IDX 15 14 13 16
REMARK H PARENT 15 15 13 17
REMARK Flexibility Score: inf
ROOT
ATOM      1  C   UNL     1      13.523  10.065  11.646  1.00  0.00     0.165 A 
ATOM      2  C   UNL     1      14.115  10.317  12.895  1.00  0.00     0.204 A 
ATOM      3  C   UNL     1      13.334  10.251  14.076  1.00  0.00     0.205 A 
ATOM      4  C   UNL     1      11.971   9.935  13.988  1.00  0.00     0.184 A 
ATOM      5  C   UNL     1      11.382   9.682  12.733  1.00  0.00     0.025 A 
ATOM      6  C   UNL     1      12.155   9.747  11.569  1.00  0.00     0.062 A 
ATOM      7  C   UNL     1      10.018   9.368  12.684  1.00  0.00     0.020 A 
ATOM      8  C   UNL     1       9.286   9.314  13.869  1.00  0.00     0.094 A 
ATOM      9  C   UNL     1       9.936   9.576  15.079  1.00  0.00     0.336 A 
ATOM     10  O   UNL     1       9.293   9.532  16.159  1.00  0.00    -0.246 OA
ATOM     11  O   UNL     1      11.233   9.871  15.095  1.00  0.00    -0.419 OA
ENDROOT
BRANCH   1  12
ATOM     12  O   UNL     1      14.333  10.140  10.500  1.00  0.00    -0.493 OA
ATOM     13  C   UNL     1      14.955   9.022   9.875  1.00  0.00     0.278 C 
ENDBRANCH   1  12
BRANCH   2  14
ATOM     14  O   UNL     1      15.476  10.628  12.918  1.00  0.00    -0.502 OA
ATOM     15  H   UNL     1      15.986  11.011  12.135  1.00  0.00     0.293 HD
ENDBRANCH   2  14
BRANCH   3  16
ATOM     16  O   UNL     1      13.869  10.492  15.345  1.00  0.00    -0.502 OA
ATOM     17  H   UNL     1      13.674   9.928  16.160  1.00  0.00     0.293 HD
ENDBRANCH   3  16
TORSDOF 3
ENDMDL
MODEL 7
REMARK VINA RESULT:    -5.158     12.053     14.259
REMARK INTER + INTRA:          -5.830
REMARK INTER:                  -5.761
REMARK INTRA:                  -0.070
REMARK UNBOUND:                -0.070
REMARK SMILES COc1cc2ccc(=O)oc2c(O)c1O
REMARK SMILES IDX 3 1 14 2 12 3 11 4 5 5 4 6 6 7 7 8 8 9 9 10 10 11 2 12 1 13
REMARK SMILES IDX 15 14 13 16
REMARK H PARENT 15 15 13 17
REMARK Flexibility Score: inf
ROOT
ATOM      1  C   UNL     1       3.899   5.020  23.102  1.00  0.00     0.165 A 
ATOM      2  C   UNL     1       3.642   4.367  21.885  1.00  0.00     0.204 A 
ATOM      3  C   UNL     1       3.380   2.974  21.869  1.00  0.00     0.205 A 
ATOM      4  C   UNL     1       3.380   2.255  23.072  1.00  0.00     0.184 A 
ATOM      5  C   UNL     1       3.638   2.914  24.291  1.00  0.00     0.025 A 
ATOM      6  C   UNL     1       3.895   4.289  24.304  1.00  0.00     0.062 A 
ATOM      7  C   UNL     1       3.629   2.164  25.473  1.00  0.00     0.020 A 
ATOM      8  C   UNL     1       3.367   0.796  25.413  1.00  0.00     0.094 A 
ATOM      9  C   UNL     1       3.119   0.209  24.169  1.00  0.00     0.336 A 
ATOM     10  O   UNL     1       2.880  -1.024  24.093  1.00  0.00    -0.246 OA
ATOM     11  O   UNL     1       3.134   0.946  23.061  1.00  0.00    -0.419 OA
ENDROOT
BRANCH   1  12
ATOM     12  O   UNL     1       4.153   6.401  23.075  1.00  0.00    -0.493 OA
ATOM     13  C   UNL     1       3.228   7.402  23.487  1.00  0.00     0.278 C 
ENDBRANCH   1  12
BRANCH   2  14
ATOM     14  O   UNL     1       3.656   5.137  20.720  1.00  0.00    -0.502 OA
ATOM     15  H   UNL     1       4.496   5.422  20.236  1.00  0.00     0.293 HD
ENDBRANCH   2  14
BRANCH   3  16
ATOM     16  O   UNL     1       3.118   2.273  20.688  1.00  0.00    -0.502 OA
ATOM     17  H   UNL     1       3.742   1.593  20.280  1.00  0.00     0.293 HD
ENDBRANCH   3  16
TORSDOF 3
ENDMDL
MODEL 8
REMARK VINA RESULT:    -4.930     11.269     13.086
REMARK INTER + INTRA:          -5.576
REMARK INTER:                  -5.518
REMARK INTRA:                  -0.057
REMARK UNBOUND:                -0.070
REMARK SMILES COc1cc2ccc(=O)oc2c(O)c1O
REMARK SMILES IDX 3 1 14 2 12 3 11 4 5 5 4 6 6 7 7 8 8 9 9 10 10 11 2 12 1 13
REMARK SMILES IDX 15 14 13 16
REMARK H PARENT 15 15 13 17
REMARK Flexibility Score: inf
ROOT
ATOM      1  C   UNL     1       4.596   3.353  23.697  1.00  0.00     0.165 A 
ATOM      2  C   UNL     1       4.857   3.791  22.388  1.00  0.00     0.204 A 
ATOM      3  C   UNL     1       4.554   5.123  22.012  1.00  0.00     0.205 A 
ATOM      4  C   UNL     1       3.993   5.998  22.952  1.00  0.00     0.184 A 
ATOM      5  C   UNL     1       3.732   5.555  24.265  1.00  0.00     0.025 A 
ATOM      6  C   UNL     1       4.033   4.240  24.634  1.00  0.00     0.062 A 
ATOM      7  C   UNL     1       3.172   6.456  25.177  1.00  0.00     0.020 A 
ATOM      8  C   UNL     1       2.888   7.758  24.767  1.00  0.00     0.094 A 
ATOM      9  C   UNL     1       3.172   8.129  23.449  1.00  0.00     0.336 A 
ATOM     10  O   UNL     1       2.924   9.299  23.059  1.00  0.00    -0.246 OA
ATOM     11  O   UNL     1       3.706   7.251  22.603  1.00  0.00    -0.419 OA
ENDROOT
BRANCH   1  12
ATOM     12  O   UNL     1       4.912   2.026  24.029  1.00  0.00    -0.493 OA
ATOM     13  C   UNL     1       3.983   0.947  24.026  1.00  0.00     0.278 C 
ENDBRANCH   1  12
BRANCH   2  14
ATOM     14  O   UNL     1       5.417   2.874  21.496  1.00  0.00    -0.502 OA
ATOM     15  H   UNL     1       6.377   2.558  21.532  1.00  0.00     0.293 HD
ENDBRANCH   2  14
BRANCH   3  16
ATOM     16  O   UNL     1       4.793   5.614  20.725  1.00  0.00    -0.502 OA
ATOM     17  H   UNL     1       5.130   6.544  20.524  1.00  0.00     0.293 HD
ENDBRANCH   3  16
TORSDOF 3
ENDMDL
MODEL 9
REMARK VINA RESULT:    -4.906      3.662      5.434
REMARK INTER + INTRA:          -5.549
REMARK INTER:                  -5.497
REMARK INTRA:                  -0.052
REMARK UNBOUND:                -0.070
REMARK SMILES COc1cc2ccc(=O)oc2c(O)c1O
REMARK SMILES IDX 3 1 14 2 12 3 11 4 5 5 4 6 6 7 7 8 8 9 9 10 10 11 2 12 1 13
REMARK SMILES IDX 15 14 13 16
REMARK H PARENT 15 15 13 17
REMARK Flexibility Score: inf
ROOT
ATOM      1  C   UNL     1      13.319  10.948  12.915  1.00  0.00     0.165 A 
ATOM      2  C   UNL     1      13.753  10.264  14.062  1.00  0.00     0.204 A 
ATOM      3  C   UNL     1      14.453   9.039  13.936  1.00  0.00     0.205 A 
ATOM      4  C   UNL     1      14.709   8.515  12.660  1.00  0.00     0.184 A 
ATOM      5  C   UNL     1      14.272   9.205  11.511  1.00  0.00     0.025 A 
ATOM      6  C   UNL     1      13.581  10.415  11.639  1.00  0.00     0.062 A 
ATOM      7  C   UNL     1      14.545   8.653  10.254  1.00  0.00     0.020 A 
ATOM      8  C   UNL     1      15.237   7.446  10.173  1.00  0.00     0.094 A 
ATOM      9  C   UNL     1      15.640   6.816  11.354  1.00  0.00     0.336 A 
ATOM     10  O   UNL     1      16.266   5.726  11.303  1.00  0.00    -0.246 OA
ATOM     11  O   UNL     1      15.367   7.364  12.536  1.00  0.00    -0.419 OA
ENDROOT
BRANCH   1  12
ATOM     12  O   UNL     1      12.629  12.160  13.084  1.00  0.00    -0.493 OA
ATOM     13  C   UNL     1      12.198  13.001  12.020  1.00  0.00     0.278 C 
ENDBRANCH   1  12
BRANCH   2  14
ATOM     14  O   UNL     1      13.469  10.835  15.305  1.00  0.00    -0.502 OA
ATOM     15  H   UNL     1      12.542  10.905  15.701  1.00  0.00     0.293 HD
ENDBRANCH   2  14
BRANCH   3  16
ATOM     16  O   UNL     1      14.909   8.316  15.041  1.00  0.00    -0.502 OA
ATOM     17  H   UNL     1      14.780   8.603  16.001  1.00  0.00     0.293 HD
ENDBRANCH   3  16
TORSDOF 3
ENDMDL
