MODEL 1
REMARK VINA RESULT:    -2.995      0.000      0.000
REMARK INTER + INTRA:          -3.284
REMARK INTER:                  -3.257
REMARK INTRA:                  -0.027
REMARK UNBOUND:                -0.027
REMARK SMILES COc1ccccc1O
REMARK SMILES IDX 3 1 4 2 5 3 6 4 7 5 8 6 2 7 1 8 9 9
REMARK H PARENT 9 10
REMARK Flexibility Score: inf
ROOT
ATOM      1  C   UNL     1      -2.044   2.435   9.741  1.00  0.00     0.160 A 
ATOM      2  C   UNL     1      -1.892   2.179  11.119  1.00  0.00     0.050 A 
ATOM      3  C   UNL     1      -2.973   2.343  11.990  1.00  0.00     0.004 A 
ATOM      4  C   UNL     1      -4.211   2.764  11.500  1.00  0.00     0.004 A 
ATOM      5  C   UNL     1      -4.371   3.021  10.137  1.00  0.00     0.050 A 
ATOM      6  C   UNL     1      -3.297   2.859   9.255  1.00  0.00     0.157 A 
ENDROOT
BRANCH   1   7
ATOM      7  O   UNL     1      -0.982   2.281   8.835  1.00  0.00    -0.493 OA
ATOM      8  C   UNL     1       0.086   1.353   8.995  1.00  0.00     0.278 C 
ENDBRANCH   1   7
BRANCH   6   9
ATOM      9  O   UNL     1      -3.492   3.125   7.899  1.00  0.00    -0.504 OA
ATOM     10  H   UNL     1      -3.758   4.042   7.561  1.00  0.00     0.293 HD
ENDBRANCH   6   9
TORSDOF 2
ENDMDL
MODEL 2
REMARK VINA RESULT:    -2.967     14.762     15.276
REMARK INTER + INTRA:          -3.254
REMARK INTER:                  -3.221
REMARK INTRA:                  -0.032
REMARK UNBOUND:                -0.027
REMARK SMILES COc1ccccc1O
REMARK SMILES IDX 3 1 4 2 5 3 6 4 7 5 8 6 2 7 1 8 9 9
REMARK H PARENT 9 10
REMARK Flexibility Score: inf
ROOT
ATOM      1  C   UNL     1     -12.317  -2.919  -0.669  1.00  0.00     0.160 A 
ATOM      2  C   UNL     1     -13.389  -2.185  -0.121  1.00  0.00     0.050 A 
ATOM      3  C   UNL     1     -13.882  -2.498   1.148  1.00  0.00     0.004 A 
ATOM      4  C   UNL     1     -13.316  -3.541   1.883  1.00  0.00     0.004 A 
ATOM      5  C   UNL     1     -12.254  -4.275   1.350  1.00  0.00     0.050 A 
ATOM      6  C   UNL     1     -11.751  -3.970   0.080  1.00  0.00     0.157 A 
ENDROOT
BRANCH   1   7
ATOM      7  O   UNL     1     -11.794  -2.633  -1.940  1.00  0.00    -0.493 OA
ATOM      8  C   UNL     1     -11.458  -1.328  -2.400  1.00  0.00     0.278 C 
ENDBRANCH   1   7
BRANCH   6   9
ATOM      9  O   UNL     1     -10.689  -4.722  -0.423  1.00  0.00    -0.504 OA
ATOM     10  H   UNL     1      -9.723  -4.470  -0.257  1.00  0.00     0.293 HD
ENDBRANCH   6   9
TORSDOF 2
ENDMDL
MODEL 3
REMARK VINA RESULT:    -2.921      4.793      7.221
REMARK INTER + INTRA:          -3.205
REMARK INTER:                  -3.170
REMARK INTRA:                  -0.035
REMARK UNBOUND:                -0.027
REMARK SMILES COc1ccccc1O
REMARK SMILES IDX 3 1 4 2 5 3 6 4 7 5 8 6 2 7 1 8 9 9
REMARK H PARENT 9 10
REMARK Flexibility Score: inf
ROOT
ATOM      1  C   UNL     1       2.369  -0.227  11.730  1.00  0.00     0.160 A 
ATOM      2  C   UNL     1       2.998   0.987  11.390  1.00  0.00     0.050 A 
ATOM      3  C   UNL     1       4.145   0.988  10.590  1.00  0.00     0.004 A 
ATOM      4  C   UNL     1       4.674  -0.216  10.123  1.00  0.00     0.004 A 
ATOM      5  C   UNL     1       4.059  -1.424  10.454  1.00  0.00     0.050 A 
ATOM      6  C   UNL     1       2.910  -1.438  11.253  1.00  0.00     0.157 A 
ENDROOT
BRANCH   1   7
ATOM      7  O   UNL     1       1.216  -0.269  12.530  1.00  0.00    -0.493 OA
ATOM      8  C   UNL     1       0.029   0.475  12.273  1.00  0.00     0.278 C 
ENDBRANCH   1   7
BRANCH   6   9
ATOM      9  O   UNL     1       2.320  -2.663  11.565  1.00  0.00    -0.504 OA
ATOM     10  H   UNL     1       1.455  -2.729  12.088  1.00  0.00     0.293 HD
ENDBRANCH   6   9
TORSDOF 2
ENDMDL
MODEL 4
REMARK VINA RESULT:    -2.921      3.157      4.539
REMARK INTER + INTRA:          -3.204
REMARK INTER:                  -3.170
REMARK INTRA:                  -0.034
REMARK UNBOUND:                -0.027
REMARK SMILES COc1ccccc1O
REMARK SMILES IDX 3 1 4 2 5 3 6 4 7 5 8 6 2 7 1 8 9 9
REMARK H PARENT 9 10
REMARK Flexibility Score: inf
ROOT
ATOM      1  C   UNL     1      -0.961   0.995  12.247  1.00  0.00     0.160 A 
ATOM      2  C   UNL     1      -1.719   1.887  13.032  1.00  0.00     0.050 A 
ATOM      3  C   UNL     1      -1.429   2.054  14.389  1.00  0.00     0.004 A 
ATOM      4  C   UNL     1      -0.385   1.336  14.976  1.00  0.00     0.004 A 
ATOM      5  C   UNL     1       0.372   0.450  14.207  1.00  0.00     0.050 A 
ATOM      6  C   UNL     1       0.091   0.276  12.847  1.00  0.00     0.157 A 
ENDROOT
BRANCH   1   7
ATOM      7  O   UNL     1      -1.222   0.802  10.881  1.00  0.00    -0.493 OA
ATOM      8  C   UNL     1      -0.632   1.563   9.831  1.00  0.00     0.278 C 
ENDBRANCH   1   7
BRANCH   6   9
ATOM      9  O   UNL     1       0.867  -0.618  12.108  1.00  0.00    -0.504 OA
ATOM     10  H   UNL     1       0.699  -0.793  11.125  1.00  0.00     0.293 HD
ENDBRANCH   6   9
TORSDOF 2
ENDMDL
MODEL 5
REMARK VINA RESULT:    -2.895      4.390      5.449
REMARK INTER + INTRA:          -3.176
REMARK INTER:                  -3.146
REMARK INTRA:                  -0.030
REMARK UNBOUND:                -0.027
REMARK SMILES COc1ccccc1O
REMARK SMILES IDX 3 1 4 2 5 3 6 4 7 5 8 6 2 7 1 8 9 9
REMARK H PARENT 9 10
REMARK Flexibility Score: inf
ROOT
ATOM      1  C   UNL     1       0.513   0.429  14.091  1.00  0.00     0.160 A 
ATOM      2  C   UNL     1      -0.245   1.314  14.884  1.00  0.00     0.050 A 
ATOM      3  C   UNL     1      -1.385   1.930  14.362  1.00  0.00     0.004 A 
ATOM      4  C   UNL     1      -1.781   1.673  13.048  1.00  0.00     0.004 A 
ATOM      5  C   UNL     1      -1.038   0.798  12.253  1.00  0.00     0.050 A 
ATOM      6  C   UNL     1       0.105   0.175  12.766  1.00  0.00     0.157 A 
ENDROOT
BRANCH   1   7
ATOM      7  O   UNL     1       1.663  -0.209  14.581  1.00  0.00    -0.493 OA
ATOM      8  C   UNL     1       1.790  -0.748  15.893  1.00  0.00     0.278 C 
ENDBRANCH   1   7
BRANCH   6   9
ATOM      9  O   UNL     1       0.825  -0.694  11.945  1.00  0.00    -0.504 OA
ATOM     10  H   UNL     1       0.974  -0.508  10.961  1.00  0.00     0.293 HD
ENDBRANCH   6   9
TORSDOF 2
ENDMDL
MODEL 6
REMARK VINA RESULT:    -2.820      1.993      3.248
REMARK INTER + INTRA:          -3.095
REMARK INTER:                  -3.049
REMARK INTRA:                  -0.046
REMARK UNBOUND:                -0.027
REMARK SMILES COc1ccccc1O
REMARK SMILES IDX 3 1 4 2 5 3 6 4 7 5 8 6 2 7 1 8 9 9
REMARK H PARENT 9 10
REMARK Flexibility Score: inf
ROOT
ATOM      1  C   UNL     1      -0.842   1.266  10.488  1.00  0.00     0.160 A 
ATOM      2  C   UNL     1      -1.886   2.203  10.352  1.00  0.00     0.050 A 
ATOM      3  C   UNL     1      -2.684   2.535  11.451  1.00  0.00     0.004 A 
ATOM      4  C   UNL     1      -2.450   1.939  12.692  1.00  0.00     0.004 A 
ATOM      5  C   UNL     1      -1.419   1.010  12.837  1.00  0.00     0.050 A 
ATOM      6  C   UNL     1      -0.613   0.670  11.745  1.00  0.00     0.157 A 
ENDROOT
BRANCH   1   7
ATOM      7  O   UNL     1      -0.020   0.907   9.408  1.00  0.00    -0.493 OA
ATOM      8  C   UNL     1       1.068   1.690   8.928  1.00  0.00     0.278 C 
ENDBRANCH   1   7
BRANCH   6   9
ATOM      9  O   UNL     1       0.409  -0.262  11.925  1.00  0.00    -0.504 OA
ATOM     10  H   UNL     1       0.273  -1.252  11.758  1.00  0.00     0.293 HD
ENDBRANCH   6   9
TORSDOF 2
ENDMDL
MODEL 7
REMARK VINA RESULT:    -2.818     14.843     15.259
REMARK INTER + INTRA:          -3.092
REMARK INTER:                  -3.067
REMARK INTRA:                  -0.026
REMARK UNBOUND:                -0.027
REMARK SMILES COc1ccccc1O
REMARK SMILES IDX 3 1 4 2 5 3 6 4 7 5 8 6 2 7 1 8 9 9
REMARK H PARENT 9 10
REMARK Flexibility Score: inf
ROOT
ATOM      1  C   UNL     1     -11.917  -3.565  -0.601  1.00  0.00     0.160 A 
ATOM      2  C   UNL     1     -11.826  -4.349   0.567  1.00  0.00     0.050 A 
ATOM      3  C   UNL     1     -12.563  -4.008   1.705  1.00  0.00     0.004 A 
ATOM      4  C   UNL     1     -13.395  -2.887   1.691  1.00  0.00     0.004 A 
ATOM      5  C   UNL     1     -13.492  -2.104   0.540  1.00  0.00     0.050 A 
ATOM      6  C   UNL     1     -12.760  -2.435  -0.605  1.00  0.00     0.157 A 
ENDROOT
BRANCH   1   7
ATOM      7  O   UNL     1     -11.193  -3.875  -1.763  1.00  0.00    -0.493 OA
ATOM      8  C   UNL     1     -10.589  -5.138  -2.024  1.00  0.00     0.278 C 
ENDBRANCH   1   7
BRANCH   6   9
ATOM      9  O   UNL     1     -12.881  -1.631  -1.739  1.00  0.00    -0.504 OA
ATOM     10  H   UNL     1     -13.278  -0.700  -1.701  1.00  0.00     0.293 HD
ENDBRANCH   6   9
TORSDOF 2
ENDMDL
MODEL 8
REMARK VINA RESULT:    -2.795      2.487      3.271
REMARK INTER + INTRA:          -3.067
REMARK INTER:                  -3.041
REMARK INTRA:                  -0.026
REMARK UNBOUND:                -0.027
REMARK SMILES COc1ccccc1O
REMARK SMILES IDX 3 1 4 2 5 3 6 4 7 5 8 6 2 7 1 8 9 9
REMARK H PARENT 9 10
REMARK Flexibility Score: inf
ROOT
ATOM      1  C   UNL     1      -0.547   0.896  12.053  1.00  0.00     0.160 A 
ATOM      2  C   UNL     1      -1.343   1.333  13.131  1.00  0.00     0.050 A 
ATOM      3  C   UNL     1      -2.495   2.089  12.896  1.00  0.00     0.004 A 
ATOM      4  C   UNL     1      -2.864   2.416  11.590  1.00  0.00     0.004 A 
ATOM      5  C   UNL     1      -2.082   1.988  10.515  1.00  0.00     0.050 A 
ATOM      6  C   UNL     1      -0.927   1.230  10.738  1.00  0.00     0.157 A 
ENDROOT
BRANCH   1   7
ATOM      7  O   UNL     1       0.617   0.134  12.249  1.00  0.00    -0.493 OA
ATOM      8  C   UNL     1       1.373   0.114  13.456  1.00  0.00     0.278 C 
ENDBRANCH   1   7
BRANCH   6   9
ATOM      9  O   UNL     1      -0.169   0.818   9.642  1.00  0.00    -0.504 OA
ATOM     10  H   UNL     1      -0.556   0.245   8.903  1.00  0.00     0.293 HD
ENDBRANCH   6   9
TORSDOF 2
ENDMDL
MODEL 9
REMARK VINA RESULT:    -2.780     17.704     18.735
REMARK INTER + INTRA:          -3.051
REMARK INTER:                  -3.025
REMARK INTRA:                  -0.026
REMARK UNBOUND:                -0.027
REMARK SMILES COc1ccccc1O
REMARK SMILES IDX 3 1 4 2 5 3 6 4 7 5 8 6 2 7 1 8 9 9
REMARK H PARENT 9 10
REMARK Flexibility Score: inf
ROOT
ATOM      1  C   UNL     1      -0.035 -11.019  -2.214  1.00  0.00     0.160 A 
ATOM      2  C   UNL     1       0.034 -12.425  -2.296  1.00  0.00     0.050 A 
ATOM      3  C   UNL     1       1.253 -13.083  -2.114  1.00  0.00     0.004 A 
ATOM      4  C   UNL     1       2.412 -12.351  -1.850  1.00  0.00     0.004 A 
ATOM      5  C   UNL     1       2.355 -10.959  -1.767  1.00  0.00     0.050 A 
ATOM      6  C   UNL     1       1.140 -10.289  -1.947  1.00  0.00     0.157 A 
ENDROOT
BRANCH   1   7
ATOM      7  O   UNL     1      -1.241 -10.323  -2.391  1.00  0.00    -0.493 OA
ATOM      8  C   UNL     1      -2.535 -10.893  -2.219  1.00  0.00     0.278 C 
ENDBRANCH   1   7
BRANCH   6   9
ATOM      9  O   UNL     1       1.118  -8.896  -1.857  1.00  0.00    -0.504 OA
ATOM     10  H   UNL     1       1.116  -8.413  -0.967  1.00  0.00     0.293 HD
ENDBRANCH   6   9
TORSDOF 2
ENDMDL
