MODEL 1
REMARK VINA RESULT:    -4.198      0.000      0.000
REMARK INTER + INTRA:          -4.321
REMARK INTER:                  -4.321
REMARK INTRA:                   0.000
REMARK UNBOUND:                 0.000
REMARK SMILES Nc1ncnc2nc[nH]c12
REMARK SMILES IDX 8 1 7 2 6 3 5 4 4 5 3 6 2 7 10 8 9 9 1 11
REMARK H PARENT 9 10 1 12 1 13
REMARK Flexibility Score: inf
ROOT
ATOM      1  C   UNL     1     -44.829 -14.755  -3.005  1.00  0.00     0.199 A 
ATOM      2  N   UNL     1     -44.172 -13.647  -2.565  1.00  0.00    -0.217 NA
ATOM      3  C   UNL     1     -42.884 -14.007  -2.699  1.00  0.00     0.182 A 
ATOM      4  N   UNL     1     -41.799 -13.254  -2.396  1.00  0.00    -0.215 NA
ATOM      5  C   UNL     1     -40.560 -13.796  -2.602  1.00  0.00     0.226 A 
ATOM      6  N   UNL     1     -40.431 -15.066  -3.102  1.00  0.00    -0.217 NA
ATOM      7  C   UNL     1     -41.524 -15.827  -3.408  1.00  0.00     0.152 A 
ATOM      8  C   UNL     1     -42.778 -15.261  -3.193  1.00  0.00     0.127 A 
ATOM      9  N   UNL     1     -44.005 -15.759  -3.396  1.00  0.00    -0.340 N 
ATOM     10  H   UNL     1     -44.275 -16.697  -3.767  1.00  0.00     0.168 HD
ENDROOT
BRANCH   7  11
ATOM     11  N   UNL     1     -41.364 -17.148  -3.928  1.00  0.00    -0.382 N 
ATOM     12  H   UNL     1     -40.710 -17.830  -3.486  1.00  0.00     0.158 HD
ATOM     13  H   UNL     1     -41.908 -17.449  -4.766  1.00  0.00     0.158 HD
ENDBRANCH   7  11
TORSDOF 1
ENDMDL
MODEL 2
REMARK VINA RESULT:    -4.132      1.573      3.694
REMARK INTER + INTRA:          -4.253
REMARK INTER:                  -4.253
REMARK INTRA:                   0.000
REMARK UNBOUND:                 0.000
REMARK SMILES Nc1ncnc2nc[nH]c12
REMARK SMILES IDX 8 1 7 2 6 3 5 4 4 5 3 6 2 7 10 8 9 9 1 11
REMARK H PARENT 9 10 1 12 1 13
REMARK Flexibility Score: inf
ROOT
ATOM      1  C   UNL     1     -42.309 -15.164  -3.288  1.00  0.00     0.199 A 
ATOM      2  N   UNL     1     -42.331 -14.275  -2.257  1.00  0.00    -0.217 NA
ATOM      3  C   UNL     1     -43.648 -14.094  -2.064  1.00  0.00     0.182 A 
ATOM      4  N   UNL     1     -44.227 -13.291  -1.140  1.00  0.00    -0.215 NA
ATOM      5  C   UNL     1     -45.592 -13.237  -1.095  1.00  0.00     0.226 A 
ATOM      6  N   UNL     1     -46.347 -13.981  -1.966  1.00  0.00    -0.217 NA
ATOM      7  C   UNL     1     -45.765 -14.793  -2.899  1.00  0.00     0.152 A 
ATOM      8  C   UNL     1     -44.374 -14.836  -2.932  1.00  0.00     0.127 A 
ATOM      9  N   UNL     1     -43.543 -15.527  -3.723  1.00  0.00    -0.340 N 
ATOM     10  H   UNL     1     -43.776 -16.190  -4.494  1.00  0.00     0.168 HD
ENDROOT
BRANCH   7  11
ATOM     11  N   UNL     1     -46.572 -15.559  -3.796  1.00  0.00    -0.382 N 
ATOM     12  H   UNL     1     -46.237 -15.803  -4.754  1.00  0.00     0.158 HD
ATOM     13  H   UNL     1     -47.517 -15.887  -3.498  1.00  0.00     0.158 HD
ENDBRANCH   7  11
TORSDOF 1
ENDMDL
MODEL 3
REMARK VINA RESULT:    -4.123      2.657      3.639
REMARK INTER + INTRA:          -4.243
REMARK INTER:                  -4.243
REMARK INTRA:                   0.000
REMARK UNBOUND:                 0.000
REMARK SMILES Nc1ncnc2nc[nH]c12
REMARK SMILES IDX 8 1 7 2 6 3 5 4 4 5 3 6 2 7 10 8 9 9 1 11
REMARK H PARENT 9 10 1 12 1 13
REMARK Flexibility Score: inf
ROOT
ATOM      1  C   UNL     1     -45.877 -13.621   0.078  1.00  0.00     0.199 A 
ATOM      2  N   UNL     1     -44.715 -13.000  -0.264  1.00  0.00    -0.217 NA
ATOM      3  C   UNL     1     -44.587 -13.327  -1.561  1.00  0.00     0.182 A 
ATOM      4  N   UNL     1     -43.584 -12.958  -2.392  1.00  0.00    -0.215 NA
ATOM      5  C   UNL     1     -43.627 -13.392  -3.689  1.00  0.00     0.226 A 
ATOM      6  N   UNL     1     -44.663 -14.178  -4.125  1.00  0.00    -0.217 NA
ATOM      7  C   UNL     1     -45.677 -14.551  -3.288  1.00  0.00     0.152 A 
ATOM      8  C   UNL     1     -45.618 -14.101  -1.971  1.00  0.00     0.127 A 
ATOM      9  N   UNL     1     -46.453 -14.303  -0.944  1.00  0.00    -0.340 N 
ATOM     10  H   UNL     1     -47.340 -14.852  -0.922  1.00  0.00     0.168 HD
ENDROOT
BRANCH   7  11
ATOM     11  N   UNL     1     -46.746 -15.370  -3.765  1.00  0.00    -0.382 N 
ATOM     12  H   UNL     1     -47.144 -15.240  -4.721  1.00  0.00     0.158 HD
ATOM     13  H   UNL     1     -47.144 -16.117  -3.155  1.00  0.00     0.158 HD
ENDBRANCH   7  11
TORSDOF 1
ENDMDL
MODEL 4
REMARK VINA RESULT:    -4.098      9.839     10.697
REMARK INTER + INTRA:          -4.218
REMARK INTER:                  -4.218
REMARK INTRA:                   0.000
REMARK UNBOUND:                 0.000
REMARK SMILES Nc1ncnc2nc[nH]c12
REMARK SMILES IDX 8 1 7 2 6 3 5 4 4 5 3 6 2 7 10 8 9 9 1 11
REMARK H PARENT 9 10 1 12 1 13
REMARK Flexibility Score: inf
ROOT
ATOM      1  C   UNL     1     -42.090 -13.437   7.796  1.00  0.00     0.199 A 
ATOM      2  N   UNL     1     -42.307 -13.426   6.452  1.00  0.00    -0.217 NA
ATOM      3  C   UNL     1     -43.438 -14.141   6.339  1.00  0.00     0.182 A 
ATOM      4  N   UNL     1     -44.096 -14.437   5.192  1.00  0.00    -0.215 NA
ATOM      5  C   UNL     1     -45.240 -15.182   5.278  1.00  0.00     0.226 A 
ATOM      6  N   UNL     1     -45.700 -15.612   6.496  1.00  0.00    -0.217 NA
ATOM      7  C   UNL     1     -45.038 -15.315   7.654  1.00  0.00     0.152 A 
ATOM      8  C   UNL     1     -43.875 -14.556   7.550  1.00  0.00     0.127 A 
ATOM      9  N   UNL     1     -43.032 -14.119   8.495  1.00  0.00    -0.340 N 
ATOM     10  H   UNL     1     -43.078 -14.264   9.527  1.00  0.00     0.168 HD
ENDROOT
BRANCH   7  11
ATOM     11  N   UNL     1     -45.536 -15.774   8.912  1.00  0.00    -0.382 N 
ATOM     12  H   UNL     1     -45.559 -16.791   9.148  1.00  0.00     0.158 HD
ATOM     13  H   UNL     1     -45.886 -15.089   9.617  1.00  0.00     0.158 HD
ENDBRANCH   7  11
TORSDOF 1
ENDMDL
MODEL 5
REMARK VINA RESULT:    -4.000      0.877      2.843
REMARK INTER + INTRA:          -4.117
REMARK INTER:                  -4.117
REMARK INTRA:                   0.000
REMARK UNBOUND:                 0.000
REMARK SMILES Nc1ncnc2nc[nH]c12
REMARK SMILES IDX 8 1 7 2 6 3 5 4 4 5 3 6 2 7 10 8 9 9 1 11
REMARK H PARENT 9 10 1 12 1 13
REMARK Flexibility Score: inf
ROOT
ATOM      1  C   UNL     1     -40.101 -13.243  -2.707  1.00  0.00     0.199 A 
ATOM      2  N   UNL     1     -41.276 -12.848  -2.145  1.00  0.00    -0.217 NA
ATOM      3  C   UNL     1     -42.058 -13.924  -2.330  1.00  0.00     0.182 A 
ATOM      4  N   UNL     1     -43.351 -14.059  -1.950  1.00  0.00    -0.215 NA
ATOM      5  C   UNL     1     -43.987 -15.238  -2.227  1.00  0.00     0.226 A 
ATOM      6  N   UNL     1     -43.323 -16.250  -2.873  1.00  0.00    -0.217 NA
ATOM      7  C   UNL     1     -42.019 -16.116  -3.258  1.00  0.00     0.152 A 
ATOM      8  C   UNL     1     -41.387 -14.910  -2.968  1.00  0.00     0.127 A 
ATOM      9  N   UNL     1     -40.137 -14.500  -3.219  1.00  0.00    -0.340 N 
ATOM     10  H   UNL     1     -39.364 -15.015  -3.695  1.00  0.00     0.168 HD
ENDROOT
BRANCH   7  11
ATOM     11  N   UNL     1     -41.349 -17.184  -3.929  1.00  0.00    -0.382 N 
ATOM     12  H   UNL     1     -41.658 -18.175  -3.817  1.00  0.00     0.158 HD
ATOM     13  H   UNL     1     -40.533 -16.982  -4.548  1.00  0.00     0.158 HD
ENDBRANCH   7  11
TORSDOF 1
ENDMDL
MODEL 6
REMARK VINA RESULT:    -3.978      9.320      9.957
REMARK INTER + INTRA:          -4.095
REMARK INTER:                  -4.095
REMARK INTRA:                   0.000
REMARK UNBOUND:                 0.000
REMARK SMILES Nc1ncnc2nc[nH]c12
REMARK SMILES IDX 8 1 7 2 6 3 5 4 4 5 3 6 2 7 10 8 9 9 1 11
REMARK H PARENT 9 10 1 12 1 13
REMARK Flexibility Score: inf
ROOT
ATOM      1  C   UNL     1     -46.831 -14.047   6.383  1.00  0.00     0.199 A 
ATOM      2  N   UNL     1     -46.277 -14.560   5.250  1.00  0.00    -0.217 NA
ATOM      3  C   UNL     1     -44.986 -14.694   5.599  1.00  0.00     0.182 A 
ATOM      4  N   UNL     1     -43.985 -15.170   4.821  1.00  0.00    -0.215 NA
ATOM      5  C   UNL     1     -42.727 -15.232   5.355  1.00  0.00     0.226 A 
ATOM      6  N   UNL     1     -42.497 -14.822   6.643  1.00  0.00    -0.217 NA
ATOM      7  C   UNL     1     -43.506 -14.342   7.430  1.00  0.00     0.152 A 
ATOM      8  C   UNL     1     -44.781 -14.285   6.872  1.00  0.00     0.127 A 
ATOM      9  N   UNL     1     -45.942 -13.868   7.393  1.00  0.00    -0.340 N 
ATOM     10  H   UNL     1     -46.131 -13.492   8.348  1.00  0.00     0.168 HD
ENDROOT
BRANCH   7  11
ATOM     11  N   UNL     1     -43.243 -13.921   8.769  1.00  0.00    -0.382 N 
ATOM     12  H   UNL     1     -43.663 -13.048   9.157  1.00  0.00     0.158 HD
ATOM     13  H   UNL     1     -42.619 -14.490   9.383  1.00  0.00     0.158 HD
ENDBRANCH   7  11
TORSDOF 1
ENDMDL
MODEL 7
REMARK VINA RESULT:    -3.942      2.121      3.815
REMARK INTER + INTRA:          -4.057
REMARK INTER:                  -4.057
REMARK INTRA:                   0.000
REMARK UNBOUND:                 0.000
REMARK SMILES Nc1ncnc2nc[nH]c12
REMARK SMILES IDX 8 1 7 2 6 3 5 4 4 5 3 6 2 7 10 8 9 9 1 11
REMARK H PARENT 9 10 1 12 1 13
REMARK Flexibility Score: inf
ROOT
ATOM      1  C   UNL     1     -42.797 -14.942   0.077  1.00  0.00     0.199 A 
ATOM      2  N   UNL     1     -42.114 -14.763  -1.087  1.00  0.00    -0.217 NA
ATOM      3  C   UNL     1     -43.103 -14.533  -1.967  1.00  0.00     0.182 A 
ATOM      4  N   UNL     1     -42.966 -14.290  -3.292  1.00  0.00    -0.215 NA
ATOM      5  C   UNL     1     -44.097 -14.078  -4.030  1.00  0.00     0.226 A 
ATOM      6  N   UNL     1     -45.333 -14.112  -3.435  1.00  0.00    -0.217 NA
ATOM      7  C   UNL     1     -45.473 -14.357  -2.097  1.00  0.00     0.152 A 
ATOM      8  C   UNL     1     -44.312 -14.571  -1.360  1.00  0.00     0.127 A 
ATOM      9  N   UNL     1     -44.143 -14.830  -0.057  1.00  0.00    -0.340 N 
ATOM     10  H   UNL     1     -44.866 -14.926   0.688  1.00  0.00     0.168 HD
ENDROOT
BRANCH   7  11
ATOM     11  N   UNL     1     -46.771 -14.388  -1.500  1.00  0.00    -0.382 N 
ATOM     12  H   UNL     1     -47.116 -13.598  -0.912  1.00  0.00     0.158 HD
ATOM     13  H   UNL     1     -47.395 -15.212  -1.648  1.00  0.00     0.158 HD
ENDBRANCH   7  11
TORSDOF 1
ENDMDL
MODEL 8
REMARK VINA RESULT:    -3.885      2.081      2.356
REMARK INTER + INTRA:          -3.999
REMARK INTER:                  -3.999
REMARK INTRA:                   0.000
REMARK UNBOUND:                 0.000
REMARK SMILES Nc1ncnc2nc[nH]c12
REMARK SMILES IDX 8 1 7 2 6 3 5 4 4 5 3 6 2 7 10 8 9 9 1 11
REMARK H PARENT 9 10 1 12 1 13
REMARK Flexibility Score: inf
ROOT
ATOM      1  C   UNL     1     -46.241 -14.629  -3.138  1.00  0.00     0.199 A 
ATOM      2  N   UNL     1     -46.105 -13.875  -2.013  1.00  0.00    -0.217 NA
ATOM      3  C   UNL     1     -44.908 -14.270  -1.547  1.00  0.00     0.182 A 
ATOM      4  N   UNL     1     -44.288 -13.823  -0.430  1.00  0.00    -0.215 NA
ATOM      5  C   UNL     1     -43.065 -14.348  -0.116  1.00  0.00     0.226 A 
ATOM      6  N   UNL     1     -42.491 -15.302  -0.918  1.00  0.00    -0.217 NA
ATOM      7  C   UNL     1     -43.115 -15.755  -2.046  1.00  0.00     0.152 A 
ATOM      8  C   UNL     1     -44.359 -15.210  -2.351  1.00  0.00     0.127 A 
ATOM      9  N   UNL     1     -45.190 -15.455  -3.372  1.00  0.00    -0.340 N 
ATOM     10  H   UNL     1     -45.070 -16.122  -4.166  1.00  0.00     0.168 HD
ENDROOT
BRANCH   7  11
ATOM     11  N   UNL     1     -42.497 -16.748  -2.866  1.00  0.00    -0.382 N 
ATOM     12  H   UNL     1     -42.421 -16.629  -3.900  1.00  0.00     0.158 HD
ATOM     13  H   UNL     1     -42.110 -17.615  -2.433  1.00  0.00     0.158 HD
ENDBRANCH   7  11
TORSDOF 1
ENDMDL
MODEL 9
REMARK VINA RESULT:    -3.867      2.729      3.963
REMARK INTER + INTRA:          -3.980
REMARK INTER:                  -3.980
REMARK INTRA:                   0.000
REMARK UNBOUND:                 0.000
REMARK SMILES Nc1ncnc2nc[nH]c12
REMARK SMILES IDX 8 1 7 2 6 3 5 4 4 5 3 6 2 7 10 8 9 9 1 11
REMARK H PARENT 9 10 1 12 1 13
REMARK Flexibility Score: inf
ROOT
ATOM      1  C   UNL     1     -46.273 -14.625  -3.214  1.00  0.00     0.199 A 
ATOM      2  N   UNL     1     -44.984 -14.248  -3.438  1.00  0.00    -0.217 NA
ATOM      3  C   UNL     1     -44.540 -13.995  -2.196  1.00  0.00     0.182 A 
ATOM      4  N   UNL     1     -43.298 -13.580  -1.851  1.00  0.00    -0.215 NA
ATOM      5  C   UNL     1     -43.031 -13.374  -0.525  1.00  0.00     0.226 A 
ATOM      6  N   UNL     1     -44.002 -13.586   0.421  1.00  0.00    -0.217 NA
ATOM      7  C   UNL     1     -45.256 -14.006   0.074  1.00  0.00     0.152 A 
ATOM      8  C   UNL     1     -45.511 -14.210  -1.279  1.00  0.00     0.127 A 
ATOM      9  N   UNL     1     -46.625 -14.612  -1.904  1.00  0.00    -0.340 N 
ATOM     10  H   UNL     1     -47.551 -14.860  -1.492  1.00  0.00     0.168 HD
ENDROOT
BRANCH   7  11
ATOM     11  N   UNL     1     -46.250 -14.220   1.077  1.00  0.00    -0.382 N 
ATOM     12  H   UNL     1     -46.080 -13.963   2.075  1.00  0.00     0.158 HD
ATOM     13  H   UNL     1     -47.170 -14.640   0.820  1.00  0.00     0.158 HD
ENDBRANCH   7  11
TORSDOF 1
ENDMDL
