MODEL 1
REMARK VINA RESULT:    -2.804      0.000      0.000
REMARK INTER + INTRA:          -3.150
REMARK INTER:                  -3.131
REMARK INTRA:                  -0.019
REMARK UNBOUND:                -0.019
REMARK SMILES CCCC(=O)[O-]
REMARK SMILES IDX 3 1 4 2 5 3 6 4 2 5 1 6
REMARK H PARENT
REMARK Flexibility Score: inf
ROOT
ATOM      1  C   UNL     1      28.698  30.407 -13.109  1.00  0.00     0.052 C 
ENDROOT
BRANCH   1   2
ATOM      2  C   UNL     1      27.386  30.519 -13.820  1.00  0.00     0.041 C 
ATOM      3  O   UNL     1      27.307  30.251 -15.048  1.00  0.00    -0.550 OA
ATOM      4  O   UNL     1      26.261  30.964 -13.139  1.00  0.00    -0.550 OA
ENDBRANCH   1   2
BRANCH   1   5
ATOM      5  C   UNL     1      28.521  29.688 -11.769  1.00  0.00     0.003 C 
ATOM      6  C   UNL     1      28.594  30.668 -10.603  1.00  0.00     0.004 C 
ENDBRANCH   1   5
TORSDOF 2
ENDMDL
MODEL 2
REMARK VINA RESULT:    -2.788      2.717      3.808
REMARK INTER + INTRA:          -3.133
REMARK INTER:                  -3.094
REMARK INTRA:                  -0.038
REMARK UNBOUND:                -0.019
REMARK SMILES CCCC(=O)[O-]
REMARK SMILES IDX 3 1 4 2 5 3 6 4 2 5 1 6
REMARK H PARENT
REMARK Flexibility Score: inf
ROOT
ATOM      1  C   UNL     1      28.140  30.444 -10.517  1.00  0.00     0.052 C 
ENDROOT
BRANCH   1   2
ATOM      2  C   UNL     1      27.526  29.225  -9.904  1.00  0.00     0.041 C 
ATOM      3  O   UNL     1      27.436  29.122  -8.652  1.00  0.00    -0.550 OA
ATOM      4  O   UNL     1      27.096  28.181 -10.712  1.00  0.00    -0.550 OA
ENDBRANCH   1   2
BRANCH   1   5
ATOM      5  C   UNL     1      29.320  30.055 -11.412  1.00  0.00     0.003 C 
ATOM      6  C   UNL     1      29.001  30.302 -12.883  1.00  0.00     0.004 C 
ENDBRANCH   1   5
TORSDOF 2
ENDMDL
MODEL 3
REMARK VINA RESULT:    -2.775      2.492      3.415
REMARK INTER + INTRA:          -3.118
REMARK INTER:                  -3.092
REMARK INTRA:                  -0.026
REMARK UNBOUND:                -0.019
REMARK SMILES CCCC(=O)[O-]
REMARK SMILES IDX 3 1 4 2 5 3 6 4 2 5 1 6
REMARK H PARENT
REMARK Flexibility Score: inf
ROOT
ATOM      1  C   UNL     1      28.211  29.282 -12.210  1.00  0.00     0.052 C 
ENDROOT
BRANCH   1   2
ATOM      2  C   UNL     1      28.252  29.799 -10.806  1.00  0.00     0.041 C 
ATOM      3  O   UNL     1      28.769  30.921 -10.559  1.00  0.00    -0.550 OA
ATOM      4  O   UNL     1      27.764  29.023  -9.764  1.00  0.00    -0.550 OA
ENDBRANCH   1   2
BRANCH   1   5
ATOM      5  C   UNL     1      28.542  30.401 -13.201  1.00  0.00     0.003 C 
ATOM      6  C   UNL     1      27.441  30.557 -14.245  1.00  0.00     0.004 C 
ENDBRANCH   1   5
TORSDOF 2
ENDMDL
MODEL 4
REMARK VINA RESULT:    -2.769      0.114      1.327
REMARK INTER + INTRA:          -3.111
REMARK INTER:                  -3.100
REMARK INTRA:                  -0.012
REMARK UNBOUND:                -0.019
REMARK SMILES CCCC(=O)[O-]
REMARK SMILES IDX 3 1 4 2 5 3 6 4 2 5 1 6
REMARK H PARENT
REMARK Flexibility Score: inf
ROOT
ATOM      1  C   UNL     1      28.639  30.423 -13.008  1.00  0.00     0.052 C 
ENDROOT
BRANCH   1   2
ATOM      2  C   UNL     1      27.352  30.549 -13.760  1.00  0.00     0.041 C 
ATOM      3  O   UNL     1      26.307  30.930 -13.168  1.00  0.00    -0.550 OA
ATOM      4  O   UNL     1      27.293  30.200 -15.102  1.00  0.00    -0.550 OA
ENDBRANCH   1   2
BRANCH   1   5
ATOM      5  C   UNL     1      28.412  29.702 -11.676  1.00  0.00     0.003 C 
ATOM      6  C   UNL     1      28.460  30.679 -10.505  1.00  0.00     0.004 C 
ENDBRANCH   1   5
TORSDOF 2
ENDMDL
MODEL 5
REMARK VINA RESULT:    -2.547      1.561      1.812
REMARK INTER + INTRA:          -2.863
REMARK INTER:                  -2.841
REMARK INTRA:                  -0.022
REMARK UNBOUND:                -0.019
REMARK SMILES CCCC(=O)[O-]
REMARK SMILES IDX 3 1 4 2 5 3 6 4 2 5 1 6
REMARK H PARENT
REMARK Flexibility Score: inf
ROOT
ATOM      1  C   UNL     1      27.226  30.508 -14.031  1.00  0.00     0.052 C 
ENDROOT
BRANCH   1   2
ATOM      2  C   UNL     1      25.950  31.233 -13.740  1.00  0.00     0.041 C 
ATOM      3  O   UNL     1      25.414  31.952 -14.624  1.00  0.00    -0.550 OA
ATOM      4  O   UNL     1      25.378  31.154 -12.478  1.00  0.00    -0.550 OA
ENDBRANCH   1   2
BRANCH   1   5
ATOM      5  C   UNL     1      27.763  29.839 -12.763  1.00  0.00     0.003 C 
ATOM      6  C   UNL     1      29.249  30.128 -12.574  1.00  0.00     0.004 C 
ENDBRANCH   1   5
TORSDOF 2
ENDMDL
MODEL 6
REMARK VINA RESULT:    -2.539      2.095      3.537
REMARK INTER + INTRA:          -2.854
REMARK INTER:                  -2.843
REMARK INTRA:                  -0.011
REMARK UNBOUND:                -0.019
REMARK SMILES CCCC(=O)[O-]
REMARK SMILES IDX 3 1 4 2 5 3 6 4 2 5 1 6
REMARK H PARENT
REMARK Flexibility Score: inf
ROOT
ATOM      1  C   UNL     1      26.584  30.910 -14.303  1.00  0.00     0.052 C 
ENDROOT
BRANCH   1   2
ATOM      2  C   UNL     1      27.497  30.477 -13.200  1.00  0.00     0.041 C 
ATOM      3  O   UNL     1      27.027  30.161 -12.075  1.00  0.00    -0.550 OA
ATOM      4  O   UNL     1      28.872  30.470 -13.397  1.00  0.00    -0.550 OA
ENDBRANCH   1   2
BRANCH   1   5
ATOM      5  C   UNL     1      25.344  31.601 -13.729  1.00  0.00     0.003 C 
ATOM      6  C   UNL     1      24.825  32.677 -14.678  1.00  0.00     0.004 C 
ENDBRANCH   1   5
TORSDOF 2
ENDMDL
MODEL 7
REMARK VINA RESULT:    -2.443      2.393      2.925
REMARK INTER + INTRA:          -2.747
REMARK INTER:                  -2.687
REMARK INTRA:                  -0.060
REMARK UNBOUND:                -0.019
REMARK SMILES CCCC(=O)[O-]
REMARK SMILES IDX 3 1 4 2 5 3 6 4 2 5 1 6
REMARK H PARENT
REMARK Flexibility Score: inf
ROOT
ATOM      1  C   UNL     1      27.563  29.059 -11.827  1.00  0.00     0.052 C 
ENDROOT
BRANCH   1   2
ATOM      2  C   UNL     1      28.782  29.875 -12.120  1.00  0.00     0.041 C 
ATOM      3  O   UNL     1      29.661  30.043 -11.234  1.00  0.00    -0.550 OA
ATOM      4  O   UNL     1      28.926  30.491 -13.356  1.00  0.00    -0.550 OA
ENDBRANCH   1   2
BRANCH   1   5
ATOM      5  C   UNL     1      26.320  29.717 -12.433  1.00  0.00     0.003 C 
ATOM      6  C   UNL     1      25.845  30.889 -11.580  1.00  0.00     0.004 C 
ENDBRANCH   1   5
TORSDOF 2
ENDMDL
MODEL 8
REMARK VINA RESULT:    -2.422      2.906      4.506
REMARK INTER + INTRA:          -2.724
REMARK INTER:                  -2.685
REMARK INTRA:                  -0.039
REMARK UNBOUND:                -0.019
REMARK SMILES CCCC(=O)[O-]
REMARK SMILES IDX 3 1 4 2 5 3 6 4 2 5 1 6
REMARK H PARENT
REMARK Flexibility Score: inf
ROOT
ATOM      1  C   UNL     1      24.701  32.289 -13.413  1.00  0.00     0.052 C 
ENDROOT
BRANCH   1   2
ATOM      2  C   UNL     1      25.757  31.243 -13.240  1.00  0.00     0.041 C 
ATOM      3  O   UNL     1      25.840  30.599 -12.160  1.00  0.00    -0.550 OA
ATOM      4  O   UNL     1      26.681  31.012 -14.250  1.00  0.00    -0.550 OA
ENDBRANCH   1   2
BRANCH   1   5
ATOM      5  C   UNL     1      24.724  32.840 -14.841  1.00  0.00     0.003 C 
ATOM      6  C   UNL     1      23.631  32.204 -15.694  1.00  0.00     0.004 C 
ENDBRANCH   1   5
TORSDOF 2
ENDMDL
MODEL 9
REMARK VINA RESULT:    -2.413      2.046      2.811
REMARK INTER + INTRA:          -2.714
REMARK INTER:                  -2.676
REMARK INTRA:                  -0.038
REMARK UNBOUND:                -0.019
REMARK SMILES CCCC(=O)[O-]
REMARK SMILES IDX 3 1 4 2 5 3 6 4 2 5 1 6
REMARK H PARENT
REMARK Flexibility Score: inf
ROOT
ATOM      1  C   UNL     1      26.660  30.458 -12.431  1.00  0.00     0.052 C 
ENDROOT
BRANCH   1   2
ATOM      2  C   UNL     1      27.698  30.461 -13.508  1.00  0.00     0.041 C 
ATOM      3  O   UNL     1      27.354  30.445 -14.720  1.00  0.00    -0.550 OA
ATOM      4  O   UNL     1      29.046  30.433 -13.176  1.00  0.00    -0.550 OA
ENDBRANCH   1   2
BRANCH   1   5
ATOM      5  C   UNL     1      25.267  30.674 -13.030  1.00  0.00     0.003 C 
ATOM      6  C   UNL     1      24.744  32.072 -12.716  1.00  0.00     0.004 C 
ENDBRANCH   1   5
TORSDOF 2
ENDMDL
