MODEL 1
REMARK VINA RESULT:    -4.104      0.000      0.000
REMARK INTER + INTRA:          -4.693
REMARK INTER:                  -4.464
REMARK INTRA:                  -0.229
REMARK UNBOUND:                -0.229
REMARK SMILES O=C([O-])c1ccccc1O
REMARK SMILES IDX 4 1 9 2 5 3 8 4 6 5 7 6 2 7 1 8 3 9 10 10
REMARK H PARENT 10 11
REMARK Flexibility Score: inf
ROOT
ATOM      1  C   UNL     1      -2.919  32.097  15.008  1.00  0.00     0.039 A 
ATOM      2  C   UNL     1      -2.273  30.951  14.485  1.00  0.00     0.124 A 
ATOM      3  C   UNL     1      -2.159  33.031  15.737  1.00  0.00     0.014 A 
ATOM      4  C   UNL     1      -0.898  30.766  14.697  1.00  0.00     0.047 A 
ATOM      5  C   UNL     1      -0.791  32.835  15.941  1.00  0.00     0.001 A 
ATOM      6  C   UNL     1      -0.161  31.703  15.423  1.00  0.00     0.004 A 
ENDROOT
BRANCH   1   7
ATOM      7  C   UNL     1      -4.371  32.339  14.810  1.00  0.00     0.075 C 
ATOM      8  O   UNL     1      -5.050  32.962  15.668  1.00  0.00    -0.545 OA
ATOM      9  O   UNL     1      -5.007  31.878  13.662  1.00  0.00    -0.545 OA
ENDBRANCH   1   7
BRANCH   2  10
ATOM     10  O   UNL     1      -2.986  29.999  13.757  1.00  0.00    -0.507 OA
ATOM     11  H   UNL     1      -3.350  29.159  14.192  1.00  0.00     0.293 HD
ENDBRANCH   2  10
TORSDOF 2
ENDMDL
MODEL 2
REMARK VINA RESULT:    -4.067      4.918      5.831
REMARK INTER + INTRA:          -4.652
REMARK INTER:                  -4.414
REMARK INTRA:                  -0.238
REMARK UNBOUND:                -0.229
REMARK SMILES O=C([O-])c1ccccc1O
REMARK SMILES IDX 4 1 9 2 5 3 8 4 6 5 7 6 2 7 1 8 3 9 10 10
REMARK H PARENT 10 11
REMARK Flexibility Score: inf
ROOT
ATOM      1  C   UNL     1       2.545  33.532  15.349  1.00  0.00     0.039 A 
ATOM      2  C   UNL     1       2.949  33.138  14.050  1.00  0.00     0.124 A 
ATOM      3  C   UNL     1       3.287  33.082  16.457  1.00  0.00     0.014 A 
ATOM      4  C   UNL     1       4.072  32.312  13.888  1.00  0.00     0.047 A 
ATOM      5  C   UNL     1       4.403  32.260  16.282  1.00  0.00     0.001 A 
ATOM      6  C   UNL     1       4.795  31.875  14.999  1.00  0.00     0.004 A 
ENDROOT
BRANCH   1   7
ATOM      7  C   UNL     1       1.364  34.406  15.573  1.00  0.00     0.075 C 
ATOM      8  O   UNL     1       1.296  35.552  15.057  1.00  0.00    -0.545 OA
ATOM      9  O   UNL     1       0.307  33.964  16.362  1.00  0.00    -0.545 OA
ENDBRANCH   1   7
BRANCH   2  10
ATOM     10  O   UNL     1       2.243  33.561  12.924  1.00  0.00    -0.507 OA
ATOM     11  H   UNL     1       1.248  33.749  12.959  1.00  0.00     0.293 HD
ENDBRANCH   2  10
TORSDOF 2
ENDMDL
MODEL 3
REMARK VINA RESULT:    -3.892      0.960      2.152
REMARK INTER + INTRA:          -4.463
REMARK INTER:                  -4.232
REMARK INTRA:                  -0.231
REMARK UNBOUND:                -0.229
REMARK SMILES O=C([O-])c1ccccc1O
REMARK SMILES IDX 4 1 9 2 5 3 8 4 6 5 7 6 2 7 1 8 3 9 10 10
REMARK H PARENT 10 11
REMARK Flexibility Score: inf
ROOT
ATOM      1  C   UNL     1      -2.928  31.927  14.933  1.00  0.00     0.039 A 
ATOM      2  C   UNL     1      -2.019  32.779  15.604  1.00  0.00     0.124 A 
ATOM      3  C   UNL     1      -2.463  30.695  14.436  1.00  0.00     0.014 A 
ATOM      4  C   UNL     1      -0.680  32.388  15.763  1.00  0.00     0.047 A 
ATOM      5  C   UNL     1      -1.128  30.317  14.600  1.00  0.00     0.001 A 
ATOM      6  C   UNL     1      -0.238  31.163  15.262  1.00  0.00     0.004 A 
ENDROOT
BRANCH   1   7
ATOM      7  C   UNL     1      -4.355  32.295  14.740  1.00  0.00     0.075 C 
ATOM      8  O   UNL     1      -4.966  32.996  15.590  1.00  0.00    -0.545 OA
ATOM      9  O   UNL     1      -5.041  31.870  13.608  1.00  0.00    -0.545 OA
ENDBRANCH   1   7
BRANCH   2  10
ATOM     10  O   UNL     1      -2.436  34.010  16.113  1.00  0.00    -0.507 OA
ATOM     11  H   UNL     1      -3.053  34.073  16.914  1.00  0.00     0.293 HD
ENDBRANCH   2  10
TORSDOF 2
ENDMDL
MODEL 4
REMARK VINA RESULT:    -3.891      4.424      5.360
REMARK INTER + INTRA:          -4.461
REMARK INTER:                  -4.229
REMARK INTRA:                  -0.232
REMARK UNBOUND:                -0.229
REMARK SMILES O=C([O-])c1ccccc1O
REMARK SMILES IDX 4 1 9 2 5 3 8 4 6 5 7 6 2 7 1 8 3 9 10 10
REMARK H PARENT 10 11
REMARK Flexibility Score: inf
ROOT
ATOM      1  C   UNL     1       1.708  32.266  14.762  1.00  0.00     0.039 A 
ATOM      2  C   UNL     1       1.883  30.931  14.323  1.00  0.00     0.124 A 
ATOM      3  C   UNL     1       0.547  32.596  15.485  1.00  0.00     0.014 A 
ATOM      4  C   UNL     1       0.906  29.966  14.613  1.00  0.00     0.047 A 
ATOM      5  C   UNL     1      -0.419  31.626  15.767  1.00  0.00     0.001 A 
ATOM      6  C   UNL     1      -0.240  30.314  15.331  1.00  0.00     0.004 A 
ENDROOT
BRANCH   1   7
ATOM      7  C   UNL     1       2.714  33.323  14.481  1.00  0.00     0.075 C 
ATOM      8  O   UNL     1       2.407  34.354  13.828  1.00  0.00    -0.545 OA
ATOM      9  O   UNL     1       4.019  33.187  14.942  1.00  0.00    -0.545 OA
ENDBRANCH   1   7
BRANCH   2  10
ATOM     10  O   UNL     1       3.018  30.559  13.603  1.00  0.00    -0.507 OA
ATOM     11  H   UNL     1       2.953  30.176  12.667  1.00  0.00     0.293 HD
ENDBRANCH   2  10
TORSDOF 2
ENDMDL
MODEL 5
REMARK VINA RESULT:    -3.852      4.647      5.399
REMARK INTER + INTRA:          -4.419
REMARK INTER:                  -4.180
REMARK INTRA:                  -0.239
REMARK UNBOUND:                -0.229
REMARK SMILES O=C([O-])c1ccccc1O
REMARK SMILES IDX 4 1 9 2 5 3 8 4 6 5 7 6 2 7 1 8 3 9 10 10
REMARK H PARENT 10 11
REMARK Flexibility Score: inf
ROOT
ATOM      1  C   UNL     1       1.876  33.192  15.333  1.00  0.00     0.039 A 
ATOM      2  C   UNL     1       2.554  33.160  14.090  1.00  0.00     0.124 A 
ATOM      3  C   UNL     1       1.949  32.067  16.175  1.00  0.00     0.014 A 
ATOM      4  C   UNL     1       3.282  32.018  13.720  1.00  0.00     0.047 A 
ATOM      5  C   UNL     1       2.677  30.937  15.796  1.00  0.00     0.001 A 
ATOM      6  C   UNL     1       3.342  30.912  14.570  1.00  0.00     0.004 A 
ENDROOT
BRANCH   1   7
ATOM      7  C   UNL     1       1.094  34.377  15.769  1.00  0.00     0.075 C 
ATOM      8  O   UNL     1       0.046  34.248  16.456  1.00  0.00    -0.545 OA
ATOM      9  O   UNL     1       1.512  35.658  15.423  1.00  0.00    -0.545 OA
ENDBRANCH   1   7
BRANCH   2  10
ATOM     10  O   UNL     1       2.509  34.251  13.222  1.00  0.00    -0.507 OA
ATOM     11  H   UNL     1       2.627  34.142  12.222  1.00  0.00     0.293 HD
ENDBRANCH   2  10
TORSDOF 2
ENDMDL
MODEL 6
REMARK VINA RESULT:    -3.784      4.181      5.606
REMARK INTER + INTRA:          -4.345
REMARK INTER:                  -4.098
REMARK INTRA:                  -0.246
REMARK UNBOUND:                -0.229
REMARK SMILES O=C([O-])c1ccccc1O
REMARK SMILES IDX 4 1 9 2 5 3 8 4 6 5 7 6 2 7 1 8 3 9 10 10
REMARK H PARENT 10 11
REMARK Flexibility Score: inf
ROOT
ATOM      1  C   UNL     1       1.820  32.252  14.387  1.00  0.00     0.039 A 
ATOM      2  C   UNL     1       0.777  32.731  15.216  1.00  0.00     0.124 A 
ATOM      3  C   UNL     1       1.862  30.880  14.073  1.00  0.00     0.014 A 
ATOM      4  C   UNL     1      -0.190  31.841  15.708  1.00  0.00     0.047 A 
ATOM      5  C   UNL     1       0.893  30.004  14.570  1.00  0.00     0.001 A 
ATOM      6  C   UNL     1      -0.131  30.484  15.386  1.00  0.00     0.004 A 
ENDROOT
BRANCH   1   7
ATOM      7  C   UNL     1       2.867  33.153  13.841  1.00  0.00     0.075 C 
ATOM      8  O   UNL     1       2.575  34.298  13.404  1.00  0.00    -0.545 OA
ATOM      9  O   UNL     1       4.195  32.743  13.806  1.00  0.00    -0.545 OA
ENDBRANCH   1   7
BRANCH   2  10
ATOM     10  O   UNL     1       0.697  34.082  15.553  1.00  0.00    -0.507 OA
ATOM     11  H   UNL     1       1.498  34.591  15.908  1.00  0.00     0.293 HD
ENDBRANCH   2  10
TORSDOF 2
ENDMDL
MODEL 7
REMARK VINA RESULT:    -3.752     16.608     18.017
REMARK INTER + INTRA:          -4.310
REMARK INTER:                  -4.065
REMARK INTRA:                  -0.246
REMARK UNBOUND:                -0.229
REMARK SMILES O=C([O-])c1ccccc1O
REMARK SMILES IDX 4 1 9 2 5 3 8 4 6 5 7 6 2 7 1 8 3 9 10 10
REMARK H PARENT 10 11
REMARK Flexibility Score: inf
ROOT
ATOM      1  C   UNL     1       7.328  28.849   0.441  1.00  0.00     0.039 A 
ATOM      2  C   UNL     1       6.319  29.534   1.161  1.00  0.00     0.124 A 
ATOM      3  C   UNL     1       7.188  28.703  -0.952  1.00  0.00     0.014 A 
ATOM      4  C   UNL     1       5.205  30.052   0.482  1.00  0.00     0.047 A 
ATOM      5  C   UNL     1       6.074  29.224  -1.616  1.00  0.00     0.001 A 
ATOM      6  C   UNL     1       5.084  29.896  -0.900  1.00  0.00     0.004 A 
ENDROOT
BRANCH   1   7
ATOM      7  C   UNL     1       8.526  28.284   1.114  1.00  0.00     0.075 C 
ATOM      8  O   UNL     1       9.688  28.599   0.746  1.00  0.00    -0.545 OA
ATOM      9  O   UNL     1       8.379  27.391   2.171  1.00  0.00    -0.545 OA
ENDBRANCH   1   7
BRANCH   2  10
ATOM     10  O   UNL     1       6.416  29.702   2.543  1.00  0.00    -0.507 OA
ATOM     11  H   UNL     1       5.964  30.474   3.018  1.00  0.00     0.293 HD
ENDBRANCH   2  10
TORSDOF 2
ENDMDL
MODEL 8
REMARK VINA RESULT:    -3.695     16.981     18.370
REMARK INTER + INTRA:          -4.248
REMARK INTER:                  -4.014
REMARK INTRA:                  -0.234
REMARK UNBOUND:                -0.229
REMARK SMILES O=C([O-])c1ccccc1O
REMARK SMILES IDX 4 1 9 2 5 3 8 4 6 5 7 6 2 7 1 8 3 9 10 10
REMARK H PARENT 10 11
REMARK Flexibility Score: inf
ROOT
ATOM      1  C   UNL     1       7.335  28.683  -0.099  1.00  0.00     0.039 A 
ATOM      2  C   UNL     1       6.880  29.061   1.187  1.00  0.00     0.124 A 
ATOM      3  C   UNL     1       6.565  29.039  -1.223  1.00  0.00     0.014 A 
ATOM      4  C   UNL     1       5.681  29.779   1.322  1.00  0.00     0.047 A 
ATOM      5  C   UNL     1       5.374  29.753  -1.075  1.00  0.00     0.001 A 
ATOM      6  C   UNL     1       4.932  30.122   0.196  1.00  0.00     0.004 A 
ENDROOT
BRANCH   1   7
ATOM      7  C   UNL     1       8.597  27.924  -0.294  1.00  0.00     0.075 C 
ATOM      8  O   UNL     1       9.703  28.395   0.079  1.00  0.00    -0.545 OA
ATOM      9  O   UNL     1       8.573  26.670  -0.895  1.00  0.00    -0.545 OA
ENDBRANCH   1   7
BRANCH   2  10
ATOM     10  O   UNL     1       7.610  28.729   2.329  1.00  0.00    -0.507 OA
ATOM     11  H   UNL     1       8.618  28.634   2.307  1.00  0.00     0.293 HD
ENDBRANCH   2  10
TORSDOF 2
ENDMDL
MODEL 9
REMARK VINA RESULT:    -3.692      2.276      4.178
REMARK INTER + INTRA:          -4.245
REMARK INTER:                  -3.990
REMARK INTRA:                  -0.255
REMARK UNBOUND:                -0.229
REMARK SMILES O=C([O-])c1ccccc1O
REMARK SMILES IDX 4 1 9 2 5 3 8 4 6 5 7 6 2 7 1 8 3 9 10 10
REMARK H PARENT 10 11
REMARK Flexibility Score: inf
ROOT
ATOM      1  C   UNL     1      -1.682  31.636  14.855  1.00  0.00     0.039 A 
ATOM      2  C   UNL     1      -2.433  32.764  15.263  1.00  0.00     0.124 A 
ATOM      3  C   UNL     1      -2.360  30.535  14.297  1.00  0.00     0.014 A 
ATOM      4  C   UNL     1      -3.828  32.770  15.107  1.00  0.00     0.047 A 
ATOM      5  C   UNL     1      -3.749  30.553  14.148  1.00  0.00     0.001 A 
ATOM      6  C   UNL     1      -4.482  31.669  14.553  1.00  0.00     0.004 A 
ENDROOT
BRANCH   1   7
ATOM      7  C   UNL     1      -0.205  31.581  14.998  1.00  0.00     0.075 C 
ATOM      8  O   UNL     1       0.526  31.191  14.050  1.00  0.00    -0.545 OA
ATOM      9  O   UNL     1       0.397  31.967  16.191  1.00  0.00    -0.545 OA
ENDBRANCH   1   7
BRANCH   2  10
ATOM     10  O   UNL     1      -1.803  33.877  15.821  1.00  0.00    -0.507 OA
ATOM     11  H   UNL     1      -2.313  34.556  16.374  1.00  0.00     0.293 HD
ENDBRANCH   2  10
TORSDOF 2
ENDMDL
