MODEL 1
REMARK VINA RESULT:    46.709      0.000      0.000
REMARK INTER + INTRA:          65.305
REMARK INTER:                  64.458
REMARK INTRA:                   0.847
REMARK UNBOUND:                 0.847
REMARK SMILES C[C@@H]1OC(=O)[C@H](C)[C@H]1C[C@@H](O)[C@](C)(O)[C@@H]1CC[C@@]2(O)C3=CC(=O)[C@@H]4C[C@H](O)[C@@H](O)C[C@]4(C)[C@H]3CC[C@]12C
REMARK SMILES IDX 12 1 13 2 10 3 9 4 8 5 7 6 6 7 4 8 2 9 3 10 5 11 1 12 11 13
REMARK SMILES IDX 15 15 16 16 36 17 17 18 18 19 35 20 37 21 20 22 34 23 33 24
REMARK SMILES IDX 21 25 31 26 22 27 24 28 30 29 32 30 23 31 25 32 28 33 26 34
REMARK SMILES IDX 19 35 29 37 27 39 14 41
REMARK H PARENT 11 14 19 36 29 38 27 40 14 42
REMARK Flexibility Score: inf
ROOT
ATOM      1  C   UNL     1      42.548  36.846  42.435  1.00  0.00     0.091 C 
ATOM      2  C   UNL     1      43.652  37.198  43.480  1.00  0.00     0.045 C 
ENDROOT
BRANCH   1   3
ATOM      3  C   UNL     1      42.230  35.281  42.412  1.00  0.00     0.146 C 
BRANCH   3   4
ATOM      4  C   UNL     1      41.464  34.668  43.623  1.00  0.00     0.043 C 
BRANCH   4   5
ATOM      5  C   UNL     1      39.917  34.778  43.533  1.00  0.00     0.046 C 
ATOM      6  C   UNL     1      38.312  36.702  44.075  1.00  0.00     0.020 C 
ATOM      7  C   UNL     1      39.340  35.713  44.635  1.00  0.00     0.103 C 
ATOM      8  C   UNL     1      38.678  34.758  45.551  1.00  0.00     0.309 C 
ATOM      9  C   UNL     1      39.255  33.385  43.785  1.00  0.00     0.177 C 
ATOM     10  O   UNL     1      38.638  33.475  45.058  1.00  0.00    -0.462 OA
ATOM     11  O   UNL     1      38.194  35.071  46.671  1.00  0.00    -0.252 OA
ATOM     12  C   UNL     1      38.201  33.053  42.729  1.00  0.00     0.053 C 
ENDBRANCH   4   5
ENDBRANCH   3   4
BRANCH   3  13
ATOM     13  O   UNL     1      41.520  34.961  41.240  1.00  0.00    -0.390 OA
ATOM     14  H   UNL     1      41.054  34.097  41.398  1.00  0.00     0.211 HD
ENDBRANCH   3  13
ENDBRANCH   1   3
BRANCH   1  15
ATOM     15  C   UNL     1      42.982  37.318  40.988  1.00  0.00     0.032 C 
ATOM     16  C   UNL     1      43.856  36.285  40.206  1.00  0.00     0.010 C 
ATOM     17  C   UNL     1      43.774  38.689  40.833  1.00  0.00     0.006 C 
ATOM     18  C   UNL     1      44.994  37.060  39.537  1.00  0.00     0.041 C 
ATOM     19  C   UNL     1      45.219  38.213  40.514  1.00  0.00     0.092 C 
ATOM     20  C   UNL     1      43.866  39.705  42.024  1.00  0.00     0.011 C 
ATOM     21  C   UNL     1      43.110  39.453  39.635  1.00  0.00     0.015 C 
ATOM     22  C   UNL     1      46.049  39.420  40.107  1.00  0.00    -0.031 C 
ATOM     23  C   UNL     1      44.828  40.896  41.721  1.00  0.00     0.009 C 
ATOM     24  C   UNL     1      46.233  40.442  41.224  1.00  0.00     0.025 C 
ATOM     25  C   UNL     1      46.305  39.719  38.825  1.00  0.00     0.050 C 
ATOM     26  C   UNL     1      47.256  41.591  40.861  1.00  0.00    -0.013 C 
ATOM     27  C   UNL     1      46.731  41.061  38.418  1.00  0.00     0.159 C 
ATOM     28  C   UNL     1      46.966  42.161  39.434  1.00  0.00     0.070 C 
ATOM     29  C   UNL     1      48.700  40.982  40.904  1.00  0.00     0.042 C 
ATOM     30  C   UNL     1      47.144  42.723  41.921  1.00  0.00     0.013 C 
ATOM     31  O   UNL     1      46.797  41.319  37.184  1.00  0.00    -0.295 OA
ATOM     32  C   UNL     1      48.085  43.125  38.962  1.00  0.00     0.047 C 
ATOM     33  C   UNL     1      49.827  41.888  40.363  1.00  0.00     0.143 C 
ATOM     34  C   UNL     1      49.485  42.484  38.981  1.00  0.00     0.143 C 
BRANCH  19  35
ATOM     35  O   UNL     1      45.802  37.662  41.678  1.00  0.00    -0.385 OA
ATOM     36  H   UNL     1      45.390  38.108  42.466  1.00  0.00     0.211 HD
ENDBRANCH  19  35
BRANCH  33  37
ATOM     37  O   UNL     1      50.125  42.904  41.285  1.00  0.00    -0.390 OA
ATOM     38  H   UNL     1      50.685  43.572  40.810  1.00  0.00     0.211 HD
ENDBRANCH  33  37
BRANCH  34  39
ATOM     39  O   UNL     1      49.571  41.491  37.991  1.00  0.00    -0.390 OA
ATOM     40  H   UNL     1      49.139  41.857  37.175  1.00  0.00     0.211 HD
ENDBRANCH  34  39
ENDBRANCH   1  15
BRANCH   1  41
ATOM     41  O   UNL     1      41.395  37.575  42.794  1.00  0.00    -0.387 OA
ATOM     42  H   UNL     1      41.558  38.014  43.670  1.00  0.00     0.211 HD
ENDBRANCH   1  41
TORSDOF 9
ENDMDL
