MODEL 1
REMARK VINA RESULT:    -3.292      0.000      0.000
REMARK INTER + INTRA:         -11.583
REMARK INTER:                  -7.526
REMARK INTRA:                  -4.057
REMARK UNBOUND:                -4.057
REMARK SMILES CCCCCCCCCCCCCCCCCCCCCCCC(=O)[O-]
REMARK SMILES IDX 13 1 14 2 15 3 16 4 17 5 18 6 19 7 20 8 21 9 22 10 23 11
REMARK SMILES IDX 24 12 25 13 26 14 12 15 11 16 10 17 9 18 8 19 7 20 6 21 5 22
REMARK SMILES IDX 4 23 3 24 2 25 1 26
REMARK H PARENT
REMARK Flexibility Score: inf
ROOT
ATOM      1  C   UNL     1      58.839  29.133  49.688  1.00  0.00     0.000 C 
ENDROOT
BRANCH   1   2
ATOM      2  C   UNL     1      57.566  29.141  50.552  1.00  0.00     0.000 C 
BRANCH   2   3
ATOM      3  C   UNL     1      57.877  28.985  52.049  1.00  0.00     0.000 C 
BRANCH   3   4
ATOM      4  C   UNL     1      58.962  29.966  52.529  1.00  0.00     0.000 C 
BRANCH   4   5
ATOM      5  C   UNL     1      60.182  29.235  53.127  1.00  0.00     0.000 C 
BRANCH   5   6
ATOM      6  C   UNL     1      61.519  29.648  52.488  1.00  0.00     0.000 C 
BRANCH   6   7
ATOM      7  C   UNL     1      61.460  31.024  51.812  1.00  0.00     0.000 C 
BRANCH   7   8
ATOM      8  C   UNL     1      61.885  30.932  50.342  1.00  0.00     0.000 C 
BRANCH   8   9
ATOM      9  C   UNL     1      63.289  31.511  50.136  1.00  0.00     0.000 C 
BRANCH   9  10
ATOM     10  C   UNL     1      63.367  32.959  50.645  1.00  0.00     0.006 C 
BRANCH  10  11
ATOM     11  C   UNL     1      62.714  33.954  49.676  1.00  0.00     0.053 C 
BRANCH  11  12
ATOM     12  C   UNL     1      62.415  35.264  50.337  1.00  0.00     0.041 C 
ATOM     13  O   UNL     1      63.342  35.937  50.862  1.00  0.00    -0.550 OA
ATOM     14  O   UNL     1      61.116  35.756  50.350  1.00  0.00    -0.550 OA
ENDBRANCH  11  12
ENDBRANCH  10  11
ENDBRANCH   9  10
ENDBRANCH   8   9
ENDBRANCH   7   8
ENDBRANCH   6   7
ENDBRANCH   5   6
ENDBRANCH   4   5
ENDBRANCH   3   4
ENDBRANCH   2   3
ENDBRANCH   1   2
BRANCH   1  15
ATOM     15  C   UNL     1      59.345  27.708  49.415  1.00  0.00     0.000 C 
BRANCH  15  16
ATOM     16  C   UNL     1      60.867  27.578  49.597  1.00  0.00     0.000 C 
BRANCH  16  17
ATOM     17  C   UNL     1      61.241  26.411  50.534  1.00  0.00     0.000 C 
BRANCH  17  18
ATOM     18  C   UNL     1      60.035  25.554  50.957  1.00  0.00    -0.000 C 
BRANCH  18  19
ATOM     19  C   UNL     1      59.688  25.700  52.446  1.00  0.00    -0.000 C 
BRANCH  19  20
ATOM     20  C   UNL     1      58.198  25.440  52.691  1.00  0.00    -0.000 C 
BRANCH  20  21
ATOM     21  C   UNL     1      57.448  25.244  51.365  1.00  0.00    -0.000 C 
BRANCH  21  22
ATOM     22  C   UNL     1      56.010  25.786  51.413  1.00  0.00    -0.000 C 
BRANCH  22  23
ATOM     23  C   UNL     1      55.275  25.633  50.073  1.00  0.00    -0.000 C 
BRANCH  23  24
ATOM     24  C   UNL     1      54.254  26.764  49.877  1.00  0.00    -0.000 C 
BRANCH  24  25
ATOM     25  C   UNL     1      54.250  27.765  51.042  1.00  0.00    -0.003 C 
ATOM     26  C   UNL     1      53.875  29.180  50.602  1.00  0.00     0.004 C 
ENDBRANCH  24  25
ENDBRANCH  23  24
ENDBRANCH  22  23
ENDBRANCH  21  22
ENDBRANCH  20  21
ENDBRANCH  19  20
ENDBRANCH  18  19
ENDBRANCH  17  18
ENDBRANCH  16  17
ENDBRANCH  15  16
ENDBRANCH   1  15
TORSDOF 22
ENDMDL
MODEL 2
REMARK VINA RESULT:    -3.271      1.136      3.959
REMARK INTER + INTRA:         -11.534
REMARK INTER:                  -8.169
REMARK INTRA:                  -3.364
REMARK UNBOUND:                -4.057
REMARK SMILES CCCCCCCCCCCCCCCCCCCCCCCC(=O)[O-]
REMARK SMILES IDX 13 1 14 2 15 3 16 4 17 5 18 6 19 7 20 8 21 9 22 10 23 11
REMARK SMILES IDX 24 12 25 13 26 14 12 15 11 16 10 17 9 18 8 19 7 20 6 21 5 22
REMARK SMILES IDX 4 23 3 24 2 25 1 26
REMARK H PARENT
REMARK Flexibility Score: inf
ROOT
ATOM      1  C   UNL     1      57.428  28.853  50.249  1.00  0.00     0.000 C 
ENDROOT
BRANCH   1   2
ATOM      2  C   UNL     1      58.839  29.232  49.763  1.00  0.00     0.000 C 
BRANCH   2   3
ATOM      3  C   UNL     1      59.595  28.029  49.177  1.00  0.00     0.000 C 
BRANCH   3   4
ATOM      4  C   UNL     1      60.845  27.663  49.998  1.00  0.00     0.000 C 
BRANCH   4   5
ATOM      5  C   UNL     1      61.046  28.608  51.201  1.00  0.00     0.000 C 
BRANCH   5   6
ATOM      6  C   UNL     1      62.523  28.926  51.493  1.00  0.00     0.000 C 
BRANCH   6   7
ATOM      7  C   UNL     1      62.814  30.432  51.543  1.00  0.00     0.000 C 
BRANCH   7   8
ATOM      8  C   UNL     1      62.051  31.176  50.441  1.00  0.00     0.000 C 
BRANCH   8   9
ATOM      9  C   UNL     1      63.015  31.796  49.424  1.00  0.00     0.000 C 
BRANCH   9  10
ATOM     10  C   UNL     1      62.549  33.200  49.011  1.00  0.00     0.006 C 
BRANCH  10  11
ATOM     11  C   UNL     1      63.116  34.296  49.923  1.00  0.00     0.053 C 
BRANCH  11  12
ATOM     12  C   UNL     1      62.044  34.967  50.726  1.00  0.00     0.041 C 
ATOM     13  O   UNL     1      61.944  34.746  51.962  1.00  0.00    -0.550 OA
ATOM     14  O   UNL     1      61.171  35.859  50.114  1.00  0.00    -0.550 OA
ENDBRANCH  11  12
ENDBRANCH  10  11
ENDBRANCH   9  10
ENDBRANCH   8   9
ENDBRANCH   7   8
ENDBRANCH   6   7
ENDBRANCH   5   6
ENDBRANCH   4   5
ENDBRANCH   3   4
ENDBRANCH   2   3
ENDBRANCH   1   2
BRANCH   1  15
ATOM     15  C   UNL     1      57.114  29.448  51.631  1.00  0.00     0.000 C 
BRANCH  15  16
ATOM     16  C   UNL     1      55.612  29.412  51.960  1.00  0.00     0.000 C 
BRANCH  16  17
ATOM     17  C   UNL     1      54.746  29.861  50.765  1.00  0.00     0.000 C 
BRANCH  17  18
ATOM     18  C   UNL     1      53.709  28.811  50.330  1.00  0.00    -0.000 C 
BRANCH  18  19
ATOM     19  C   UNL     1      53.958  27.429  50.951  1.00  0.00    -0.000 C 
BRANCH  19  20
ATOM     20  C   UNL     1      54.298  26.394  49.873  1.00  0.00    -0.000 C 
BRANCH  20  21
ATOM     21  C   UNL     1      55.538  25.577  50.266  1.00  0.00    -0.000 C 
BRANCH  21  22
ATOM     22  C   UNL     1      55.809  25.606  51.779  1.00  0.00    -0.000 C 
BRANCH  22  23
ATOM     23  C   UNL     1      57.301  25.761  52.110  1.00  0.00    -0.000 C 
BRANCH  23  24
ATOM     24  C   UNL     1      58.174  25.185  50.985  1.00  0.00    -0.000 C 
BRANCH  24  25
ATOM     25  C   UNL     1      59.404  24.433  51.516  1.00  0.00    -0.003 C 
ATOM     26  C   UNL     1      60.319  23.935  50.398  1.00  0.00     0.004 C 
ENDBRANCH  24  25
ENDBRANCH  23  24
ENDBRANCH  22  23
ENDBRANCH  21  22
ENDBRANCH  20  21
ENDBRANCH  19  20
ENDBRANCH  18  19
ENDBRANCH  17  18
ENDBRANCH  16  17
ENDBRANCH  15  16
ENDBRANCH   1  15
TORSDOF 22
ENDMDL
MODEL 3
REMARK VINA RESULT:    -3.197      8.899     12.199
REMARK INTER + INTRA:         -11.365
REMARK INTER:                  -7.189
REMARK INTRA:                  -4.176
REMARK UNBOUND:                -4.057
REMARK SMILES CCCCCCCCCCCCCCCCCCCCCCCC(=O)[O-]
REMARK SMILES IDX 13 1 14 2 15 3 16 4 17 5 18 6 19 7 20 8 21 9 22 10 23 11
REMARK SMILES IDX 24 12 25 13 26 14 12 15 11 16 10 17 9 18 8 19 7 20 6 21 5 22
REMARK SMILES IDX 4 23 3 24 2 25 1 26
REMARK H PARENT
REMARK Flexibility Score: inf
ROOT
ATOM      1  C   UNL     1      60.980  35.067  60.487  1.00  0.00     0.000 C 
ENDROOT
BRANCH   1   2
ATOM      2  C   UNL     1      60.978  34.235  59.192  1.00  0.00     0.000 C 
BRANCH   2   3
ATOM      3  C   UNL     1      60.678  32.751  59.454  1.00  0.00     0.000 C 
BRANCH   3   4
ATOM      4  C   UNL     1      61.201  32.277  60.821  1.00  0.00     0.000 C 
BRANCH   4   5
ATOM      5  C   UNL     1      60.842  30.802  61.101  1.00  0.00     0.000 C 
BRANCH   5   6
ATOM      6  C   UNL     1      61.920  30.049  61.901  1.00  0.00     0.000 C 
BRANCH   6   7
ATOM      7  C   UNL     1      62.273  28.685  61.293  1.00  0.00     0.000 C 
BRANCH   7   8
ATOM      8  C   UNL     1      61.132  28.163  60.413  1.00  0.00     0.000 C 
BRANCH   8   9
ATOM      9  C   UNL     1      60.532  26.877  60.992  1.00  0.00     0.000 C 
BRANCH   9  10
ATOM     10  C   UNL     1      59.041  26.760  60.640  1.00  0.00     0.006 C 
BRANCH  10  11
ATOM     11  C   UNL     1      58.284  28.077  60.858  1.00  0.00     0.053 C 
BRANCH  11  12
ATOM     12  C   UNL     1      56.867  27.845  61.282  1.00  0.00     0.041 C 
ATOM     13  O   UNL     1      56.616  27.207  62.339  1.00  0.00    -0.550 OA
ATOM     14  O   UNL     1      55.821  28.357  60.524  1.00  0.00    -0.550 OA
ENDBRANCH  11  12
ENDBRANCH  10  11
ENDBRANCH   9  10
ENDBRANCH   8   9
ENDBRANCH   7   8
ENDBRANCH   6   7
ENDBRANCH   5   6
ENDBRANCH   4   5
ENDBRANCH   3   4
ENDBRANCH   2   3
ENDBRANCH   1   2
BRANCH   1  15
ATOM     15  C   UNL     1      61.641  36.440  60.291  1.00  0.00     0.000 C 
BRANCH  15  16
ATOM     16  C   UNL     1      62.767  36.702  61.307  1.00  0.00     0.000 C 
BRANCH  16  17
ATOM     17  C   UNL     1      64.131  36.183  60.807  1.00  0.00     0.000 C 
BRANCH  17  18
ATOM     18  C   UNL     1      64.581  34.882  61.495  1.00  0.00    -0.000 C 
BRANCH  18  19
ATOM     19  C   UNL     1      64.498  33.657  60.572  1.00  0.00    -0.000 C 
BRANCH  19  20
ATOM     20  C   UNL     1      64.687  34.058  59.106  1.00  0.00    -0.000 C 
BRANCH  20  21
ATOM     21  C   UNL     1      64.369  32.884  58.168  1.00  0.00    -0.000 C 
BRANCH  21  22
ATOM     22  C   UNL     1      64.264  31.544  58.915  1.00  0.00    -0.000 C 
BRANCH  22  23
ATOM     23  C   UNL     1      63.345  30.540  58.203  1.00  0.00    -0.000 C 
BRANCH  23  24
ATOM     24  C   UNL     1      63.081  30.972  56.753  1.00  0.00    -0.000 C 
BRANCH  24  25
ATOM     25  C   UNL     1      61.605  30.831  56.353  1.00  0.00    -0.003 C 
ATOM     26  C   UNL     1      60.844  29.848  57.243  1.00  0.00     0.004 C 
ENDBRANCH  24  25
ENDBRANCH  23  24
ENDBRANCH  22  23
ENDBRANCH  21  22
ENDBRANCH  20  21
ENDBRANCH  19  20
ENDBRANCH  18  19
ENDBRANCH  17  18
ENDBRANCH  16  17
ENDBRANCH  15  16
ENDBRANCH   1  15
TORSDOF 22
ENDMDL
MODEL 4
REMARK VINA RESULT:    -3.193      1.646      2.977
REMARK INTER + INTRA:         -11.355
REMARK INTER:                  -7.417
REMARK INTRA:                  -3.938
REMARK UNBOUND:                -4.057
REMARK SMILES CCCCCCCCCCCCCCCCCCCCCCCC(=O)[O-]
REMARK SMILES IDX 13 1 14 2 15 3 16 4 17 5 18 6 19 7 20 8 21 9 22 10 23 11
REMARK SMILES IDX 24 12 25 13 26 14 12 15 11 16 10 17 9 18 8 19 7 20 6 21 5 22
REMARK SMILES IDX 4 23 3 24 2 25 1 26
REMARK H PARENT
REMARK Flexibility Score: inf
ROOT
ATOM      1  C   UNL     1      61.059  27.528  49.971  1.00  0.00     0.000 C 
ENDROOT
BRANCH   1   2
ATOM      2  C   UNL     1      59.576  27.543  49.559  1.00  0.00     0.000 C 
BRANCH   2   3
ATOM      3  C   UNL     1      58.989  28.963  49.547  1.00  0.00     0.000 C 
BRANCH   3   4
ATOM      4  C   UNL     1      57.662  29.057  50.320  1.00  0.00     0.000 C 
BRANCH   4   5
ATOM      5  C   UNL     1      57.809  28.593  51.784  1.00  0.00     0.000 C 
BRANCH   5   6
ATOM      6  C   UNL     1      57.607  29.722  52.810  1.00  0.00     0.000 C 
BRANCH   6   7
ATOM      7  C   UNL     1      58.693  30.804  52.731  1.00  0.00     0.000 C 
BRANCH   7   8
ATOM      8  C   UNL     1      60.091  30.191  52.875  1.00  0.00     0.000 C 
BRANCH   8   9
ATOM      9  C   UNL     1      61.161  31.109  52.273  1.00  0.00     0.000 C 
BRANCH   9  10
ATOM     10  C   UNL     1      62.362  30.295  51.767  1.00  0.00     0.006 C 
BRANCH  10  11
ATOM     11  C   UNL     1      63.477  31.188  51.206  1.00  0.00     0.053 C 
BRANCH  11  12
ATOM     12  C   UNL     1      63.384  31.330  49.718  1.00  0.00     0.041 C 
ATOM     13  O   UNL     1      63.861  30.439  48.965  1.00  0.00    -0.550 OA
ATOM     14  O   UNL     1      62.747  32.432  49.162  1.00  0.00    -0.550 OA
ENDBRANCH  11  12
ENDBRANCH  10  11
ENDBRANCH   9  10
ENDBRANCH   8   9
ENDBRANCH   7   8
ENDBRANCH   6   7
ENDBRANCH   5   6
ENDBRANCH   4   5
ENDBRANCH   3   4
ENDBRANCH   2   3
ENDBRANCH   1   2
BRANCH   1  15
ATOM     15  C   UNL     1      61.284  26.777  51.293  1.00  0.00     0.000 C 
BRANCH  15  16
ATOM     16  C   UNL     1      60.354  25.560  51.445  1.00  0.00     0.000 C 
BRANCH  16  17
ATOM     17  C   UNL     1      59.729  25.481  52.853  1.00  0.00     0.000 C 
BRANCH  17  18
ATOM     18  C   UNL     1      58.232  25.124  52.840  1.00  0.00    -0.000 C 
BRANCH  18  19
ATOM     19  C   UNL     1      57.654  25.017  51.421  1.00  0.00    -0.000 C 
BRANCH  19  20
ATOM     20  C   UNL     1      56.153  25.327  51.414  1.00  0.00    -0.000 C 
BRANCH  20  21
ATOM     21  C   UNL     1      55.709  25.869  50.048  1.00  0.00    -0.000 C 
BRANCH  21  22
ATOM     22  C   UNL     1      54.266  25.473  49.694  1.00  0.00    -0.000 C 
BRANCH  22  23
ATOM     23  C   UNL     1      53.262  26.607  49.946  1.00  0.00    -0.000 C 
BRANCH  23  24
ATOM     24  C   UNL     1      53.976  27.965  50.012  1.00  0.00    -0.000 C 
BRANCH  24  25
ATOM     25  C   UNL     1      53.915  28.598  51.411  1.00  0.00    -0.003 C 
ATOM     26  C   UNL     1      54.206  30.098  51.393  1.00  0.00     0.004 C 
ENDBRANCH  24  25
ENDBRANCH  23  24
ENDBRANCH  22  23
ENDBRANCH  21  22
ENDBRANCH  20  21
ENDBRANCH  19  20
ENDBRANCH  18  19
ENDBRANCH  17  18
ENDBRANCH  16  17
ENDBRANCH  15  16
ENDBRANCH   1  15
TORSDOF 22
ENDMDL
MODEL 5
REMARK VINA RESULT:    -3.187      9.291     12.308
REMARK INTER + INTRA:         -11.343
REMARK INTER:                  -7.394
REMARK INTRA:                  -3.949
REMARK UNBOUND:                -4.057
REMARK SMILES CCCCCCCCCCCCCCCCCCCCCCCC(=O)[O-]
REMARK SMILES IDX 13 1 14 2 15 3 16 4 17 5 18 6 19 7 20 8 21 9 22 10 23 11
REMARK SMILES IDX 24 12 25 13 26 14 12 15 11 16 10 17 9 18 8 19 7 20 6 21 5 22
REMARK SMILES IDX 4 23 3 24 2 25 1 26
REMARK H PARENT
REMARK Flexibility Score: inf
ROOT
ATOM      1  C   UNL     1      62.304  29.955  61.730  1.00  0.00     0.000 C 
ENDROOT
BRANCH   1   2
ATOM      2  C   UNL     1      63.733  30.510  61.598  1.00  0.00     0.000 C 
BRANCH   2   3
ATOM      3  C   UNL     1      63.799  31.735  60.672  1.00  0.00     0.000 C 
BRANCH   3   4
ATOM      4  C   UNL     1      64.874  31.590  59.580  1.00  0.00     0.000 C 
BRANCH   4   5
ATOM      5  C   UNL     1      65.594  30.228  59.652  1.00  0.00     0.000 C 
BRANCH   5   6
ATOM      6  C   UNL     1      65.490  29.408  58.355  1.00  0.00     0.000 C 
BRANCH   6   7
ATOM      7  C   UNL     1      65.334  27.902  58.607  1.00  0.00     0.000 C 
BRANCH   7   8
ATOM      8  C   UNL     1      64.159  27.623  59.551  1.00  0.00     0.000 C 
BRANCH   8   9
ATOM      9  C   UNL     1      62.819  27.791  58.828  1.00  0.00     0.000 C 
BRANCH   9  10
ATOM     10  C   UNL     1      61.692  27.070  59.584  1.00  0.00     0.006 C 
BRANCH  10  11
ATOM     11  C   UNL     1      62.221  26.218  60.746  1.00  0.00     0.053 C 
BRANCH  11  12
ATOM     12  C   UNL     1      61.215  26.088  61.847  1.00  0.00     0.041 C 
ATOM     13  O   UNL     1      61.592  25.873  63.030  1.00  0.00    -0.550 OA
ATOM     14  O   UNL     1      59.861  26.232  61.574  1.00  0.00    -0.550 OA
ENDBRANCH  11  12
ENDBRANCH  10  11
ENDBRANCH   9  10
ENDBRANCH   8   9
ENDBRANCH   7   8
ENDBRANCH   6   7
ENDBRANCH   5   6
ENDBRANCH   4   5
ENDBRANCH   3   4
ENDBRANCH   2   3
ENDBRANCH   1   2
BRANCH   1  15
ATOM     15  C   UNL     1      61.242  30.990  61.327  1.00  0.00     0.000 C 
BRANCH  15  16
ATOM     16  C   UNL     1      60.116  30.378  60.474  1.00  0.00     0.000 C 
BRANCH  16  17
ATOM     17  C   UNL     1      59.975  31.083  59.109  1.00  0.00     0.000 C 
BRANCH  17  18
ATOM     18  C   UNL     1      61.295  31.163  58.321  1.00  0.00    -0.000 C 
BRANCH  18  19
ATOM     19  C   UNL     1      61.597  32.575  57.800  1.00  0.00    -0.000 C 
BRANCH  19  20
ATOM     20  C   UNL     1      60.354  33.468  57.879  1.00  0.00    -0.000 C 
BRANCH  20  21
ATOM     21  C   UNL     1      60.687  34.818  58.531  1.00  0.00    -0.000 C 
BRANCH  21  22
ATOM     22  C   UNL     1      61.102  34.676  60.005  1.00  0.00    -0.000 C 
BRANCH  22  23
ATOM     23  C   UNL     1      61.169  36.027  60.734  1.00  0.00    -0.000 C 
BRANCH  23  24
ATOM     24  C   UNL     1      62.591  36.304  61.242  1.00  0.00    -0.000 C 
BRANCH  24  25
ATOM     25  C   UNL     1      63.571  35.170  60.906  1.00  0.00    -0.003 C 
ATOM     26  C   UNL     1      64.912  35.317  61.625  1.00  0.00     0.004 C 
ENDBRANCH  24  25
ENDBRANCH  23  24
ENDBRANCH  22  23
ENDBRANCH  21  22
ENDBRANCH  20  21
ENDBRANCH  19  20
ENDBRANCH  18  19
ENDBRANCH  17  18
ENDBRANCH  16  17
ENDBRANCH  15  16
ENDBRANCH   1  15
TORSDOF 22
ENDMDL
MODEL 6
REMARK VINA RESULT:    -3.175      9.502     12.672
REMARK INTER + INTRA:         -11.315
REMARK INTER:                  -7.604
REMARK INTRA:                  -3.711
REMARK UNBOUND:                -4.057
REMARK SMILES CCCCCCCCCCCCCCCCCCCCCCCC(=O)[O-]
REMARK SMILES IDX 13 1 14 2 15 3 16 4 17 5 18 6 19 7 20 8 21 9 22 10 23 11
REMARK SMILES IDX 24 12 25 13 26 14 12 15 11 16 10 17 9 18 8 19 7 20 6 21 5 22
REMARK SMILES IDX 4 23 3 24 2 25 1 26
REMARK H PARENT
REMARK Flexibility Score: inf
ROOT
ATOM      1  C   UNL     1      63.562  30.379  61.280  1.00  0.00     0.000 C 
ENDROOT
BRANCH   1   2
ATOM      2  C   UNL     1      64.236  29.562  60.162  1.00  0.00     0.000 C 
BRANCH   2   3
ATOM      3  C   UNL     1      63.223  29.045  59.128  1.00  0.00     0.000 C 
BRANCH   3   4
ATOM      4  C   UNL     1      63.337  27.527  58.902  1.00  0.00     0.000 C 
BRANCH   4   5
ATOM      5  C   UNL     1      63.855  26.791  60.155  1.00  0.00     0.000 C 
BRANCH   5   6
ATOM      6  C   UNL     1      62.879  25.730  60.691  1.00  0.00     0.000 C 
BRANCH   6   7
ATOM      7  C   UNL     1      62.050  26.227  61.884  1.00  0.00     0.000 C 
BRANCH   7   8
ATOM      8  C   UNL     1      60.549  26.139  61.584  1.00  0.00     0.000 C 
BRANCH   8   9
ATOM      9  C   UNL     1      60.136  27.172  60.530  1.00  0.00     0.000 C 
BRANCH   9  10
ATOM     10  C   UNL     1      58.748  27.752  60.844  1.00  0.00     0.006 C 
BRANCH  10  11
ATOM     11  C   UNL     1      57.714  26.659  61.146  1.00  0.00     0.053 C 
BRANCH  11  12
ATOM     12  C   UNL     1      56.592  27.170  61.996  1.00  0.00     0.041 C 
ATOM     13  O   UNL     1      55.879  26.368  62.657  1.00  0.00    -0.550 OA
ATOM     14  O   UNL     1      56.350  28.536  62.082  1.00  0.00    -0.550 OA
ENDBRANCH  11  12
ENDBRANCH  10  11
ENDBRANCH   9  10
ENDBRANCH   8   9
ENDBRANCH   7   8
ENDBRANCH   6   7
ENDBRANCH   5   6
ENDBRANCH   4   5
ENDBRANCH   3   4
ENDBRANCH   2   3
ENDBRANCH   1   2
BRANCH   1  15
ATOM     15  C   UNL     1      62.268  29.718  61.780  1.00  0.00     0.000 C 
BRANCH  15  16
ATOM     16  C   UNL     1      61.129  30.732  61.984  1.00  0.00     0.000 C 
BRANCH  16  17
ATOM     17  C   UNL     1      60.544  31.223  60.643  1.00  0.00     0.000 C 
BRANCH  17  18
ATOM     18  C   UNL     1      61.080  32.598  60.208  1.00  0.00    -0.000 C 
BRANCH  18  19
ATOM     19  C   UNL     1      60.478  33.083  58.880  1.00  0.00    -0.000 C 
BRANCH  19  20
ATOM     20  C   UNL     1      61.575  33.346  57.843  1.00  0.00    -0.000 C 
BRANCH  20  21
ATOM     21  C   UNL     1      62.853  32.566  58.184  1.00  0.00    -0.000 C 
BRANCH  21  22
ATOM     22  C   UNL     1      64.131  33.321  57.783  1.00  0.00    -0.000 C 
BRANCH  22  23
ATOM     23  C   UNL     1      64.543  34.380  58.817  1.00  0.00    -0.000 C 
BRANCH  23  24
ATOM     24  C   UNL     1      64.596  33.774  60.228  1.00  0.00    -0.000 C 
BRANCH  24  25
ATOM     25  C   UNL     1      64.281  34.802  61.325  1.00  0.00    -0.003 C 
ATOM     26  C   UNL     1      63.034  35.630  61.017  1.00  0.00     0.004 C 
ENDBRANCH  24  25
ENDBRANCH  23  24
ENDBRANCH  22  23
ENDBRANCH  21  22
ENDBRANCH  20  21
ENDBRANCH  19  20
ENDBRANCH  18  19
ENDBRANCH  17  18
ENDBRANCH  16  17
ENDBRANCH  15  16
ENDBRANCH   1  15
TORSDOF 22
ENDMDL
MODEL 7
REMARK VINA RESULT:    -3.169      8.474     11.898
REMARK INTER + INTRA:         -11.301
REMARK INTER:                  -6.553
REMARK INTRA:                  -4.748
REMARK UNBOUND:                -4.057
REMARK SMILES CCCCCCCCCCCCCCCCCCCCCCCC(=O)[O-]
REMARK SMILES IDX 13 1 14 2 15 3 16 4 17 5 18 6 19 7 20 8 21 9 22 10 23 11
REMARK SMILES IDX 24 12 25 13 26 14 12 15 11 16 10 17 9 18 8 19 7 20 6 21 5 22
REMARK SMILES IDX 4 23 3 24 2 25 1 26
REMARK H PARENT
REMARK Flexibility Score: inf
ROOT
ATOM      1  C   UNL     1      65.599  30.986  59.214  1.00  0.00     0.000 C 
ENDROOT
BRANCH   1   2
ATOM      2  C   UNL     1      64.400  31.672  58.535  1.00  0.00     0.000 C 
BRANCH   2   3
ATOM      3  C   UNL     1      64.142  31.129  57.120  1.00  0.00     0.000 C 
BRANCH   3   4
ATOM      4  C   UNL     1      62.863  30.277  57.042  1.00  0.00     0.000 C 
BRANCH   4   5
ATOM      5  C   UNL     1      63.062  28.874  57.654  1.00  0.00     0.000 C 
BRANCH   5   6
ATOM      6  C   UNL     1      61.777  28.277  58.251  1.00  0.00     0.000 C 
BRANCH   6   7
ATOM      7  C   UNL     1      60.512  29.041  57.838  1.00  0.00     0.000 C 
BRANCH   7   8
ATOM      8  C   UNL     1      59.306  28.601  58.674  1.00  0.00     0.000 C 
BRANCH   8   9
ATOM      9  C   UNL     1      59.628  27.343  59.489  1.00  0.00     0.000 C 
BRANCH   9  10
ATOM     10  C   UNL     1      59.009  27.423  60.892  1.00  0.00     0.006 C 
BRANCH  10  11
ATOM     11  C   UNL     1      57.902  28.483  60.982  1.00  0.00     0.053 C 
BRANCH  11  12
ATOM     12  C   UNL     1      56.653  27.935  61.601  1.00  0.00     0.041 C 
ATOM     13  O   UNL     1      56.704  26.913  62.336  1.00  0.00    -0.550 OA
ATOM     14  O   UNL     1      55.435  28.570  61.391  1.00  0.00    -0.550 OA
ENDBRANCH  11  12
ENDBRANCH  10  11
ENDBRANCH   9  10
ENDBRANCH   8   9
ENDBRANCH   7   8
ENDBRANCH   6   7
ENDBRANCH   5   6
ENDBRANCH   4   5
ENDBRANCH   3   4
ENDBRANCH   2   3
ENDBRANCH   1   2
BRANCH   1  15
ATOM     15  C   UNL     1      65.171  30.135  60.419  1.00  0.00     0.000 C 
BRANCH  15  16
ATOM     16  C   UNL     1      63.993  30.756  61.190  1.00  0.00     0.000 C 
BRANCH  16  17
ATOM     17  C   UNL     1      62.876  29.728  61.467  1.00  0.00     0.000 C 
BRANCH  17  18
ATOM     18  C   UNL     1      61.461  30.329  61.400  1.00  0.00    -0.000 C 
BRANCH  18  19
ATOM     19  C   UNL     1      61.446  31.770  60.870  1.00  0.00    -0.000 C 
BRANCH  19  20
ATOM     20  C   UNL     1      60.333  31.963  59.834  1.00  0.00    -0.000 C 
BRANCH  20  21
ATOM     21  C   UNL     1      60.828  32.797  58.644  1.00  0.00    -0.000 C 
BRANCH  21  22
ATOM     22  C   UNL     1      61.126  34.256  59.027  1.00  0.00    -0.000 C 
BRANCH  22  23
ATOM     23  C   UNL     1      62.406  34.792  58.369  1.00  0.00    -0.000 C 
BRANCH  23  24
ATOM     24  C   UNL     1      63.230  35.617  59.369  1.00  0.00    -0.000 C 
BRANCH  24  25
ATOM     25  C   UNL     1      63.187  35.038  60.791  1.00  0.00    -0.003 C 
ATOM     26  C   UNL     1      64.507  34.387  61.203  1.00  0.00     0.004 C 
ENDBRANCH  24  25
ENDBRANCH  23  24
ENDBRANCH  22  23
ENDBRANCH  21  22
ENDBRANCH  20  21
ENDBRANCH  19  20
ENDBRANCH  18  19
ENDBRANCH  17  18
ENDBRANCH  16  17
ENDBRANCH  15  16
ENDBRANCH   1  15
TORSDOF 22
ENDMDL
MODEL 8
REMARK VINA RESULT:    -3.108      2.052      4.941
REMARK INTER + INTRA:         -11.162
REMARK INTER:                  -6.735
REMARK INTRA:                  -4.427
REMARK UNBOUND:                -4.057
REMARK SMILES CCCCCCCCCCCCCCCCCCCCCCCC(=O)[O-]
REMARK SMILES IDX 13 1 14 2 15 3 16 4 17 5 18 6 19 7 20 8 21 9 22 10 23 11
REMARK SMILES IDX 24 12 25 13 26 14 12 15 11 16 10 17 9 18 8 19 7 20 6 21 5 22
REMARK SMILES IDX 4 23 3 24 2 25 1 26
REMARK H PARENT
REMARK Flexibility Score: inf
ROOT
ATOM      1  C   UNL     1      57.197  29.628  51.630  1.00  0.00     0.000 C 
ENDROOT
BRANCH   1   2
ATOM      2  C   UNL     1      57.470  28.843  50.334  1.00  0.00     0.000 C 
BRANCH   2   3
ATOM      3  C   UNL     1      58.770  29.288  49.646  1.00  0.00     0.000 C 
BRANCH   3   4
ATOM      4  C   UNL     1      59.640  28.097  49.205  1.00  0.00     0.000 C 
BRANCH   4   5
ATOM      5  C   UNL     1      59.071  26.750  49.697  1.00  0.00     0.000 C 
BRANCH   5   6
ATOM      6  C   UNL     1      60.140  25.804  50.270  1.00  0.00     0.000 C 
BRANCH   6   7
ATOM      7  C   UNL     1      60.869  26.391  51.487  1.00  0.00     0.000 C 
BRANCH   7   8
ATOM      8  C   UNL     1      59.888  26.676  52.630  1.00  0.00     0.000 C 
BRANCH   8   9
ATOM      9  C   UNL     1      60.101  28.082  53.202  1.00  0.00     0.000 C 
BRANCH   9  10
ATOM     10  C   UNL     1      61.261  28.795  52.491  1.00  0.00     0.006 C 
BRANCH  10  11
ATOM     11  C   UNL     1      60.965  30.280  52.238  1.00  0.00     0.053 C 
BRANCH  11  12
ATOM     12  C   UNL     1      62.047  30.937  51.437  1.00  0.00     0.041 C 
ATOM     13  O   UNL     1      63.139  31.249  51.981  1.00  0.00    -0.550 OA
ATOM     14  O   UNL     1      61.860  31.179  50.082  1.00  0.00    -0.550 OA
ENDBRANCH  11  12
ENDBRANCH  10  11
ENDBRANCH   9  10
ENDBRANCH   8   9
ENDBRANCH   7   8
ENDBRANCH   6   7
ENDBRANCH   5   6
ENDBRANCH   4   5
ENDBRANCH   3   4
ENDBRANCH   2   3
ENDBRANCH   1   2
BRANCH   1  15
ATOM     15  C   UNL     1      55.703  29.650  51.989  1.00  0.00     0.000 C 
BRANCH  15  16
ATOM     16  C   UNL     1      54.806  29.884  50.761  1.00  0.00     0.000 C 
BRANCH  16  17
ATOM     17  C   UNL     1      53.530  29.017  50.802  1.00  0.00     0.000 C 
BRANCH  17  18
ATOM     18  C   UNL     1      53.641  27.722  49.977  1.00  0.00    -0.000 C 
BRANCH  18  19
ATOM     19  C   UNL     1      54.102  26.518  50.811  1.00  0.00    -0.000 C 
BRANCH  19  20
ATOM     20  C   UNL     1      55.239  25.766  50.111  1.00  0.00    -0.000 C 
BRANCH  20  21
ATOM     21  C   UNL     1      56.298  25.305  51.123  1.00  0.00    -0.000 C 
BRANCH  21  22
ATOM     22  C   UNL     1      56.266  26.121  52.426  1.00  0.00    -0.000 C 
BRANCH  22  23
ATOM     23  C   UNL     1      56.207  25.235  53.679  1.00  0.00    -0.000 C 
BRANCH  23  24
ATOM     24  C   UNL     1      57.253  24.113  53.606  1.00  0.00    -0.000 C 
BRANCH  24  25
ATOM     25  C   UNL     1      56.693  22.753  54.049  1.00  0.00    -0.003 C 
ATOM     26  C   UNL     1      55.213  22.585  53.708  1.00  0.00     0.004 C 
ENDBRANCH  24  25
ENDBRANCH  23  24
ENDBRANCH  22  23
ENDBRANCH  21  22
ENDBRANCH  20  21
ENDBRANCH  19  20
ENDBRANCH  18  19
ENDBRANCH  17  18
ENDBRANCH  16  17
ENDBRANCH  15  16
ENDBRANCH   1  15
TORSDOF 22
ENDMDL
MODEL 9
REMARK VINA RESULT:    -3.034      8.902     11.995
REMARK INTER + INTRA:         -10.993
REMARK INTER:                  -6.527
REMARK INTRA:                  -4.466
REMARK UNBOUND:                -4.057
REMARK SMILES CCCCCCCCCCCCCCCCCCCCCCCC(=O)[O-]
REMARK SMILES IDX 13 1 14 2 15 3 16 4 17 5 18 6 19 7 20 8 21 9 22 10 23 11
REMARK SMILES IDX 24 12 25 13 26 14 12 15 11 16 10 17 9 18 8 19 7 20 6 21 5 22
REMARK SMILES IDX 4 23 3 24 2 25 1 26
REMARK H PARENT
REMARK Flexibility Score: inf
ROOT
ATOM      1  C   UNL     1      62.976  29.548  57.847  1.00  0.00     0.000 C 
ENDROOT
BRANCH   1   2
ATOM      2  C   UNL     1      63.062  28.049  58.189  1.00  0.00     0.000 C 
BRANCH   2   3
ATOM      3  C   UNL     1      61.704  27.472  58.623  1.00  0.00     0.000 C 
BRANCH   3   4
ATOM      4  C   UNL     1      61.851  26.200  59.475  1.00  0.00     0.000 C 
BRANCH   4   5
ATOM      5  C   UNL     1      63.223  26.127  60.178  1.00  0.00     0.000 C 
BRANCH   5   6
ATOM      6  C   UNL     1      63.157  25.533  61.595  1.00  0.00     0.000 C 
BRANCH   6   7
ATOM      7  C   UNL     1      61.865  25.901  62.339  1.00  0.00     0.000 C 
BRANCH   7   8
ATOM      8  C   UNL     1      61.039  24.650  62.657  1.00  0.00     0.000 C 
BRANCH   8   9
ATOM      9  C   UNL     1      59.572  24.842  62.256  1.00  0.00     0.000 C 
BRANCH   9  10
ATOM     10  C   UNL     1      59.265  26.323  61.986  1.00  0.00     0.006 C 
BRANCH  10  11
ATOM     11  C   UNL     1      58.262  26.511  60.839  1.00  0.00     0.053 C 
BRANCH  11  12
ATOM     12  C   UNL     1      57.841  27.940  60.693  1.00  0.00     0.041 C 
ATOM     13  O   UNL     1      57.088  28.471  61.553  1.00  0.00    -0.550 OA
ATOM     14  O   UNL     1      58.301  28.696  59.622  1.00  0.00    -0.550 OA
ENDBRANCH  11  12
ENDBRANCH  10  11
ENDBRANCH   9  10
ENDBRANCH   8   9
ENDBRANCH   7   8
ENDBRANCH   6   7
ENDBRANCH   5   6
ENDBRANCH   4   5
ENDBRANCH   3   4
ENDBRANCH   2   3
ENDBRANCH   1   2
BRANCH   1  15
ATOM     15  C   UNL     1      64.312  30.271  58.078  1.00  0.00     0.000 C 
BRANCH  15  16
ATOM     16  C   UNL     1      64.228  31.319  59.201  1.00  0.00     0.000 C 
BRANCH  16  17
ATOM     17  C   UNL     1      64.604  30.726  60.575  1.00  0.00     0.000 C 
BRANCH  17  18
ATOM     18  C   UNL     1      63.438  30.722  61.580  1.00  0.00    -0.000 C 
BRANCH  18  19
ATOM     19  C   UNL     1      62.651  29.403  61.579  1.00  0.00    -0.000 C 
BRANCH  19  20
ATOM     20  C   UNL     1      61.145  29.661  61.465  1.00  0.00    -0.000 C 
BRANCH  20  21
ATOM     21  C   UNL     1      60.856  31.159  61.285  1.00  0.00    -0.000 C 
BRANCH  21  22
ATOM     22  C   UNL     1      60.427  31.510  59.851  1.00  0.00    -0.000 C 
BRANCH  22  23
ATOM     23  C   UNL     1      61.026  32.837  59.361  1.00  0.00    -0.000 C 
BRANCH  23  24
ATOM     24  C   UNL     1      61.601  33.643  60.535  1.00  0.00    -0.000 C 
BRANCH  24  25
ATOM     25  C   UNL     1      62.547  34.763  60.076  1.00  0.00    -0.003 C 
ATOM     26  C   UNL     1      63.809  34.857  60.933  1.00  0.00     0.004 C 
ENDBRANCH  24  25
ENDBRANCH  23  24
ENDBRANCH  22  23
ENDBRANCH  21  22
ENDBRANCH  20  21
ENDBRANCH  19  20
ENDBRANCH  18  19
ENDBRANCH  17  18
ENDBRANCH  16  17
ENDBRANCH  15  16
ENDBRANCH   1  15
TORSDOF 22
ENDMDL
