MODEL 1
REMARK VINA RESULT:    -4.421      0.000      0.000
REMARK INTER + INTRA:         -15.644
REMARK INTER:                 -11.140
REMARK INTRA:                  -4.503
REMARK UNBOUND:                -4.503
REMARK SMILES CCCCCCCCCCCCCCCCCCCCCCCCCCCC(=O)[O-]
REMARK SMILES IDX 15 1 16 2 17 3 18 4 19 5 20 6 21 7 22 8 23 9 24 10 25 11
REMARK SMILES IDX 26 12 27 13 28 14 29 15 30 16 14 17 13 18 12 19 11 20 10 21
REMARK SMILES IDX 9 22 8 23 7 24 6 25 5 26 4 27 3 28 2 29 1 30
REMARK H PARENT
REMARK Flexibility Score: inf
ROOT
ATOM      1  C   UNL     1       4.659  31.511 -14.170  1.00  0.00     0.000 C 
ENDROOT
BRANCH   1   2
ATOM      2  C   UNL     1       5.605  31.159 -15.330  1.00  0.00     0.000 C 
BRANCH   2   3
ATOM      3  C   UNL     1       5.746  32.309 -16.340  1.00  0.00     0.000 C 
BRANCH   3   4
ATOM      4  C   UNL     1       7.122  32.993 -16.279  1.00  0.00     0.000 C 
BRANCH   4   5
ATOM      5  C   UNL     1       7.091  34.331 -15.526  1.00  0.00     0.000 C 
BRANCH   5   6
ATOM      6  C   UNL     1       7.693  34.189 -14.123  1.00  0.00     0.000 C 
BRANCH   6   7
ATOM      7  C   UNL     1       8.522  32.901 -14.006  1.00  0.00     0.000 C 
BRANCH   7   8
ATOM      8  C   UNL     1       8.175  32.082 -12.755  1.00  0.00     0.000 C 
BRANCH   8   9
ATOM      9  C   UNL     1       8.775  30.667 -12.783  1.00  0.00     0.000 C 
BRANCH   9  10
ATOM     10  C   UNL     1       7.703  29.564 -12.811  1.00  0.00     0.000 C 
BRANCH  10  11
ATOM     11  C   UNL     1       8.280  28.149 -13.042  1.00  0.00     0.000 C 
BRANCH  11  12
ATOM     12  C   UNL     1       7.175  27.082 -13.141  1.00  0.00     0.006 C 
BRANCH  12  13
ATOM     13  C   UNL     1       7.742  25.657 -13.162  1.00  0.00     0.053 C 
BRANCH  13  14
ATOM     14  C   UNL     1       6.948  24.726 -12.295  1.00  0.00     0.041 C 
ATOM     15  O   UNL     1       5.700  24.630 -12.444  1.00  0.00    -0.550 OA
ATOM     16  O   UNL     1       7.581  23.984 -11.307  1.00  0.00    -0.550 OA
ENDBRANCH  13  14
ENDBRANCH  12  13
ENDBRANCH  11  12
ENDBRANCH  10  11
ENDBRANCH   9  10
ENDBRANCH   8   9
ENDBRANCH   7   8
ENDBRANCH   6   7
ENDBRANCH   5   6
ENDBRANCH   4   5
ENDBRANCH   3   4
ENDBRANCH   2   3
ENDBRANCH   1   2
BRANCH   1  17
ATOM     17  C   UNL     1       3.981  32.882 -14.356  1.00  0.00     0.000 C 
BRANCH  17  18
ATOM     18  C   UNL     1       3.788  33.620 -13.016  1.00  0.00     0.000 C 
BRANCH  18  19
ATOM     19  C   UNL     1       4.680  33.087 -11.881  1.00  0.00     0.000 C 
BRANCH  19  20
ATOM     20  C   UNL     1       5.540  34.186 -11.233  1.00  0.00     0.000 C 
BRANCH  20  21
ATOM     21  C   UNL     1       6.208  33.723  -9.928  1.00  0.00     0.000 C 
BRANCH  21  22
ATOM     22  C   UNL     1       5.285  32.830  -9.078  1.00  0.00    -0.000 C 
BRANCH  22  23
ATOM     23  C   UNL     1       5.014  33.420  -7.683  1.00  0.00    -0.000 C 
BRANCH  23  24
ATOM     24  C   UNL     1       6.021  34.521  -7.305  1.00  0.00    -0.000 C 
BRANCH  24  25
ATOM     25  C   UNL     1       5.334  35.816  -6.842  1.00  0.00    -0.000 C 
BRANCH  25  26
ATOM     26  C   UNL     1       3.801  35.723  -6.891  1.00  0.00    -0.000 C 
BRANCH  26  27
ATOM     27  C   UNL     1       3.221  36.739  -7.886  1.00  0.00    -0.000 C 
BRANCH  27  28
ATOM     28  C   UNL     1       3.178  36.199  -9.325  1.00  0.00    -0.000 C 
BRANCH  28  29
ATOM     29  C   UNL     1       2.213  35.015  -9.488  1.00  0.00    -0.003 C 
ATOM     30  C   UNL     1       1.364  35.166 -10.748  1.00  0.00     0.004 C 
ENDBRANCH  28  29
ENDBRANCH  27  28
ENDBRANCH  26  27
ENDBRANCH  25  26
ENDBRANCH  24  25
ENDBRANCH  23  24
ENDBRANCH  22  23
ENDBRANCH  21  22
ENDBRANCH  20  21
ENDBRANCH  19  20
ENDBRANCH  18  19
ENDBRANCH  17  18
ENDBRANCH   1  17
TORSDOF 26
ENDMDL
MODEL 2
REMARK VINA RESULT:    -4.348      3.308      8.246
REMARK INTER + INTRA:         -15.459
REMARK INTER:                 -11.127
REMARK INTRA:                  -4.332
REMARK UNBOUND:                -4.503
REMARK SMILES CCCCCCCCCCCCCCCCCCCCCCCCCCCC(=O)[O-]
REMARK SMILES IDX 15 1 16 2 17 3 18 4 19 5 20 6 21 7 22 8 23 9 24 10 25 11
REMARK SMILES IDX 26 12 27 13 28 14 29 15 30 16 14 17 13 18 12 19 11 20 10 21
REMARK SMILES IDX 9 22 8 23 7 24 6 25 5 26 4 27 3 28 2 29 1 30
REMARK H PARENT
REMARK Flexibility Score: inf
ROOT
ATOM      1  C   UNL     1       4.477  31.848 -14.311  1.00  0.00     0.000 C 
ENDROOT
BRANCH   1   2
ATOM      2  C   UNL     1       4.051  33.302 -14.574  1.00  0.00     0.000 C 
BRANCH   2   3
ATOM      3  C   UNL     1       5.196  34.300 -14.335  1.00  0.00     0.000 C 
BRANCH   3   4
ATOM      4  C   UNL     1       5.525  35.140 -15.580  1.00  0.00     0.000 C 
BRANCH   4   5
ATOM      5  C   UNL     1       6.529  34.452 -16.517  1.00  0.00     0.000 C 
BRANCH   5   6
ATOM      6  C   UNL     1       7.969  34.661 -16.031  1.00  0.00     0.000 C 
BRANCH   6   7
ATOM      7  C   UNL     1       8.580  33.341 -15.534  1.00  0.00     0.000 C 
BRANCH   7   8
ATOM      8  C   UNL     1       9.449  33.524 -14.281  1.00  0.00     0.000 C 
BRANCH   8   9
ATOM      9  C   UNL     1       9.606  32.227 -13.471  1.00  0.00     0.000 C 
BRANCH   9  10
ATOM     10  C   UNL     1       8.933  32.299 -12.090  1.00  0.00     0.000 C 
BRANCH  10  11
ATOM     11  C   UNL     1       7.390  32.234 -12.151  1.00  0.00     0.000 C 
BRANCH  11  12
ATOM     12  C   UNL     1       6.730  33.269 -11.223  1.00  0.00     0.006 C 
BRANCH  12  13
ATOM     13  C   UNL     1       5.351  32.812 -10.730  1.00  0.00     0.053 C 
BRANCH  13  14
ATOM     14  C   UNL     1       4.684  33.857  -9.886  1.00  0.00     0.041 C 
ATOM     15  O   UNL     1       4.613  33.712  -8.636  1.00  0.00    -0.550 OA
ATOM     16  O   UNL     1       4.118  34.977 -10.481  1.00  0.00    -0.550 OA
ENDBRANCH  13  14
ENDBRANCH  12  13
ENDBRANCH  11  12
ENDBRANCH  10  11
ENDBRANCH   9  10
ENDBRANCH   8   9
ENDBRANCH   7   8
ENDBRANCH   6   7
ENDBRANCH   5   6
ENDBRANCH   4   5
ENDBRANCH   3   4
ENDBRANCH   2   3
ENDBRANCH   1   2
BRANCH   1  17
ATOM     17  C   UNL     1       5.448  31.313 -15.382  1.00  0.00     0.000 C 
BRANCH  17  18
ATOM     18  C   UNL     1       6.503  30.362 -14.784  1.00  0.00     0.000 C 
BRANCH  18  19
ATOM     19  C   UNL     1       6.202  28.872 -15.024  1.00  0.00     0.000 C 
BRANCH  19  20
ATOM     20  C   UNL     1       6.895  27.953 -14.003  1.00  0.00     0.000 C 
BRANCH  20  21
ATOM     21  C   UNL     1       7.703  28.734 -12.954  1.00  0.00     0.000 C 
BRANCH  21  22
ATOM     22  C   UNL     1       9.210  28.425 -13.021  1.00  0.00    -0.000 C 
BRANCH  22  23
ATOM     23  C   UNL     1       9.770  28.525 -14.451  1.00  0.00    -0.000 C 
BRANCH  23  24
ATOM     24  C   UNL     1      10.444  27.220 -14.911  1.00  0.00    -0.000 C 
BRANCH  24  25
ATOM     25  C   UNL     1      10.432  26.133 -13.824  1.00  0.00    -0.000 C 
BRANCH  25  26
ATOM     26  C   UNL     1       9.852  24.802 -14.325  1.00  0.00    -0.000 C 
BRANCH  26  27
ATOM     27  C   UNL     1       9.110  24.068 -13.199  1.00  0.00    -0.000 C 
BRANCH  27  28
ATOM     28  C   UNL     1       8.759  24.992 -12.021  1.00  0.00    -0.000 C 
BRANCH  28  29
ATOM     29  C   UNL     1       8.301  24.218 -10.775  1.00  0.00    -0.003 C 
ATOM     30  C   UNL     1       8.261  22.716 -11.043  1.00  0.00     0.004 C 
ENDBRANCH  28  29
ENDBRANCH  27  28
ENDBRANCH  26  27
ENDBRANCH  25  26
ENDBRANCH  24  25
ENDBRANCH  23  24
ENDBRANCH  22  23
ENDBRANCH  21  22
ENDBRANCH  20  21
ENDBRANCH  19  20
ENDBRANCH  18  19
ENDBRANCH  17  18
ENDBRANCH   1  17
TORSDOF 26
ENDMDL
MODEL 3
REMARK VINA RESULT:    -4.309      2.978      5.413
REMARK INTER + INTRA:         -15.362
REMARK INTER:                 -11.299
REMARK INTRA:                  -4.064
REMARK UNBOUND:                -4.503
REMARK SMILES CCCCCCCCCCCCCCCCCCCCCCCCCCCC(=O)[O-]
REMARK SMILES IDX 15 1 16 2 17 3 18 4 19 5 20 6 21 7 22 8 23 9 24 10 25 11
REMARK SMILES IDX 26 12 27 13 28 14 29 15 30 16 14 17 13 18 12 19 11 20 10 21
REMARK SMILES IDX 9 22 8 23 7 24 6 25 5 26 4 27 3 28 2 29 1 30
REMARK H PARENT
REMARK Flexibility Score: inf
ROOT
ATOM      1  C   UNL     1       5.939  30.377 -16.126  1.00  0.00     0.000 C 
ENDROOT
BRANCH   1   2
ATOM      2  C   UNL     1       6.506  30.051 -14.734  1.00  0.00     0.000 C 
BRANCH   2   3
ATOM      3  C   UNL     1       6.670  28.539 -14.507  1.00  0.00     0.000 C 
BRANCH   3   4
ATOM      4  C   UNL     1       7.390  28.207 -13.190  1.00  0.00     0.000 C 
BRANCH   4   5
ATOM      5  C   UNL     1       8.458  29.245 -12.814  1.00  0.00     0.000 C 
BRANCH   5   6
ATOM      6  C   UNL     1       9.749  29.021 -13.610  1.00  0.00     0.000 C 
BRANCH   6   7
ATOM      7  C   UNL     1      10.894  28.572 -12.689  1.00  0.00     0.000 C 
BRANCH   7   8
ATOM      8  C   UNL     1      10.952  27.048 -12.511  1.00  0.00     0.000 C 
BRANCH   8   9
ATOM      9  C   UNL     1      10.611  26.285 -13.800  1.00  0.00     0.000 C 
BRANCH   9  10
ATOM     10  C   UNL     1       9.690  25.077 -13.553  1.00  0.00     0.000 C 
BRANCH  10  11
ATOM     11  C   UNL     1       8.848  25.196 -12.263  1.00  0.00     0.000 C 
BRANCH  11  12
ATOM     12  C   UNL     1       7.518  24.429 -12.367  1.00  0.00     0.006 C 
BRANCH  12  13
ATOM     13  C   UNL     1       6.961  24.041 -10.991  1.00  0.00     0.053 C 
BRANCH  13  14
ATOM     14  C   UNL     1       7.692  22.873 -10.399  1.00  0.00     0.041 C 
ATOM     15  O   UNL     1       7.703  22.699  -9.152  1.00  0.00    -0.550 OA
ATOM     16  O   UNL     1       8.381  21.993 -11.223  1.00  0.00    -0.550 OA
ENDBRANCH  13  14
ENDBRANCH  12  13
ENDBRANCH  11  12
ENDBRANCH  10  11
ENDBRANCH   9  10
ENDBRANCH   8   9
ENDBRANCH   7   8
ENDBRANCH   6   7
ENDBRANCH   5   6
ENDBRANCH   4   5
ENDBRANCH   3   4
ENDBRANCH   2   3
ENDBRANCH   1   2
BRANCH   1  17
ATOM     17  C   UNL     1       6.042  31.875 -16.470  1.00  0.00     0.000 C 
BRANCH  17  18
ATOM     18  C   UNL     1       7.106  32.595 -15.617  1.00  0.00     0.000 C 
BRANCH  18  19
ATOM     19  C   UNL     1       7.287  34.080 -15.975  1.00  0.00     0.000 C 
BRANCH  19  20
ATOM     20  C   UNL     1       6.107  34.647 -16.782  1.00  0.00     0.000 C 
BRANCH  20  21
ATOM     21  C   UNL     1       5.343  35.744 -16.023  1.00  0.00     0.000 C 
BRANCH  21  22
ATOM     22  C   UNL     1       3.835  35.451 -15.921  1.00  0.00    -0.000 C 
BRANCH  22  23
ATOM     23  C   UNL     1       3.543  34.044 -15.370  1.00  0.00    -0.000 C 
BRANCH  23  24
ATOM     24  C   UNL     1       3.606  33.990 -13.833  1.00  0.00    -0.000 C 
BRANCH  24  25
ATOM     25  C   UNL     1       4.143  32.648 -13.310  1.00  0.00    -0.000 C 
BRANCH  25  26
ATOM     26  C   UNL     1       4.792  32.771 -11.923  1.00  0.00    -0.000 C 
BRANCH  26  27
ATOM     27  C   UNL     1       6.206  32.172 -11.924  1.00  0.00    -0.000 C 
BRANCH  27  28
ATOM     28  C   UNL     1       7.300  33.237 -12.098  1.00  0.00    -0.000 C 
BRANCH  28  29
ATOM     29  C   UNL     1       8.709  32.696 -11.810  1.00  0.00    -0.003 C 
ATOM     30  C   UNL     1       9.782  33.623 -12.375  1.00  0.00     0.004 C 
ENDBRANCH  28  29
ENDBRANCH  27  28
ENDBRANCH  26  27
ENDBRANCH  25  26
ENDBRANCH  24  25
ENDBRANCH  23  24
ENDBRANCH  22  23
ENDBRANCH  21  22
ENDBRANCH  20  21
ENDBRANCH  19  20
ENDBRANCH  18  19
ENDBRANCH  17  18
ENDBRANCH   1  17
TORSDOF 26
ENDMDL
MODEL 4
REMARK VINA RESULT:    -4.280      1.529      2.923
REMARK INTER + INTRA:         -15.288
REMARK INTER:                 -11.594
REMARK INTRA:                  -3.694
REMARK UNBOUND:                -4.503
REMARK SMILES CCCCCCCCCCCCCCCCCCCCCCCCCCCC(=O)[O-]
REMARK SMILES IDX 15 1 16 2 17 3 18 4 19 5 20 6 21 7 22 8 23 9 24 10 25 11
REMARK SMILES IDX 26 12 27 13 28 14 29 15 30 16 14 17 13 18 12 19 11 20 10 21
REMARK SMILES IDX 9 22 8 23 7 24 6 25 5 26 4 27 3 28 2 29 1 30
REMARK H PARENT
REMARK Flexibility Score: inf
ROOT
ATOM      1  C   UNL     1       4.974  33.904 -15.480  1.00  0.00     0.000 C 
ENDROOT
BRANCH   1   2
ATOM      2  C   UNL     1       5.137  33.016 -16.725  1.00  0.00     0.000 C 
BRANCH   2   3
ATOM      3  C   UNL     1       6.252  31.970 -16.556  1.00  0.00     0.000 C 
BRANCH   3   4
ATOM      4  C   UNL     1       5.980  30.988 -15.405  1.00  0.00     0.000 C 
BRANCH   4   5
ATOM      5  C   UNL     1       6.248  29.525 -15.790  1.00  0.00     0.000 C 
BRANCH   5   6
ATOM      6  C   UNL     1       7.427  28.954 -14.994  1.00  0.00     0.000 C 
BRANCH   6   7
ATOM      7  C   UNL     1       7.684  29.774 -13.720  1.00  0.00     0.000 C 
BRANCH   7   8
ATOM      8  C   UNL     1       8.746  29.142 -12.809  1.00  0.00     0.000 C 
BRANCH   8   9
ATOM      9  C   UNL     1       9.498  27.985 -13.485  1.00  0.00     0.000 C 
BRANCH   9  10
ATOM     10  C   UNL     1      10.573  27.360 -12.579  1.00  0.00     0.000 C 
BRANCH  10  11
ATOM     11  C   UNL     1      10.215  25.941 -12.084  1.00  0.00     0.000 C 
BRANCH  11  12
ATOM     12  C   UNL     1       9.262  25.214 -13.049  1.00  0.00     0.006 C 
BRANCH  12  13
ATOM     13  C   UNL     1       8.184  24.412 -12.310  1.00  0.00     0.053 C 
BRANCH  13  14
ATOM     14  C   UNL     1       6.813  24.978 -12.533  1.00  0.00     0.041 C 
ATOM     15  O   UNL     1       5.798  24.374 -12.094  1.00  0.00    -0.550 OA
ATOM     16  O   UNL     1       6.655  26.159 -13.248  1.00  0.00    -0.550 OA
ENDBRANCH  13  14
ENDBRANCH  12  13
ENDBRANCH  11  12
ENDBRANCH  10  11
ENDBRANCH   9  10
ENDBRANCH   8   9
ENDBRANCH   7   8
ENDBRANCH   6   7
ENDBRANCH   5   6
ENDBRANCH   4   5
ENDBRANCH   3   4
ENDBRANCH   2   3
ENDBRANCH   1   2
BRANCH   1  17
ATOM     17  C   UNL     1       3.614  33.705 -14.786  1.00  0.00     0.000 C 
BRANCH  17  18
ATOM     18  C   UNL     1       3.415  34.683 -13.610  1.00  0.00     0.000 C 
BRANCH  18  19
ATOM     19  C   UNL     1       4.328  34.398 -12.405  1.00  0.00     0.000 C 
BRANCH  19  20
ATOM     20  C   UNL     1       4.163  32.971 -11.857  1.00  0.00     0.000 C 
BRANCH  20  21
ATOM     21  C   UNL     1       5.508  32.253 -11.658  1.00  0.00     0.000 C 
BRANCH  21  22
ATOM     22  C   UNL     1       6.683  33.016 -12.299  1.00  0.00    -0.000 C 
BRANCH  22  23
ATOM     23  C   UNL     1       7.781  33.370 -11.281  1.00  0.00    -0.000 C 
BRANCH  23  24
ATOM     24  C   UNL     1       7.273  34.307 -10.170  1.00  0.00    -0.000 C 
BRANCH  24  25
ATOM     25  C   UNL     1       7.753  33.882  -8.773  1.00  0.00    -0.000 C 
BRANCH  25  26
ATOM     26  C   UNL     1       6.651  34.000  -7.709  1.00  0.00    -0.000 C 
BRANCH  26  27
ATOM     27  C   UNL     1       5.396  33.221  -8.129  1.00  0.00    -0.000 C 
BRANCH  27  28
ATOM     28  C   UNL     1       4.095  33.943  -7.741  1.00  0.00    -0.000 C 
BRANCH  28  29
ATOM     29  C   UNL     1       3.699  35.036  -8.745  1.00  0.00    -0.003 C 
ATOM     30  C   UNL     1       2.195  35.023  -9.007  1.00  0.00     0.004 C 
ENDBRANCH  28  29
ENDBRANCH  27  28
ENDBRANCH  26  27
ENDBRANCH  25  26
ENDBRANCH  24  25
ENDBRANCH  23  24
ENDBRANCH  22  23
ENDBRANCH  21  22
ENDBRANCH  20  21
ENDBRANCH  19  20
ENDBRANCH  18  19
ENDBRANCH  17  18
ENDBRANCH   1  17
TORSDOF 26
ENDMDL
MODEL 5
REMARK VINA RESULT:    -4.273      1.534      3.535
REMARK INTER + INTRA:         -15.271
REMARK INTER:                 -10.932
REMARK INTRA:                  -4.339
REMARK UNBOUND:                -4.503
REMARK SMILES CCCCCCCCCCCCCCCCCCCCCCCCCCCC(=O)[O-]
REMARK SMILES IDX 15 1 16 2 17 3 18 4 19 5 20 6 21 7 22 8 23 9 24 10 25 11
REMARK SMILES IDX 26 12 27 13 28 14 29 15 30 16 14 17 13 18 12 19 11 20 10 21
REMARK SMILES IDX 9 22 8 23 7 24 6 25 5 26 4 27 3 28 2 29 1 30
REMARK H PARENT
REMARK Flexibility Score: inf
ROOT
ATOM      1  C   UNL     1       8.460  32.840 -14.085  1.00  0.00     0.000 C 
ENDROOT
BRANCH   1   2
ATOM      2  C   UNL     1       8.090  34.317 -14.297  1.00  0.00     0.000 C 
BRANCH   2   3
ATOM      3  C   UNL     1       6.791  34.486 -15.103  1.00  0.00     0.000 C 
BRANCH   3   4
ATOM      4  C   UNL     1       6.827  33.753 -16.454  1.00  0.00     0.000 C 
BRANCH   4   5
ATOM      5  C   UNL     1       5.662  32.768 -16.631  1.00  0.00     0.000 C 
BRANCH   5   6
ATOM      6  C   UNL     1       4.966  32.490 -15.293  1.00  0.00     0.000 C 
BRANCH   6   7
ATOM      7  C   UNL     1       5.217  31.047 -14.829  1.00  0.00     0.000 C 
BRANCH   7   8
ATOM      8  C   UNL     1       6.195  30.291 -15.740  1.00  0.00     0.000 C 
BRANCH   8   9
ATOM      9  C   UNL     1       6.670  28.963 -15.131  1.00  0.00     0.000 C 
BRANCH   9  10
ATOM     10  C   UNL     1       7.191  29.117 -13.692  1.00  0.00     0.000 C 
BRANCH  10  11
ATOM     11  C   UNL     1       7.738  27.803 -13.089  1.00  0.00     0.000 C 
BRANCH  11  12
ATOM     12  C   UNL     1       9.274  27.738 -13.139  1.00  0.00     0.006 C 
BRANCH  12  13
ATOM     13  C   UNL     1       9.817  26.397 -12.630  1.00  0.00     0.053 C 
BRANCH  13  14
ATOM     14  C   UNL     1       9.691  25.314 -13.659  1.00  0.00     0.041 C 
ATOM     15  O   UNL     1      10.346  25.382 -14.734  1.00  0.00    -0.550 OA
ATOM     16  O   UNL     1       8.832  24.244 -13.444  1.00  0.00    -0.550 OA
ENDBRANCH  13  14
ENDBRANCH  12  13
ENDBRANCH  11  12
ENDBRANCH  10  11
ENDBRANCH   9  10
ENDBRANCH   8   9
ENDBRANCH   7   8
ENDBRANCH   6   7
ENDBRANCH   5   6
ENDBRANCH   4   5
ENDBRANCH   3   4
ENDBRANCH   2   3
ENDBRANCH   1   2
BRANCH   1  17
ATOM     17  C   UNL     1       8.399  32.421 -12.604  1.00  0.00     0.000 C 
BRANCH  17  18
ATOM     18  C   UNL     1       7.230  33.095 -11.859  1.00  0.00     0.000 C 
BRANCH  18  19
ATOM     19  C   UNL     1       6.003  32.184 -11.679  1.00  0.00     0.000 C 
BRANCH  19  20
ATOM     20  C   UNL     1       4.754  32.952 -11.214  1.00  0.00     0.000 C 
BRANCH  20  21
ATOM     21  C   UNL     1       4.680  34.372 -11.799  1.00  0.00     0.000 C 
BRANCH  21  22
ATOM     22  C   UNL     1       3.253  34.759 -12.230  1.00  0.00    -0.000 C 
BRANCH  22  23
ATOM     23  C   UNL     1       2.197  34.389 -11.173  1.00  0.00    -0.000 C 
BRANCH  23  24
ATOM     24  C   UNL     1       1.783  35.594 -10.310  1.00  0.00    -0.000 C 
BRANCH  24  25
ATOM     25  C   UNL     1       2.034  35.361  -8.811  1.00  0.00    -0.000 C 
BRANCH  25  26
ATOM     26  C   UNL     1       3.525  35.198  -8.480  1.00  0.00    -0.000 C 
BRANCH  26  27
ATOM     27  C   UNL     1       3.750  34.017  -7.526  1.00  0.00    -0.000 C 
BRANCH  27  28
ATOM     28  C   UNL     1       5.189  33.477  -7.581  1.00  0.00    -0.000 C 
BRANCH  28  29
ATOM     29  C   UNL     1       6.217  34.558  -7.947  1.00  0.00    -0.003 C 
ATOM     30  C   UNL     1       7.496  33.937  -8.501  1.00  0.00     0.004 C 
ENDBRANCH  28  29
ENDBRANCH  27  28
ENDBRANCH  26  27
ENDBRANCH  25  26
ENDBRANCH  24  25
ENDBRANCH  23  24
ENDBRANCH  22  23
ENDBRANCH  21  22
ENDBRANCH  20  21
ENDBRANCH  19  20
ENDBRANCH  18  19
ENDBRANCH  17  18
ENDBRANCH   1  17
TORSDOF 26
ENDMDL
MODEL 6
REMARK VINA RESULT:    -4.224      3.398      8.073
REMARK INTER + INTRA:         -15.148
REMARK INTER:                 -10.983
REMARK INTRA:                  -4.164
REMARK UNBOUND:                -4.503
REMARK SMILES CCCCCCCCCCCCCCCCCCCCCCCCCCCC(=O)[O-]
REMARK SMILES IDX 15 1 16 2 17 3 18 4 19 5 20 6 21 7 22 8 23 9 24 10 25 11
REMARK SMILES IDX 26 12 27 13 28 14 29 15 30 16 14 17 13 18 12 19 11 20 10 21
REMARK SMILES IDX 9 22 8 23 7 24 6 25 5 26 4 27 3 28 2 29 1 30
REMARK H PARENT
REMARK Flexibility Score: inf
ROOT
ATOM      1  C   UNL     1       3.645  33.926 -15.899  1.00  0.00     0.000 C 
ENDROOT
BRANCH   1   2
ATOM      2  C   UNL     1       4.777  33.800 -16.932  1.00  0.00     0.000 C 
BRANCH   2   3
ATOM      3  C   UNL     1       6.064  34.510 -16.478  1.00  0.00     0.000 C 
BRANCH   3   4
ATOM      4  C   UNL     1       7.279  33.569 -16.426  1.00  0.00     0.000 C 
BRANCH   4   5
ATOM      5  C   UNL     1       8.340  34.018 -15.411  1.00  0.00     0.000 C 
BRANCH   5   6
ATOM      6  C   UNL     1       8.768  32.854 -14.509  1.00  0.00     0.000 C 
BRANCH   6   7
ATOM      7  C   UNL     1       8.284  33.067 -13.067  1.00  0.00     0.000 C 
BRANCH   7   8
ATOM      8  C   UNL     1       7.624  34.437 -12.857  1.00  0.00     0.000 C 
BRANCH   8   9
ATOM      9  C   UNL     1       6.571  34.427 -11.738  1.00  0.00     0.000 C 
BRANCH   9  10
ATOM     10  C   UNL     1       6.430  33.052 -11.062  1.00  0.00     0.000 C 
BRANCH  10  11
ATOM     11  C   UNL     1       5.226  32.957 -10.099  1.00  0.00     0.000 C 
BRANCH  11  12
ATOM     12  C   UNL     1       5.592  33.391  -8.669  1.00  0.00     0.006 C 
BRANCH  12  13
ATOM     13  C   UNL     1       4.356  33.742  -7.832  1.00  0.00     0.053 C 
BRANCH  13  14
ATOM     14  C   UNL     1       3.637  34.943  -8.371  1.00  0.00     0.041 C 
ATOM     15  O   UNL     1       4.228  36.053  -8.448  1.00  0.00    -0.550 OA
ATOM     16  O   UNL     1       2.309  34.842  -8.764  1.00  0.00    -0.550 OA
ENDBRANCH  13  14
ENDBRANCH  12  13
ENDBRANCH  11  12
ENDBRANCH  10  11
ENDBRANCH   9  10
ENDBRANCH   8   9
ENDBRANCH   7   8
ENDBRANCH   6   7
ENDBRANCH   5   6
ENDBRANCH   4   5
ENDBRANCH   3   4
ENDBRANCH   2   3
ENDBRANCH   1   2
BRANCH   1  17
ATOM     17  C   UNL     1       4.143  33.756 -14.451  1.00  0.00     0.000 C 
BRANCH  17  18
ATOM     18  C   UNL     1       4.018  32.299 -13.963  1.00  0.00     0.000 C 
BRANCH  18  19
ATOM     19  C   UNL     1       5.352  31.533 -13.949  1.00  0.00     0.000 C 
BRANCH  19  20
ATOM     20  C   UNL     1       5.510  30.591 -15.155  1.00  0.00     0.000 C 
BRANCH  20  21
ATOM     21  C   UNL     1       6.838  29.815 -15.130  1.00  0.00     0.000 C 
BRANCH  21  22
ATOM     22  C   UNL     1       6.701  28.434 -14.464  1.00  0.00    -0.000 C 
BRANCH  22  23
ATOM     23  C   UNL     1       7.395  28.368 -13.093  1.00  0.00    -0.000 C 
BRANCH  23  24
ATOM     24  C   UNL     1       8.751  29.097 -13.085  1.00  0.00    -0.000 C 
BRANCH  24  25
ATOM     25  C   UNL     1       9.941  28.131 -12.970  1.00  0.00    -0.000 C 
BRANCH  25  26
ATOM     26  C   UNL     1       9.976  27.098 -14.107  1.00  0.00    -0.000 C 
BRANCH  26  27
ATOM     27  C   UNL     1      10.155  25.677 -13.553  1.00  0.00    -0.000 C 
BRANCH  27  28
ATOM     28  C   UNL     1       9.742  25.561 -12.077  1.00  0.00    -0.000 C 
BRANCH  28  29
ATOM     29  C   UNL     1       8.553  24.612 -11.864  1.00  0.00    -0.003 C 
ATOM     30  C   UNL     1       8.547  24.045 -10.447  1.00  0.00     0.004 C 
ENDBRANCH  28  29
ENDBRANCH  27  28
ENDBRANCH  26  27
ENDBRANCH  25  26
ENDBRANCH  24  25
ENDBRANCH  23  24
ENDBRANCH  22  23
ENDBRANCH  21  22
ENDBRANCH  20  21
ENDBRANCH  19  20
ENDBRANCH  18  19
ENDBRANCH  17  18
ENDBRANCH   1  17
TORSDOF 26
ENDMDL
MODEL 7
REMARK VINA RESULT:    -4.186      4.193      9.070
REMARK INTER + INTRA:         -15.051
REMARK INTER:                 -10.949
REMARK INTRA:                  -4.102
REMARK UNBOUND:                -4.503
REMARK SMILES CCCCCCCCCCCCCCCCCCCCCCCCCCCC(=O)[O-]
REMARK SMILES IDX 15 1 16 2 17 3 18 4 19 5 20 6 21 7 22 8 23 9 24 10 25 11
REMARK SMILES IDX 26 12 27 13 28 14 29 15 30 16 14 17 13 18 12 19 11 20 10 21
REMARK SMILES IDX 9 22 8 23 7 24 6 25 5 26 4 27 3 28 2 29 1 30
REMARK H PARENT
REMARK Flexibility Score: inf
ROOT
ATOM      1  C   UNL     1       7.909  32.607 -14.730  1.00  0.00     0.000 C 
ENDROOT
BRANCH   1   2
ATOM      2  C   UNL     1       8.076  33.624 -13.588  1.00  0.00     0.000 C 
BRANCH   2   3
ATOM      3  C   UNL     1       8.224  32.945 -12.216  1.00  0.00     0.000 C 
BRANCH   3   4
ATOM      4  C   UNL     1       7.037  33.224 -11.281  1.00  0.00     0.000 C 
BRANCH   4   5
ATOM      5  C   UNL     1       5.843  32.292 -11.535  1.00  0.00     0.000 C 
BRANCH   5   6
ATOM      6  C   UNL     1       4.530  33.081 -11.595  1.00  0.00     0.000 C 
BRANCH   6   7
ATOM      7  C   UNL     1       4.655  34.289 -12.536  1.00  0.00     0.000 C 
BRANCH   7   8
ATOM      8  C   UNL     1       3.759  34.171 -13.777  1.00  0.00     0.000 C 
BRANCH   8   9
ATOM      9  C   UNL     1       2.721  35.301 -13.873  1.00  0.00     0.000 C 
BRANCH   9  10
ATOM     10  C   UNL     1       2.205  35.519 -15.305  1.00  0.00     0.000 C 
BRANCH  10  11
ATOM     11  C   UNL     1       2.900  34.624 -16.355  1.00  0.00     0.000 C 
BRANCH  11  12
ATOM     12  C   UNL     1       2.658  35.121 -17.792  1.00  0.00     0.006 C 
BRANCH  12  13
ATOM     13  C   UNL     1       3.791  34.720 -18.745  1.00  0.00     0.053 C 
BRANCH  13  14
ATOM     14  C   UNL     1       3.269  34.256 -20.072  1.00  0.00     0.041 C 
ATOM     15  O   UNL     1       3.751  33.228 -20.618  1.00  0.00    -0.550 OA
ATOM     16  O   UNL     1       2.268  34.972 -20.716  1.00  0.00    -0.550 OA
ENDBRANCH  13  14
ENDBRANCH  12  13
ENDBRANCH  11  12
ENDBRANCH  10  11
ENDBRANCH   9  10
ENDBRANCH   8   9
ENDBRANCH   7   8
ENDBRANCH   6   7
ENDBRANCH   5   6
ENDBRANCH   4   5
ENDBRANCH   3   4
ENDBRANCH   2   3
ENDBRANCH   1   2
BRANCH   1  17
ATOM     17  C   UNL     1       6.754  32.971 -15.682  1.00  0.00     0.000 C 
BRANCH  17  18
ATOM     18  C   UNL     1       5.763  31.805 -15.865  1.00  0.00     0.000 C 
BRANCH  18  19
ATOM     19  C   UNL     1       5.857  30.733 -14.765  1.00  0.00     0.000 C 
BRANCH  19  20
ATOM     20  C   UNL     1       6.101  29.322 -15.328  1.00  0.00     0.000 C 
BRANCH  20  21
ATOM     21  C   UNL     1       7.020  28.477 -14.430  1.00  0.00     0.000 C 
BRANCH  21  22
ATOM     22  C   UNL     1       7.375  29.190 -13.112  1.00  0.00    -0.000 C 
BRANCH  22  23
ATOM     23  C   UNL     1       8.893  29.340 -12.913  1.00  0.00    -0.000 C 
BRANCH  23  24
ATOM     24  C   UNL     1       9.697  28.860 -14.134  1.00  0.00    -0.000 C 
BRANCH  24  25
ATOM     25  C   UNL     1      10.640  27.692 -13.800  1.00  0.00    -0.000 C 
BRANCH  25  26
ATOM     26  C   UNL     1      10.057  26.328 -14.201  1.00  0.00    -0.000 C 
BRANCH  26  27
ATOM     27  C   UNL     1       9.724  25.488 -12.960  1.00  0.00    -0.000 C 
BRANCH  27  28
ATOM     28  C   UNL     1       8.213  25.399 -12.692  1.00  0.00    -0.000 C 
BRANCH  28  29
ATOM     29  C   UNL     1       7.839  24.225 -11.774  1.00  0.00    -0.003 C 
ATOM     30  C   UNL     1       8.711  24.206 -10.522  1.00  0.00     0.004 C 
ENDBRANCH  28  29
ENDBRANCH  27  28
ENDBRANCH  26  27
ENDBRANCH  25  26
ENDBRANCH  24  25
ENDBRANCH  23  24
ENDBRANCH  22  23
ENDBRANCH  21  22
ENDBRANCH  20  21
ENDBRANCH  19  20
ENDBRANCH  18  19
ENDBRANCH  17  18
ENDBRANCH   1  17
TORSDOF 26
ENDMDL
MODEL 8
REMARK VINA RESULT:    -4.098      1.338      4.515
REMARK INTER + INTRA:         -14.830
REMARK INTER:                 -11.009
REMARK INTRA:                  -3.821
REMARK UNBOUND:                -4.503
REMARK SMILES CCCCCCCCCCCCCCCCCCCCCCCCCCCC(=O)[O-]
REMARK SMILES IDX 15 1 16 2 17 3 18 4 19 5 20 6 21 7 22 8 23 9 24 10 25 11
REMARK SMILES IDX 26 12 27 13 28 14 29 15 30 16 14 17 13 18 12 19 11 20 10 21
REMARK SMILES IDX 9 22 8 23 7 24 6 25 5 26 4 27 3 28 2 29 1 30
REMARK H PARENT
REMARK Flexibility Score: inf
ROOT
ATOM      1  C   UNL     1       3.563  34.249 -11.055  1.00  0.00     0.000 C 
ENDROOT
BRANCH   1   2
ATOM      2  C   UNL     1       3.243  33.796 -12.490  1.00  0.00     0.000 C 
BRANCH   2   3
ATOM      3  C   UNL     1       4.511  33.496 -13.306  1.00  0.00     0.000 C 
BRANCH   3   4
ATOM      4  C   UNL     1       4.263  32.501 -14.451  1.00  0.00     0.000 C 
BRANCH   4   5
ATOM      5  C   UNL     1       5.226  32.695 -15.631  1.00  0.00     0.000 C 
BRANCH   5   6
ATOM      6  C   UNL     1       5.990  31.401 -15.938  1.00  0.00     0.000 C 
BRANCH   6   7
ATOM      7  C   UNL     1       5.802  30.369 -14.815  1.00  0.00     0.000 C 
BRANCH   7   8
ATOM      8  C   UNL     1       6.185  28.946 -15.245  1.00  0.00     0.000 C 
BRANCH   8   9
ATOM      9  C   UNL     1       7.580  28.530 -14.754  1.00  0.00     0.000 C 
BRANCH   9  10
ATOM     10  C   UNL     1       7.555  27.887 -13.356  1.00  0.00     0.000 C 
BRANCH  10  11
ATOM     11  C   UNL     1       8.897  27.239 -12.950  1.00  0.00     0.000 C 
BRANCH  11  12
ATOM     12  C   UNL     1       8.902  25.718 -13.188  1.00  0.00     0.006 C 
BRANCH  12  13
ATOM     13  C   UNL     1       8.667  24.926 -11.896  1.00  0.00     0.053 C 
BRANCH  13  14
ATOM     14  C   UNL     1       7.283  24.352 -11.835  1.00  0.00     0.041 C 
ATOM     15  O   UNL     1       6.418  24.691 -12.685  1.00  0.00    -0.550 OA
ATOM     16  O   UNL     1       6.942  23.462 -10.824  1.00  0.00    -0.550 OA
ENDBRANCH  13  14
ENDBRANCH  12  13
ENDBRANCH  11  12
ENDBRANCH  10  11
ENDBRANCH   9  10
ENDBRANCH   8   9
ENDBRANCH   7   8
ENDBRANCH   6   7
ENDBRANCH   5   6
ENDBRANCH   4   5
ENDBRANCH   3   4
ENDBRANCH   2   3
ENDBRANCH   1   2
BRANCH   1  17
ATOM     17  C   UNL     1       3.752  35.774 -10.945  1.00  0.00     0.000 C 
BRANCH  17  18
ATOM     18  C   UNL     1       3.895  36.236  -9.481  1.00  0.00     0.000 C 
BRANCH  18  19
ATOM     19  C   UNL     1       3.121  35.364  -8.477  1.00  0.00     0.000 C 
BRANCH  19  20
ATOM     20  C   UNL     1       3.999  34.871  -7.315  1.00  0.00     0.000 C 
BRANCH  20  21
ATOM     21  C   UNL     1       4.316  33.369  -7.408  1.00  0.00     0.000 C 
BRANCH  21  22
ATOM     22  C   UNL     1       5.588  33.085  -8.227  1.00  0.00    -0.000 C 
BRANCH  22  23
ATOM     23  C   UNL     1       6.691  34.130  -7.986  1.00  0.00    -0.000 C 
BRANCH  23  24
ATOM     24  C   UNL     1       7.291  34.665  -9.298  1.00  0.00    -0.000 C 
BRANCH  24  25
ATOM     25  C   UNL     1       6.969  33.768 -10.504  1.00  0.00    -0.000 C 
BRANCH  25  26
ATOM     26  C   UNL     1       8.231  33.205 -11.176  1.00  0.00    -0.000 C 
BRANCH  26  27
ATOM     27  C   UNL     1       7.865  32.239 -12.312  1.00  0.00    -0.000 C 
BRANCH  27  28
ATOM     28  C   UNL     1       9.038  31.334 -12.721  1.00  0.00    -0.000 C 
BRANCH  28  29
ATOM     29  C   UNL     1       9.380  31.443 -14.215  1.00  0.00    -0.003 C 
ATOM     30  C   UNL     1       9.812  32.861 -14.580  1.00  0.00     0.004 C 
ENDBRANCH  28  29
ENDBRANCH  27  28
ENDBRANCH  26  27
ENDBRANCH  25  26
ENDBRANCH  24  25
ENDBRANCH  23  24
ENDBRANCH  22  23
ENDBRANCH  21  22
ENDBRANCH  20  21
ENDBRANCH  19  20
ENDBRANCH  18  19
ENDBRANCH  17  18
ENDBRANCH   1  17
TORSDOF 26
ENDMDL
MODEL 9
REMARK VINA RESULT:    -4.074      3.881      7.411
REMARK INTER + INTRA:         -14.769
REMARK INTER:                  -9.502
REMARK INTRA:                  -5.267
REMARK UNBOUND:                -4.503
REMARK SMILES CCCCCCCCCCCCCCCCCCCCCCCCCCCC(=O)[O-]
REMARK SMILES IDX 15 1 16 2 17 3 18 4 19 5 20 6 21 7 22 8 23 9 24 10 25 11
REMARK SMILES IDX 26 12 27 13 28 14 29 15 30 16 14 17 13 18 12 19 11 20 10 21
REMARK SMILES IDX 9 22 8 23 7 24 6 25 5 26 4 27 3 28 2 29 1 30
REMARK H PARENT
REMARK Flexibility Score: inf
ROOT
ATOM      1  C   UNL     1       4.749  31.723 -14.572  1.00  0.00     0.000 C 
ENDROOT
BRANCH   1   2
ATOM      2  C   UNL     1       6.040  31.602 -15.400  1.00  0.00     0.000 C 
BRANCH   2   3
ATOM      3  C   UNL     1       5.814  31.923 -16.887  1.00  0.00     0.000 C 
BRANCH   3   4
ATOM      4  C   UNL     1       6.648  33.120 -17.373  1.00  0.00     0.000 C 
BRANCH   4   5
ATOM      5  C   UNL     1       7.648  33.619 -16.319  1.00  0.00     0.000 C 
BRANCH   5   6
ATOM      6  C   UNL     1       7.901  35.123 -16.468  1.00  0.00     0.000 C 
BRANCH   6   7
ATOM      7  C   UNL     1       6.611  35.926 -16.239  1.00  0.00     0.000 C 
BRANCH   7   8
ATOM      8  C   UNL     1       5.828  35.453 -15.006  1.00  0.00     0.000 C 
BRANCH   8   9
ATOM      9  C   UNL     1       4.666  36.390 -14.642  1.00  0.00     0.000 C 
BRANCH   9  10
ATOM     10  C   UNL     1       3.354  36.022 -15.357  1.00  0.00     0.000 C 
BRANCH  10  11
ATOM     11  C   UNL     1       3.418  34.674 -16.109  1.00  0.00     0.000 C 
BRANCH  11  12
ATOM     12  C   UNL     1       2.606  34.700 -17.415  1.00  0.00     0.006 C 
BRANCH  12  13
ATOM     13  C   UNL     1       3.337  35.442 -18.541  1.00  0.00     0.053 C 
BRANCH  13  14
ATOM     14  C   UNL     1       3.270  34.696 -19.840  1.00  0.00     0.041 C 
ATOM     15  O   UNL     1       3.574  33.474 -19.885  1.00  0.00    -0.550 OA
ATOM     16  O   UNL     1       2.896  35.355 -21.004  1.00  0.00    -0.550 OA
ENDBRANCH  13  14
ENDBRANCH  12  13
ENDBRANCH  11  12
ENDBRANCH  10  11
ENDBRANCH   9  10
ENDBRANCH   8   9
ENDBRANCH   7   8
ENDBRANCH   6   7
ENDBRANCH   5   6
ENDBRANCH   4   5
ENDBRANCH   3   4
ENDBRANCH   2   3
ENDBRANCH   1   2
BRANCH   1  17
ATOM     17  C   UNL     1       5.005  32.272 -13.156  1.00  0.00     0.000 C 
BRANCH  17  18
ATOM     18  C   UNL     1       3.903  33.253 -12.707  1.00  0.00     0.000 C 
BRANCH  18  19
ATOM     19  C   UNL     1       4.036  33.707 -11.243  1.00  0.00     0.000 C 
BRANCH  19  20
ATOM     20  C   UNL     1       5.101  32.913 -10.468  1.00  0.00     0.000 C 
BRANCH  20  21
ATOM     21  C   UNL     1       6.085  33.822  -9.713  1.00  0.00     0.000 C 
BRANCH  21  22
ATOM     22  C   UNL     1       7.491  33.818 -10.341  1.00  0.00    -0.000 C 
BRANCH  22  23
ATOM     23  C   UNL     1       7.535  34.549 -11.695  1.00  0.00    -0.000 C 
BRANCH  23  24
ATOM     24  C   UNL     1       8.284  33.746 -12.773  1.00  0.00    -0.000 C 
BRANCH  24  25
ATOM     25  C   UNL     1       8.635  32.322 -12.312  1.00  0.00    -0.000 C 
BRANCH  25  26
ATOM     26  C   UNL     1       9.300  31.489 -13.418  1.00  0.00    -0.000 C 
BRANCH  26  27
ATOM     27  C   UNL     1       9.137  29.987 -13.149  1.00  0.00    -0.000 C 
BRANCH  27  28
ATOM     28  C   UNL     1       7.700  29.609 -12.754  1.00  0.00    -0.000 C 
BRANCH  28  29
ATOM     29  C   UNL     1       7.315  28.189 -13.198  1.00  0.00    -0.003 C 
ATOM     30  C   UNL     1       8.510  27.243 -13.115  1.00  0.00     0.004 C 
ENDBRANCH  28  29
ENDBRANCH  27  28
ENDBRANCH  26  27
ENDBRANCH  25  26
ENDBRANCH  24  25
ENDBRANCH  23  24
ENDBRANCH  22  23
ENDBRANCH  21  22
ENDBRANCH  20  21
ENDBRANCH  19  20
ENDBRANCH  18  19
ENDBRANCH  17  18
ENDBRANCH   1  17
TORSDOF 26
ENDMDL
