MODEL 1
REMARK VINA RESULT:    -3.404      0.000      0.000
REMARK INTER + INTRA:          -5.430
REMARK INTER:                  -4.698
REMARK INTRA:                  -0.733
REMARK UNBOUND:                -0.733
REMARK SMILES OC[C@@H](O)C(O)[C@H](O)CO
REMARK SMILES IDX 5 1 7 2 9 3 10 4 8 6 3 8 2 9 1 10 4 12 6 14
REMARK H PARENT 10 5 8 7 1 11 4 13 6 15
REMARK Flexibility Score: inf
ROOT
ATOM      1  C   UNL     1      34.997  -6.331  32.897  1.00  0.00     0.176 C 
ENDROOT
BRANCH   1   2
ATOM      2  C   UNL     1      33.612  -5.640  32.737  1.00  0.00     0.171 C 
BRANCH   2   3
ATOM      3  C   UNL     1      32.451  -6.642  32.619  1.00  0.00     0.190 C 
BRANCH   3   4
ATOM      4  O   UNL     1      32.875  -7.931  32.976  1.00  0.00    -0.394 OA
ATOM      5  H   UNL     1      32.335  -8.567  32.437  1.00  0.00     0.210 HD
ENDBRANCH   3   4
ENDBRANCH   2   3
BRANCH   2   6
ATOM      6  O   UNL     1      33.375  -4.819  33.855  1.00  0.00    -0.388 OA
ATOM      7  H   UNL     1      33.063  -3.940  33.514  1.00  0.00     0.211 HD
ENDBRANCH   2   6
ENDBRANCH   1   2
BRANCH   1   8
ATOM      8  C   UNL     1      36.195  -5.411  32.525  1.00  0.00     0.171 C 
BRANCH   8   9
ATOM      9  C   UNL     1      37.018  -4.996  33.762  1.00  0.00     0.190 C 
BRANCH   9  10
ATOM     10  O   UNL     1      36.313  -4.076  34.554  1.00  0.00    -0.394 OA
ATOM     11  H   UNL     1      36.346  -4.416  35.485  1.00  0.00     0.210 HD
ENDBRANCH   9  10
ENDBRANCH   8   9
BRANCH   8  12
ATOM     12  O   UNL     1      37.042  -6.076  31.622  1.00  0.00    -0.388 OA
ATOM     13  H   UNL     1      36.758  -5.808  30.710  1.00  0.00     0.211 HD
ENDBRANCH   8  12
ENDBRANCH   1   8
BRANCH   1  14
ATOM     14  O   UNL     1      35.131  -6.806  34.215  1.00  0.00    -0.388 OA
ATOM     15  H   UNL     1      34.449  -7.516  34.346  1.00  0.00     0.211 HD
ENDBRANCH   1  14
TORSDOF 9
ENDMDL
MODEL 2
REMARK VINA RESULT:    -3.401      1.619      3.173
REMARK INTER + INTRA:          -5.426
REMARK INTER:                  -4.894
REMARK INTRA:                  -0.532
REMARK UNBOUND:                -0.733
REMARK SMILES OC[C@@H](O)C(O)[C@H](O)CO
REMARK SMILES IDX 5 1 7 2 9 3 10 4 8 6 3 8 2 9 1 10 4 12 6 14
REMARK H PARENT 10 5 8 7 1 11 4 13 6 15
REMARK Flexibility Score: inf
ROOT
ATOM      1  C   UNL     1      35.206  -5.845  33.094  1.00  0.00     0.176 C 
ENDROOT
BRANCH   1   2
ATOM      2  C   UNL     1      35.906  -4.597  33.703  1.00  0.00     0.171 C 
BRANCH   2   3
ATOM      3  C   UNL     1      35.040  -3.875  34.749  1.00  0.00     0.190 C 
BRANCH   3   4
ATOM      4  O   UNL     1      33.677  -4.097  34.499  1.00  0.00    -0.394 OA
ATOM      5  H   UNL     1      33.205  -3.965  35.362  1.00  0.00     0.210 HD
ENDBRANCH   3   4
ENDBRANCH   2   3
BRANCH   2   6
ATOM      6  O   UNL     1      37.104  -4.998  34.322  1.00  0.00    -0.388 OA
ATOM      7  H   UNL     1      36.871  -5.689  34.996  1.00  0.00     0.211 HD
ENDBRANCH   2   6
ENDBRANCH   1   2
BRANCH   1   8
ATOM      8  C   UNL     1      36.060  -6.570  32.013  1.00  0.00     0.171 C 
BRANCH   8   9
ATOM      9  C   UNL     1      35.232  -6.943  30.768  1.00  0.00     0.190 C 
BRANCH   9  10
ATOM     10  O   UNL     1      34.005  -6.261  30.751  1.00  0.00    -0.394 OA
ATOM     11  H   UNL     1      34.011  -5.644  31.528  1.00  0.00     0.210 HD
ENDBRANCH   9  10
ENDBRANCH   8   9
BRANCH   8  12
ATOM     12  O   UNL     1      37.125  -5.743  31.617  1.00  0.00    -0.388 OA
ATOM     13  H   UNL     1      36.921  -4.830  31.949  1.00  0.00     0.211 HD
ENDBRANCH   8  12
ENDBRANCH   1   8
BRANCH   1  14
ATOM     14  O   UNL     1      34.861  -6.737  34.127  1.00  0.00    -0.388 OA
ATOM     15  H   UNL     1      34.042  -7.221  33.840  1.00  0.00     0.211 HD
ENDBRANCH   1  14
TORSDOF 9
ENDMDL
MODEL 3
REMARK VINA RESULT:    -3.258     19.078     20.210
REMARK INTER + INTRA:          -5.228
REMARK INTER:                  -4.453
REMARK INTRA:                  -0.776
REMARK UNBOUND:                -0.733
REMARK SMILES OC[C@@H](O)C(O)[C@H](O)CO
REMARK SMILES IDX 5 1 7 2 9 3 10 4 8 6 3 8 2 9 1 10 4 12 6 14
REMARK H PARENT 10 5 8 7 1 11 4 13 6 15
REMARK Flexibility Score: inf
ROOT
ATOM      1  C   UNL     1      30.635 -21.716  22.640  1.00  0.00     0.176 C 
ENDROOT
BRANCH   1   2
ATOM      2  C   UNL     1      29.560 -21.319  23.692  1.00  0.00     0.171 C 
BRANCH   2   3
ATOM      3  C   UNL     1      28.135 -21.292  23.113  1.00  0.00     0.190 C 
BRANCH   3   4
ATOM      4  O   UNL     1      27.982 -20.210  22.233  1.00  0.00    -0.394 OA
ATOM      5  H   UNL     1      27.556 -20.569  21.412  1.00  0.00     0.210 HD
ENDBRANCH   3   4
ENDBRANCH   2   3
BRANCH   2   6
ATOM      6  O   UNL     1      29.588 -22.245  24.751  1.00  0.00    -0.388 OA
ATOM      7  H   UNL     1      29.663 -21.725  25.594  1.00  0.00     0.211 HD
ENDBRANCH   2   6
ENDBRANCH   1   2
BRANCH   1   8
ATOM      8  C   UNL     1      30.250 -22.969  21.802  1.00  0.00     0.171 C 
BRANCH   8   9
ATOM      9  C   UNL     1      31.189 -23.176  20.597  1.00  0.00     0.190 C 
BRANCH   9  10
ATOM     10  O   UNL     1      32.519 -22.876  20.932  1.00  0.00    -0.394 OA
ATOM     11  H   UNL     1      32.843 -23.619  21.505  1.00  0.00     0.210 HD
ENDBRANCH   9  10
ENDBRANCH   8   9
BRANCH   8  12
ATOM     12  O   UNL     1      30.296 -24.116  22.613  1.00  0.00    -0.388 OA
ATOM     13  H   UNL     1      30.787 -24.811  22.103  1.00  0.00     0.211 HD
ENDBRANCH   8  12
ENDBRANCH   1   8
BRANCH   1  14
ATOM     14  O   UNL     1      30.888 -20.619  21.796  1.00  0.00    -0.388 OA
ATOM     15  H   UNL     1      31.121 -19.846  22.375  1.00  0.00     0.211 HD
ENDBRANCH   1  14
TORSDOF 9
ENDMDL
MODEL 4
REMARK VINA RESULT:    -3.248      8.259      9.553
REMARK INTER + INTRA:          -5.215
REMARK INTER:                  -5.111
REMARK INTRA:                  -0.105
REMARK UNBOUND:                -0.733
REMARK SMILES OC[C@@H](O)C(O)[C@H](O)CO
REMARK SMILES IDX 5 1 7 2 9 3 10 4 8 6 3 8 2 9 1 10 4 12 6 14
REMARK H PARENT 10 5 8 7 1 11 4 13 6 15
REMARK Flexibility Score: inf
ROOT
ATOM      1  C   UNL     1      35.746  -6.953  25.021  1.00  0.00     0.176 C 
ENDROOT
BRANCH   1   2
ATOM      2  C   UNL     1      36.152  -5.919  23.933  1.00  0.00     0.171 C 
BRANCH   2   3
ATOM      3  C   UNL     1      34.968  -5.072  23.437  1.00  0.00     0.190 C 
BRANCH   3   4
ATOM      4  O   UNL     1      34.898  -5.096  22.036  1.00  0.00    -0.394 OA
ATOM      5  H   UNL     1      35.135  -6.017  21.755  1.00  0.00     0.210 HD
ENDBRANCH   3   4
ENDBRANCH   2   3
BRANCH   2   6
ATOM      6  O   UNL     1      37.125  -5.052  24.463  1.00  0.00    -0.388 OA
ATOM      7  H   UNL     1      37.597  -4.636  23.695  1.00  0.00     0.211 HD
ENDBRANCH   2   6
ENDBRANCH   1   2
BRANCH   1   8
ATOM      8  C   UNL     1      35.156  -8.270  24.438  1.00  0.00     0.171 C 
BRANCH   8   9
ATOM      9  C   UNL     1      35.762  -9.524  25.098  1.00  0.00     0.190 C 
BRANCH   9  10
ATOM     10  O   UNL     1      34.780 -10.498  25.333  1.00  0.00    -0.394 OA
ATOM     11  H   UNL     1      34.403 -10.313  26.231  1.00  0.00     0.210 HD
ENDBRANCH   9  10
ENDBRANCH   8   9
BRANCH   8  12
ATOM     12  O   UNL     1      33.763  -8.289  24.623  1.00  0.00    -0.388 OA
ATOM     13  H   UNL     1      33.354  -8.376  23.723  1.00  0.00     0.211 HD
ENDBRANCH   8  12
ENDBRANCH   1   8
BRANCH   1  14
ATOM     14  O   UNL     1      36.858  -7.232  25.838  1.00  0.00    -0.388 OA
ATOM     15  H   UNL     1      36.529  -7.744  26.623  1.00  0.00     0.211 HD
ENDBRANCH   1  14
TORSDOF 9
ENDMDL
MODEL 5
REMARK VINA RESULT:    -3.100      7.648      8.997
REMARK INTER + INTRA:          -5.010
REMARK INTER:                  -4.480
REMARK INTRA:                  -0.531
REMARK UNBOUND:                -0.733
REMARK SMILES OC[C@@H](O)C(O)[C@H](O)CO
REMARK SMILES IDX 5 1 7 2 9 3 10 4 8 6 3 8 2 9 1 10 4 12 6 14
REMARK H PARENT 10 5 8 7 1 11 4 13 6 15
REMARK Flexibility Score: inf
ROOT
ATOM      1  C   UNL     1      35.558  -8.617  24.793  1.00  0.00     0.176 C 
ENDROOT
BRANCH   1   2
ATOM      2  C   UNL     1      36.584  -7.715  25.537  1.00  0.00     0.171 C 
BRANCH   2   3
ATOM      3  C   UNL     1      37.051  -6.516  24.694  1.00  0.00     0.190 C 
BRANCH   3   4
ATOM      4  O   UNL     1      36.076  -5.508  24.689  1.00  0.00    -0.394 OA
ATOM      5  H   UNL     1      35.196  -5.963  24.623  1.00  0.00     0.210 HD
ENDBRANCH   3   4
ENDBRANCH   2   3
BRANCH   2   6
ATOM      6  O   UNL     1      35.995  -7.223  26.716  1.00  0.00    -0.388 OA
ATOM      7  H   UNL     1      35.920  -7.986  27.348  1.00  0.00     0.211 HD
ENDBRANCH   2   6
ENDBRANCH   1   2
BRANCH   1   8
ATOM      8  C   UNL     1      35.191  -9.912  25.572  1.00  0.00     0.171 C 
BRANCH   8   9
ATOM      9  C   UNL     1      36.431 -10.604  26.173  1.00  0.00     0.190 C 
BRANCH   9  10
ATOM     10  O   UNL     1      37.125 -11.337  25.198  1.00  0.00    -0.394 OA
ATOM     11  H   UNL     1      37.929 -10.806  24.961  1.00  0.00     0.210 HD
ENDBRANCH   9  10
ENDBRANCH   8   9
BRANCH   8  12
ATOM     12  O   UNL     1      34.297  -9.603  26.612  1.00  0.00    -0.388 OA
ATOM     13  H   UNL     1      33.798  -8.792  26.332  1.00  0.00     0.211 HD
ENDBRANCH   8  12
ENDBRANCH   1   8
BRANCH   1  14
ATOM     14  O   UNL     1      34.400  -7.868  24.509  1.00  0.00    -0.388 OA
ATOM     15  H   UNL     1      33.619  -8.471  24.633  1.00  0.00     0.211 HD
ENDBRANCH   1  14
TORSDOF 9
ENDMDL
MODEL 6
REMARK VINA RESULT:    -3.082      1.683      4.386
REMARK INTER + INTRA:          -4.985
REMARK INTER:                  -4.477
REMARK INTRA:                  -0.508
REMARK UNBOUND:                -0.733
REMARK SMILES OC[C@@H](O)C(O)[C@H](O)CO
REMARK SMILES IDX 5 1 7 2 9 3 10 4 8 6 3 8 2 9 1 10 4 12 6 14
REMARK H PARENT 10 5 8 7 1 11 4 13 6 15
REMARK Flexibility Score: inf
ROOT
ATOM      1  C   UNL     1      33.922  -6.851  31.997  1.00  0.00     0.176 C 
ENDROOT
BRANCH   1   2
ATOM      2  C   UNL     1      34.802  -6.220  33.113  1.00  0.00     0.171 C 
BRANCH   2   3
ATOM      3  C   UNL     1      34.199  -4.930  33.696  1.00  0.00     0.190 C 
BRANCH   3   4
ATOM      4  O   UNL     1      34.940  -4.497  34.806  1.00  0.00    -0.394 OA
ATOM      5  H   UNL     1      35.418  -3.674  34.525  1.00  0.00     0.210 HD
ENDBRANCH   3   4
ENDBRANCH   2   3
BRANCH   2   6
ATOM      6  O   UNL     1      34.955  -7.148  34.160  1.00  0.00    -0.388 OA
ATOM      7  H   UNL     1      34.145  -7.083  34.731  1.00  0.00     0.211 HD
ENDBRANCH   2   6
ENDBRANCH   1   2
BRANCH   1   8
ATOM      8  C   UNL     1      32.461  -7.140  32.448  1.00  0.00     0.171 C 
BRANCH   8   9
ATOM      9  C   UNL     1      31.480  -7.183  31.259  1.00  0.00     0.190 C 
BRANCH   9  10
ATOM     10  O   UNL     1      31.986  -7.971  30.213  1.00  0.00    -0.394 OA
ATOM     11  H   UNL     1      31.632  -8.888  30.350  1.00  0.00     0.210 HD
ENDBRANCH   9  10
ENDBRANCH   8   9
BRANCH   8  12
ATOM     12  O   UNL     1      32.407  -8.372  33.122  1.00  0.00    -0.388 OA
ATOM     13  H   UNL     1      32.357  -9.079  32.428  1.00  0.00     0.211 HD
ENDBRANCH   8  12
ENDBRANCH   1   8
BRANCH   1  14
ATOM     14  O   UNL     1      33.931  -6.013  30.867  1.00  0.00    -0.388 OA
ATOM     15  H   UNL     1      34.687  -5.377  30.974  1.00  0.00     0.211 HD
ENDBRANCH   1  14
TORSDOF 9
ENDMDL
MODEL 7
REMARK VINA RESULT:    -3.059     19.002     20.912
REMARK INTER + INTRA:          -4.953
REMARK INTER:                  -4.086
REMARK INTRA:                  -0.867
REMARK UNBOUND:                -0.733
REMARK SMILES OC[C@@H](O)C(O)[C@H](O)CO
REMARK SMILES IDX 5 1 7 2 9 3 10 4 8 6 3 8 2 9 1 10 4 12 6 14
REMARK H PARENT 10 5 8 7 1 11 4 13 6 15
REMARK Flexibility Score: inf
ROOT
ATOM      1  C   UNL     1      28.767 -22.489  21.546  1.00  0.00     0.176 C 
ENDROOT
BRANCH   1   2
ATOM      2  C   UNL     1      29.497 -23.858  21.435  1.00  0.00     0.171 C 
BRANCH   2   3
ATOM      3  C   UNL     1      30.513 -23.905  20.282  1.00  0.00     0.190 C 
BRANCH   3   4
ATOM      4  O   UNL     1      31.677 -23.198  20.622  1.00  0.00    -0.394 OA
ATOM      5  H   UNL     1      31.896 -22.620  19.845  1.00  0.00     0.210 HD
ENDBRANCH   3   4
ENDBRANCH   2   3
BRANCH   2   6
ATOM      6  O   UNL     1      30.182 -24.113  22.638  1.00  0.00    -0.388 OA
ATOM      7  H   UNL     1      31.012 -24.605  22.404  1.00  0.00     0.211 HD
ENDBRANCH   2   6
ENDBRANCH   1   2
BRANCH   1   8
ATOM      8  C   UNL     1      29.145 -21.686  22.823  1.00  0.00     0.171 C 
BRANCH   8   9
ATOM      9  C   UNL     1      29.837 -20.349  22.489  1.00  0.00     0.190 C 
BRANCH   9  10
ATOM     10  O   UNL     1      31.040 -20.560  21.798  1.00  0.00    -0.394 OA
ATOM     11  H   UNL     1      30.965 -21.446  21.358  1.00  0.00     0.210 HD
ENDBRANCH   9  10
ENDBRANCH   8   9
BRANCH   8  12
ATOM     12  O   UNL     1      27.989 -21.420  23.577  1.00  0.00    -0.388 OA
ATOM     13  H   UNL     1      27.220 -21.782  23.064  1.00  0.00     0.211 HD
ENDBRANCH   8  12
ENDBRANCH   1   8
BRANCH   1  14
ATOM     14  O   UNL     1      29.027 -21.728  20.391  1.00  0.00    -0.388 OA
ATOM     15  H   UNL     1      28.349 -21.002  20.355  1.00  0.00     0.211 HD
ENDBRANCH   1  14
TORSDOF 9
ENDMDL
MODEL 8
REMARK VINA RESULT:    -3.049      7.521      8.517
REMARK INTER + INTRA:          -4.940
REMARK INTER:                  -4.449
REMARK INTRA:                  -0.490
REMARK UNBOUND:                -0.733
REMARK SMILES OC[C@@H](O)C(O)[C@H](O)CO
REMARK SMILES IDX 5 1 7 2 9 3 10 4 8 6 3 8 2 9 1 10 4 12 6 14
REMARK H PARENT 10 5 8 7 1 11 4 13 6 15
REMARK Flexibility Score: inf
ROOT
ATOM      1  C   UNL     1      34.449  -8.349  25.429  1.00  0.00     0.176 C 
ENDROOT
BRANCH   1   2
ATOM      2  C   UNL     1      33.808  -9.695  25.870  1.00  0.00     0.171 C 
BRANCH   2   3
ATOM      3  C   UNL     1      32.530 -10.037  25.085  1.00  0.00     0.190 C 
BRANCH   3   4
ATOM      4  O   UNL     1      31.835  -8.867  24.741  1.00  0.00    -0.394 OA
ATOM      5  H   UNL     1      32.473  -8.114  24.854  1.00  0.00     0.210 HD
ENDBRANCH   3   4
ENDBRANCH   2   3
BRANCH   2   6
ATOM      6  O   UNL     1      34.737 -10.734  25.674  1.00  0.00    -0.388 OA
ATOM      7  H   UNL     1      35.569 -10.321  25.323  1.00  0.00     0.211 HD
ENDBRANCH   2   6
ENDBRANCH   1   2
BRANCH   1   8
ATOM      8  C   UNL     1      35.903  -8.154  25.948  1.00  0.00     0.171 C 
BRANCH   8   9
ATOM      9  C   UNL     1      36.726  -7.215  25.044  1.00  0.00     0.190 C 
BRANCH   9  10
ATOM     10  O   UNL     1      36.048  -6.006  24.819  1.00  0.00    -0.394 OA
ATOM     11  H   UNL     1      35.088  -6.180  25.000  1.00  0.00     0.210 HD
ENDBRANCH   9  10
ENDBRANCH   8   9
BRANCH   8  12
ATOM     12  O   UNL     1      35.875  -7.621  27.248  1.00  0.00    -0.388 OA
ATOM     13  H   UNL     1      34.977  -7.817  27.621  1.00  0.00     0.211 HD
ENDBRANCH   8  12
ENDBRANCH   1   8
BRANCH   1  14
ATOM     14  O   UNL     1      34.412  -8.253  24.025  1.00  0.00    -0.388 OA
ATOM     15  H   UNL     1      35.333  -8.421  23.691  1.00  0.00     0.211 HD
ENDBRANCH   1  14
TORSDOF 9
ENDMDL
MODEL 9
REMARK VINA RESULT:    -2.205     19.242     20.292
REMARK INTER + INTRA:          -3.776
REMARK INTER:                  -3.333
REMARK INTRA:                  -0.443
REMARK UNBOUND:                -0.733
REMARK SMILES OC[C@@H](O)C(O)[C@H](O)CO
REMARK SMILES IDX 5 1 7 2 9 3 10 4 8 6 3 8 2 9 1 10 4 12 6 14
REMARK H PARENT 10 5 8 7 1 11 4 13 6 15
REMARK Flexibility Score: inf
ROOT
ATOM      1  C   UNL     1      29.846 -22.804  22.455  1.00  0.00     0.176 C 
ENDROOT
BRANCH   1   2
ATOM      2  C   UNL     1      29.123 -21.965  23.547  1.00  0.00     0.171 C 
BRANCH   2   3
ATOM      3  C   UNL     1      27.923 -22.698  24.171  1.00  0.00     0.190 C 
BRANCH   3   4
ATOM      4  O   UNL     1      28.292 -23.308  25.380  1.00  0.00    -0.394 OA
ATOM      5  H   UNL     1      28.941 -24.023  25.151  1.00  0.00     0.210 HD
ENDBRANCH   3   4
ENDBRANCH   2   3
BRANCH   2   6
ATOM      6  O   UNL     1      30.037 -21.661  24.573  1.00  0.00    -0.388 OA
ATOM      7  H   UNL     1      30.948 -21.714  24.181  1.00  0.00     0.211 HD
ENDBRANCH   2   6
ENDBRANCH   1   2
BRANCH   1   8
ATOM      8  C   UNL     1      31.215 -22.208  22.019  1.00  0.00     0.171 C 
BRANCH   8   9
ATOM      9  C   UNL     1      31.777 -22.896  20.759  1.00  0.00     0.190 C 
BRANCH   9  10
ATOM     10  O   UNL     1      33.181 -22.920  20.778  1.00  0.00    -0.394 OA
ATOM     11  H   UNL     1      33.484 -22.554  19.908  1.00  0.00     0.210 HD
ENDBRANCH   9  10
ENDBRANCH   8   9
BRANCH   8  12
ATOM     12  O   UNL     1      31.073 -20.834  21.759  1.00  0.00    -0.388 OA
ATOM     13  H   UNL     1      30.515 -20.458  22.489  1.00  0.00     0.211 HD
ENDBRANCH   8  12
ENDBRANCH   1   8
BRANCH   1  14
ATOM     14  O   UNL     1      30.008 -24.125  22.913  1.00  0.00    -0.388 OA
ATOM     15  H   UNL     1      29.226 -24.339  23.487  1.00  0.00     0.211 HD
ENDBRANCH   1  14
TORSDOF 9
ENDMDL
