MODEL 1
REMARK VINA RESULT:    -3.967      0.000      0.000
REMARK INTER + INTRA:          -4.439
REMARK INTER:                  -4.315
REMARK INTRA:                  -0.124
REMARK UNBOUND:                -0.124
REMARK SMILES Cc1ccc(C(C)C)cc1O
REMARK SMILES IDX 1 1 2 2 10 3 9 4 5 5 4 6 3 7 11 8 6 10 7 11 8 12
REMARK H PARENT 11 9
REMARK Flexibility Score: inf
ROOT
ATOM      1  C   UNL     1      -8.167  -8.648  -4.906  1.00  0.00     0.048 C 
ATOM      2  C   UNL     1      -7.124  -9.028  -3.891  1.00  0.00    -0.009 A 
ATOM      3  C   UNL     1      -5.770  -9.186  -4.256  1.00  0.00     0.118 A 
ATOM      4  C   UNL     1      -4.823  -9.539  -3.287  1.00  0.00     0.050 A 
ATOM      5  C   UNL     1      -5.203  -9.741  -1.948  1.00  0.00    -0.042 A 
ATOM      6  C   UNL     1      -6.552  -9.583  -1.593  1.00  0.00     0.004 A 
ATOM      7  C   UNL     1      -7.501  -9.230  -2.554  1.00  0.00     0.007 A 
ENDROOT
BRANCH   3   8
ATOM      8  O   UNL     1      -5.332  -8.999  -5.570  1.00  0.00    -0.508 OA
ATOM      9  H   UNL     1      -5.024  -8.102  -5.926  1.00  0.00     0.293 HD
ENDBRANCH   3   8
BRANCH   5  10
ATOM     10  C   UNL     1      -4.181 -10.125  -0.893  1.00  0.00     0.013 C 
ATOM     11  C   UNL     1      -4.454  -9.400   0.431  1.00  0.00     0.012 C 
ATOM     12  C   UNL     1      -2.753  -9.858  -1.383  1.00  0.00     0.012 C 
ENDBRANCH   5  10
TORSDOF 2
ENDMDL
MODEL 2
REMARK VINA RESULT:    -3.958     10.110     11.354
REMARK INTER + INTRA:          -4.429
REMARK INTER:                  -4.301
REMARK INTRA:                  -0.127
REMARK UNBOUND:                -0.124
REMARK SMILES Cc1ccc(C(C)C)cc1O
REMARK SMILES IDX 1 1 2 2 10 3 9 4 5 5 4 6 3 7 11 8 6 10 7 11 8 12
REMARK H PARENT 11 9
REMARK Flexibility Score: inf
ROOT
ATOM      1  C   UNL     1       2.583  -1.085  -7.290  1.00  0.00     0.048 C 
ATOM      2  C   UNL     1       2.846  -2.559  -7.152  1.00  0.00    -0.009 A 
ATOM      3  C   UNL     1       4.110  -3.043  -6.750  1.00  0.00     0.118 A 
ATOM      4  C   UNL     1       4.323  -4.421  -6.630  1.00  0.00     0.050 A 
ATOM      5  C   UNL     1       3.292  -5.337  -6.907  1.00  0.00    -0.042 A 
ATOM      6  C   UNL     1       2.038  -4.848  -7.307  1.00  0.00     0.004 A 
ATOM      7  C   UNL     1       1.818  -3.475  -7.428  1.00  0.00     0.007 A 
ENDROOT
BRANCH   3   8
ATOM      8  O   UNL     1       5.173  -2.183  -6.462  1.00  0.00    -0.508 OA
ATOM      9  H   UNL     1       5.244  -1.247  -6.842  1.00  0.00     0.293 HD
ENDBRANCH   3   8
BRANCH   5  10
ATOM     10  C   UNL     1       3.518  -6.833  -6.780  1.00  0.00     0.013 C 
ATOM     11  C   UNL     1       2.202  -7.605  -6.933  1.00  0.00     0.012 C 
ATOM     12  C   UNL     1       4.208  -7.177  -5.455  1.00  0.00     0.012 C 
ENDBRANCH   5  10
TORSDOF 2
ENDMDL
MODEL 3
REMARK VINA RESULT:    -3.944      9.732     11.097
REMARK INTER + INTRA:          -4.413
REMARK INTER:                  -4.292
REMARK INTRA:                  -0.121
REMARK UNBOUND:                -0.124
REMARK SMILES Cc1ccc(C(C)C)cc1O
REMARK SMILES IDX 1 1 2 2 10 3 9 4 5 5 4 6 3 7 11 8 6 10 7 11 8 12
REMARK H PARENT 11 9
REMARK Flexibility Score: inf
ROOT
ATOM      1  C   UNL     1       2.797  -1.211  -7.404  1.00  0.00     0.048 C 
ATOM      2  C   UNL     1       2.992  -2.690  -7.213  1.00  0.00    -0.009 A 
ATOM      3  C   UNL     1       1.946  -3.605  -7.462  1.00  0.00     0.118 A 
ATOM      4  C   UNL     1       2.159  -4.976  -7.276  1.00  0.00     0.050 A 
ATOM      5  C   UNL     1       3.407  -5.459  -6.842  1.00  0.00    -0.042 A 
ATOM      6  C   UNL     1       4.442  -4.543  -6.597  1.00  0.00     0.004 A 
ATOM      7  C   UNL     1       4.237  -3.175  -6.781  1.00  0.00     0.007 A 
ENDROOT
BRANCH   3   8
ATOM      8  O   UNL     1       0.685  -3.186  -7.894  1.00  0.00    -0.508 OA
ATOM      9  H   UNL     1      -0.175  -3.631  -7.599  1.00  0.00     0.293 HD
ENDBRANCH   3   8
BRANCH   5  10
ATOM     10  C   UNL     1       3.644  -6.944  -6.638  1.00  0.00     0.013 C 
ATOM     11  C   UNL     1       2.342  -7.739  -6.796  1.00  0.00     0.012 C 
ATOM     12  C   UNL     1       4.296  -7.219  -5.277  1.00  0.00     0.012 C 
ENDBRANCH   5  10
TORSDOF 2
ENDMDL
MODEL 4
REMARK VINA RESULT:    -3.937      9.253     10.754
REMARK INTER + INTRA:          -4.406
REMARK INTER:                  -4.282
REMARK INTRA:                  -0.125
REMARK UNBOUND:                -0.124
REMARK SMILES Cc1ccc(C(C)C)cc1O
REMARK SMILES IDX 1 1 2 2 10 3 9 4 5 5 4 6 3 7 11 8 6 10 7 11 8 12
REMARK H PARENT 11 9
REMARK Flexibility Score: inf
ROOT
ATOM      1  C   UNL     1       1.540  -7.482  -7.662  1.00  0.00     0.048 C 
ATOM      2  C   UNL     1       2.709  -7.059  -6.815  1.00  0.00    -0.009 A 
ATOM      3  C   UNL     1       3.291  -7.940  -5.878  1.00  0.00     0.118 A 
ATOM      4  C   UNL     1       4.378  -7.517  -5.105  1.00  0.00     0.050 A 
ATOM      5  C   UNL     1       4.903  -6.220  -5.247  1.00  0.00    -0.042 A 
ATOM      6  C   UNL     1       4.319  -5.349  -6.180  1.00  0.00     0.004 A 
ATOM      7  C   UNL     1       3.234  -5.765  -6.955  1.00  0.00     0.007 A 
ENDROOT
BRANCH   3   8
ATOM      8  O   UNL     1       2.814  -9.241  -5.691  1.00  0.00    -0.508 OA
ATOM      9  H   UNL     1       1.913  -9.552  -6.033  1.00  0.00     0.293 HD
ENDBRANCH   3   8
BRANCH   5  10
ATOM     10  C   UNL     1       6.081  -5.755  -4.411  1.00  0.00     0.013 C 
ATOM     11  C   UNL     1       6.237  -6.614  -3.149  1.00  0.00     0.012 C 
ATOM     12  C   UNL     1       5.955  -4.270  -4.054  1.00  0.00     0.012 C 
ENDBRANCH   5  10
TORSDOF 2
ENDMDL
MODEL 5
REMARK VINA RESULT:    -3.928      9.358     10.814
REMARK INTER + INTRA:          -4.397
REMARK INTER:                  -4.270
REMARK INTRA:                  -0.127
REMARK UNBOUND:                -0.124
REMARK SMILES Cc1ccc(C(C)C)cc1O
REMARK SMILES IDX 1 1 2 2 10 3 9 4 5 5 4 6 3 7 11 8 6 10 7 11 8 12
REMARK H PARENT 11 9
REMARK Flexibility Score: inf
ROOT
ATOM      1  C   UNL     1       1.534  -7.478  -7.664  1.00  0.00     0.048 C 
ATOM      2  C   UNL     1       2.706  -7.026  -6.838  1.00  0.00    -0.009 A 
ATOM      3  C   UNL     1       3.243  -5.727  -6.976  1.00  0.00     0.118 A 
ATOM      4  C   UNL     1       4.334  -5.337  -6.191  1.00  0.00     0.050 A 
ATOM      5  C   UNL     1       4.908  -6.223  -5.261  1.00  0.00    -0.042 A 
ATOM      6  C   UNL     1       4.369  -7.512  -5.130  1.00  0.00     0.004 A 
ATOM      7  C   UNL     1       3.280  -7.908  -5.908  1.00  0.00     0.007 A 
ENDROOT
BRANCH   3   8
ATOM      8  O   UNL     1       2.717  -4.803  -7.883  1.00  0.00    -0.508 OA
ATOM      9  H   UNL     1       2.085  -5.062  -8.630  1.00  0.00     0.293 HD
ENDBRANCH   3   8
BRANCH   5  10
ATOM     10  C   UNL     1       6.092  -5.804  -4.408  1.00  0.00     0.013 C 
ATOM     11  C   UNL     1       6.252  -6.728  -3.195  1.00  0.00     0.012 C 
ATOM     12  C   UNL     1       5.969  -4.339  -3.973  1.00  0.00     0.012 C 
ENDBRANCH   5  10
TORSDOF 2
ENDMDL
MODEL 6
REMARK VINA RESULT:    -3.918     18.370     18.888
REMARK INTER + INTRA:          -4.386
REMARK INTER:                  -4.279
REMARK INTRA:                  -0.107
REMARK UNBOUND:                -0.124
REMARK SMILES Cc1ccc(C(C)C)cc1O
REMARK SMILES IDX 1 1 2 2 10 3 9 4 5 5 4 6 3 7 11 8 6 10 7 11 8 12
REMARK H PARENT 11 9
REMARK Flexibility Score: inf
ROOT
ATOM      1  C   UNL     1      -2.862   6.750   0.869  1.00  0.00     0.048 C 
ATOM      2  C   UNL     1      -1.666   7.510   0.366  1.00  0.00    -0.009 A 
ATOM      3  C   UNL     1      -1.185   7.333  -0.949  1.00  0.00     0.118 A 
ATOM      4  C   UNL     1      -0.070   8.057  -1.387  1.00  0.00     0.050 A 
ATOM      5  C   UNL     1       0.584   8.962  -0.531  1.00  0.00    -0.042 A 
ATOM      6  C   UNL     1       0.101   9.132   0.775  1.00  0.00     0.004 A 
ATOM      7  C   UNL     1      -1.011   8.414   1.218  1.00  0.00     0.007 A 
ENDROOT
BRANCH   3   8
ATOM      8  O   UNL     1      -1.792   6.449  -1.845  1.00  0.00    -0.508 OA
ATOM      9  H   UNL     1      -1.311   6.059  -2.646  1.00  0.00     0.293 HD
ENDBRANCH   3   8
BRANCH   5  10
ATOM     10  C   UNL     1       1.795   9.748  -1.001  1.00  0.00     0.013 C 
ATOM     11  C   UNL     1       1.790   9.913  -2.526  1.00  0.00     0.012 C 
ATOM     12  C   UNL     1       3.098   9.097  -0.521  1.00  0.00     0.012 C 
ENDBRANCH   5  10
TORSDOF 2
ENDMDL
MODEL 7
REMARK VINA RESULT:    -3.912     10.639     12.786
REMARK INTER + INTRA:          -4.379
REMARK INTER:                  -4.253
REMARK INTRA:                  -0.126
REMARK UNBOUND:                -0.124
REMARK SMILES Cc1ccc(C(C)C)cc1O
REMARK SMILES IDX 1 1 2 2 10 3 9 4 5 5 4 6 3 7 11 8 6 10 7 11 8 12
REMARK H PARENT 11 9
REMARK Flexibility Score: inf
ROOT
ATOM      1  C   UNL     1       7.313  -2.671  -3.117  1.00  0.00     0.048 C 
ATOM      2  C   UNL     1       6.528  -3.647  -3.948  1.00  0.00    -0.009 A 
ATOM      3  C   UNL     1       5.827  -3.230  -5.101  1.00  0.00     0.118 A 
ATOM      4  C   UNL     1       5.105  -4.163  -5.853  1.00  0.00     0.050 A 
ATOM      5  C   UNL     1       5.066  -5.519  -5.478  1.00  0.00    -0.042 A 
ATOM      6  C   UNL     1       5.766  -5.925  -4.330  1.00  0.00     0.004 A 
ATOM      7  C   UNL     1       6.488  -5.000  -3.575  1.00  0.00     0.007 A 
ENDROOT
BRANCH   3   8
ATOM      8  O   UNL     1       5.827  -1.898  -5.524  1.00  0.00    -0.508 OA
ATOM      9  H   UNL     1       5.992  -1.121  -4.898  1.00  0.00     0.293 HD
ENDBRANCH   3   8
BRANCH   5  10
ATOM     10  C   UNL     1       4.285  -6.535  -6.290  1.00  0.00     0.013 C 
ATOM     11  C   UNL     1       3.067  -5.888  -6.960  1.00  0.00     0.012 C 
ATOM     12  C   UNL     1       3.868  -7.731  -5.426  1.00  0.00     0.012 C 
ENDBRANCH   5  10
TORSDOF 2
ENDMDL
MODEL 8
REMARK VINA RESULT:    -3.892      9.185     11.319
REMARK INTER + INTRA:          -4.357
REMARK INTER:                  -4.231
REMARK INTRA:                  -0.126
REMARK UNBOUND:                -0.124
REMARK SMILES Cc1ccc(C(C)C)cc1O
REMARK SMILES IDX 1 1 2 2 10 3 9 4 5 5 4 6 3 7 11 8 6 10 7 11 8 12
REMARK H PARENT 11 9
REMARK Flexibility Score: inf
ROOT
ATOM      1  C   UNL     1       6.541  -4.797  -4.073  1.00  0.00     0.048 C 
ATOM      2  C   UNL     1       5.514  -5.604  -4.817  1.00  0.00    -0.009 A 
ATOM      3  C   UNL     1       4.754  -5.037  -5.863  1.00  0.00     0.118 A 
ATOM      4  C   UNL     1       3.806  -5.815  -6.538  1.00  0.00     0.050 A 
ATOM      5  C   UNL     1       3.596  -7.162  -6.188  1.00  0.00    -0.042 A 
ATOM      6  C   UNL     1       4.356  -7.718  -5.147  1.00  0.00     0.004 A 
ATOM      7  C   UNL     1       5.303  -6.949  -4.470  1.00  0.00     0.007 A 
ENDROOT
BRANCH   3   8
ATOM      8  O   UNL     1       4.916  -3.706  -6.256  1.00  0.00    -0.508 OA
ATOM      9  H   UNL     1       4.825  -2.927  -5.616  1.00  0.00     0.293 HD
ENDBRANCH   3   8
BRANCH   5  10
ATOM     10  C   UNL     1       2.569  -8.010  -6.915  1.00  0.00     0.013 C 
ATOM     11  C   UNL     1       1.394  -7.155  -7.405  1.00  0.00     0.012 C 
ATOM     12  C   UNL     1       2.081  -9.165  -6.033  1.00  0.00     0.012 C 
ENDBRANCH   5  10
TORSDOF 2
ENDMDL
MODEL 9
REMARK VINA RESULT:    -3.865     11.161     11.817
REMARK INTER + INTRA:          -4.328
REMARK INTER:                  -4.205
REMARK INTRA:                  -0.123
REMARK UNBOUND:                -0.124
REMARK SMILES Cc1ccc(C(C)C)cc1O
REMARK SMILES IDX 1 1 2 2 10 3 9 4 5 5 4 6 3 7 11 8 6 10 7 11 8 12
REMARK H PARENT 11 9
REMARK Flexibility Score: inf
ROOT
ATOM      1  C   UNL     1      -0.034  -1.239  -8.263  1.00  0.00     0.048 C 
ATOM      2  C   UNL     1       1.219  -1.941  -7.819  1.00  0.00    -0.009 A 
ATOM      3  C   UNL     1       2.198  -1.276  -7.050  1.00  0.00     0.118 A 
ATOM      4  C   UNL     1       3.354  -1.958  -6.652  1.00  0.00     0.050 A 
ATOM      5  C   UNL     1       3.556  -3.303  -7.009  1.00  0.00    -0.042 A 
ATOM      6  C   UNL     1       2.578  -3.958  -7.774  1.00  0.00     0.004 A 
ATOM      7  C   UNL     1       1.423  -3.284  -8.174  1.00  0.00     0.007 A 
ENDROOT
BRANCH   3   8
ATOM      8  O   UNL     1       2.054   0.060  -6.665  1.00  0.00    -0.508 OA
ATOM      9  H   UNL     1       2.837   0.648  -6.412  1.00  0.00     0.293 HD
ENDBRANCH   3   8
BRANCH   5  10
ATOM     10  C   UNL     1       4.808  -4.047  -6.581  1.00  0.00     0.013 C 
ATOM     11  C   UNL     1       4.471  -5.463  -6.096  1.00  0.00     0.012 C 
ATOM     12  C   UNL     1       5.576  -3.266  -5.508  1.00  0.00     0.012 C 
ENDBRANCH   5  10
TORSDOF 2
ENDMDL
