MODEL 1
REMARK VINA RESULT:    -4.966      0.000      0.000
REMARK INTER + INTRA:          -5.617
REMARK INTER:                  -6.127
REMARK INTRA:                   0.510
REMARK UNBOUND:                 0.510
REMARK SMILES C=C1[C@H]2CC[C@@H]3[C@@H]2C(C)(C)CCC[C@]13C
REMARK SMILES IDX 14 1 6 2 7 3 3 4 2 5 1 6 4 7 5 8 15 9 8 10 9 11 10 12 11 13
REMARK SMILES IDX 13 15 12 16
REMARK H PARENT
REMARK Flexibility Score: 80.00
ROOT
ATOM      1  C   UNL     1       8.595  31.866  22.609  1.00  0.00    -0.008 C 
ATOM      2  C   UNL     1       9.948  32.380  23.080  1.00  0.00     0.003 C 
ATOM      3  C   UNL     1      10.281  33.304  21.894  1.00  0.00     0.006 C 
ATOM      4  C   UNL     1       9.131  34.258  22.170  1.00  0.00     0.019 C 
ATOM      5  C   UNL     1       7.999  33.205  22.150  1.00  0.00    -0.068 C 
ATOM      6  C   UNL     1       6.747  33.418  21.733  1.00  0.00     0.009 C 
ATOM      7  C   UNL     1       9.351  34.665  23.621  1.00  0.00     0.008 C 
ATOM      8  C   UNL     1       9.889  33.382  24.258  1.00  0.00     0.005 C 
ATOM      9  C   UNL     1       7.751  31.246  23.743  1.00  0.00     0.016 C 
ENDROOT
BRANCH   3  10
ATOM     10  C   UNL     1      11.644  32.923  21.275  1.00  0.00    -0.032 C 
ATOM     11  C   UNL     1      12.791  33.124  22.290  1.00  0.00     0.011 C 
ATOM     12  C   UNL     1      11.972  33.791  20.028  1.00  0.00     0.011 C 
BRANCH  10  13
ATOM     13  C   UNL     1      11.515  31.384  20.864  1.00  0.00     0.007 CG0
ATOM     14  G   UNL     1      10.070  30.876  20.435  1.00  0.00     0.000 G0
ENDBRANCH  10  13
ENDBRANCH   3  10
BRANCH   1  15
ATOM     15  C   UNL     1       8.884  30.762  21.492  1.00  0.00     0.011 C 
BRANCH  15  16
ATOM     16  C   UNL     1      10.075  30.871  20.432  1.00  0.00     0.001 CG0
ATOM     17  G   UNL     1      11.517  31.380  20.867  1.00  0.00     0.000 G0
ENDBRANCH  15  16
ENDBRANCH   1  15
TORSDOF 0
ENDMDL
MODEL 2
REMARK VINA RESULT:    -4.874      2.233      4.026
REMARK INTER + INTRA:          -5.503
REMARK INTER:                  -6.019
REMARK INTRA:                   0.516
REMARK UNBOUND:                 0.510
REMARK SMILES C=C1[C@H]2CC[C@@H]3[C@@H]2C(C)(C)CCC[C@]13C
REMARK SMILES IDX 14 1 6 2 7 3 3 4 2 5 1 6 4 7 5 8 15 9 8 10 9 11 10 12 11 13
REMARK SMILES IDX 13 15 12 16
REMARK H PARENT
REMARK Flexibility Score: 80.00
ROOT
ATOM      1  C   UNL     1       8.002  31.620  22.056  1.00  0.00    -0.008 C 
ATOM      2  C   UNL     1       8.385  32.994  22.587  1.00  0.00     0.003 C 
ATOM      3  C   UNL     1       9.529  32.578  23.529  1.00  0.00     0.006 C 
ATOM      4  C   UNL     1      10.424  32.082  22.405  1.00  0.00     0.019 C 
ATOM      5  C   UNL     1       9.417  31.087  21.783  1.00  0.00    -0.068 C 
ATOM      6  C   UNL     1       9.732  29.935  21.183  1.00  0.00     0.009 C 
ATOM      7  C   UNL     1      10.517  33.282  21.473  1.00  0.00     0.008 C 
ATOM      8  C   UNL     1       9.120  33.901  21.571  1.00  0.00     0.005 C 
ATOM      9  C   UNL     1       7.173  31.679  20.755  1.00  0.00     0.016 C 
ENDROOT
BRANCH   3  10
ATOM     10  C   UNL     1       9.263  33.086  24.963  1.00  0.00    -0.032 C 
ATOM     11  C   UNL     1       9.249  34.630  25.012  1.00  0.00     0.011 C 
ATOM     12  C   UNL     1      10.356  32.602  25.956  1.00  0.00     0.011 C 
BRANCH  10  13
ATOM     13  C   UNL     1       7.837  32.493  25.372  1.00  0.00     0.007 CG0
ATOM     14  G   UNL     1       7.444  31.081  24.754  1.00  0.00     0.000 G0
ENDBRANCH  10  13
ENDBRANCH   3  10
BRANCH   1  15
ATOM     15  C   UNL     1       7.150  30.903  23.201  1.00  0.00     0.011 C 
BRANCH  15  16
ATOM     16  C   UNL     1       7.445  31.081  24.761  1.00  0.00     0.001 CG0
ATOM     17  G   UNL     1       7.831  32.500  25.368  1.00  0.00     0.000 G0
ENDBRANCH  15  16
ENDBRANCH   1  15
TORSDOF 0
ENDMDL
MODEL 3
REMARK VINA RESULT:    -4.490      1.661      3.528
REMARK INTER + INTRA:          -5.030
REMARK INTER:                  -5.540
REMARK INTRA:                   0.510
REMARK UNBOUND:                 0.510
REMARK SMILES C=C1[C@H]2CC[C@@H]3[C@@H]2C(C)(C)CCC[C@]13C
REMARK SMILES IDX 14 1 6 2 7 3 3 4 2 5 1 6 4 7 5 8 15 9 8 10 9 11 10 12 11 13
REMARK SMILES IDX 13 15 12 16
REMARK H PARENT
REMARK Flexibility Score: 80.00
ROOT
ATOM      1  C   UNL     1       9.676  32.463  20.837  1.00  0.00    -0.008 C 
ATOM      2  C   UNL     1       8.836  32.038  22.033  1.00  0.00     0.003 C 
ATOM      3  C   UNL     1       8.756  33.391  22.763  1.00  0.00     0.006 C 
ATOM      4  C   UNL     1       7.957  34.066  21.660  1.00  0.00     0.019 C 
ATOM      5  C   UNL     1       8.939  33.769  20.503  1.00  0.00    -0.068 C 
ATOM      6  C   UNL     1       9.154  34.556  19.445  1.00  0.00     0.009 C 
ATOM      7  C   UNL     1       6.754  33.149  21.485  1.00  0.00     0.008 C 
ATOM      8  C   UNL     1       7.348  31.757  21.716  1.00  0.00     0.005 C 
ATOM      9  C   UNL     1       9.601  31.470  19.657  1.00  0.00     0.016 C 
ENDROOT
BRANCH   3  10
ATOM     10  C   UNL     1       9.272  33.257  24.213  1.00  0.00    -0.032 C 
ATOM     11  C   UNL     1       8.399  32.276  25.026  1.00  0.00     0.011 C 
ATOM     12  C   UNL     1       9.252  34.621  24.959  1.00  0.00     0.011 C 
BRANCH  10  13
ATOM     13  C   UNL     1      10.770  32.714  24.088  1.00  0.00     0.007 CG0
ATOM     14  G   UNL     1      11.578  33.135  22.784  1.00  0.00     0.000 G0
ENDBRANCH  10  13
ENDBRANCH   3  10
BRANCH   1  15
ATOM     15  C   UNL     1      11.185  32.574  21.348  1.00  0.00     0.011 C 
BRANCH  15  16
ATOM     16  C   UNL     1      11.589  33.134  22.789  1.00  0.00     0.001 CG0
ATOM     17  G   UNL     1      10.782  32.708  24.092  1.00  0.00     0.000 G0
ENDBRANCH  15  16
ENDBRANCH   1  15
TORSDOF 0
ENDMDL
MODEL 4
REMARK VINA RESULT:    -4.392      1.709      4.174
REMARK INTER + INTRA:          -4.909
REMARK INTER:                  -5.416
REMARK INTRA:                   0.507
REMARK UNBOUND:                 0.510
REMARK SMILES C=C1[C@H]2CC[C@@H]3[C@@H]2C(C)(C)CCC[C@]13C
REMARK SMILES IDX 14 1 6 2 7 3 3 4 2 5 1 6 4 7 5 8 15 9 8 10 9 11 10 12 11 13
REMARK SMILES IDX 13 15 12 16
REMARK H PARENT
REMARK Flexibility Score: 80.00
ROOT
ATOM      1  C   UNL     1      11.414  33.259  20.125  1.00  0.00    -0.008 C 
ATOM      2  C   UNL     1      11.640  33.500  21.611  1.00  0.00     0.003 C 
ATOM      3  C   UNL     1      10.693  32.426  22.176  1.00  0.00     0.006 C 
ATOM      4  C   UNL     1      11.493  31.263  21.613  1.00  0.00     0.019 C 
ATOM      5  C   UNL     1      11.490  31.724  20.137  1.00  0.00    -0.068 C 
ATOM      6  C   UNL     1      11.478  30.918  19.071  1.00  0.00     0.009 C 
ATOM      7  C   UNL     1      12.894  31.501  22.162  1.00  0.00     0.008 C 
ATOM      8  C   UNL     1      13.014  33.027  22.144  1.00  0.00     0.005 C 
ATOM      9  C   UNL     1      12.524  33.859  19.235  1.00  0.00     0.016 C 
ENDROOT
BRANCH   3  10
ATOM     10  C   UNL     1       9.668  33.061  23.142  1.00  0.00    -0.032 C 
ATOM     11  C   UNL     1      10.374  33.708  24.354  1.00  0.00     0.011 C 
ATOM     12  C   UNL     1       8.672  32.005  23.697  1.00  0.00     0.011 C 
BRANCH  10  13
ATOM     13  C   UNL     1       8.892  34.162  22.283  1.00  0.00     0.007 CG0
ATOM     14  G   UNL     1       8.743  33.881  20.725  1.00  0.00     0.000 G0
ENDBRANCH  10  13
ENDBRANCH   3  10
BRANCH   1  15
ATOM     15  C   UNL     1      10.012  33.928  19.756  1.00  0.00     0.011 C 
BRANCH  15  16
ATOM     16  C   UNL     1       8.740  33.898  20.723  1.00  0.00     0.001 CG0
ATOM     17  G   UNL     1       8.887  34.164  22.284  1.00  0.00     0.000 G0
ENDBRANCH  15  16
ENDBRANCH   1  15
TORSDOF 0
ENDMDL
MODEL 5
REMARK VINA RESULT:    -4.383      1.921      3.914
REMARK INTER + INTRA:          -4.898
REMARK INTER:                  -5.420
REMARK INTRA:                   0.522
REMARK UNBOUND:                 0.510
REMARK SMILES C=C1[C@H]2CC[C@@H]3[C@@H]2C(C)(C)CCC[C@]13C
REMARK SMILES IDX 14 1 6 2 7 3 3 4 2 5 1 6 4 7 5 8 15 9 8 10 9 11 10 12 11 13
REMARK SMILES IDX 13 15 12 16
REMARK H PARENT
REMARK Flexibility Score: 80.00
ROOT
ATOM      1  C   UNL     1       9.775  32.860  24.643  1.00  0.00    -0.008 C 
ATOM      2  C   UNL     1       9.977  31.957  23.434  1.00  0.00     0.003 C 
ATOM      3  C   UNL     1       8.873  32.526  22.523  1.00  0.00     0.006 C 
ATOM      4  C   UNL     1       9.531  33.889  22.388  1.00  0.00     0.019 C 
ATOM      5  C   UNL     1       9.643  34.198  23.900  1.00  0.00    -0.068 C 
ATOM      6  C   UNL     1       9.562  35.412  24.453  1.00  0.00     0.009 C 
ATOM      7  C   UNL     1      10.929  33.558  21.885  1.00  0.00     0.008 C 
ATOM      8  C   UNL     1      11.254  32.250  22.610  1.00  0.00     0.005 C 
ATOM      9  C   UNL     1      10.988  32.877  25.599  1.00  0.00     0.016 C 
ENDROOT
BRANCH   3  10
ATOM     10  C   UNL     1       7.909  31.405  22.076  1.00  0.00    -0.032 C 
ATOM     11  C   UNL     1       8.634  30.368  21.190  1.00  0.00     0.011 C 
ATOM     12  C   UNL     1       6.718  31.967  21.250  1.00  0.00     0.011 C 
BRANCH  10  13
ATOM     13  C   UNL     1       7.381  30.729  23.424  1.00  0.00     0.007 CG0
ATOM     14  G   UNL     1       7.226  31.680  24.690  1.00  0.00     0.000 G0
ENDBRANCH  10  13
ENDBRANCH   3  10
BRANCH   1  15
ATOM     15  C   UNL     1       8.490  32.314  25.418  1.00  0.00     0.011 C 
BRANCH  15  16
ATOM     16  C   UNL     1       7.225  31.671  24.684  1.00  0.00     0.001 CG0
ATOM     17  G   UNL     1       7.403  30.725  23.417  1.00  0.00     0.000 G0
ENDBRANCH  15  16
ENDBRANCH   1  15
TORSDOF 0
ENDMDL
MODEL 6
REMARK VINA RESULT:    -4.338      1.220      2.935
REMARK INTER + INTRA:          -4.843
REMARK INTER:                  -5.364
REMARK INTRA:                   0.521
REMARK UNBOUND:                 0.510
REMARK SMILES C=C1[C@H]2CC[C@@H]3[C@@H]2C(C)(C)CCC[C@]13C
REMARK SMILES IDX 14 1 6 2 7 3 3 4 2 5 1 6 4 7 5 8 15 9 8 10 9 11 10 12 11 13
REMARK SMILES IDX 13 15 12 16
REMARK H PARENT
REMARK Flexibility Score: 80.00
ROOT
ATOM      1  C   UNL     1       9.600  33.528  23.567  1.00  0.00    -0.008 C 
ATOM      2  C   UNL     1       9.464  33.630  22.054  1.00  0.00     0.003 C 
ATOM      3  C   UNL     1       9.353  32.131  21.722  1.00  0.00     0.006 C 
ATOM      4  C   UNL     1       8.029  31.953  22.447  1.00  0.00     0.019 C 
ATOM      5  C   UNL     1       8.489  32.498  23.819  1.00  0.00    -0.068 C 
ATOM      6  C   UNL     1       8.042  32.083  25.009  1.00  0.00     0.009 C 
ATOM      7  C   UNL     1       7.135  33.009  21.812  1.00  0.00     0.008 C 
ATOM      8  C   UNL     1       8.100  34.170  21.560  1.00  0.00     0.005 C 
ATOM      9  C   UNL     1       9.299  34.855  24.297  1.00  0.00     0.016 C 
ENDROOT
BRANCH   3  10
ATOM     10  C   UNL     1      10.435  31.721  20.699  1.00  0.00    -0.032 C 
ATOM     11  C   UNL     1      10.224  32.439  19.348  1.00  0.00     0.011 C 
ATOM     12  C   UNL     1      10.412  30.193  20.418  1.00  0.00     0.011 C 
BRANCH  10  13
ATOM     13  C   UNL     1      11.829  32.146  21.354  1.00  0.00     0.007 CG0
ATOM     14  G   UNL     1      11.926  32.076  22.940  1.00  0.00     0.000 G0
ENDBRANCH  10  13
ENDBRANCH   3  10
BRANCH   1  15
ATOM     15  C   UNL     1      11.104  33.082  23.866  1.00  0.00     0.011 C 
BRANCH  15  16
ATOM     16  C   UNL     1      11.926  32.074  22.938  1.00  0.00     0.001 CG0
ATOM     17  G   UNL     1      11.829  32.153  21.352  1.00  0.00     0.000 G0
ENDBRANCH  15  16
ENDBRANCH   1  15
TORSDOF 0
ENDMDL
MODEL 7
REMARK VINA RESULT:    -4.218      2.345      5.326
REMARK INTER + INTRA:          -4.694
REMARK INTER:                  -5.189
REMARK INTRA:                   0.495
REMARK UNBOUND:                 0.510
REMARK SMILES C=C1[C@H]2CC[C@@H]3[C@@H]2C(C)(C)CCC[C@]13C
REMARK SMILES IDX 14 1 6 2 7 3 3 4 2 5 1 6 4 7 5 8 15 9 8 10 9 11 10 12 11 13
REMARK SMILES IDX 13 15 12 16
REMARK H PARENT
REMARK Flexibility Score: 80.00
ROOT
ATOM      1  C   UNL     1      14.336  33.067  19.764  1.00  0.00    -0.008 C 
ATOM      2  C   UNL     1      13.807  33.220  21.183  1.00  0.00     0.003 C 
ATOM      3  C   UNL     1      12.854  32.011  21.215  1.00  0.00     0.006 C 
ATOM      4  C   UNL     1      13.969  30.986  21.082  1.00  0.00     0.019 C 
ATOM      5  C   UNL     1      14.596  31.553  19.787  1.00  0.00    -0.068 C 
ATOM      6  C   UNL     1      15.189  30.832  18.831  1.00  0.00     0.009 C 
ATOM      7  C   UNL     1      14.905  31.332  22.232  1.00  0.00     0.008 C 
ATOM      8  C   UNL     1      14.820  32.859  22.296  1.00  0.00     0.005 C 
ATOM      9  C   UNL     1      15.645  33.848  19.514  1.00  0.00     0.016 C 
ENDROOT
BRANCH   3  10
ATOM     10  C   UNL     1      11.424  32.458  21.591  1.00  0.00    -0.032 C 
ATOM     11  C   UNL     1      11.396  33.117  22.988  1.00  0.00     0.011 C 
ATOM     12  C   UNL     1      10.437  31.258  21.626  1.00  0.00     0.011 C 
BRANCH  10  13
ATOM     13  C   UNL     1      10.990  33.504  20.463  1.00  0.00     0.007 CG0
ATOM     14  G   UNL     1      11.647  33.320  19.026  1.00  0.00     0.000 G0
ENDBRANCH  10  13
ENDBRANCH   3  10
BRANCH   1  15
ATOM     15  C   UNL     1      13.196  33.607  18.785  1.00  0.00     0.011 C 
BRANCH  15  16
ATOM     16  C   UNL     1      11.637  33.346  19.019  1.00  0.00     0.001 CG0
ATOM     17  G   UNL     1      10.985  33.500  20.461  1.00  0.00     0.000 G0
ENDBRANCH  15  16
ENDBRANCH   1  15
TORSDOF 0
ENDMDL
MODEL 8
REMARK VINA RESULT:    -4.124      1.514      4.303
REMARK INTER + INTRA:          -4.579
REMARK INTER:                  -5.086
REMARK INTRA:                   0.507
REMARK UNBOUND:                 0.510
REMARK SMILES C=C1[C@H]2CC[C@@H]3[C@@H]2C(C)(C)CCC[C@]13C
REMARK SMILES IDX 14 1 6 2 7 3 3 4 2 5 1 6 4 7 5 8 15 9 8 10 9 11 10 12 11 13
REMARK SMILES IDX 13 15 12 16
REMARK H PARENT
REMARK Flexibility Score: 80.00
ROOT
ATOM      1  C   UNL     1      12.277  30.824  20.171  1.00  0.00    -0.008 C 
ATOM      2  C   UNL     1      11.733  32.224  20.422  1.00  0.00     0.003 C 
ATOM      3  C   UNL     1      11.531  32.133  21.945  1.00  0.00     0.006 C 
ATOM      4  C   UNL     1      13.013  31.987  22.247  1.00  0.00     0.019 C 
ATOM      5  C   UNL     1      13.273  30.762  21.339  1.00  0.00    -0.068 C 
ATOM      6  C   UNL     1      14.158  29.790  21.579  1.00  0.00     0.009 C 
ATOM      7  C   UNL     1      13.633  33.200  21.566  1.00  0.00     0.008 C 
ATOM      8  C   UNL     1      12.780  33.358  20.305  1.00  0.00     0.005 C 
ATOM      9  C   UNL     1      13.005  30.688  18.816  1.00  0.00     0.016 C 
ENDROOT
BRANCH   3  10
ATOM     10  C   UNL     1      10.070  32.469  22.319  1.00  0.00    -0.032 C 
ATOM     11  C   UNL     1       9.711  33.915  21.913  1.00  0.00     0.011 C 
ATOM     12  C   UNL     1       9.826  32.344  23.849  1.00  0.00     0.011 C 
BRANCH  10  13
ATOM     13  C   UNL     1       9.170  31.416  21.523  1.00  0.00     0.007 CG0
ATOM     14  G   UNL     1       9.824  29.999  21.219  1.00  0.00     0.000 G0
ENDBRANCH  10  13
ENDBRANCH   3  10
BRANCH   1  15
ATOM     15  C   UNL     1      11.028  29.830  20.210  1.00  0.00     0.011 C 
BRANCH  15  16
ATOM     16  C   UNL     1       9.800  29.996  21.219  1.00  0.00     0.001 CG0
ATOM     17  G   UNL     1       9.169  31.425  21.518  1.00  0.00     0.000 G0
ENDBRANCH  15  16
ENDBRANCH   1  15
TORSDOF 0
ENDMDL
MODEL 9
REMARK VINA RESULT:    -3.938      3.167      5.412
REMARK INTER + INTRA:          -4.349
REMARK INTER:                  -4.859
REMARK INTRA:                   0.509
REMARK UNBOUND:                 0.510
REMARK SMILES C=C1[C@H]2CC[C@@H]3[C@@H]2C(C)(C)CCC[C@]13C
REMARK SMILES IDX 14 1 6 2 7 3 3 4 2 5 1 6 4 7 5 8 15 9 8 10 9 11 10 12 11 13
REMARK SMILES IDX 13 15 12 16
REMARK H PARENT
REMARK Flexibility Score: 80.00
ROOT
ATOM      1  C   UNL     1      14.581  32.461  20.142  1.00  0.00    -0.008 C 
ATOM      2  C   UNL     1      13.066  32.466  19.997  1.00  0.00     0.003 C 
ATOM      3  C   UNL     1      12.751  31.145  20.723  1.00  0.00     0.006 C 
ATOM      4  C   UNL     1      13.240  31.640  22.074  1.00  0.00     0.019 C 
ATOM      5  C   UNL     1      14.659  32.057  21.622  1.00  0.00    -0.068 C 
ATOM      6  C   UNL     1      15.762  31.999  22.375  1.00  0.00     0.009 C 
ATOM      7  C   UNL     1      12.437  32.915  22.293  1.00  0.00     0.008 C 
ATOM      8  C   UNL     1      12.331  33.500  20.883  1.00  0.00     0.005 C 
ATOM      9  C   UNL     1      15.219  33.849  19.915  1.00  0.00     0.016 C 
ENDROOT
BRANCH   3  10
ATOM     10  C   UNL     1      11.940  30.202  19.806  1.00  0.00    -0.032 C 
ATOM     11  C   UNL     1      10.569  30.817  19.449  1.00  0.00     0.011 C 
ATOM     12  C   UNL     1      11.669  28.832  20.487  1.00  0.00     0.011 C 
BRANCH  10  13
ATOM     13  C   UNL     1      12.832  30.005  18.495  1.00  0.00     0.007 CG0
ATOM     14  G   UNL     1      14.410  30.067  18.686  1.00  0.00     0.000 G0
ENDBRANCH  10  13
ENDBRANCH   3  10
BRANCH   1  15
ATOM     15  C   UNL     1      15.146  31.429  19.063  1.00  0.00     0.011 C 
BRANCH  15  16
ATOM     16  C   UNL     1      14.409  30.065  18.677  1.00  0.00     0.001 CG0
ATOM     17  G   UNL     1      12.830  30.007  18.495  1.00  0.00     0.000 G0
ENDBRANCH  15  16
ENDBRANCH   1  15
TORSDOF 0
ENDMDL
