MODEL 1
REMARK VINA RESULT:    -4.594      0.000      0.000
REMARK INTER + INTRA:          -6.787
REMARK INTER:                  -6.474
REMARK INTRA:                  -0.312
REMARK UNBOUND:                -0.312
REMARK SMILES CCCCCCCCC(=O)[O-]
REMARK SMILES IDX 6 1 7 2 8 3 9 4 10 5 11 6 5 7 4 8 3 9 2 10 1 11
REMARK H PARENT
REMARK Flexibility Score: inf
ROOT
ATOM      1  C   UNL     1      79.475  59.083  10.030  1.00  0.00     0.000 C 
ENDROOT
BRANCH   1   2
ATOM      2  C   UNL     1      80.774  59.805  10.437  1.00  0.00     0.006 C 
BRANCH   2   3
ATOM      3  C   UNL     1      81.959  58.859  10.705  1.00  0.00     0.053 C 
BRANCH   3   4
ATOM      4  C   UNL     1      83.120  59.554  11.350  1.00  0.00     0.041 C 
ATOM      5  O   UNL     1      84.216  59.658  10.740  1.00  0.00    -0.550 OA
ATOM      6  O   UNL     1      82.978  60.122  12.610  1.00  0.00    -0.550 OA
ENDBRANCH   3   4
ENDBRANCH   2   3
ENDBRANCH   1   2
BRANCH   1   7
ATOM      7  C   UNL     1      79.390  57.599  10.436  1.00  0.00     0.000 C 
BRANCH   7   8
ATOM      8  C   UNL     1      78.188  56.830   9.858  1.00  0.00    -0.000 C 
BRANCH   8   9
ATOM      9  C   UNL     1      78.597  55.549   9.117  1.00  0.00    -0.000 C 
BRANCH   9  10
ATOM     10  C   UNL     1      77.837  55.415   7.793  1.00  0.00    -0.003 C 
ATOM     11  C   UNL     1      77.789  56.745   7.047  1.00  0.00     0.004 C 
ENDBRANCH   9  10
ENDBRANCH   8   9
ENDBRANCH   7   8
ENDBRANCH   1   7
TORSDOF 7
ENDMDL
MODEL 2
REMARK VINA RESULT:    -4.441      4.273      5.970
REMARK INTER + INTRA:          -6.571
REMARK INTER:                  -5.775
REMARK INTRA:                  -0.796
REMARK UNBOUND:                -0.312
REMARK SMILES CCCCCCCCC(=O)[O-]
REMARK SMILES IDX 6 1 7 2 8 3 9 4 10 5 11 6 5 7 4 8 3 9 2 10 1 11
REMARK H PARENT
REMARK Flexibility Score: inf
ROOT
ATOM      1  C   UNL     1      78.110  56.025   7.955  1.00  0.00     0.000 C 
ENDROOT
BRANCH   1   2
ATOM      2  C   UNL     1      78.157  54.487   8.038  1.00  0.00     0.006 C 
BRANCH   2   3
ATOM      3  C   UNL     1      79.564  53.893   7.842  1.00  0.00     0.053 C 
BRANCH   3   4
ATOM      4  C   UNL     1      79.715  52.544   8.479  1.00  0.00     0.041 C 
ATOM      5  O   UNL     1      78.937  51.605   8.168  1.00  0.00    -0.550 OA
ATOM      6  O   UNL     1      80.739  52.315   9.388  1.00  0.00    -0.550 OA
ENDBRANCH   3   4
ENDBRANCH   2   3
ENDBRANCH   1   2
BRANCH   1   7
ATOM      7  C   UNL     1      77.587  56.739   9.216  1.00  0.00     0.000 C 
BRANCH   7   8
ATOM      8  C   UNL     1      78.672  57.199  10.206  1.00  0.00    -0.000 C 
BRANCH   8   9
ATOM      9  C   UNL     1      78.812  56.265  11.417  1.00  0.00    -0.000 C 
BRANCH   9  10
ATOM     10  C   UNL     1      80.010  55.324  11.248  1.00  0.00    -0.003 C 
ATOM     11  C   UNL     1      81.155  56.016  10.514  1.00  0.00     0.004 C 
ENDBRANCH   9  10
ENDBRANCH   8   9
ENDBRANCH   7   8
ENDBRANCH   1   7
TORSDOF 7
ENDMDL
MODEL 3
REMARK VINA RESULT:    -4.412      3.628      6.082
REMARK INTER + INTRA:          -6.531
REMARK INTER:                  -6.230
REMARK INTRA:                  -0.301
REMARK UNBOUND:                -0.312
REMARK SMILES CCCCCCCCC(=O)[O-]
REMARK SMILES IDX 6 1 7 2 8 3 9 4 10 5 11 6 5 7 4 8 3 9 2 10 1 11
REMARK H PARENT
REMARK Flexibility Score: inf
ROOT
ATOM      1  C   UNL     1      79.774  57.367  10.325  1.00  0.00     0.000 C 
ENDROOT
BRANCH   1   2
ATOM      2  C   UNL     1      78.544  56.444  10.229  1.00  0.00     0.006 C 
BRANCH   2   3
ATOM      3  C   UNL     1      77.520  56.874   9.162  1.00  0.00     0.053 C 
BRANCH   3   4
ATOM      4  C   UNL     1      77.774  56.237   7.829  1.00  0.00     0.041 C 
ATOM      5  O   UNL     1      78.061  55.014   7.755  1.00  0.00    -0.550 OA
ATOM      6  O   UNL     1      77.656  56.987   6.666  1.00  0.00    -0.550 OA
ENDBRANCH   3   4
ENDBRANCH   2   3
ENDBRANCH   1   2
BRANCH   1   7
ATOM      7  C   UNL     1      79.488  58.870  10.141  1.00  0.00     0.000 C 
BRANCH   7   8
ATOM      8  C   UNL     1      80.634  59.811  10.554  1.00  0.00    -0.000 C 
BRANCH   8   9
ATOM      9  C   UNL     1      81.970  59.079  10.746  1.00  0.00    -0.000 C 
BRANCH   9  10
ATOM     10  C   UNL     1      83.001  59.987  11.423  1.00  0.00    -0.003 C 
ATOM     11  C   UNL     1      83.708  60.876  10.404  1.00  0.00     0.004 C 
ENDBRANCH   9  10
ENDBRANCH   8   9
ENDBRANCH   7   8
ENDBRANCH   1   7
TORSDOF 7
ENDMDL
MODEL 4
REMARK VINA RESULT:    -4.408      2.890      4.147
REMARK INTER + INTRA:          -6.525
REMARK INTER:                  -6.000
REMARK INTRA:                  -0.524
REMARK UNBOUND:                -0.312
REMARK SMILES CCCCCCCCC(=O)[O-]
REMARK SMILES IDX 6 1 7 2 8 3 9 4 10 5 11 6 5 7 4 8 3 9 2 10 1 11
REMARK H PARENT
REMARK Flexibility Score: inf
ROOT
ATOM      1  C   UNL     1      77.762  56.808   8.137  1.00  0.00     0.000 C 
ENDROOT
BRANCH   1   2
ATOM      2  C   UNL     1      77.778  56.712   9.675  1.00  0.00     0.006 C 
BRANCH   2   3
ATOM      3  C   UNL     1      78.992  57.396  10.332  1.00  0.00     0.053 C 
BRANCH   3   4
ATOM      4  C   UNL     1      80.013  56.414  10.821  1.00  0.00     0.041 C 
ATOM      5  O   UNL     1      81.216  56.520  10.467  1.00  0.00    -0.550 OA
ATOM      6  O   UNL     1      79.643  55.404  11.699  1.00  0.00    -0.550 OA
ENDBRANCH   3   4
ENDBRANCH   2   3
ENDBRANCH   1   2
BRANCH   1   7
ATOM      7  C   UNL     1      77.856  55.463   7.390  1.00  0.00     0.000 C 
BRANCH   7   8
ATOM      8  C   UNL     1      78.405  54.290   8.220  1.00  0.00    -0.000 C 
BRANCH   8   9
ATOM      9  C   UNL     1      79.912  54.068   8.021  1.00  0.00    -0.000 C 
BRANCH   9  10
ATOM     10  C   UNL     1      80.331  52.679   8.513  1.00  0.00    -0.003 C 
ATOM     11  C   UNL     1      79.266  51.634   8.192  1.00  0.00     0.004 C 
ENDBRANCH   9  10
ENDBRANCH   8   9
ENDBRANCH   7   8
ENDBRANCH   1   7
TORSDOF 7
ENDMDL
MODEL 5
REMARK VINA RESULT:    -4.263      3.261      4.675
REMARK INTER + INTRA:          -6.321
REMARK INTER:                  -5.625
REMARK INTRA:                  -0.696
REMARK UNBOUND:                -0.312
REMARK SMILES CCCCCCCCC(=O)[O-]
REMARK SMILES IDX 6 1 7 2 8 3 9 4 10 5 11 6 5 7 4 8 3 9 2 10 1 11
REMARK H PARENT
REMARK Flexibility Score: inf
ROOT
ATOM      1  C   UNL     1      79.509  53.775   7.629  1.00  0.00     0.000 C 
ENDROOT
BRANCH   1   2
ATOM      2  C   UNL     1      80.557  53.466   8.715  1.00  0.00     0.006 C 
BRANCH   2   3
ATOM      3  C   UNL     1      81.145  54.718   9.393  1.00  0.00     0.053 C 
BRANCH   3   4
ATOM      4  C   UNL     1      81.417  54.510  10.852  1.00  0.00     0.041 C 
ATOM      5  O   UNL     1      82.537  54.079  11.234  1.00  0.00    -0.550 OA
ATOM      6  O   UNL     1      80.448  54.830  11.794  1.00  0.00    -0.550 OA
ENDBRANCH   3   4
ENDBRANCH   2   3
ENDBRANCH   1   2
BRANCH   1   7
ATOM      7  C   UNL     1      78.207  54.428   8.134  1.00  0.00     0.000 C 
BRANCH   7   8
ATOM      8  C   UNL     1      77.755  55.676   7.354  1.00  0.00    -0.000 C 
BRANCH   8   9
ATOM      9  C   UNL     1      77.703  56.940   8.223  1.00  0.00    -0.000 C 
BRANCH   9  10
ATOM     10  C   UNL     1      77.975  56.605   9.694  1.00  0.00    -0.003 C 
ATOM     11  C   UNL     1      78.926  57.618  10.324  1.00  0.00     0.004 C 
ENDBRANCH   9  10
ENDBRANCH   8   9
ENDBRANCH   7   8
ENDBRANCH   1   7
TORSDOF 7
ENDMDL
MODEL 6
REMARK VINA RESULT:    -4.227      3.310      4.308
REMARK INTER + INTRA:          -6.270
REMARK INTER:                  -5.535
REMARK INTRA:                  -0.735
REMARK UNBOUND:                -0.312
REMARK SMILES CCCCCCCCC(=O)[O-]
REMARK SMILES IDX 6 1 7 2 8 3 9 4 10 5 11 6 5 7 4 8 3 9 2 10 1 11
REMARK H PARENT
REMARK Flexibility Score: inf
ROOT
ATOM      1  C   UNL     1      81.206  54.075   8.886  1.00  0.00     0.000 C 
ENDROOT
BRANCH   1   2
ATOM      2  C   UNL     1      80.621  54.547  10.232  1.00  0.00     0.006 C 
BRANCH   2   3
ATOM      3  C   UNL     1      80.614  56.077  10.410  1.00  0.00     0.053 C 
BRANCH   3   4
ATOM      4  C   UNL     1      79.275  56.603  10.829  1.00  0.00     0.041 C 
ATOM      5  O   UNL     1      78.683  56.111  11.825  1.00  0.00    -0.550 OA
ATOM      6  O   UNL     1      78.697  57.664  10.143  1.00  0.00    -0.550 OA
ENDBRANCH   3   4
ENDBRANCH   2   3
ENDBRANCH   1   2
BRANCH   1   7
ATOM      7  C   UNL     1      80.188  53.933   7.738  1.00  0.00     0.000 C 
BRANCH   7   8
ATOM      8  C   UNL     1      78.730  53.712   8.178  1.00  0.00    -0.000 C 
BRANCH   8   9
ATOM      9  C   UNL     1      77.804  54.873   7.785  1.00  0.00    -0.000 C 
BRANCH   9  10
ATOM     10  C   UNL     1      78.578  55.963   7.036  1.00  0.00    -0.003 C 
ATOM     11  C   UNL     1      77.642  57.057   6.532  1.00  0.00     0.004 C 
ENDBRANCH   9  10
ENDBRANCH   8   9
ENDBRANCH   7   8
ENDBRANCH   1   7
TORSDOF 7
ENDMDL
MODEL 7
REMARK VINA RESULT:    -4.190      2.936      4.607
REMARK INTER + INTRA:          -6.217
REMARK INTER:                  -5.674
REMARK INTRA:                  -0.543
REMARK UNBOUND:                -0.312
REMARK SMILES CCCCCCCCC(=O)[O-]
REMARK SMILES IDX 6 1 7 2 8 3 9 4 10 5 11 6 5 7 4 8 3 9 2 10 1 11
REMARK H PARENT
REMARK Flexibility Score: inf
ROOT
ATOM      1  C   UNL     1      78.107  55.623   7.386  1.00  0.00     0.000 C 
ENDROOT
BRANCH   1   2
ATOM      2  C   UNL     1      77.714  56.828   8.264  1.00  0.00     0.006 C 
BRANCH   2   3
ATOM      3  C   UNL     1      77.962  56.613   9.768  1.00  0.00     0.053 C 
BRANCH   3   4
ATOM      4  C   UNL     1      79.170  57.349  10.265  1.00  0.00     0.041 C 
ATOM      5  O   UNL     1      79.212  58.606  10.215  1.00  0.00    -0.550 OA
ATOM      6  O   UNL     1      80.234  56.648  10.819  1.00  0.00    -0.550 OA
ENDBRANCH   3   4
ENDBRANCH   2   3
ENDBRANCH   1   2
BRANCH   1   7
ATOM      7  C   UNL     1      78.082  54.255   8.094  1.00  0.00     0.000 C 
BRANCH   7   8
ATOM      8  C   UNL     1      79.162  53.259   7.634  1.00  0.00    -0.000 C 
BRANCH   8   9
ATOM      9  C   UNL     1      80.573  53.866   7.631  1.00  0.00    -0.000 C 
BRANCH   9  10
ATOM     10  C   UNL     1      81.182  53.845   9.037  1.00  0.00    -0.003 C 
ATOM     11  C   UNL     1      81.030  52.471   9.684  1.00  0.00     0.004 C 
ENDBRANCH   9  10
ENDBRANCH   8   9
ENDBRANCH   7   8
ENDBRANCH   1   7
TORSDOF 7
ENDMDL
MODEL 8
REMARK VINA RESULT:    -4.173      3.677      5.204
REMARK INTER + INTRA:          -6.193
REMARK INTER:                  -5.978
REMARK INTRA:                  -0.216
REMARK UNBOUND:                -0.312
REMARK SMILES CCCCCCCCC(=O)[O-]
REMARK SMILES IDX 6 1 7 2 8 3 9 4 10 5 11 6 5 7 4 8 3 9 2 10 1 11
REMARK H PARENT
REMARK Flexibility Score: inf
ROOT
ATOM      1  C   UNL     1      77.804  55.009   7.719  1.00  0.00     0.000 C 
ENDROOT
BRANCH   1   2
ATOM      2  C   UNL     1      77.841  56.500   8.107  1.00  0.00     0.006 C 
BRANCH   2   3
ATOM      3  C   UNL     1      77.735  56.755   9.622  1.00  0.00     0.053 C 
BRANCH   3   4
ATOM      4  C   UNL     1      78.995  57.324  10.201  1.00  0.00     0.041 C 
ATOM      5  O   UNL     1      79.192  58.568  10.191  1.00  0.00    -0.550 OA
ATOM      6  O   UNL     1      79.933  56.485  10.788  1.00  0.00    -0.550 OA
ENDBRANCH   3   4
ENDBRANCH   2   3
ENDBRANCH   1   2
BRANCH   1   7
ATOM      7  C   UNL     1      79.063  54.199   8.088  1.00  0.00     0.000 C 
BRANCH   7   8
ATOM      8  C   UNL     1      79.133  52.785   7.484  1.00  0.00    -0.000 C 
BRANCH   8   9
ATOM      9  C   UNL     1      79.712  51.747   8.456  1.00  0.00    -0.000 C 
BRANCH   9  10
ATOM     10  C   UNL     1      79.394  50.322   7.989  1.00  0.00    -0.003 C 
ATOM     11  C   UNL     1      80.299  49.302   8.674  1.00  0.00     0.004 C 
ENDBRANCH   9  10
ENDBRANCH   8   9
ENDBRANCH   7   8
ENDBRANCH   1   7
TORSDOF 7
ENDMDL
MODEL 9
REMARK VINA RESULT:    -4.153      6.498      9.998
REMARK INTER + INTRA:          -6.165
REMARK INTER:                  -5.875
REMARK INTRA:                  -0.290
REMARK UNBOUND:                -0.312
REMARK SMILES CCCCCCCCC(=O)[O-]
REMARK SMILES IDX 6 1 7 2 8 3 9 4 10 5 11 6 5 7 4 8 3 9 2 10 1 11
REMARK H PARENT
REMARK Flexibility Score: inf
ROOT
ATOM      1  C   UNL     1      85.562  61.550  16.379  1.00  0.00     0.000 C 
ENDROOT
BRANCH   1   2
ATOM      2  C   UNL     1      85.497  61.493  14.841  1.00  0.00     0.006 C 
BRANCH   2   3
ATOM      3  C   UNL     1      84.575  60.387  14.294  1.00  0.00     0.053 C 
BRANCH   3   4
ATOM      4  C   UNL     1      84.979  59.920  12.929  1.00  0.00     0.041 C 
ATOM      5  O   UNL     1      84.165  59.979  11.970  1.00  0.00    -0.550 OA
ATOM      6  O   UNL     1      86.269  59.456  12.705  1.00  0.00    -0.550 OA
ENDBRANCH   3   4
ENDBRANCH   2   3
ENDBRANCH   1   2
BRANCH   1   7
ATOM      7  C   UNL     1      84.915  62.793  17.021  1.00  0.00     0.000 C 
BRANCH   7   8
ATOM      8  C   UNL     1      84.885  64.049  16.132  1.00  0.00    -0.000 C 
BRANCH   8   9
ATOM      9  C   UNL     1      84.227  65.254  16.820  1.00  0.00    -0.000 C 
BRANCH   9  10
ATOM     10  C   UNL     1      84.612  65.317  18.302  1.00  0.00    -0.003 C 
ATOM     11  C   UNL     1      83.375  65.414  19.190  1.00  0.00     0.004 C 
ENDBRANCH   9  10
ENDBRANCH   8   9
ENDBRANCH   7   8
ENDBRANCH   1   7
TORSDOF 7
ENDMDL
