MODEL 1
REMARK VINA RESULT:    -5.219      0.000      0.000
REMARK INTER + INTRA:         -13.692
REMARK INTER:                 -11.322
REMARK INTRA:                  -2.371
REMARK UNBOUND:                -2.371
REMARK SMILES CCCCCCCCCCCCCCCCCCCCCC(=O)[O-]
REMARK SMILES IDX 12 1 11 2 10 3 9 4 8 5 7 6 6 7 5 8 4 9 3 10 2 11 1 12 13 13
REMARK SMILES IDX 14 14 15 15 16 16 17 17 18 18 19 19 20 20 21 21 22 22 23 23
REMARK SMILES IDX 24 24
REMARK H PARENT
REMARK Flexibility Score: inf
ROOT
ATOM      1  C   UNL     1       2.041  18.081 -10.683  1.00  0.00     0.000 C 
ENDROOT
BRANCH   1   2
ATOM      2  C   UNL     1       0.564  18.348 -10.342  1.00  0.00     0.000 C 
BRANCH   2   3
ATOM      3  C   UNL     1       0.212  17.998  -8.885  1.00  0.00     0.000 C 
BRANCH   3   4
ATOM      4  C   UNL     1       1.458  17.779  -8.012  1.00  0.00    -0.000 C 
BRANCH   4   5
ATOM      5  C   UNL     1       1.107  17.564  -6.530  1.00  0.00    -0.000 C 
BRANCH   5   6
ATOM      6  C   UNL     1      -0.091  18.415  -6.079  1.00  0.00    -0.000 C 
BRANCH   6   7
ATOM      7  C   UNL     1       0.319  19.574  -5.150  1.00  0.00    -0.000 C 
BRANCH   7   8
ATOM      8  C   UNL     1      -0.055  20.952  -5.721  1.00  0.00    -0.000 C 
BRANCH   8   9
ATOM      9  C   UNL     1       0.718  21.283  -7.009  1.00  0.00    -0.000 C 
BRANCH   9  10
ATOM     10  C   UNL     1       2.244  21.181  -6.834  1.00  0.00    -0.000 C 
BRANCH  10  11
ATOM     11  C   UNL     1       3.045  21.102  -8.145  1.00  0.00    -0.003 C 
ATOM     12  C   UNL     1       2.262  21.609  -9.357  1.00  0.00     0.004 C 
ENDBRANCH  10  11
ENDBRANCH   9  10
ENDBRANCH   8   9
ENDBRANCH   7   8
ENDBRANCH   6   7
ENDBRANCH   5   6
ENDBRANCH   4   5
ENDBRANCH   3   4
ENDBRANCH   2   3
ENDBRANCH   1   2
BRANCH   1  13
ATOM     13  C   UNL     1       2.508  18.636 -12.041  1.00  0.00     0.000 C 
BRANCH  13  14
ATOM     14  C   UNL     1       1.642  19.805 -12.541  1.00  0.00     0.000 C 
BRANCH  14  15
ATOM     15  C   UNL     1       2.474  20.945 -13.159  1.00  0.00     0.000 C 
BRANCH  15  16
ATOM     16  C   UNL     1       2.513  20.974 -14.701  1.00  0.00     0.000 C 
BRANCH  16  17
ATOM     17  C   UNL     1       3.283  22.158 -15.313  1.00  0.00     0.000 C 
BRANCH  17  18
ATOM     18  C   UNL     1       3.170  22.214 -16.844  1.00  0.00     0.000 C 
BRANCH  18  19
ATOM     19  C   UNL     1       1.722  21.993 -17.296  1.00  0.00     0.000 C 
BRANCH  19  20
ATOM     20  C   UNL     1       1.587  22.166 -18.816  1.00  0.00     0.006 C 
BRANCH  20  21
ATOM     21  C   UNL     1       1.396  20.827 -19.539  1.00  0.00     0.053 C 
BRANCH  21  22
ATOM     22  C   UNL     1       2.576  20.487 -20.398  1.00  0.00     0.041 C 
ATOM     23  O   UNL     1       2.877  19.284 -20.615  1.00  0.00    -0.550 OA
ATOM     24  O   UNL     1       3.325  21.501 -20.982  1.00  0.00    -0.550 OA
ENDBRANCH  21  22
ENDBRANCH  20  21
ENDBRANCH  19  20
ENDBRANCH  18  19
ENDBRANCH  17  18
ENDBRANCH  16  17
ENDBRANCH  15  16
ENDBRANCH  14  15
ENDBRANCH  13  14
ENDBRANCH   1  13
TORSDOF 20
ENDMDL
MODEL 2
REMARK VINA RESULT:    -5.190      0.866      1.546
REMARK INTER + INTRA:         -13.629
REMARK INTER:                 -11.505
REMARK INTRA:                  -2.124
REMARK UNBOUND:                -2.371
REMARK SMILES CCCCCCCCCCCCCCCCCCCCCC(=O)[O-]
REMARK SMILES IDX 12 1 11 2 10 3 9 4 8 5 7 6 6 7 5 8 4 9 3 10 2 11 1 12 13 13
REMARK SMILES IDX 14 14 15 15 16 16 17 17 18 18 19 19 20 20 21 21 22 22 23 23
REMARK SMILES IDX 24 24
REMARK H PARENT
REMARK Flexibility Score: inf
ROOT
ATOM      1  C   UNL     1       0.633  19.765 -11.820  1.00  0.00     0.000 C 
ENDROOT
BRANCH   1   2
ATOM      2  C   UNL     1       0.490  18.690 -10.728  1.00  0.00     0.000 C 
BRANCH   2   3
ATOM      3  C   UNL     1       1.798  18.445  -9.954  1.00  0.00     0.000 C 
BRANCH   3   4
ATOM      4  C   UNL     1       1.578  17.644  -8.660  1.00  0.00    -0.000 C 
BRANCH   4   5
ATOM      5  C   UNL     1       0.183  17.875  -8.055  1.00  0.00    -0.000 C 
BRANCH   5   6
ATOM      6  C   UNL     1       0.133  17.554  -6.552  1.00  0.00    -0.000 C 
BRANCH   6   7
ATOM      7  C   UNL     1      -0.211  18.786  -5.693  1.00  0.00    -0.000 C 
BRANCH   7   8
ATOM      8  C   UNL     1       1.038  19.493  -5.143  1.00  0.00    -0.000 C 
BRANCH   8   9
ATOM      9  C   UNL     1       1.025  21.007  -5.418  1.00  0.00    -0.000 C 
BRANCH   9  10
ATOM     10  C   UNL     1       0.265  21.374  -6.706  1.00  0.00    -0.000 C 
BRANCH  10  11
ATOM     11  C   UNL     1       1.130  21.422  -7.978  1.00  0.00    -0.003 C 
ATOM     12  C   UNL     1       2.630  21.416  -7.684  1.00  0.00     0.004 C 
ENDBRANCH  10  11
ENDBRANCH   9  10
ENDBRANCH   8   9
ENDBRANCH   7   8
ENDBRANCH   6   7
ENDBRANCH   5   6
ENDBRANCH   4   5
ENDBRANCH   3   4
ENDBRANCH   2   3
ENDBRANCH   1   2
BRANCH   1  13
ATOM     13  C   UNL     1       2.079  20.205 -12.118  1.00  0.00     0.000 C 
BRANCH  13  14
ATOM     14  C   UNL     1       2.301  21.713 -11.912  1.00  0.00     0.000 C 
BRANCH  14  15
ATOM     15  C   UNL     1       2.622  22.456 -13.222  1.00  0.00     0.000 C 
BRANCH  15  16
ATOM     16  C   UNL     1       2.818  21.556 -14.461  1.00  0.00     0.000 C 
BRANCH  16  17
ATOM     17  C   UNL     1       3.007  22.307 -15.791  1.00  0.00     0.000 C 
BRANCH  17  18
ATOM     18  C   UNL     1       2.068  21.805 -16.897  1.00  0.00     0.000 C 
BRANCH  18  19
ATOM     19  C   UNL     1       1.603  22.961 -17.791  1.00  0.00     0.000 C 
BRANCH  19  20
ATOM     20  C   UNL     1       1.414  22.493 -19.241  1.00  0.00     0.006 C 
BRANCH  20  21
ATOM     21  C   UNL     1       1.317  20.966 -19.352  1.00  0.00     0.053 C 
BRANCH  21  22
ATOM     22  C   UNL     1       2.339  20.413 -20.298  1.00  0.00     0.041 C 
ATOM     23  O   UNL     1       3.150  21.182 -20.878  1.00  0.00    -0.550 OA
ATOM     24  O   UNL     1       2.413  19.042 -20.517  1.00  0.00    -0.550 OA
ENDBRANCH  21  22
ENDBRANCH  20  21
ENDBRANCH  19  20
ENDBRANCH  18  19
ENDBRANCH  17  18
ENDBRANCH  16  17
ENDBRANCH  15  16
ENDBRANCH  14  15
ENDBRANCH  13  14
ENDBRANCH   1  13
TORSDOF 20
ENDMDL
MODEL 3
REMARK VINA RESULT:    -5.021      3.988     10.658
REMARK INTER + INTRA:         -13.263
REMARK INTER:                 -11.583
REMARK INTRA:                  -1.680
REMARK UNBOUND:                -2.371
REMARK SMILES CCCCCCCCCCCCCCCCCCCCCC(=O)[O-]
REMARK SMILES IDX 12 1 11 2 10 3 9 4 8 5 7 6 6 7 5 8 4 9 3 10 2 11 1 12 13 13
REMARK SMILES IDX 14 14 15 15 16 16 17 17 18 18 19 19 20 20 21 21 22 22 23 23
REMARK SMILES IDX 24 24
REMARK H PARENT
REMARK Flexibility Score: inf
ROOT
ATOM      1  C   UNL     1       2.505  20.675 -10.727  1.00  0.00     0.000 C 
ENDROOT
BRANCH   1   2
ATOM      2  C   UNL     1       2.149  21.612 -11.896  1.00  0.00     0.000 C 
BRANCH   2   3
ATOM      3  C   UNL     1       2.484  21.007 -13.271  1.00  0.00     0.000 C 
BRANCH   3   4
ATOM      4  C   UNL     1       2.918  22.070 -14.294  1.00  0.00    -0.000 C 
BRANCH   4   5
ATOM      5  C   UNL     1       2.636  21.641 -15.744  1.00  0.00    -0.000 C 
BRANCH   5   6
ATOM      6  C   UNL     1       3.377  22.512 -16.771  1.00  0.00    -0.000 C 
BRANCH   6   7
ATOM      7  C   UNL     1       2.482  22.932 -17.952  1.00  0.00    -0.000 C 
BRANCH   7   8
ATOM      8  C   UNL     1       1.158  22.152 -17.999  1.00  0.00    -0.000 C 
BRANCH   8   9
ATOM      9  C   UNL     1       1.037  21.274 -19.257  1.00  0.00    -0.000 C 
BRANCH   9  10
ATOM     10  C   UNL     1       2.398  20.987 -19.918  1.00  0.00    -0.000 C 
BRANCH  10  11
ATOM     11  C   UNL     1       2.519  19.604 -20.580  1.00  0.00    -0.003 C 
ATOM     12  C   UNL     1       3.866  19.384 -21.270  1.00  0.00     0.004 C 
ENDBRANCH  10  11
ENDBRANCH   9  10
ENDBRANCH   8   9
ENDBRANCH   7   8
ENDBRANCH   6   7
ENDBRANCH   5   6
ENDBRANCH   4   5
ENDBRANCH   3   4
ENDBRANCH   2   3
ENDBRANCH   1   2
BRANCH   1  13
ATOM     13  C   UNL     1       2.921  19.250 -11.137  1.00  0.00     0.000 C 
BRANCH  13  14
ATOM     14  C   UNL     1       2.269  18.161 -10.267  1.00  0.00     0.000 C 
BRANCH  14  15
ATOM     15  C   UNL     1       0.757  18.377 -10.071  1.00  0.00     0.000 C 
BRANCH  15  16
ATOM     16  C   UNL     1       0.240  18.165  -8.633  1.00  0.00     0.000 C 
BRANCH  16  17
ATOM     17  C   UNL     1       1.197  17.401  -7.700  1.00  0.00     0.000 C 
BRANCH  17  18
ATOM     18  C   UNL     1       0.772  17.469  -6.226  1.00  0.00     0.000 C 
BRANCH  18  19
ATOM     19  C   UNL     1      -0.049  18.733  -5.948  1.00  0.00     0.000 C 
BRANCH  19  20
ATOM     20  C   UNL     1       0.678  19.657  -4.960  1.00  0.00     0.006 C 
BRANCH  20  21
ATOM     21  C   UNL     1       0.824  21.085  -5.499  1.00  0.00     0.053 C 
BRANCH  21  22
ATOM     22  C   UNL     1       1.552  21.113  -6.808  1.00  0.00     0.041 C 
ATOM     23  O   UNL     1       1.026  21.653  -7.816  1.00  0.00    -0.550 OA
ATOM     24  O   UNL     1       2.825  20.566  -6.906  1.00  0.00    -0.550 OA
ENDBRANCH  21  22
ENDBRANCH  20  21
ENDBRANCH  19  20
ENDBRANCH  18  19
ENDBRANCH  17  18
ENDBRANCH  16  17
ENDBRANCH  15  16
ENDBRANCH  14  15
ENDBRANCH  13  14
ENDBRANCH   1  13
TORSDOF 20
ENDMDL
MODEL 4
REMARK VINA RESULT:    -4.956      3.681     10.375
REMARK INTER + INTRA:         -13.122
REMARK INTER:                 -11.385
REMARK INTRA:                  -1.736
REMARK UNBOUND:                -2.371
REMARK SMILES CCCCCCCCCCCCCCCCCCCCCC(=O)[O-]
REMARK SMILES IDX 12 1 11 2 10 3 9 4 8 5 7 6 6 7 5 8 4 9 3 10 2 11 1 12 13 13
REMARK SMILES IDX 14 14 15 15 16 16 17 17 18 18 19 19 20 20 21 21 22 22 23 23
REMARK SMILES IDX 24 24
REMARK H PARENT
REMARK Flexibility Score: inf
ROOT
ATOM      1  C   UNL     1       2.028  21.446 -11.207  1.00  0.00     0.000 C 
ENDROOT
BRANCH   1   2
ATOM      2  C   UNL     1       2.352  20.082 -11.842  1.00  0.00     0.000 C 
BRANCH   2   3
ATOM      3  C   UNL     1       2.171  20.074 -13.370  1.00  0.00     0.000 C 
BRANCH   3   4
ATOM      4  C   UNL     1       2.738  21.335 -14.040  1.00  0.00    -0.000 C 
BRANCH   4   5
ATOM      5  C   UNL     1       2.362  21.432 -15.529  1.00  0.00    -0.000 C 
BRANCH   5   6
ATOM      6  C   UNL     1       3.388  22.235 -16.344  1.00  0.00    -0.000 C 
BRANCH   6   7
ATOM      7  C   UNL     1       2.786  22.839 -17.627  1.00  0.00    -0.000 C 
BRANCH   7   8
ATOM      8  C   UNL     1       1.302  22.483 -17.811  1.00  0.00    -0.000 C 
BRANCH   8   9
ATOM      9  C   UNL     1       1.053  21.635 -19.070  1.00  0.00    -0.000 C 
BRANCH   9  10
ATOM     10  C   UNL     1       2.354  21.253 -19.800  1.00  0.00    -0.000 C 
BRANCH  10  11
ATOM     11  C   UNL     1       2.403  19.807 -20.324  1.00  0.00    -0.003 C 
ATOM     12  C   UNL     1       3.672  19.500 -21.119  1.00  0.00     0.004 C 
ENDBRANCH  10  11
ENDBRANCH   9  10
ENDBRANCH   8   9
ENDBRANCH   7   8
ENDBRANCH   6   7
ENDBRANCH   5   6
ENDBRANCH   4   5
ENDBRANCH   3   4
ENDBRANCH   2   3
ENDBRANCH   1   2
BRANCH   1  13
ATOM     13  C   UNL     1       2.835  21.785  -9.941  1.00  0.00     0.000 C 
BRANCH  13  14
ATOM     14  C   UNL     1       2.131  21.345  -8.645  1.00  0.00     0.000 C 
BRANCH  14  15
ATOM     15  C   UNL     1       3.115  21.070  -7.493  1.00  0.00     0.000 C 
BRANCH  15  16
ATOM     16  C   UNL     1       2.468  20.631  -6.162  1.00  0.00     0.000 C 
BRANCH  16  17
ATOM     17  C   UNL     1       1.201  21.409  -5.763  1.00  0.00     0.000 C 
BRANCH  17  18
ATOM     18  C   UNL     1      -0.076  20.562  -5.870  1.00  0.00     0.000 C 
BRANCH  18  19
ATOM     19  C   UNL     1       0.155  19.148  -5.325  1.00  0.00     0.000 C 
BRANCH  19  20
ATOM     20  C   UNL     1      -0.303  18.087  -6.336  1.00  0.00     0.006 C 
BRANCH  20  21
ATOM     21  C   UNL     1       0.879  17.354  -6.984  1.00  0.00     0.053 C 
BRANCH  21  22
ATOM     22  C   UNL     1       1.149  17.854  -8.371  1.00  0.00     0.041 C 
ATOM     23  O   UNL     1       0.222  18.364  -9.053  1.00  0.00    -0.550 OA
ATOM     24  O   UNL     1       2.433  17.780  -8.897  1.00  0.00    -0.550 OA
ENDBRANCH  21  22
ENDBRANCH  20  21
ENDBRANCH  19  20
ENDBRANCH  18  19
ENDBRANCH  17  18
ENDBRANCH  16  17
ENDBRANCH  15  16
ENDBRANCH  14  15
ENDBRANCH  13  14
ENDBRANCH   1  13
TORSDOF 20
ENDMDL
MODEL 5
REMARK VINA RESULT:    -4.940      1.061      2.533
REMARK INTER + INTRA:         -13.086
REMARK INTER:                 -11.011
REMARK INTRA:                  -2.075
REMARK UNBOUND:                -2.371
REMARK SMILES CCCCCCCCCCCCCCCCCCCCCC(=O)[O-]
REMARK SMILES IDX 12 1 11 2 10 3 9 4 8 5 7 6 6 7 5 8 4 9 3 10 2 11 1 12 13 13
REMARK SMILES IDX 14 14 15 15 16 16 17 17 18 18 19 19 20 20 21 21 22 22 23 23
REMARK SMILES IDX 24 24
REMARK H PARENT
REMARK Flexibility Score: inf
ROOT
ATOM      1  C   UNL     1       1.323  19.588 -11.407  1.00  0.00     0.000 C 
ENDROOT
BRANCH   1   2
ATOM      2  C   UNL     1       2.712  18.976 -11.668  1.00  0.00     0.000 C 
BRANCH   2   3
ATOM      3  C   UNL     1       3.612  18.981 -10.420  1.00  0.00     0.000 C 
BRANCH   3   4
ATOM      4  C   UNL     1       2.866  18.541  -9.150  1.00  0.00    -0.000 C 
BRANCH   4   5
ATOM      5  C   UNL     1       3.069  19.518  -7.979  1.00  0.00    -0.000 C 
BRANCH   5   6
ATOM      6  C   UNL     1       2.925  20.988  -8.408  1.00  0.00    -0.000 C 
BRANCH   6   7
ATOM      7  C   UNL     1       1.672  21.660  -7.816  1.00  0.00    -0.000 C 
BRANCH   7   8
ATOM      8  C   UNL     1       1.508  21.388  -6.311  1.00  0.00    -0.000 C 
BRANCH   8   9
ATOM      9  C   UNL     1       0.104  20.866  -5.959  1.00  0.00    -0.000 C 
BRANCH   9  10
ATOM     10  C   UNL     1       0.139  19.636  -5.033  1.00  0.00    -0.000 C 
BRANCH  10  11
ATOM     11  C   UNL     1       0.655  18.344  -5.690  1.00  0.00    -0.003 C 
ATOM     12  C   UNL     1      -0.157  17.929  -6.917  1.00  0.00     0.004 C 
ENDBRANCH  10  11
ENDBRANCH   9  10
ENDBRANCH   8   9
ENDBRANCH   7   8
ENDBRANCH   6   7
ENDBRANCH   5   6
ENDBRANCH   4   5
ENDBRANCH   3   4
ENDBRANCH   2   3
ENDBRANCH   1   2
BRANCH   1  13
ATOM     13  C   UNL     1       1.221  21.104 -11.655  1.00  0.00     0.000 C 
BRANCH  13  14
ATOM     14  C   UNL     1       2.558  21.734 -12.082  1.00  0.00     0.000 C 
BRANCH  14  15
ATOM     15  C   UNL     1       2.404  22.738 -13.240  1.00  0.00     0.000 C 
BRANCH  15  16
ATOM     16  C   UNL     1       3.250  22.434 -14.495  1.00  0.00     0.000 C 
BRANCH  16  17
ATOM     17  C   UNL     1       2.531  21.619 -15.585  1.00  0.00     0.000 C 
BRANCH  17  18
ATOM     18  C   UNL     1       2.936  22.039 -17.006  1.00  0.00     0.000 C 
BRANCH  18  19
ATOM     19  C   UNL     1       1.877  22.954 -17.631  1.00  0.00     0.000 C 
BRANCH  19  20
ATOM     20  C   UNL     1       1.726  22.675 -19.133  1.00  0.00     0.006 C 
BRANCH  20  21
ATOM     21  C   UNL     1       1.363  21.212 -19.419  1.00  0.00     0.053 C 
BRANCH  21  22
ATOM     22  C   UNL     1       2.387  20.546 -20.287  1.00  0.00     0.041 C 
ATOM     23  O   UNL     1       2.446  19.290 -20.350  1.00  0.00    -0.550 OA
ATOM     24  O   UNL     1       3.259  21.316 -21.048  1.00  0.00    -0.550 OA
ENDBRANCH  21  22
ENDBRANCH  20  21
ENDBRANCH  19  20
ENDBRANCH  18  19
ENDBRANCH  17  18
ENDBRANCH  16  17
ENDBRANCH  15  16
ENDBRANCH  14  15
ENDBRANCH  13  14
ENDBRANCH   1  13
TORSDOF 20
ENDMDL
MODEL 6
REMARK VINA RESULT:    -4.854      4.517     10.309
REMARK INTER + INTRA:         -12.899
REMARK INTER:                 -10.780
REMARK INTRA:                  -2.119
REMARK UNBOUND:                -2.371
REMARK SMILES CCCCCCCCCCCCCCCCCCCCCC(=O)[O-]
REMARK SMILES IDX 12 1 11 2 10 3 9 4 8 5 7 6 6 7 5 8 4 9 3 10 2 11 1 12 13 13
REMARK SMILES IDX 14 14 15 15 16 16 17 17 18 18 19 19 20 20 21 21 22 22 23 23
REMARK SMILES IDX 24 24
REMARK H PARENT
REMARK Flexibility Score: inf
ROOT
ATOM      1  C   UNL     1       1.504  19.143 -11.971  1.00  0.00     0.000 C 
ENDROOT
BRANCH   1   2
ATOM      2  C   UNL     1       2.498  20.159 -12.561  1.00  0.00     0.000 C 
BRANCH   2   3
ATOM      3  C   UNL     1       2.235  21.600 -12.088  1.00  0.00     0.000 C 
BRANCH   3   4
ATOM      4  C   UNL     1       2.276  22.618 -13.239  1.00  0.00    -0.000 C 
BRANCH   4   5
ATOM      5  C   UNL     1       3.297  22.237 -14.325  1.00  0.00    -0.000 C 
BRANCH   5   6
ATOM      6  C   UNL     1       2.631  21.930 -15.676  1.00  0.00    -0.000 C 
BRANCH   6   7
ATOM      7  C   UNL     1       3.401  22.530 -16.868  1.00  0.00    -0.000 C 
BRANCH   7   8
ATOM      8  C   UNL     1       2.470  23.031 -17.984  1.00  0.00    -0.000 C 
BRANCH   8   9
ATOM      9  C   UNL     1       1.147  22.247 -18.041  1.00  0.00    -0.000 C 
BRANCH   9  10
ATOM     10  C   UNL     1       1.024  21.372 -19.303  1.00  0.00    -0.000 C 
BRANCH  10  11
ATOM     11  C   UNL     1       2.359  20.859 -19.869  1.00  0.00    -0.003 C 
ATOM     12  C   UNL     1       2.271  19.436 -20.419  1.00  0.00     0.004 C 
ENDBRANCH  10  11
ENDBRANCH   9  10
ENDBRANCH   8   9
ENDBRANCH   7   8
ENDBRANCH   6   7
ENDBRANCH   5   6
ENDBRANCH   4   5
ENDBRANCH   3   4
ENDBRANCH   2   3
ENDBRANCH   1   2
BRANCH   1  13
ATOM     13  C   UNL     1       2.123  17.804 -11.530  1.00  0.00     0.000 C 
BRANCH  13  14
ATOM     14  C   UNL     1       1.617  17.333 -10.156  1.00  0.00     0.000 C 
BRANCH  14  15
ATOM     15  C   UNL     1       1.475  18.485  -9.143  1.00  0.00     0.000 C 
BRANCH  15  16
ATOM     16  C   UNL     1       2.798  19.008  -8.546  1.00  0.00     0.000 C 
BRANCH  16  17
ATOM     17  C   UNL     1       2.781  20.484  -8.111  1.00  0.00     0.000 C 
BRANCH  17  18
ATOM     18  C   UNL     1       1.442  21.176  -8.405  1.00  0.00     0.000 C 
BRANCH  18  19
ATOM     19  C   UNL     1       0.846  21.786  -7.131  1.00  0.00     0.000 C 
BRANCH  19  20
ATOM     20  C   UNL     1       1.341  21.045  -5.881  1.00  0.00     0.006 C 
BRANCH  20  21
ATOM     21  C   UNL     1       0.245  20.179  -5.246  1.00  0.00     0.053 C 
BRANCH  21  22
ATOM     22  C   UNL     1       0.411  18.731  -5.593  1.00  0.00     0.041 C 
ATOM     23  O   UNL     1      -0.509  18.112  -6.188  1.00  0.00    -0.550 OA
ATOM     24  O   UNL     1       1.596  18.074  -5.283  1.00  0.00    -0.550 OA
ENDBRANCH  21  22
ENDBRANCH  20  21
ENDBRANCH  19  20
ENDBRANCH  18  19
ENDBRANCH  17  18
ENDBRANCH  16  17
ENDBRANCH  15  16
ENDBRANCH  14  15
ENDBRANCH  13  14
ENDBRANCH   1  13
TORSDOF 20
ENDMDL
MODEL 7
REMARK VINA RESULT:    -4.822      4.508     10.800
REMARK INTER + INTRA:         -12.831
REMARK INTER:                 -11.473
REMARK INTRA:                  -1.358
REMARK UNBOUND:                -2.371
REMARK SMILES CCCCCCCCCCCCCCCCCCCCCC(=O)[O-]
REMARK SMILES IDX 12 1 11 2 10 3 9 4 8 5 7 6 6 7 5 8 4 9 3 10 2 11 1 12 13 13
REMARK SMILES IDX 14 14 15 15 16 16 17 17 18 18 19 19 20 20 21 21 22 22 23 23
REMARK SMILES IDX 24 24
REMARK H PARENT
REMARK Flexibility Score: inf
ROOT
ATOM      1  C   UNL     1       2.257  20.129 -12.772  1.00  0.00     0.000 C 
ENDROOT
BRANCH   1   2
ATOM      2  C   UNL     1       2.348  21.611 -12.366  1.00  0.00     0.000 C 
BRANCH   2   3
ATOM      3  C   UNL     1       2.921  22.503 -13.482  1.00  0.00     0.000 C 
BRANCH   3   4
ATOM      4  C   UNL     1       2.456  22.072 -14.882  1.00  0.00    -0.000 C 
BRANCH   4   5
ATOM      5  C   UNL     1       3.590  22.119 -15.919  1.00  0.00    -0.000 C 
BRANCH   5   6
ATOM      6  C   UNL     1       3.141  22.733 -17.255  1.00  0.00    -0.000 C 
BRANCH   6   7
ATOM      7  C   UNL     1       1.609  22.816 -17.386  1.00  0.00    -0.000 C 
BRANCH   7   8
ATOM      8  C   UNL     1       1.081  22.106 -18.643  1.00  0.00    -0.000 C 
BRANCH   8   9
ATOM      9  C   UNL     1       2.199  21.405 -19.434  1.00  0.00    -0.000 C 
BRANCH   9  10
ATOM     10  C   UNL     1       1.672  20.282 -20.347  1.00  0.00    -0.000 C 
BRANCH  10  11
ATOM     11  C   UNL     1       2.660  19.130 -20.596  1.00  0.00    -0.003 C 
ATOM     12  C   UNL     1       3.877  19.550 -21.421  1.00  0.00     0.004 C 
ENDBRANCH  10  11
ENDBRANCH   9  10
ENDBRANCH   8   9
ENDBRANCH   7   8
ENDBRANCH   6   7
ENDBRANCH   5   6
ENDBRANCH   4   5
ENDBRANCH   3   4
ENDBRANCH   2   3
ENDBRANCH   1   2
BRANCH   1  13
ATOM     13  C   UNL     1       2.039  19.145 -11.607  1.00  0.00     0.000 C 
BRANCH  13  14
ATOM     14  C   UNL     1       3.149  18.086 -11.500  1.00  0.00     0.000 C 
BRANCH  14  15
ATOM     15  C   UNL     1       3.308  17.526 -10.074  1.00  0.00     0.000 C 
BRANCH  15  16
ATOM     16  C   UNL     1       2.110  17.769  -9.132  1.00  0.00     0.000 C 
BRANCH  16  17
ATOM     17  C   UNL     1       2.426  18.597  -7.873  1.00  0.00     0.000 C 
BRANCH  17  18
ATOM     18  C   UNL     1       3.012  19.978  -8.201  1.00  0.00     0.000 C 
BRANCH  18  19
ATOM     19  C   UNL     1       2.709  20.983  -7.084  1.00  0.00     0.000 C 
BRANCH  19  20
ATOM     20  C   UNL     1       2.718  20.299  -5.709  1.00  0.00     0.006 C 
BRANCH  20  21
ATOM     21  C   UNL     1       1.480  20.654  -4.876  1.00  0.00     0.053 C 
BRANCH  21  22
ATOM     22  C   UNL     1       0.210  20.383  -5.624  1.00  0.00     0.041 C 
ATOM     23  O   UNL     1      -0.293  19.229  -5.622  1.00  0.00    -0.550 OA
ATOM     24  O   UNL     1      -0.430  21.413  -6.301  1.00  0.00    -0.550 OA
ENDBRANCH  21  22
ENDBRANCH  20  21
ENDBRANCH  19  20
ENDBRANCH  18  19
ENDBRANCH  17  18
ENDBRANCH  16  17
ENDBRANCH  15  16
ENDBRANCH  14  15
ENDBRANCH  13  14
ENDBRANCH   1  13
TORSDOF 20
ENDMDL
MODEL 8
REMARK VINA RESULT:    -4.757      3.521      9.727
REMARK INTER + INTRA:         -12.689
REMARK INTER:                 -10.770
REMARK INTRA:                  -1.919
REMARK UNBOUND:                -2.371
REMARK SMILES CCCCCCCCCCCCCCCCCCCCCC(=O)[O-]
REMARK SMILES IDX 12 1 11 2 10 3 9 4 8 5 7 6 6 7 5 8 4 9 3 10 2 11 1 12 13 13
REMARK SMILES IDX 14 14 15 15 16 16 17 17 18 18 19 19 20 20 21 21 22 22 23 23
REMARK SMILES IDX 24 24
REMARK H PARENT
REMARK Flexibility Score: inf
ROOT
ATOM      1  C   UNL     1       0.552  18.570  -9.965  1.00  0.00     0.000 C 
ENDROOT
BRANCH   1   2
ATOM      2  C   UNL     1       1.642  18.692 -11.046  1.00  0.00     0.000 C 
BRANCH   2   3
ATOM      3  C   UNL     1       1.148  19.408 -12.316  1.00  0.00     0.000 C 
BRANCH   3   4
ATOM      4  C   UNL     1       2.298  19.996 -13.149  1.00  0.00    -0.000 C 
BRANCH   4   5
ATOM      5  C   UNL     1       2.471  21.509 -12.928  1.00  0.00    -0.000 C 
BRANCH   5   6
ATOM      6  C   UNL     1       2.958  22.236 -14.192  1.00  0.00    -0.000 C 
BRANCH   6   7
ATOM      7  C   UNL     1       2.590  21.489 -15.487  1.00  0.00    -0.000 C 
BRANCH   7   8
ATOM      8  C   UNL     1       2.819  22.340 -16.748  1.00  0.00    -0.000 C 
BRANCH   8   9
ATOM      9  C   UNL     1       1.507  22.666 -17.482  1.00  0.00    -0.000 C 
BRANCH   9  10
ATOM     10  C   UNL     1       1.555  22.308 -18.979  1.00  0.00    -0.000 C 
BRANCH  10  11
ATOM     11  C   UNL     1       1.628  20.801 -19.284  1.00  0.00    -0.003 C 
ATOM     12  C   UNL     1       2.516  20.475 -20.485  1.00  0.00     0.004 C 
ENDBRANCH  10  11
ENDBRANCH   9  10
ENDBRANCH   8   9
ENDBRANCH   7   8
ENDBRANCH   6   7
ENDBRANCH   5   6
ENDBRANCH   4   5
ENDBRANCH   3   4
ENDBRANCH   2   3
ENDBRANCH   1   2
BRANCH   1  13
ATOM     13  C   UNL     1       0.881  17.601  -8.814  1.00  0.00     0.000 C 
BRANCH  13  14
ATOM     14  C   UNL     1      -0.255  17.488  -7.783  1.00  0.00     0.000 C 
BRANCH  14  15
ATOM     15  C   UNL     1       0.259  17.286  -6.345  1.00  0.00     0.000 C 
BRANCH  15  16
ATOM     16  C   UNL     1       1.638  17.910  -6.043  1.00  0.00     0.000 C 
BRANCH  16  17
ATOM     17  C   UNL     1       1.615  19.118  -5.090  1.00  0.00     0.000 C 
BRANCH  17  18
ATOM     18  C   UNL     1       0.240  19.800  -5.027  1.00  0.00     0.000 C 
BRANCH  18  19
ATOM     19  C   UNL     1       0.104  20.864  -6.122  1.00  0.00     0.000 C 
BRANCH  19  20
ATOM     20  C   UNL     1       1.479  21.406  -6.539  1.00  0.00     0.006 C 
BRANCH  20  21
ATOM     21  C   UNL     1       1.550  21.720  -8.039  1.00  0.00     0.053 C 
BRANCH  21  22
ATOM     22  C   UNL     1       2.791  21.162  -8.664  1.00  0.00     0.041 C 
ATOM     23  O   UNL     1       3.289  21.708  -9.683  1.00  0.00    -0.550 OA
ATOM     24  O   UNL     1       3.413  20.053  -8.103  1.00  0.00    -0.550 OA
ENDBRANCH  21  22
ENDBRANCH  20  21
ENDBRANCH  19  20
ENDBRANCH  18  19
ENDBRANCH  17  18
ENDBRANCH  16  17
ENDBRANCH  15  16
ENDBRANCH  14  15
ENDBRANCH  13  14
ENDBRANCH   1  13
TORSDOF 20
ENDMDL
MODEL 9
REMARK VINA RESULT:    -4.737      1.003      2.629
REMARK INTER + INTRA:         -12.647
REMARK INTER:                 -10.795
REMARK INTRA:                  -1.852
REMARK UNBOUND:                -2.371
REMARK SMILES CCCCCCCCCCCCCCCCCCCCCC(=O)[O-]
REMARK SMILES IDX 12 1 11 2 10 3 9 4 8 5 7 6 6 7 5 8 4 9 3 10 2 11 1 12 13 13
REMARK SMILES IDX 14 14 15 15 16 16 17 17 18 18 19 19 20 20 21 21 22 22 23 23
REMARK SMILES IDX 24 24
REMARK H PARENT
REMARK Flexibility Score: inf
ROOT
ATOM      1  C   UNL     1       2.198  21.368 -12.193  1.00  0.00     0.000 C 
ENDROOT
BRANCH   1   2
ATOM      2  C   UNL     1       1.972  19.885 -12.537  1.00  0.00     0.000 C 
BRANCH   2   3
ATOM      3  C   UNL     1       1.805  18.999 -11.290  1.00  0.00     0.000 C 
BRANCH   3   4
ATOM      4  C   UNL     1       0.347  18.567 -11.062  1.00  0.00    -0.000 C 
BRANCH   4   5
ATOM      5  C   UNL     1       0.107  18.030  -9.641  1.00  0.00    -0.000 C 
BRANCH   5   6
ATOM      6  C   UNL     1       1.326  18.225  -8.725  1.00  0.00    -0.000 C 
BRANCH   6   7
ATOM      7  C   UNL     1       1.087  17.698  -7.297  1.00  0.00    -0.000 C 
BRANCH   7   8
ATOM      8  C   UNL     1       1.373  18.756  -6.219  1.00  0.00    -0.000 C 
BRANCH   8   9
ATOM      9  C   UNL     1       0.151  19.645  -5.930  1.00  0.00    -0.000 C 
BRANCH   9  10
ATOM     10  C   UNL     1       0.399  21.128  -6.261  1.00  0.00    -0.000 C 
BRANCH  10  11
ATOM     11  C   UNL     1       1.691  21.410  -7.047  1.00  0.00    -0.003 C 
ATOM     12  C   UNL     1       1.437  21.773  -8.510  1.00  0.00     0.004 C 
ENDBRANCH  10  11
ENDBRANCH   9  10
ENDBRANCH   8   9
ENDBRANCH   7   8
ENDBRANCH   6   7
ENDBRANCH   5   6
ENDBRANCH   4   5
ENDBRANCH   3   4
ENDBRANCH   2   3
ENDBRANCH   1   2
BRANCH   1  13
ATOM     13  C   UNL     1       2.654  22.249 -13.371  1.00  0.00     0.000 C 
BRANCH  13  14
ATOM     14  C   UNL     1       2.952  21.441 -14.645  1.00  0.00     0.000 C 
BRANCH  14  15
ATOM     15  C   UNL     1       2.304  22.046 -15.904  1.00  0.00     0.000 C 
BRANCH  15  16
ATOM     16  C   UNL     1       3.280  22.726 -16.887  1.00  0.00     0.000 C 
BRANCH  16  17
ATOM     17  C   UNL     1       2.950  22.530 -18.378  1.00  0.00     0.000 C 
BRANCH  17  18
ATOM     18  C   UNL     1       1.449  22.656 -18.676  1.00  0.00     0.000 C 
BRANCH  18  19
ATOM     19  C   UNL     1       0.919  21.397 -19.372  1.00  0.00     0.000 C 
BRANCH  19  20
ATOM     20  C   UNL     1       1.887  20.219 -19.192  1.00  0.00     0.006 C 
BRANCH  20  21
ATOM     21  C   UNL     1       2.202  19.517 -20.519  1.00  0.00     0.053 C 
BRANCH  21  22
ATOM     22  C   UNL     1       3.519  19.959 -21.080  1.00  0.00     0.041 C 
ATOM     23  O   UNL     1       4.513  19.187 -21.050  1.00  0.00    -0.550 OA
ATOM     24  O   UNL     1       3.639  21.215 -21.663  1.00  0.00    -0.550 OA
ENDBRANCH  21  22
ENDBRANCH  20  21
ENDBRANCH  19  20
ENDBRANCH  18  19
ENDBRANCH  17  18
ENDBRANCH  16  17
ENDBRANCH  15  16
ENDBRANCH  14  15
ENDBRANCH  13  14
ENDBRANCH   1  13
TORSDOF 20
ENDMDL
