MODEL 1
REMARK VINA RESULT:    -5.302      0.000      0.000
REMARK INTER + INTRA:          -8.220
REMARK INTER:                  -8.091
REMARK INTRA:                  -0.129
REMARK UNBOUND:                -0.129
REMARK SMILES CC1=CCC[C@@H](C)C(=O)C[C@H](C(C)C)C(=O)C1
REMARK SMILES IDX 8 1 9 2 6 3 7 4 5 5 4 6 3 7 2 8 1 9 10 11 11 12 15 13 16 14
REMARK SMILES IDX 17 15 12 17 13 18 14 19
REMARK H PARENT
REMARK Flexibility Score: 70.00
ROOT
ATOM      1  C   UNL     1      -8.857  33.116  22.079  1.00  0.00     0.136 C 
ATOM      2  O   UNL     1      -8.531  32.829  20.936  1.00  0.00    -0.299 OA
ENDROOT
BRANCH   1   3
ATOM      3  C   UNL     1      -8.543  34.530  22.583  1.00  0.00     0.053 C 
ATOM      4  C   UNL     1      -7.472  35.189  21.712  1.00  0.00     0.016 C 
BRANCH   3   5
ATOM      5  C   UNL     1      -8.096  34.398  24.021  1.00  0.00     0.015 C 
BRANCH   5   6
ATOM      6  C   UNL     1      -8.632  35.222  25.166  1.00  0.00     0.028 C 
BRANCH   6   7
ATOM      7  C   UNL     1      -8.315  34.499  26.473  1.00  0.00    -0.028 C 
ATOM      8  C   UNL     1      -8.758  33.269  26.900  1.00  0.00    -0.070 CG0
ATOM      9  C   UNL     1      -8.176  32.757  28.195  1.00  0.00     0.039 C 
ATOM     10  G   UNL     1      -9.803  32.379  26.195  1.00  0.00     0.000 G0
ENDBRANCH   6   7
ENDBRANCH   5   6
ENDBRANCH   3   5
ENDBRANCH   1   3
BRANCH   1  11
ATOM     11  C   UNL     1      -9.517  32.024  22.945  1.00  0.00     0.087 C 
BRANCH  11  12
ATOM     12  C   UNL     1      -8.667  31.192  23.991  1.00  0.00     0.066 C 
BRANCH  12  13
ATOM     13  C   UNL     1      -9.213  31.183  25.449  1.00  0.00     0.140 C 
ATOM     14  O   UNL     1      -9.184  30.116  26.045  1.00  0.00    -0.299 OA
BRANCH  13  15
ATOM     15  C   UNL     1      -9.809  32.378  26.208  1.00  0.00     0.106 CG0
ATOM     16  G   UNL     1      -8.760  33.271  26.903  1.00  0.00     0.000 G0
ENDBRANCH  13  15
ENDBRANCH  12  13
BRANCH  12  17
ATOM     17  C   UNL     1      -7.943  29.917  23.426  1.00  0.00    -0.006 C 
ATOM     18  C   UNL     1      -6.727  30.130  22.506  1.00  0.00     0.008 C 
ATOM     19  C   UNL     1      -8.932  28.936  22.772  1.00  0.00     0.008 C 
ENDBRANCH  12  17
ENDBRANCH  11  12
ENDBRANCH   1  11
TORSDOF 1
ENDMDL
MODEL 2
REMARK VINA RESULT:    -5.050      1.552      4.043
REMARK INTER + INTRA:          -7.837
REMARK INTER:                  -7.433
REMARK INTRA:                  -0.404
REMARK UNBOUND:                -0.129
REMARK SMILES CC1=CCC[C@@H](C)C(=O)C[C@H](C(C)C)C(=O)C1
REMARK SMILES IDX 8 1 9 2 6 3 7 4 5 5 4 6 3 7 2 8 1 9 10 11 11 12 15 13 16 14
REMARK SMILES IDX 17 15 12 17 13 18 14 19
REMARK H PARENT
REMARK Flexibility Score: 70.00
ROOT
ATOM      1  C   UNL     1      -9.756  29.947  26.127  1.00  0.00     0.136 C 
ATOM      2  O   UNL     1     -10.081  28.779  25.975  1.00  0.00    -0.299 OA
ENDROOT
BRANCH   1   3
ATOM      3  C   UNL     1      -9.149  30.355  27.475  1.00  0.00     0.053 C 
ATOM      4  C   UNL     1      -9.923  29.720  28.632  1.00  0.00     0.016 C 
BRANCH   3   5
ATOM      5  C   UNL     1      -9.185  31.865  27.537  1.00  0.00     0.015 C 
BRANCH   5   6
ATOM      6  C   UNL     1      -7.978  32.760  27.397  1.00  0.00     0.028 C 
BRANCH   6   7
ATOM      7  C   UNL     1      -8.378  33.989  26.584  1.00  0.00    -0.028 C 
ATOM      8  C   UNL     1      -8.263  34.194  25.229  1.00  0.00    -0.070 CG0
ATOM      9  C   UNL     1      -8.858  35.471  24.688  1.00  0.00     0.039 C 
ATOM     10  G   UNL     1      -7.568  33.256  24.219  1.00  0.00     0.000 G0
ENDBRANCH   6   7
ENDBRANCH   5   6
ENDBRANCH   3   5
ENDBRANCH   1   3
BRANCH   1  11
ATOM     11  C   UNL     1     -10.022  30.935  24.973  1.00  0.00     0.087 C 
BRANCH  11  12
ATOM     12  C   UNL     1      -9.058  30.997  23.718  1.00  0.00     0.066 C 
BRANCH  12  13
ATOM     13  C   UNL     1      -8.510  32.410  23.359  1.00  0.00     0.140 C 
ATOM     14  O   UNL     1      -8.852  32.879  22.282  1.00  0.00    -0.299 OA
BRANCH  13  15
ATOM     15  C   UNL     1      -7.560  33.265  24.210  1.00  0.00     0.106 CG0
ATOM     16  G   UNL     1      -8.275  34.181  25.225  1.00  0.00     0.000 G0
ENDBRANCH  13  15
ENDBRANCH  12  13
BRANCH  12  17
ATOM     17  C   UNL     1      -8.156  29.733  23.482  1.00  0.00    -0.006 C 
ATOM     18  C   UNL     1      -6.814  29.933  22.753  1.00  0.00     0.008 C 
ATOM     19  C   UNL     1      -8.941  28.580  22.832  1.00  0.00     0.008 C 
ENDBRANCH  12  17
ENDBRANCH  11  12
ENDBRANCH   1  11
TORSDOF 1
ENDMDL
MODEL 3
REMARK VINA RESULT:    -4.946      1.680      4.041
REMARK INTER + INTRA:          -7.677
REMARK INTER:                  -7.685
REMARK INTRA:                   0.008
REMARK UNBOUND:                -0.129
REMARK SMILES CC1=CCC[C@@H](C)C(=O)C[C@H](C(C)C)C(=O)C1
REMARK SMILES IDX 8 1 9 2 6 3 7 4 5 5 4 6 3 7 2 8 1 9 10 11 11 12 15 13 16 14
REMARK SMILES IDX 17 15 12 17 13 18 14 19
REMARK H PARENT
REMARK Flexibility Score: 70.00
ROOT
ATOM      1  C   UNL     1      -8.499  33.548  22.403  1.00  0.00     0.136 C 
ATOM      2  O   UNL     1      -8.465  34.736  22.117  1.00  0.00    -0.299 OA
ENDROOT
BRANCH   1   3
ATOM      3  C   UNL     1      -7.502  32.613  21.709  1.00  0.00     0.053 C 
ATOM      4  C   UNL     1      -7.274  33.044  20.259  1.00  0.00     0.016 C 
BRANCH   3   5
ATOM      5  C   UNL     1      -8.070  31.215  21.798  1.00  0.00     0.015 C 
BRANCH   5   6
ATOM      6  C   UNL     1      -7.423  30.069  22.536  1.00  0.00     0.028 C 
BRANCH   6   7
ATOM      7  C   UNL     1      -8.494  29.357  23.359  1.00  0.00    -0.028 C 
ATOM      8  C   UNL     1      -8.955  29.668  24.617  1.00  0.00    -0.070 CG0
ATOM      9  C   UNL     1     -10.114  28.849  25.131  1.00  0.00     0.039 C 
ATOM     10  G   UNL     1      -8.388  30.755  25.555  1.00  0.00     0.000 G0
ENDBRANCH   6   7
ENDBRANCH   5   6
ENDBRANCH   3   5
ENDBRANCH   1   3
BRANCH   1  11
ATOM     11  C   UNL     1      -9.571  33.069  23.403  1.00  0.00     0.087 C 
BRANCH  11  12
ATOM     12  C   UNL     1      -9.378  33.272  24.962  1.00  0.00     0.066 C 
BRANCH  12  13
ATOM     13  C   UNL     1      -9.302  31.967  25.808  1.00  0.00     0.140 C 
ATOM     14  O   UNL     1     -10.035  31.897  26.784  1.00  0.00    -0.299 OA
BRANCH  13  15
ATOM     15  C   UNL     1      -8.379  30.766  25.554  1.00  0.00     0.106 CG0
ATOM     16  G   UNL     1      -8.981  29.694  24.622  1.00  0.00     0.000 G0
ENDBRANCH  13  15
ENDBRANCH  12  13
BRANCH  12  17
ATOM     17  C   UNL     1      -8.532  34.525  25.390  1.00  0.00    -0.006 C 
ATOM     18  C   UNL     1      -8.151  34.660  26.876  1.00  0.00     0.008 C 
ATOM     19  C   UNL     1      -9.153  35.838  24.884  1.00  0.00     0.008 C 
ENDBRANCH  12  17
ENDBRANCH  11  12
ENDBRANCH   1  11
TORSDOF 1
ENDMDL
MODEL 4
REMARK VINA RESULT:    -4.790      1.514      2.174
REMARK INTER + INTRA:          -7.439
REMARK INTER:                  -8.312
REMARK INTRA:                   0.873
REMARK UNBOUND:                -0.129
REMARK SMILES CC1=CCC[C@@H](C)C(=O)C[C@H](C(C)C)C(=O)C1
REMARK SMILES IDX 8 1 9 2 6 3 7 4 5 5 4 6 3 7 2 8 1 9 10 11 11 12 15 13 16 14
REMARK SMILES IDX 17 15 12 17 13 18 14 19
REMARK H PARENT
REMARK Flexibility Score: 70.00
ROOT
ATOM      1  C   UNL     1      -8.775  31.648  21.502  1.00  0.00     0.136 C 
ATOM      2  O   UNL     1      -9.664  30.950  21.038  1.00  0.00    -0.299 OA
ENDROOT
BRANCH   1   3
ATOM      3  C   UNL     1      -8.581  33.051  20.914  1.00  0.00     0.053 C 
ATOM      4  C   UNL     1      -7.270  33.134  20.130  1.00  0.00     0.016 C 
BRANCH   3   5
ATOM      5  C   UNL     1      -8.606  34.023  22.072  1.00  0.00     0.015 C 
BRANCH   5   6
ATOM      6  C   UNL     1      -7.397  34.746  22.613  1.00  0.00     0.028 C 
BRANCH   6   7
ATOM      7  C   UNL     1      -7.609  34.996  24.104  1.00  0.00    -0.028 C 
ATOM      8  C   UNL     1      -8.395  34.292  24.987  1.00  0.00    -0.070 CG0
ATOM      9  C   UNL     1      -8.311  34.702  26.437  1.00  0.00     0.039 C 
ATOM     10  G   UNL     1      -9.363  33.143  24.633  1.00  0.00     0.000 G0
ENDBRANCH   6   7
ENDBRANCH   5   6
ENDBRANCH   3   5
ENDBRANCH   1   3
BRANCH   1  11
ATOM     11  C   UNL     1      -7.882  31.052  22.610  1.00  0.00     0.087 C 
BRANCH  11  12
ATOM     12  C   UNL     1      -8.503  30.582  23.989  1.00  0.00     0.066 C 
BRANCH  12  13
ATOM     13  C   UNL     1      -8.873  31.720  24.985  1.00  0.00     0.140 C 
ATOM     14  O   UNL     1      -8.773  31.467  26.177  1.00  0.00    -0.299 OA
BRANCH  13  15
ATOM     15  C   UNL     1      -9.378  33.124  24.621  1.00  0.00     0.106 CG0
ATOM     16  G   UNL     1      -8.401  34.260  24.990  1.00  0.00     0.000 G0
ENDBRANCH  13  15
ENDBRANCH  12  13
BRANCH  12  17
ATOM     17  C   UNL     1      -9.381  29.280  23.937  1.00  0.00    -0.006 C 
ATOM     18  C   UNL     1      -9.705  28.578  25.269  1.00  0.00     0.008 C 
ATOM     19  C   UNL     1      -8.837  28.259  22.923  1.00  0.00     0.008 C 
ENDBRANCH  12  17
ENDBRANCH  11  12
ENDBRANCH   1  11
TORSDOF 1
ENDMDL
MODEL 5
REMARK VINA RESULT:    -4.784      2.293      4.167
REMARK INTER + INTRA:          -7.430
REMARK INTER:                  -6.992
REMARK INTRA:                  -0.438
REMARK UNBOUND:                -0.129
REMARK SMILES CC1=CCC[C@@H](C)C(=O)C[C@H](C(C)C)C(=O)C1
REMARK SMILES IDX 8 1 9 2 6 3 7 4 5 5 4 6 3 7 2 8 1 9 10 11 11 12 15 13 16 14
REMARK SMILES IDX 17 15 12 17 13 18 14 19
REMARK H PARENT
REMARK Flexibility Score: 70.00
ROOT
ATOM      1  C   UNL     1      -8.759  33.148  25.887  1.00  0.00     0.136 C 
ATOM      2  O   UNL     1      -8.567  32.969  27.081  1.00  0.00    -0.299 OA
ENDROOT
BRANCH   1   3
ATOM      3  C   UNL     1      -7.966  34.261  25.191  1.00  0.00     0.053 C 
ATOM      4  C   UNL     1      -8.033  35.560  25.997  1.00  0.00     0.016 C 
BRANCH   3   5
ATOM      5  C   UNL     1      -8.556  34.427  23.809  1.00  0.00     0.015 C 
BRANCH   5   6
ATOM      6  C   UNL     1      -7.830  34.118  22.522  1.00  0.00     0.028 C 
BRANCH   6   7
ATOM      7  C   UNL     1      -8.713  33.204  21.675  1.00  0.00    -0.028 C 
ATOM      8  C   UNL     1      -8.747  31.829  21.650  1.00  0.00    -0.070 CG0
ATOM      9  C   UNL     1      -9.816  31.198  20.792  1.00  0.00     0.039 C 
ATOM     10  G   UNL     1      -7.786  30.878  22.396  1.00  0.00     0.000 G0
ENDBRANCH   6   7
ENDBRANCH   5   6
ENDBRANCH   3   5
ENDBRANCH   1   3
BRANCH   1  11
ATOM     11  C   UNL     1      -9.816  32.278  25.179  1.00  0.00     0.087 C 
BRANCH  11  12
ATOM     12  C   UNL     1      -9.444  30.846  24.613  1.00  0.00     0.066 C 
BRANCH  12  13
ATOM     13  C   UNL     1      -8.060  30.740  23.906  1.00  0.00     0.140 C 
ATOM     14  O   UNL     1      -7.084  30.569  24.623  1.00  0.00    -0.299 OA
BRANCH  13  15
ATOM     15  C   UNL     1      -7.793  30.854  22.398  1.00  0.00     0.106 CG0
ATOM     16  G   UNL     1      -8.740  31.827  21.663  1.00  0.00     0.000 G0
ENDBRANCH  13  15
ENDBRANCH  12  13
BRANCH  12  17
ATOM     17  C   UNL     1      -9.995  29.621  25.428  1.00  0.00    -0.006 C 
ATOM     18  C   UNL     1      -9.469  29.417  26.861  1.00  0.00     0.008 C 
ATOM     19  C   UNL     1      -9.885  28.307  24.636  1.00  0.00     0.008 C 
ENDBRANCH  12  17
ENDBRANCH  11  12
ENDBRANCH   1  11
TORSDOF 1
ENDMDL
MODEL 6
REMARK VINA RESULT:    -4.706      1.971      4.540
REMARK INTER + INTRA:          -7.311
REMARK INTER:                  -7.343
REMARK INTRA:                   0.032
REMARK UNBOUND:                -0.129
REMARK SMILES CC1=CCC[C@@H](C)C(=O)C[C@H](C(C)C)C(=O)C1
REMARK SMILES IDX 8 1 9 2 6 3 7 4 5 5 4 6 3 7 2 8 1 9 10 11 11 12 15 13 16 14
REMARK SMILES IDX 17 15 12 17 13 18 14 19
REMARK H PARENT
REMARK Flexibility Score: 70.00
ROOT
ATOM      1  C   UNL     1      -8.368  30.130  24.022  1.00  0.00     0.136 C 
ATOM      2  O   UNL     1      -7.158  30.153  24.193  1.00  0.00    -0.299 OA
ENDROOT
BRANCH   1   3
ATOM      3  C   UNL     1      -8.895  29.608  22.680  1.00  0.00     0.053 C 
ATOM      4  C   UNL     1      -8.328  28.219  22.379  1.00  0.00     0.016 C 
BRANCH   3   5
ATOM      5  C   UNL     1      -8.499  30.617  21.627  1.00  0.00     0.015 C 
BRANCH   5   6
ATOM      6  C   UNL     1      -9.333  31.807  21.220  1.00  0.00     0.028 C 
BRANCH   6   7
ATOM      7  C   UNL     1      -8.573  33.079  21.590  1.00  0.00    -0.028 C 
ATOM      8  C   UNL     1      -8.635  33.805  22.756  1.00  0.00    -0.070 CG0
ATOM      9  C   UNL     1      -7.672  34.960  22.882  1.00  0.00     0.039 C 
ATOM     10  G   UNL     1      -9.605  33.564  23.932  1.00  0.00     0.000 G0
ENDBRANCH   6   7
ENDBRANCH   5   6
ENDBRANCH   3   5
ENDBRANCH   1   3
BRANCH   1  11
ATOM     11  C   UNL     1      -9.274  30.669  25.148  1.00  0.00     0.087 C 
BRANCH  11  12
ATOM     12  C   UNL     1      -8.841  31.926  26.008  1.00  0.00     0.066 C 
BRANCH  12  13
ATOM     13  C   UNL     1      -8.936  33.303  25.286  1.00  0.00     0.140 C 
ATOM     14  O   UNL     1      -8.440  34.263  25.858  1.00  0.00    -0.299 OA
BRANCH  13  15
ATOM     15  C   UNL     1      -9.616  33.581  23.938  1.00  0.00     0.106 CG0
ATOM     16  G   UNL     1      -8.632  33.785  22.766  1.00  0.00     0.000 G0
ENDBRANCH  13  15
ENDBRANCH  12  13
BRANCH  12  17
ATOM     17  C   UNL     1      -9.134  31.836  27.549  1.00  0.00    -0.006 C 
ATOM     18  C   UNL     1      -8.181  32.577  28.506  1.00  0.00     0.008 C 
ATOM     19  C   UNL     1      -9.321  30.382  28.015  1.00  0.00     0.008 C 
ENDBRANCH  12  17
ENDBRANCH  11  12
ENDBRANCH   1  11
TORSDOF 1
ENDMDL
MODEL 7
REMARK VINA RESULT:    -4.553      1.589      3.534
REMARK INTER + INTRA:          -7.078
REMARK INTER:                  -7.410
REMARK INTRA:                   0.332
REMARK UNBOUND:                -0.129
REMARK SMILES CC1=CCC[C@@H](C)C(=O)C[C@H](C(C)C)C(=O)C1
REMARK SMILES IDX 8 1 9 2 6 3 7 4 5 5 4 6 3 7 2 8 1 9 10 11 11 12 15 13 16 14
REMARK SMILES IDX 17 15 12 17 13 18 14 19
REMARK H PARENT
REMARK Flexibility Score: 70.00
ROOT
ATOM      1  C   UNL     1      -9.020  31.250  22.048  1.00  0.00     0.136 C 
ATOM      2  O   UNL     1      -9.315  31.272  20.862  1.00  0.00    -0.299 OA
ENDROOT
BRANCH   1   3
ATOM      3  C   UNL     1      -7.976  30.226  22.510  1.00  0.00     0.053 C 
ATOM      4  C   UNL     1      -8.486  28.800  22.297  1.00  0.00     0.016 C 
BRANCH   3   5
ATOM      5  C   UNL     1      -7.693  30.510  23.967  1.00  0.00     0.015 C 
BRANCH   5   6
ATOM      6  C   UNL     1      -8.471  29.931  25.123  1.00  0.00     0.028 C 
BRANCH   6   7
ATOM      7  C   UNL     1      -8.126  30.720  26.384  1.00  0.00    -0.028 C 
ATOM      8  C   UNL     1      -8.697  31.882  26.850  1.00  0.00    -0.070 CG0
ATOM      9  C   UNL     1      -8.225  32.369  28.198  1.00  0.00     0.039 C 
ATOM     10  G   UNL     1      -9.752  32.739  26.119  1.00  0.00     0.000 G0
ENDBRANCH   6   7
ENDBRANCH   5   6
ENDBRANCH   3   5
ENDBRANCH   1   3
BRANCH   1  11
ATOM     11  C   UNL     1      -9.750  32.219  23.000  1.00  0.00     0.087 C 
BRANCH  11  12
ATOM     12  C   UNL     1      -9.019  33.503  23.571  1.00  0.00     0.066 C 
BRANCH  12  13
ATOM     13  C   UNL     1      -9.174  33.741  25.103  1.00  0.00     0.140 C 
ATOM     14  O   UNL     1      -8.779  34.812  25.539  1.00  0.00    -0.299 OA
BRANCH  13  15
ATOM     15  C   UNL     1      -9.750  32.752  26.127  1.00  0.00     0.106 CG0
ATOM     16  G   UNL     1      -8.686  31.889  26.838  1.00  0.00     0.000 G0
ENDBRANCH  13  15
ENDBRANCH  12  13
BRANCH  12  17
ATOM     17  C   UNL     1      -7.680  33.906  22.855  1.00  0.00    -0.006 C 
ATOM     18  C   UNL     1      -6.694  34.801  23.627  1.00  0.00     0.008 C 
ATOM     19  C   UNL     1      -7.931  34.486  21.452  1.00  0.00     0.008 C 
ENDBRANCH  12  17
ENDBRANCH  11  12
ENDBRANCH   1  11
TORSDOF 1
ENDMDL
MODEL 8
REMARK VINA RESULT:    -4.368      1.951      5.238
REMARK INTER + INTRA:          -6.795
REMARK INTER:                  -6.590
REMARK INTRA:                  -0.205
REMARK UNBOUND:                -0.129
REMARK SMILES CC1=CCC[C@@H](C)C(=O)C[C@H](C(C)C)C(=O)C1
REMARK SMILES IDX 8 1 9 2 6 3 7 4 5 5 4 6 3 7 2 8 1 9 10 11 11 12 15 13 16 14
REMARK SMILES IDX 17 15 12 17 13 18 14 19
REMARK H PARENT
REMARK Flexibility Score: 70.00
ROOT
ATOM      1  C   UNL     1      -9.326  32.277  26.254  1.00  0.00     0.136 C 
ATOM      2  O   UNL     1      -8.252  32.603  26.737  1.00  0.00    -0.299 OA
ENDROOT
BRANCH   1   3
ATOM      3  C   UNL     1     -10.117  31.161  26.947  1.00  0.00     0.053 C 
ATOM      4  C   UNL     1      -9.946  31.238  28.465  1.00  0.00     0.016 C 
BRANCH   3   5
ATOM      5  C   UNL     1      -9.612  29.849  26.391  1.00  0.00     0.015 C 
BRANCH   5   6
ATOM      6  C   UNL     1      -9.857  29.361  24.984  1.00  0.00     0.028 C 
BRANCH   6   7
ATOM      7  C   UNL     1      -8.538  29.411  24.217  1.00  0.00    -0.028 C 
ATOM      8  C   UNL     1      -8.219  30.167  23.113  1.00  0.00    -0.070 CG0
ATOM      9  C   UNL     1      -6.787  30.096  22.641  1.00  0.00     0.039 C 
ATOM     10  G   UNL     1      -9.185  31.059  22.305  1.00  0.00     0.000 G0
ENDBRANCH   6   7
ENDBRANCH   5   6
ENDBRANCH   3   5
ENDBRANCH   1   3
BRANCH   1  11
ATOM     11  C   UNL     1      -9.786  32.977  24.960  1.00  0.00     0.087 C 
BRANCH  11  12
ATOM     12  C   UNL     1      -8.749  33.341  23.819  1.00  0.00     0.066 C 
BRANCH  12  13
ATOM     13  C   UNL     1      -8.926  32.573  22.476  1.00  0.00     0.140 C 
ATOM     14  O   UNL     1      -8.884  33.236  21.450  1.00  0.00    -0.299 OA
BRANCH  13  15
ATOM     15  C   UNL     1      -9.176  31.067  22.312  1.00  0.00     0.106 CG0
ATOM     16  G   UNL     1      -8.212  30.176  23.124  1.00  0.00     0.000 G0
ENDBRANCH  13  15
ENDBRANCH  12  13
BRANCH  12  17
ATOM     17  C   UNL     1      -8.243  34.829  23.801  1.00  0.00    -0.006 C 
ATOM     18  C   UNL     1      -6.780  35.085  23.394  1.00  0.00     0.008 C 
ATOM     19  C   UNL     1      -8.559  35.559  25.118  1.00  0.00     0.008 C 
ENDBRANCH  12  17
ENDBRANCH  11  12
ENDBRANCH   1  11
TORSDOF 1
ENDMDL
MODEL 9
REMARK VINA RESULT:    -4.218      2.123      5.569
REMARK INTER + INTRA:          -6.567
REMARK INTER:                  -6.205
REMARK INTRA:                  -0.361
REMARK UNBOUND:                -0.129
REMARK SMILES CC1=CCC[C@@H](C)C(=O)C[C@H](C(C)C)C(=O)C1
REMARK SMILES IDX 8 1 9 2 6 3 7 4 5 5 4 6 3 7 2 8 1 9 10 11 11 12 15 13 16 14
REMARK SMILES IDX 17 15 12 17 13 18 14 19
REMARK H PARENT
REMARK Flexibility Score: 70.00
ROOT
ATOM      1  C   UNL     1      -9.814  31.689  25.756  1.00  0.00     0.136 C 
ATOM      2  O   UNL     1      -9.876  31.955  26.947  1.00  0.00    -0.299 OA
ENDROOT
BRANCH   1   3
ATOM      3  C   UNL     1      -9.677  30.215  25.355  1.00  0.00     0.053 C 
ATOM      4  C   UNL     1      -9.683  29.315  26.592  1.00  0.00     0.016 C 
BRANCH   3   5
ATOM      5  C   UNL     1      -8.391  30.086  24.573  1.00  0.00     0.015 C 
BRANCH   5   6
ATOM      6  C   UNL     1      -8.256  29.368  23.252  1.00  0.00     0.028 C 
BRANCH   6   7
ATOM      7  C   UNL     1      -9.024  30.154  22.192  1.00  0.00    -0.028 C 
ATOM      8  C   UNL     1      -8.726  31.385  21.655  1.00  0.00    -0.070 CG0
ATOM      9  C   UNL     1      -9.611  31.860  20.529  1.00  0.00     0.039 C 
ATOM     10  G   UNL     1      -7.591  32.329  22.107  1.00  0.00     0.000 G0
ENDBRANCH   6   7
ENDBRANCH   5   6
ENDBRANCH   3   5
ENDBRANCH   1   3
BRANCH   1  11
ATOM     11  C   UNL     1      -9.830  32.854  24.745  1.00  0.00     0.087 C 
BRANCH  11  12
ATOM     12  C   UNL     1      -8.498  33.625  24.373  1.00  0.00     0.066 C 
BRANCH  12  13
ATOM     13  C   UNL     1      -8.088  33.577  22.871  1.00  0.00     0.140 C 
ATOM     14  O   UNL     1      -8.184  34.619  22.238  1.00  0.00    -0.299 OA
BRANCH  13  15
ATOM     15  C   UNL     1      -7.601  32.344  22.096  1.00  0.00     0.106 CG0
ATOM     16  G   UNL     1      -8.730  31.383  21.667  1.00  0.00     0.000 G0
ENDBRANCH  13  15
ENDBRANCH  12  13
BRANCH  12  17
ATOM     17  C   UNL     1      -8.191  34.912  25.220  1.00  0.00    -0.006 C 
ATOM     18  C   UNL     1      -7.647  34.720  26.648  1.00  0.00     0.008 C 
ATOM     19  C   UNL     1      -9.381  35.887  25.237  1.00  0.00     0.008 C 
ENDBRANCH  12  17
ENDBRANCH  11  12
ENDBRANCH   1  11
TORSDOF 1
ENDMDL
