MODEL 1
REMARK VINA RESULT:    -2.599      0.000      0.000
REMARK INTER + INTRA:          -2.599
REMARK INTER:                  -2.599
REMARK INTRA:                   0.000
REMARK UNBOUND:                 0.000
REMARK SMILES CC(=O)[O-]
REMARK SMILES IDX 1 1 2 2 3 3 4 4
REMARK H PARENT
REMARK Flexibility Score: inf
ROOT
ATOM      1  C   UNL     1       4.124  13.156   1.972  1.00  0.00     0.063 C 
ATOM      2  C   UNL     1       2.885  13.951   1.727  1.00  0.00     0.038 C 
ATOM      3  O   UNL     1       2.459  14.743   2.606  1.00  0.00    -0.550 OA
ATOM      4  O   UNL     1       2.230  13.858   0.506  1.00  0.00    -0.550 OA
ENDROOT
TORSDOF 0
ENDMDL
MODEL 2
REMARK VINA RESULT:    -2.596      0.149      1.624
REMARK INTER + INTRA:          -2.596
REMARK INTER:                  -2.596
REMARK INTRA:                   0.000
REMARK UNBOUND:                 0.000
REMARK SMILES CC(=O)[O-]
REMARK SMILES IDX 1 1 2 2 3 3 4 4
REMARK H PARENT
REMARK Flexibility Score: inf
ROOT
ATOM      1  C   UNL     1       4.235  13.162   1.842  1.00  0.00     0.063 C 
ATOM      2  C   UNL     1       2.984  13.931   1.582  1.00  0.00     0.038 C 
ATOM      3  O   UNL     1       2.364  13.780   0.498  1.00  0.00    -0.550 OA
ATOM      4  O   UNL     1       2.470  14.774   2.559  1.00  0.00    -0.550 OA
ENDROOT
TORSDOF 0
ENDMDL
MODEL 3
REMARK VINA RESULT:    -2.458      4.026      4.357
REMARK INTER + INTRA:          -2.458
REMARK INTER:                  -2.458
REMARK INTRA:                   0.000
REMARK UNBOUND:                 0.000
REMARK SMILES CC(=O)[O-]
REMARK SMILES IDX 1 1 2 2 3 3 4 4
REMARK H PARENT
REMARK Flexibility Score: inf
ROOT
ATOM      1  C   UNL     1       4.644  15.941   4.918  1.00  0.00     0.063 C 
ATOM      2  C   UNL     1       5.629  16.158   3.819  1.00  0.00     0.038 C 
ATOM      3  O   UNL     1       6.863  16.095   4.056  1.00  0.00    -0.550 OA
ATOM      4  O   UNL     1       5.186  16.375   2.521  1.00  0.00    -0.550 OA
ENDROOT
TORSDOF 0
ENDMDL
MODEL 4
REMARK VINA RESULT:    -2.428      9.279      9.879
REMARK INTER + INTRA:          -2.428
REMARK INTER:                  -2.428
REMARK INTRA:                   0.000
REMARK UNBOUND:                 0.000
REMARK SMILES CC(=O)[O-]
REMARK SMILES IDX 1 1 2 2 3 3 4 4
REMARK H PARENT
REMARK Flexibility Score: inf
ROOT
ATOM      1  C   UNL     1      -4.468  14.577   8.869  1.00  0.00     0.063 C 
ATOM      2  C   UNL     1      -3.201  15.301   9.178  1.00  0.00     0.038 C 
ATOM      3  O   UNL     1      -3.134  16.052  10.185  1.00  0.00    -0.550 OA
ATOM      4  O   UNL     1      -2.077  15.106   8.386  1.00  0.00    -0.550 OA
ENDROOT
TORSDOF 0
ENDMDL
MODEL 5
REMARK VINA RESULT:    -2.375     11.171     11.557
REMARK INTER + INTRA:          -2.375
REMARK INTER:                  -2.375
REMARK INTRA:                   0.000
REMARK UNBOUND:                 0.000
REMARK SMILES CC(=O)[O-]
REMARK SMILES IDX 1 1 2 2 3 3 4 4
REMARK H PARENT
REMARK Flexibility Score: inf
ROOT
ATOM      1  C   UNL     1      14.059  19.590   3.750  1.00  0.00     0.063 C 
ATOM      2  C   UNL     1      12.662  19.514   4.268  1.00  0.00     0.038 C 
ATOM      3  O   UNL     1      12.426  19.744   5.482  1.00  0.00    -0.550 OA
ATOM      4  O   UNL     1      11.613  19.244   3.399  1.00  0.00    -0.550 OA
ENDROOT
TORSDOF 0
ENDMDL
MODEL 6
REMARK VINA RESULT:    -2.366      2.629      2.814
REMARK INTER + INTRA:          -2.366
REMARK INTER:                  -2.366
REMARK INTRA:                   0.000
REMARK UNBOUND:                 0.000
REMARK SMILES CC(=O)[O-]
REMARK SMILES IDX 1 1 2 2 3 3 4 4
REMARK H PARENT
REMARK Flexibility Score: inf
ROOT
ATOM      1  C   UNL     1       4.995  13.151   1.112  1.00  0.00     0.063 C 
ATOM      2  C   UNL     1       5.041  14.572   0.664  1.00  0.00     0.038 C 
ATOM      3  O   UNL     1       6.118  15.067   0.242  1.00  0.00    -0.550 OA
ATOM      4  O   UNL     1       3.881  15.337   0.659  1.00  0.00    -0.550 OA
ENDROOT
TORSDOF 0
ENDMDL
MODEL 7
REMARK VINA RESULT:    -2.366      4.044      4.320
REMARK INTER + INTRA:          -2.366
REMARK INTER:                  -2.366
REMARK INTRA:                   0.000
REMARK UNBOUND:                 0.000
REMARK SMILES CC(=O)[O-]
REMARK SMILES IDX 1 1 2 2 3 3 4 4
REMARK H PARENT
REMARK Flexibility Score: inf
ROOT
ATOM      1  C   UNL     1       3.617  15.175   3.962  1.00  0.00     0.063 C 
ATOM      2  C   UNL     1       4.558  15.998   4.776  1.00  0.00     0.038 C 
ATOM      3  O   UNL     1       4.182  16.486   5.873  1.00  0.00    -0.550 OA
ATOM      4  O   UNL     1       5.867  16.182   4.351  1.00  0.00    -0.550 OA
ENDROOT
TORSDOF 0
ENDMDL
MODEL 8
REMARK VINA RESULT:    -2.366      9.078      9.629
REMARK INTER + INTRA:          -2.366
REMARK INTER:                  -2.366
REMARK INTRA:                   0.000
REMARK UNBOUND:                 0.000
REMARK SMILES CC(=O)[O-]
REMARK SMILES IDX 1 1 2 2 3 3 4 4
REMARK H PARENT
REMARK Flexibility Score: inf
ROOT
ATOM      1  C   UNL     1      -1.852  15.211   8.058  1.00  0.00     0.063 C 
ATOM      2  C   UNL     1      -3.006  15.244   9.002  1.00  0.00     0.038 C 
ATOM      3  O   UNL     1      -3.993  14.485   8.820  1.00  0.00    -0.550 OA
ATOM      4  O   UNL     1      -2.969  16.074  10.116  1.00  0.00    -0.550 OA
ENDROOT
TORSDOF 0
ENDMDL
MODEL 9
REMARK VINA RESULT:    -2.353     11.624     12.156
REMARK INTER + INTRA:          -2.353
REMARK INTER:                  -2.353
REMARK INTRA:                   0.000
REMARK UNBOUND:                 0.000
REMARK SMILES CC(=O)[O-]
REMARK SMILES IDX 1 1 2 2 3 3 4 4
REMARK H PARENT
REMARK Flexibility Score: inf
ROOT
ATOM      1  C   UNL     1      13.875  19.630   4.078  1.00  0.00     0.063 C 
ATOM      2  C   UNL     1      12.828  19.733   5.136  1.00  0.00     0.038 C 
ATOM      3  O   UNL     1      11.740  19.114   5.009  1.00  0.00    -0.550 OA
ATOM      4  O   UNL     1      13.074  20.468   6.288  1.00  0.00    -0.550 OA
ENDROOT
TORSDOF 0
ENDMDL
