MODEL 1
REMARK VINA RESULT:    -3.510      0.000      0.000
REMARK INTER + INTRA:          -4.165
REMARK INTER:                  -4.126
REMARK INTRA:                  -0.040
REMARK UNBOUND:                -0.040
REMARK SMILES O=C([O-])CCC(=O)[O-]
REMARK SMILES IDX 4 1 2 2 1 3 3 4 5 5 6 6 7 7 8 8
REMARK H PARENT
REMARK Flexibility Score: inf
ROOT
ATOM      1  C   UNL     1      13.153 -31.233  22.243  1.00  0.00     0.059 C 
ENDROOT
BRANCH   1   2
ATOM      2  C   UNL     1      11.994 -30.285  22.296  1.00  0.00     0.042 C 
ATOM      3  O   UNL     1      11.041 -30.403  21.482  1.00  0.00    -0.550 OA
ATOM      4  O   UNL     1      11.985 -29.246  23.220  1.00  0.00    -0.550 OA
ENDBRANCH   1   2
BRANCH   1   5
ATOM      5  C   UNL     1      13.504 -31.614  20.800  1.00  0.00     0.059 C 
BRANCH   5   6
ATOM      6  C   UNL     1      14.234 -32.921  20.737  1.00  0.00     0.042 C 
ATOM      7  O   UNL     1      14.301 -33.558  19.653  1.00  0.00    -0.550 OA
ATOM      8  O   UNL     1      14.805 -33.456  21.885  1.00  0.00    -0.550 OA
ENDBRANCH   5   6
ENDBRANCH   1   5
TORSDOF 3
ENDMDL
MODEL 2
REMARK VINA RESULT:    -3.492      0.331      4.125
REMARK INTER + INTRA:          -4.145
REMARK INTER:                  -4.101
REMARK INTRA:                  -0.044
REMARK UNBOUND:                -0.040
REMARK SMILES O=C([O-])CCC(=O)[O-]
REMARK SMILES IDX 4 1 2 2 1 3 3 4 5 5 6 6 7 7 8 8
REMARK H PARENT
REMARK Flexibility Score: inf
ROOT
ATOM      1  C   UNL     1      13.511 -31.665  20.910  1.00  0.00     0.059 C 
ENDROOT
BRANCH   1   2
ATOM      2  C   UNL     1      14.246 -32.967  20.805  1.00  0.00     0.042 C 
ATOM      3  O   UNL     1      14.304 -33.575  19.704  1.00  0.00    -0.550 OA
ATOM      4  O   UNL     1      14.832 -33.529  21.933  1.00  0.00    -0.550 OA
ENDBRANCH   1   2
BRANCH   1   5
ATOM      5  C   UNL     1      13.490 -31.144  22.352  1.00  0.00     0.059 C 
BRANCH   5   6
ATOM      6  C   UNL     1      12.316 -30.246  22.597  1.00  0.00     0.042 C 
ATOM      7  O   UNL     1      11.286 -30.339  21.878  1.00  0.00    -0.550 OA
ATOM      8  O   UNL     1      12.375 -29.279  23.593  1.00  0.00    -0.550 OA
ENDBRANCH   5   6
ENDBRANCH   1   5
TORSDOF 3
ENDMDL
MODEL 3
REMARK VINA RESULT:    -3.463      0.395      4.390
REMARK INTER + INTRA:          -4.110
REMARK INTER:                  -4.065
REMARK INTRA:                  -0.045
REMARK UNBOUND:                -0.040
REMARK SMILES O=C([O-])CCC(=O)[O-]
REMARK SMILES IDX 4 1 2 2 1 3 3 4 5 5 6 6 7 7 8 8
REMARK H PARENT
REMARK Flexibility Score: inf
ROOT
ATOM      1  C   UNL     1      13.493 -31.572  21.006  1.00  0.00     0.059 C 
ENDROOT
BRANCH   1   2
ATOM      2  C   UNL     1      14.242 -32.869  20.965  1.00  0.00     0.042 C 
ATOM      3  O   UNL     1      14.829 -33.294  21.996  1.00  0.00    -0.550 OA
ATOM      4  O   UNL     1      14.326 -33.587  19.779  1.00  0.00    -0.550 OA
ENDBRANCH   1   2
BRANCH   1   5
ATOM      5  C   UNL     1      13.553 -30.929  22.397  1.00  0.00     0.059 C 
BRANCH   5   6
ATOM      6  C   UNL     1      12.345 -30.085  22.667  1.00  0.00     0.042 C 
ATOM      7  O   UNL     1      12.332 -29.291  23.644  1.00  0.00    -0.550 OA
ATOM      8  O   UNL     1      11.218 -30.205  21.863  1.00  0.00    -0.550 OA
ENDBRANCH   5   6
ENDBRANCH   1   5
TORSDOF 3
ENDMDL
MODEL 4
REMARK VINA RESULT:    -3.436      0.600      1.711
REMARK INTER + INTRA:          -4.079
REMARK INTER:                  -4.018
REMARK INTRA:                  -0.061
REMARK UNBOUND:                -0.040
REMARK SMILES O=C([O-])CCC(=O)[O-]
REMARK SMILES IDX 4 1 2 2 1 3 3 4 5 5 6 6 7 7 8 8
REMARK H PARENT
REMARK Flexibility Score: inf
ROOT
ATOM      1  C   UNL     1      13.847 -30.693  22.080  1.00  0.00     0.059 C 
ENDROOT
BRANCH   1   2
ATOM      2  C   UNL     1      12.615 -30.101  22.694  1.00  0.00     0.042 C 
ATOM      3  O   UNL     1      12.673 -29.553  23.826  1.00  0.00    -0.550 OA
ATOM      4  O   UNL     1      11.396 -30.190  22.033  1.00  0.00    -0.550 OA
ENDBRANCH   1   2
BRANCH   1   5
ATOM      5  C   UNL     1      13.510 -31.555  20.857  1.00  0.00     0.059 C 
BRANCH   5   6
ATOM      6  C   UNL     1      14.225 -32.871  20.896  1.00  0.00     0.042 C 
ATOM      7  O   UNL     1      14.731 -33.286  21.972  1.00  0.00    -0.550 OA
ATOM      8  O   UNL     1      14.368 -33.621  19.735  1.00  0.00    -0.550 OA
ENDBRANCH   5   6
ENDBRANCH   1   5
TORSDOF 3
ENDMDL
MODEL 5
REMARK VINA RESULT:    -3.381     11.081     11.562
REMARK INTER + INTRA:          -4.014
REMARK INTER:                  -3.981
REMARK INTRA:                  -0.034
REMARK UNBOUND:                -0.040
REMARK SMILES O=C([O-])CCC(=O)[O-]
REMARK SMILES IDX 4 1 2 2 1 3 3 4 5 5 6 6 7 7 8 8
REMARK H PARENT
REMARK Flexibility Score: inf
ROOT
ATOM      1  C   UNL     1      22.465 -24.652  20.716  1.00  0.00     0.059 C 
ENDROOT
BRANCH   1   2
ATOM      2  C   UNL     1      23.506 -24.147  19.764  1.00  0.00     0.042 C 
ATOM      3  O   UNL     1      23.585 -24.624  18.601  1.00  0.00    -0.550 OA
ATOM      4  O   UNL     1      24.414 -23.179  20.174  1.00  0.00    -0.550 OA
ENDBRANCH   1   2
BRANCH   1   5
ATOM      5  C   UNL     1      21.304 -25.328  19.977  1.00  0.00     0.059 C 
BRANCH   5   6
ATOM      6  C   UNL     1      20.227 -25.764  20.922  1.00  0.00     0.042 C 
ATOM      7  O   UNL     1      19.666 -26.881  20.774  1.00  0.00    -0.550 OA
ATOM      8  O   UNL     1      19.814 -24.918  21.945  1.00  0.00    -0.550 OA
ENDBRANCH   5   6
ENDBRANCH   1   5
TORSDOF 3
ENDMDL
MODEL 6
REMARK VINA RESULT:    -3.312     11.362     11.776
REMARK INTER + INTRA:          -3.933
REMARK INTER:                  -3.827
REMARK INTRA:                  -0.106
REMARK UNBOUND:                -0.040
REMARK SMILES O=C([O-])CCC(=O)[O-]
REMARK SMILES IDX 4 1 2 2 1 3 3 4 5 5 6 6 7 7 8 8
REMARK H PARENT
REMARK Flexibility Score: inf
ROOT
ATOM      1  C   UNL     1      23.002 -24.932  19.414  1.00  0.00     0.059 C 
ENDROOT
BRANCH   1   2
ATOM      2  C   UNL     1      23.647 -23.895  20.282  1.00  0.00     0.042 C 
ATOM      3  O   UNL     1      24.574 -23.175  19.825  1.00  0.00    -0.550 OA
ATOM      4  O   UNL     1      23.253 -23.751  21.606  1.00  0.00    -0.550 OA
ENDBRANCH   1   2
BRANCH   1   5
ATOM      5  C   UNL     1      22.636 -26.188  20.213  1.00  0.00     0.059 C 
BRANCH   5   6
ATOM      6  C   UNL     1      21.155 -26.315  20.395  1.00  0.00     0.042 C 
ATOM      7  O   UNL     1      20.667 -27.342  20.936  1.00  0.00    -0.550 OA
ATOM      8  O   UNL     1      20.308 -25.316  19.930  1.00  0.00    -0.550 OA
ENDBRANCH   5   6
ENDBRANCH   1   5
TORSDOF 3
ENDMDL
MODEL 7
REMARK VINA RESULT:    -3.300      2.535      5.509
REMARK INTER + INTRA:          -3.919
REMARK INTER:                  -3.855
REMARK INTRA:                  -0.064
REMARK UNBOUND:                -0.040
REMARK SMILES O=C([O-])CCC(=O)[O-]
REMARK SMILES IDX 4 1 2 2 1 3 3 4 5 5 6 6 7 7 8 8
REMARK H PARENT
REMARK Flexibility Score: inf
ROOT
ATOM      1  C   UNL     1      15.517 -34.924  20.350  1.00  0.00     0.059 C 
ENDROOT
BRANCH   1   2
ATOM      2  C   UNL     1      16.691 -35.151  19.447  1.00  0.00     0.042 C 
ATOM      3  O   UNL     1      17.275 -34.173  18.910  1.00  0.00    -0.550 OA
ATOM      4  O   UNL     1      17.116 -36.444  19.168  1.00  0.00    -0.550 OA
ENDBRANCH   1   2
BRANCH   1   5
ATOM      5  C   UNL     1      14.627 -33.784  19.843  1.00  0.00     0.059 C 
BRANCH   5   6
ATOM      6  C   UNL     1      14.221 -32.865  20.954  1.00  0.00     0.042 C 
ATOM      7  O   UNL     1      13.470 -31.881  20.721  1.00  0.00    -0.550 OA
ATOM      8  O   UNL     1      14.705 -33.071  22.240  1.00  0.00    -0.550 OA
ENDBRANCH   5   6
ENDBRANCH   1   5
TORSDOF 3
ENDMDL
MODEL 8
REMARK VINA RESULT:    -3.295      2.824      4.316
REMARK INTER + INTRA:          -3.913
REMARK INTER:                  -3.842
REMARK INTRA:                  -0.071
REMARK UNBOUND:                -0.040
REMARK SMILES O=C([O-])CCC(=O)[O-]
REMARK SMILES IDX 4 1 2 2 1 3 3 4 5 5 6 6 7 7 8 8
REMARK H PARENT
REMARK Flexibility Score: inf
ROOT
ATOM      1  C   UNL     1      15.024 -34.001  19.778  1.00  0.00     0.059 C 
ENDROOT
BRANCH   1   2
ATOM      2  C   UNL     1      14.559 -33.249  20.988  1.00  0.00     0.042 C 
ATOM      3  O   UNL     1      14.931 -33.605  22.137  1.00  0.00    -0.550 OA
ATOM      4  O   UNL     1      13.684 -32.179  20.849  1.00  0.00    -0.550 OA
ENDBRANCH   1   2
BRANCH   1   5
ATOM      5  C   UNL     1      15.639 -35.353  20.157  1.00  0.00     0.059 C 
BRANCH   5   6
ATOM      6  C   UNL     1      16.936 -35.588  19.445  1.00  0.00     0.042 C 
ATOM      7  O   UNL     1      17.278 -36.755  19.117  1.00  0.00    -0.550 OA
ATOM      8  O   UNL     1      17.788 -34.522  19.179  1.00  0.00    -0.550 OA
ENDBRANCH   5   6
ENDBRANCH   1   5
TORSDOF 3
ENDMDL
MODEL 9
REMARK VINA RESULT:    -3.291     10.761     11.252
REMARK INTER + INTRA:          -3.908
REMARK INTER:                  -3.783
REMARK INTRA:                  -0.124
REMARK UNBOUND:                -0.040
REMARK SMILES O=C([O-])CCC(=O)[O-]
REMARK SMILES IDX 4 1 2 2 1 3 3 4 5 5 6 6 7 7 8 8
REMARK H PARENT
REMARK Flexibility Score: inf
ROOT
ATOM      1  C   UNL     1      21.023 -25.393  20.050  1.00  0.00     0.059 C 
ENDROOT
BRANCH   1   2
ATOM      2  C   UNL     1      20.648 -26.694  20.692  1.00  0.00     0.042 C 
ATOM      3  O   UNL     1      21.373 -27.186  21.597  1.00  0.00    -0.550 OA
ATOM      4  O   UNL     1      19.520 -27.382  20.263  1.00  0.00    -0.550 OA
ENDBRANCH   1   2
BRANCH   1   5
ATOM      5  C   UNL     1      22.502 -25.368  19.646  1.00  0.00     0.059 C 
BRANCH   5   6
ATOM      6  C   UNL     1      23.272 -24.354  20.435  1.00  0.00     0.042 C 
ATOM      7  O   UNL     1      23.067 -24.222  21.670  1.00  0.00    -0.550 OA
ATOM      8  O   UNL     1      24.189 -23.527  19.798  1.00  0.00    -0.550 OA
ENDBRANCH   5   6
ENDBRANCH   1   5
TORSDOF 3
ENDMDL
