MODEL 1
REMARK VINA RESULT:    -5.474      0.000      0.000
REMARK INTER + INTRA:          -9.398
REMARK INTER:                  -8.034
REMARK INTRA:                  -1.364
REMARK UNBOUND:                -1.364
REMARK SMILES Cc1cc2c(C(C)C)c(O)c(O)c(C=O)c2c(O)c1-c1c(C)cc2c(C(C)C)c(O)c(O)c(C=O)c2c1O
REMARK SMILES IDX 1 1 2 2 3 3 4 4 16 5 13 6 11 7 9 8 5 9 17 10 19 11 20 12
REMARK SMILES IDX 37 13 21 14 36 15 23 16 22 17 24 18 33 19 25 20 31 21 29 22
REMARK SMILES IDX 38 23 34 25 35 26 26 27 27 28 28 29 32 30 30 32 18 34 6 36
REMARK SMILES IDX 7 37 8 38 14 39 15 40 10 41 12 43
REMARK H PARENT 38 24 32 31 30 33 18 35 10 42 12 44
REMARK Flexibility Score: inf
ROOT
ATOM      1  C   UNL     1     -16.070  26.392  38.890  1.00  0.00     0.045 C 
ATOM      2  C   UNL     1     -16.494  25.629  37.658  1.00  0.00    -0.039 A 
ATOM      3  C   UNL     1     -15.521  25.020  36.864  1.00  0.00     0.013 A 
ATOM      4  C   UNL     1     -15.856  24.337  35.678  1.00  0.00    -0.006 A 
ATOM      5  C   UNL     1     -17.232  24.118  35.377  1.00  0.00     0.039 A 
ATOM      6  C   UNL     1     -17.574  23.215  34.328  1.00  0.00     0.072 A 
ATOM      7  C   UNL     1     -16.551  22.590  33.581  1.00  0.00     0.169 A 
ATOM      8  C   UNL     1     -15.210  22.926  33.797  1.00  0.00     0.162 A 
ATOM      9  C   UNL     1     -14.845  23.852  34.797  1.00  0.00     0.008 A 
ATOM     10  C   UNL     1     -18.216  24.831  36.126  1.00  0.00     0.132 A 
ATOM     11  C   UNL     1     -17.838  25.593  37.252  1.00  0.00     0.031 A 
ENDROOT
BRANCH  11  12
ATOM     12  C   UNL     1     -18.847  26.401  37.986  1.00  0.00     0.031 A 
ATOM     13  C   UNL     1     -19.467  25.873  39.137  1.00  0.00     0.132 A 
ATOM     14  C   UNL     1     -19.187  27.686  37.531  1.00  0.00    -0.039 A 
ATOM     15  C   UNL     1     -20.418  26.646  39.861  1.00  0.00     0.039 A 
ATOM     16  C   UNL     1     -20.200  28.398  38.179  1.00  0.00     0.013 A 
ATOM     17  C   UNL     1     -18.463  28.324  36.372  1.00  0.00     0.045 C 
ATOM     18  C   UNL     1     -20.891  27.860  39.287  1.00  0.00    -0.006 A 
ATOM     19  C   UNL     1     -20.922  26.239  41.130  1.00  0.00     0.072 A 
ATOM     20  C   UNL     1     -22.021  28.524  39.850  1.00  0.00     0.008 A 
ATOM     21  C   UNL     1     -21.945  26.985  41.750  1.00  0.00     0.169 A 
ATOM     22  C   UNL     1     -22.488  28.108  41.117  1.00  0.00     0.162 A 
BRANCH  13  23
ATOM     23  O   UNL     1     -19.172  24.567  39.541  1.00  0.00    -0.507 OA
ATOM     24  H   UNL     1     -18.976  23.808  38.901  1.00  0.00     0.293 HD
ENDBRANCH  13  23
BRANCH  19  25
ATOM     25  C   UNL     1     -20.322  25.126  41.898  1.00  0.00     0.264 C 
ATOM     26  O   UNL     1     -20.914  24.016  41.983  1.00  0.00    -0.298 OA
ENDBRANCH  19  25
BRANCH  20  27
ATOM     27  C   UNL     1     -22.749  29.650  39.097  1.00  0.00     0.017 C 
ATOM     28  C   UNL     1     -23.229  29.169  37.724  1.00  0.00     0.012 C 
ATOM     29  C   UNL     1     -21.920  30.943  38.981  1.00  0.00     0.012 C 
ENDBRANCH  20  27
BRANCH  21  30
ATOM     30  O   UNL     1     -22.436  26.645  43.018  1.00  0.00    -0.504 OA
ATOM     31  H   UNL     1     -22.145  27.092  43.876  1.00  0.00     0.293 HD
ENDBRANCH  21  30
BRANCH  22  32
ATOM     32  O   UNL     1     -23.491  28.839  41.761  1.00  0.00    -0.504 OA
ATOM     33  H   UNL     1     -23.682  28.758  42.755  1.00  0.00     0.293 HD
ENDBRANCH  22  32
ENDBRANCH  11  12
BRANCH  10  34
ATOM     34  O   UNL     1     -19.559  24.813  35.728  1.00  0.00    -0.507 OA
ATOM     35  H   UNL     1     -20.039  25.609  35.330  1.00  0.00     0.293 HD
ENDBRANCH  10  34
BRANCH   9  36
ATOM     36  C   UNL     1     -13.384  24.330  34.905  1.00  0.00     0.017 C 
ATOM     37  C   UNL     1     -12.464  23.188  35.345  1.00  0.00     0.012 C 
ATOM     38  C   UNL     1     -12.867  25.011  33.624  1.00  0.00     0.012 C 
ENDBRANCH   9  36
BRANCH   6  39
ATOM     39  C   UNL     1     -18.976  22.829  34.061  1.00  0.00     0.264 C 
ATOM     40  O   UNL     1     -19.546  23.179  32.993  1.00  0.00    -0.298 OA
ENDBRANCH   6  39
BRANCH   8  41
ATOM     41  O   UNL     1     -14.220  22.315  33.023  1.00  0.00    -0.504 OA
ATOM     42  H   UNL     1     -13.279  22.680  32.939  1.00  0.00     0.293 HD
ENDBRANCH   8  41
BRANCH   7  43
ATOM     43  O   UNL     1     -16.833  21.609  32.623  1.00  0.00    -0.504 OA
ATOM     44  H   UNL     1     -17.751  21.213  32.473  1.00  0.00     0.293 HD
ENDBRANCH   7  43
TORSDOF 11
ENDMDL
MODEL 2
REMARK VINA RESULT:    -5.460      0.901      9.051
REMARK INTER + INTRA:          -9.378
REMARK INTER:                  -8.074
REMARK INTRA:                  -1.304
REMARK UNBOUND:                -1.364
REMARK SMILES Cc1cc2c(C(C)C)c(O)c(O)c(C=O)c2c(O)c1-c1c(C)cc2c(C(C)C)c(O)c(O)c(C=O)c2c1O
REMARK SMILES IDX 1 1 2 2 3 3 4 4 16 5 13 6 11 7 9 8 5 9 17 10 19 11 20 12
REMARK SMILES IDX 37 13 21 14 36 15 23 16 22 17 24 18 33 19 25 20 31 21 29 22
REMARK SMILES IDX 38 23 34 25 35 26 26 27 27 28 28 29 32 30 30 32 18 34 6 36
REMARK SMILES IDX 7 37 8 38 14 39 15 40 10 41 12 43
REMARK H PARENT 38 24 32 31 30 33 18 35 10 42 12 44
REMARK Flexibility Score: inf
ROOT
ATOM      1  C   UNL     1     -19.903  27.967  35.787  1.00  0.00     0.045 C 
ATOM      2  C   UNL     1     -19.999  27.514  37.224  1.00  0.00    -0.039 A 
ATOM      3  C   UNL     1     -20.859  28.183  38.096  1.00  0.00     0.013 A 
ATOM      4  C   UNL     1     -20.952  27.833  39.457  1.00  0.00    -0.006 A 
ATOM      5  C   UNL     1     -20.280  26.661  39.912  1.00  0.00     0.039 A 
ATOM      6  C   UNL     1     -20.572  26.159  41.213  1.00  0.00     0.072 A 
ATOM      7  C   UNL     1     -21.484  26.849  42.042  1.00  0.00     0.169 A 
ATOM      8  C   UNL     1     -22.025  28.073  41.633  1.00  0.00     0.162 A 
ATOM      9  C   UNL     1     -21.717  28.618  40.369  1.00  0.00     0.008 A 
ATOM     10  C   UNL     1     -19.320  26.048  39.051  1.00  0.00     0.132 A 
ATOM     11  C   UNL     1     -19.176  26.488  37.718  1.00  0.00     0.031 A 
ENDROOT
BRANCH  11  12
ATOM     12  C   UNL     1     -18.123  25.908  36.844  1.00  0.00     0.031 A 
ATOM     13  C   UNL     1     -18.395  24.744  36.096  1.00  0.00     0.132 A 
ATOM     14  C   UNL     1     -16.858  26.514  36.766  1.00  0.00    -0.039 A 
ATOM     15  C   UNL     1     -17.402  24.191  35.239  1.00  0.00     0.039 A 
ATOM     16  C   UNL     1     -15.852  25.908  36.010  1.00  0.00     0.013 A 
ATOM     17  C   UNL     1     -16.571  27.821  37.463  1.00  0.00     0.045 C 
ATOM     18  C   UNL     1     -16.074  24.700  35.314  1.00  0.00    -0.006 A 
ATOM     19  C   UNL     1     -17.689  23.139  34.322  1.00  0.00     0.072 A 
ATOM     20  C   UNL     1     -15.007  24.008  34.668  1.00  0.00     0.008 A 
ATOM     21  C   UNL     1     -16.644  22.554  33.577  1.00  0.00     0.169 A 
ATOM     22  C   UNL     1     -15.323  22.980  33.751  1.00  0.00     0.162 A 
BRANCH  13  23
ATOM     23  O   UNL     1     -19.634  24.109  36.235  1.00  0.00    -0.507 OA
ATOM     24  H   UNL     1     -20.215  24.177  37.060  1.00  0.00     0.293 HD
ENDBRANCH  13  23
BRANCH  19  25
ATOM     25  C   UNL     1     -19.072  22.714  34.014  1.00  0.00     0.264 C 
ATOM     26  O   UNL     1     -19.555  21.679  34.546  1.00  0.00    -0.298 OA
ENDBRANCH  19  25
BRANCH  20  27
ATOM     27  C   UNL     1     -13.536  24.338  34.972  1.00  0.00     0.017 C 
ATOM     28  C   UNL     1     -12.898  25.109  33.813  1.00  0.00     0.012 C 
ATOM     29  C   UNL     1     -12.699  23.103  35.354  1.00  0.00     0.012 C 
ENDBRANCH  20  27
BRANCH  21  30
ATOM     30  O   UNL     1     -16.890  21.550  32.631  1.00  0.00    -0.504 OA
ATOM     31  H   UNL     1     -17.701  20.948  32.643  1.00  0.00     0.293 HD
ENDBRANCH  21  30
BRANCH  22  32
ATOM     32  O   UNL     1     -14.308  22.394  32.989  1.00  0.00    -0.504 OA
ATOM     33  H   UNL     1     -13.325  22.617  33.115  1.00  0.00     0.293 HD
ENDBRANCH  22  32
ENDBRANCH  11  12
BRANCH  10  34
ATOM     34  O   UNL     1     -18.485  25.031  39.532  1.00  0.00    -0.507 OA
ATOM     35  H   UNL     1     -18.607  24.578  40.429  1.00  0.00     0.293 HD
ENDBRANCH  10  34
BRANCH   9  36
ATOM     36  C   UNL     1     -22.190  30.040  40.010  1.00  0.00     0.017 C 
ATOM     37  C   UNL     1     -23.713  30.090  39.857  1.00  0.00     0.012 C 
ATOM     38  C   UNL     1     -21.684  31.118  40.986  1.00  0.00     0.012 C 
ENDBRANCH   9  36
BRANCH   6  39
ATOM     39  C   UNL     1     -20.025  24.870  41.691  1.00  0.00     0.264 C 
ATOM     40  O   UNL     1     -20.703  23.813  41.603  1.00  0.00    -0.298 OA
ENDBRANCH   6  39
BRANCH   8  41
ATOM     41  O   UNL     1     -22.902  28.750  42.485  1.00  0.00    -0.504 OA
ATOM     42  H   UNL     1     -23.906  28.618  42.465  1.00  0.00     0.293 HD
ENDBRANCH   8  41
BRANCH   7  43
ATOM     43  O   UNL     1     -21.893  26.333  43.277  1.00  0.00    -0.504 OA
ATOM     44  H   UNL     1     -21.676  26.758  44.168  1.00  0.00     0.293 HD
ENDBRANCH   7  43
TORSDOF 11
ENDMDL
MODEL 3
REMARK VINA RESULT:    -5.424      1.635      2.984
REMARK INTER + INTRA:          -9.324
REMARK INTER:                  -7.888
REMARK INTRA:                  -1.435
REMARK UNBOUND:                -1.364
REMARK SMILES Cc1cc2c(C(C)C)c(O)c(O)c(C=O)c2c(O)c1-c1c(C)cc2c(C(C)C)c(O)c(O)c(C=O)c2c1O
REMARK SMILES IDX 1 1 2 2 3 3 4 4 16 5 13 6 11 7 9 8 5 9 17 10 19 11 20 12
REMARK SMILES IDX 37 13 21 14 36 15 23 16 22 17 24 18 33 19 25 20 31 21 29 22
REMARK SMILES IDX 38 23 34 25 35 26 26 27 27 28 28 29 32 30 30 32 18 34 6 36
REMARK SMILES IDX 7 37 8 38 14 39 15 40 10 41 12 43
REMARK H PARENT 38 24 32 31 30 33 18 35 10 42 12 44
REMARK Flexibility Score: inf
ROOT
ATOM      1  C   UNL     1     -16.683  25.800  39.144  1.00  0.00     0.045 C 
ATOM      2  C   UNL     1     -17.025  25.160  37.820  1.00  0.00    -0.039 A 
ATOM      3  C   UNL     1     -15.997  24.682  37.007  1.00  0.00     0.013 A 
ATOM      4  C   UNL     1     -16.255  24.120  35.741  1.00  0.00    -0.006 A 
ATOM      5  C   UNL     1     -17.608  23.878  35.362  1.00  0.00     0.039 A 
ATOM      6  C   UNL     1     -17.869  23.083  34.207  1.00  0.00     0.072 A 
ATOM      7  C   UNL     1     -16.792  22.587  33.441  1.00  0.00     0.169 A 
ATOM      8  C   UNL     1     -15.477  22.951  33.748  1.00  0.00     0.162 A 
ATOM      9  C   UNL     1     -15.192  23.776  34.857  1.00  0.00     0.008 A 
ATOM     10  C   UNL     1     -18.651  24.464  36.141  1.00  0.00     0.132 A 
ATOM     11  C   UNL     1     -18.350  25.113  37.357  1.00  0.00     0.031 A 
ENDROOT
BRANCH  11  12
ATOM     12  C   UNL     1     -19.421  25.795  38.131  1.00  0.00     0.031 A 
ATOM     13  C   UNL     1     -19.720  27.149  37.872  1.00  0.00     0.132 A 
ATOM     14  C   UNL     1     -20.131  25.095  39.120  1.00  0.00    -0.039 A 
ATOM     15  C   UNL     1     -20.758  27.807  38.591  1.00  0.00     0.039 A 
ATOM     16  C   UNL     1     -21.072  25.772  39.899  1.00  0.00     0.013 A 
ATOM     17  C   UNL     1     -19.915  23.619  39.343  1.00  0.00     0.045 C 
ATOM     18  C   UNL     1     -21.335  27.147  39.714  1.00  0.00    -0.006 A 
ATOM     19  C   UNL     1     -21.226  29.104  38.234  1.00  0.00     0.072 A 
ATOM     20  C   UNL     1     -22.184  27.868  40.605  1.00  0.00     0.008 A 
ATOM     21  C   UNL     1     -22.177  29.754  39.048  1.00  0.00     0.169 A 
ATOM     22  C   UNL     1     -22.646  29.146  40.217  1.00  0.00     0.162 A 
BRANCH  13  23
ATOM     23  O   UNL     1     -18.960  27.855  36.934  1.00  0.00    -0.507 OA
ATOM     24  H   UNL     1     -19.313  28.631  36.389  1.00  0.00     0.293 HD
ENDBRANCH  13  23
BRANCH  19  25
ATOM     25  C   UNL     1     -20.852  29.756  36.961  1.00  0.00     0.264 C 
ATOM     26  O   UNL     1     -20.091  30.762  36.958  1.00  0.00    -0.298 OA
ENDBRANCH  19  25
BRANCH  20  27
ATOM     27  C   UNL     1     -22.576  27.296  41.979  1.00  0.00     0.017 C 
ATOM     28  C   UNL     1     -24.059  26.918  42.011  1.00  0.00     0.012 C 
ATOM     29  C   UNL     1     -22.205  28.220  43.154  1.00  0.00     0.012 C 
ENDBRANCH  20  27
BRANCH  21  30
ATOM     30  O   UNL     1     -22.698  31.009  38.707  1.00  0.00    -0.504 OA
ATOM     31  H   UNL     1     -22.298  31.617  38.007  1.00  0.00     0.293 HD
ENDBRANCH  21  30
BRANCH  22  32
ATOM     32  O   UNL     1     -23.600  29.805  40.998  1.00  0.00    -0.504 OA
ATOM     33  H   UNL     1     -23.373  30.268  41.872  1.00  0.00     0.293 HD
ENDBRANCH  22  32
ENDBRANCH  11  12
BRANCH  10  34
ATOM     34  O   UNL     1     -19.976  24.435  35.687  1.00  0.00    -0.507 OA
ATOM     35  H   UNL     1     -20.470  25.247  35.340  1.00  0.00     0.293 HD
ENDBRANCH  10  34
BRANCH   9  36
ATOM     36  C   UNL     1     -13.759  24.298  35.077  1.00  0.00     0.017 C 
ATOM     37  C   UNL     1     -12.772  23.140  35.251  1.00  0.00     0.012 C 
ATOM     38  C   UNL     1     -13.291  25.280  33.986  1.00  0.00     0.012 C 
ENDBRANCH   9  36
BRANCH   6  39
ATOM     39  C   UNL     1     -19.242  22.671  33.841  1.00  0.00     0.264 C 
ATOM     40  O   UNL     1     -19.779  23.098  32.785  1.00  0.00    -0.298 OA
ENDBRANCH   6  39
BRANCH   8  41
ATOM     41  O   UNL     1     -14.432  22.470  32.955  1.00  0.00    -0.504 OA
ATOM     42  H   UNL     1     -14.144  22.911  32.091  1.00  0.00     0.293 HD
ENDBRANCH   8  41
BRANCH   7  43
ATOM     43  O   UNL     1     -16.994  21.705  32.372  1.00  0.00    -0.504 OA
ATOM     44  H   UNL     1     -17.778  21.756  31.737  1.00  0.00     0.293 HD
ENDBRANCH   7  43
TORSDOF 11
ENDMDL
MODEL 4
REMARK VINA RESULT:    -5.372      3.532      5.800
REMARK INTER + INTRA:          -9.248
REMARK INTER:                  -8.154
REMARK INTRA:                  -1.093
REMARK UNBOUND:                -1.364
REMARK SMILES Cc1cc2c(C(C)C)c(O)c(O)c(C=O)c2c(O)c1-c1c(C)cc2c(C(C)C)c(O)c(O)c(C=O)c2c1O
REMARK SMILES IDX 1 1 2 2 3 3 4 4 16 5 13 6 11 7 9 8 5 9 17 10 19 11 20 12
REMARK SMILES IDX 37 13 21 14 36 15 23 16 22 17 24 18 33 19 25 20 31 21 29 22
REMARK SMILES IDX 38 23 34 25 35 26 26 27 27 28 28 29 32 30 30 32 18 34 6 36
REMARK SMILES IDX 7 37 8 38 14 39 15 40 10 41 12 43
REMARK H PARENT 38 24 32 31 30 33 18 35 10 42 12 44
REMARK Flexibility Score: inf
ROOT
ATOM      1  C   UNL     1     -16.186  24.244  35.166  1.00  0.00     0.045 C 
ATOM      2  C   UNL     1     -16.693  25.633  34.860  1.00  0.00    -0.039 A 
ATOM      3  C   UNL     1     -15.904  26.496  34.097  1.00  0.00     0.013 A 
ATOM      4  C   UNL     1     -16.307  27.818  33.822  1.00  0.00    -0.006 A 
ATOM      5  C   UNL     1     -17.624  28.223  34.187  1.00  0.00     0.039 A 
ATOM      6  C   UNL     1     -18.126  29.461  33.689  1.00  0.00     0.072 A 
ATOM      7  C   UNL     1     -17.303  30.279  32.885  1.00  0.00     0.169 A 
ATOM      8  C   UNL     1     -15.967  29.931  32.655  1.00  0.00     0.162 A 
ATOM      9  C   UNL     1     -15.429  28.735  33.174  1.00  0.00     0.008 A 
ATOM     10  C   UNL     1     -18.381  27.383  35.057  1.00  0.00     0.132 A 
ATOM     11  C   UNL     1     -17.903  26.100  35.399  1.00  0.00     0.031 A 
ENDROOT
BRANCH  11  12
ATOM     12  C   UNL     1     -18.647  25.254  36.369  1.00  0.00     0.031 A 
ATOM     13  C   UNL     1     -19.610  24.334  35.903  1.00  0.00     0.132 A 
ATOM     14  C   UNL     1     -18.398  25.373  37.746  1.00  0.00    -0.039 A 
ATOM     15  C   UNL     1     -20.314  23.503  36.819  1.00  0.00     0.039 A 
ATOM     16  C   UNL     1     -19.168  24.636  38.649  1.00  0.00     0.013 A 
ATOM     17  C   UNL     1     -17.298  26.263  38.269  1.00  0.00     0.045 C 
ATOM     18  C   UNL     1     -20.191  23.766  38.213  1.00  0.00    -0.006 A 
ATOM     19  C   UNL     1     -21.147  22.430  36.389  1.00  0.00     0.072 A 
ATOM     20  C   UNL     1     -21.071  23.131  39.140  1.00  0.00     0.008 A 
ATOM     21  C   UNL     1     -21.908  21.711  37.333  1.00  0.00     0.169 A 
ATOM     22  C   UNL     1     -21.873  22.059  38.687  1.00  0.00     0.162 A 
BRANCH  13  23
ATOM     23  O   UNL     1     -19.900  24.273  34.536  1.00  0.00    -0.507 OA
ATOM     24  H   UNL     1     -19.701  23.473  33.950  1.00  0.00     0.293 HD
ENDBRANCH  13  23
BRANCH  19  25
ATOM     25  C   UNL     1     -21.150  21.945  34.991  1.00  0.00     0.264 C 
ATOM     26  O   UNL     1     -20.152  21.331  34.526  1.00  0.00    -0.298 OA
ENDBRANCH  19  25
BRANCH  20  27
ATOM     27  C   UNL     1     -21.181  23.609  40.598  1.00  0.00     0.017 C 
ATOM     28  C   UNL     1     -20.507  22.617  41.550  1.00  0.00     0.012 C 
ATOM     29  C   UNL     1     -22.627  23.912  41.033  1.00  0.00     0.012 C 
ENDBRANCH  20  27
BRANCH  21  30
ATOM     30  O   UNL     1     -22.702  20.620  36.957  1.00  0.00    -0.504 OA
ATOM     31  H   UNL     1     -22.864  19.810  37.539  1.00  0.00     0.293 HD
ENDBRANCH  21  30
BRANCH  22  32
ATOM     32  O   UNL     1     -22.625  21.320  39.605  1.00  0.00    -0.504 OA
ATOM     33  H   UNL     1     -22.208  20.817  40.382  1.00  0.00     0.293 HD
ENDBRANCH  22  32
ENDBRANCH  11  12
BRANCH  10  34
ATOM     34  O   UNL     1     -19.585  27.838  35.612  1.00  0.00    -0.507 OA
ATOM     35  H   UNL     1     -19.696  28.093  36.584  1.00  0.00     0.293 HD
ENDBRANCH  10  34
BRANCH   9  36
ATOM     36  C   UNL     1     -13.918  28.456  33.051  1.00  0.00     0.017 C 
ATOM     37  C   UNL     1     -13.302  28.153  34.419  1.00  0.00     0.012 C 
ATOM     38  C   UNL     1     -13.581  27.358  32.024  1.00  0.00     0.012 C 
ENDBRANCH   9  36
BRANCH   6  39
ATOM     39  C   UNL     1     -19.530  29.873  33.905  1.00  0.00     0.264 C 
ATOM     40  O   UNL     1     -20.319  29.999  32.931  1.00  0.00    -0.298 OA
ENDBRANCH   6  39
BRANCH   8  41
ATOM     41  O   UNL     1     -15.166  30.774  31.880  1.00  0.00    -0.504 OA
ATOM     42  H   UNL     1     -14.214  30.548  31.622  1.00  0.00     0.293 HD
ENDBRANCH   8  41
BRANCH   7  43
ATOM     43  O   UNL     1     -17.790  31.442  32.276  1.00  0.00    -0.504 OA
ATOM     44  H   UNL     1     -17.429  32.369  32.457  1.00  0.00     0.293 HD
ENDBRANCH   7  43
TORSDOF 11
ENDMDL
MODEL 5
REMARK VINA RESULT:    -5.230      1.441      9.213
REMARK INTER + INTRA:          -9.040
REMARK INTER:                  -7.580
REMARK INTRA:                  -1.460
REMARK UNBOUND:                -1.364
REMARK SMILES Cc1cc2c(C(C)C)c(O)c(O)c(C=O)c2c(O)c1-c1c(C)cc2c(C(C)C)c(O)c(O)c(C=O)c2c1O
REMARK SMILES IDX 1 1 2 2 3 3 4 4 16 5 13 6 11 7 9 8 5 9 17 10 19 11 20 12
REMARK SMILES IDX 37 13 21 14 36 15 23 16 22 17 24 18 33 19 25 20 31 21 29 22
REMARK SMILES IDX 38 23 34 25 35 26 26 27 27 28 28 29 32 30 30 32 18 34 6 36
REMARK SMILES IDX 7 37 8 38 14 39 15 40 10 41 12 43
REMARK H PARENT 38 24 32 31 30 33 18 35 10 42 12 44
REMARK Flexibility Score: inf
ROOT
ATOM      1  C   UNL     1     -18.097  27.372  36.384  1.00  0.00     0.045 C 
ATOM      2  C   UNL     1     -18.641  26.551  37.528  1.00  0.00    -0.039 A 
ATOM      3  C   UNL     1     -19.778  26.994  38.206  1.00  0.00     0.013 A 
ATOM      4  C   UNL     1     -20.299  26.293  39.312  1.00  0.00    -0.006 A 
ATOM      5  C   UNL     1     -19.755  25.016  39.633  1.00  0.00     0.039 A 
ATOM      6  C   UNL     1     -20.436  24.192  40.577  1.00  0.00     0.072 A 
ATOM      7  C   UNL     1     -21.608  24.670  41.204  1.00  0.00     0.169 A 
ATOM      8  C   UNL     1     -22.048  25.979  40.982  1.00  0.00     0.162 A 
ATOM      9  C   UNL     1     -21.366  26.832  40.089  1.00  0.00     0.008 A 
ATOM     10  C   UNL     1     -18.531  24.620  39.013  1.00  0.00     0.132 A 
ATOM     11  C   UNL     1     -17.976  25.398  37.976  1.00  0.00     0.031 A 
ENDROOT
BRANCH  11  12
ATOM     12  C   UNL     1     -16.662  25.034  37.383  1.00  0.00     0.031 A 
ATOM     13  C   UNL     1     -16.612  24.216  36.235  1.00  0.00     0.132 A 
ATOM     14  C   UNL     1     -15.472  25.498  37.967  1.00  0.00    -0.039 A 
ATOM     15  C   UNL     1     -15.362  23.878  35.645  1.00  0.00     0.039 A 
ATOM     16  C   UNL     1     -14.244  25.075  37.452  1.00  0.00     0.013 A 
ATOM     17  C   UNL     1     -15.492  26.465  39.125  1.00  0.00     0.045 C 
ATOM     18  C   UNL     1     -14.166  24.194  36.352  1.00  0.00    -0.006 A 
ATOM     19  C   UNL     1     -15.267  23.223  34.384  1.00  0.00     0.072 A 
ATOM     20  C   UNL     1     -12.919  23.648  35.924  1.00  0.00     0.008 A 
ATOM     21  C   UNL     1     -14.008  22.812  33.900  1.00  0.00     0.169 A 
ATOM     22  C   UNL     1     -12.853  23.019  34.661  1.00  0.00     0.162 A 
BRANCH  13  23
ATOM     23  O   UNL     1     -17.800  23.702  35.703  1.00  0.00    -0.507 OA
ATOM     24  H   UNL     1     -18.350  22.977  36.144  1.00  0.00     0.293 HD
ENDBRANCH  13  23
BRANCH  19  25
ATOM     25  C   UNL     1     -16.432  23.068  33.485  1.00  0.00     0.264 C 
ATOM     26  O   UNL     1     -16.938  21.931  33.286  1.00  0.00    -0.298 OA
ENDBRANCH  19  25
BRANCH  20  27
ATOM     27  C   UNL     1     -11.669  23.706  36.819  1.00  0.00     0.017 C 
ATOM     28  C   UNL     1     -10.598  24.612  36.203  1.00  0.00     0.012 C 
ATOM     29  C   UNL     1     -11.100  22.317  37.164  1.00  0.00     0.012 C 
ENDBRANCH  20  27
BRANCH  21  30
ATOM     30  O   UNL     1     -13.866  22.208  32.644  1.00  0.00    -0.504 OA
ATOM     31  H   UNL     1     -13.693  21.222  32.506  1.00  0.00     0.293 HD
ENDBRANCH  21  30
BRANCH  22  32
ATOM     32  O   UNL     1     -11.615  22.616  34.152  1.00  0.00    -0.504 OA
ATOM     33  H   UNL     1     -11.112  23.141  33.443  1.00  0.00     0.293 HD
ENDBRANCH  22  32
ENDBRANCH  11  12
BRANCH  10  34
ATOM     34  O   UNL     1     -17.850  23.477  39.455  1.00  0.00    -0.507 OA
ATOM     35  H   UNL     1     -17.575  23.322  40.416  1.00  0.00     0.293 HD
ENDBRANCH  10  34
BRANCH   9  36
ATOM     36  C   UNL     1     -21.768  28.316  39.987  1.00  0.00     0.017 C 
ATOM     37  C   UNL     1     -23.123  28.471  39.290  1.00  0.00     0.012 C 
ATOM     38  C   UNL     1     -21.741  29.052  41.340  1.00  0.00     0.012 C 
ENDBRANCH   9  36
BRANCH   6  39
ATOM     39  C   UNL     1     -20.010  22.802  40.846  1.00  0.00     0.264 C 
ATOM     40  O   UNL     1     -19.521  22.486  41.963  1.00  0.00    -0.298 OA
ENDBRANCH   6  39
BRANCH   8  41
ATOM     41  O   UNL     1     -23.193  26.435  41.639  1.00  0.00    -0.504 OA
ATOM     42  H   UNL     1     -23.307  26.396  42.644  1.00  0.00     0.293 HD
ENDBRANCH   8  41
BRANCH   7  43
ATOM     43  O   UNL     1     -22.376  23.855  42.045  1.00  0.00    -0.504 OA
ATOM     44  H   UNL     1     -22.097  22.933  42.349  1.00  0.00     0.293 HD
ENDBRANCH   7  43
TORSDOF 11
ENDMDL
MODEL 6
REMARK VINA RESULT:    -5.173      1.552      8.922
REMARK INTER + INTRA:          -8.955
REMARK INTER:                  -7.690
REMARK INTRA:                  -1.265
REMARK UNBOUND:                -1.364
REMARK SMILES Cc1cc2c(C(C)C)c(O)c(O)c(C=O)c2c(O)c1-c1c(C)cc2c(C(C)C)c(O)c(O)c(C=O)c2c1O
REMARK SMILES IDX 1 1 2 2 3 3 4 4 16 5 13 6 11 7 9 8 5 9 17 10 19 11 20 12
REMARK SMILES IDX 37 13 21 14 36 15 23 16 22 17 24 18 33 19 25 20 31 21 29 22
REMARK SMILES IDX 38 23 34 25 35 26 26 27 27 28 28 29 32 30 30 32 18 34 6 36
REMARK SMILES IDX 7 37 8 38 14 39 15 40 10 41 12 43
REMARK H PARENT 38 24 32 31 30 33 18 35 10 42 12 44
REMARK Flexibility Score: inf
ROOT
ATOM      1  C   UNL     1     -17.978  24.771  39.750  1.00  0.00     0.045 C 
ATOM      2  C   UNL     1     -18.932  25.827  39.246  1.00  0.00    -0.039 A 
ATOM      3  C   UNL     1     -19.999  26.224  40.052  1.00  0.00     0.013 A 
ATOM      4  C   UNL     1     -20.947  27.170  39.612  1.00  0.00    -0.006 A 
ATOM      5  C   UNL     1     -20.710  27.859  38.387  1.00  0.00     0.039 A 
ATOM      6  C   UNL     1     -21.518  28.988  38.064  1.00  0.00     0.072 A 
ATOM      7  C   UNL     1     -22.560  29.377  38.935  1.00  0.00     0.169 A 
ATOM      8  C   UNL     1     -22.867  28.604  40.060  1.00  0.00     0.162 A 
ATOM      9  C   UNL     1     -22.114  27.454  40.379  1.00  0.00     0.008 A 
ATOM     10  C   UNL     1     -19.685  27.376  37.519  1.00  0.00     0.132 A 
ATOM     11  C   UNL     1     -18.813  26.353  37.949  1.00  0.00     0.031 A 
ENDROOT
BRANCH  11  12
ATOM     12  C   UNL     1     -17.798  25.791  37.020  1.00  0.00     0.031 A 
ATOM     13  C   UNL     1     -18.114  24.663  36.234  1.00  0.00     0.132 A 
ATOM     14  C   UNL     1     -16.525  26.377  36.928  1.00  0.00    -0.039 A 
ATOM     15  C   UNL     1     -17.158  24.128  35.325  1.00  0.00     0.039 A 
ATOM     16  C   UNL     1     -15.553  25.785  36.117  1.00  0.00     0.013 A 
ATOM     17  C   UNL     1     -16.192  27.649  37.668  1.00  0.00     0.045 C 
ATOM     18  C   UNL     1     -15.819  24.610  35.381  1.00  0.00    -0.006 A 
ATOM     19  C   UNL     1     -17.492  23.120  34.376  1.00  0.00     0.072 A 
ATOM     20  C   UNL     1     -14.785  23.926  34.675  1.00  0.00     0.008 A 
ATOM     21  C   UNL     1     -16.481  22.548  33.577  1.00  0.00     0.169 A 
ATOM     22  C   UNL     1     -15.147  22.943  33.727  1.00  0.00     0.162 A 
BRANCH  13  23
ATOM     23  O   UNL     1     -19.360  24.046  36.385  1.00  0.00    -0.507 OA
ATOM     24  H   UNL     1     -19.589  23.410  37.138  1.00  0.00     0.293 HD
ENDBRANCH  13  23
BRANCH  19  25
ATOM     25  C   UNL     1     -18.891  22.733  34.094  1.00  0.00     0.264 C 
ATOM     26  O   UNL     1     -19.360  21.655  34.550  1.00  0.00    -0.298 OA
ENDBRANCH  19  25
BRANCH  20  27
ATOM     27  C   UNL     1     -13.299  24.218  34.947  1.00  0.00     0.017 C 
ATOM     28  C   UNL     1     -12.676  25.004  33.790  1.00  0.00     0.012 C 
ATOM     29  C   UNL     1     -12.479  22.956  35.275  1.00  0.00     0.012 C 
ENDBRANCH  20  27
BRANCH  21  30
ATOM     30  O   UNL     1     -16.774  21.588  32.599  1.00  0.00    -0.504 OA
ATOM     31  H   UNL     1     -17.488  21.699  31.893  1.00  0.00     0.293 HD
ENDBRANCH  21  30
BRANCH  22  32
ATOM     32  O   UNL     1     -14.167  22.370  32.912  1.00  0.00    -0.504 OA
ATOM     33  H   UNL     1     -13.195  22.286  33.194  1.00  0.00     0.293 HD
ENDBRANCH  22  32
ENDBRANCH  11  12
BRANCH  10  34
ATOM     34  O   UNL     1     -19.561  27.884  36.219  1.00  0.00    -0.507 OA
ATOM     35  H   UNL     1     -18.688  28.203  35.820  1.00  0.00     0.293 HD
ENDBRANCH  10  34
BRANCH   9  36
ATOM     36  C   UNL     1     -22.573  26.530  41.523  1.00  0.00     0.017 C 
ATOM     37  C   UNL     1     -22.754  25.092  41.028  1.00  0.00     0.012 C 
ATOM     38  C   UNL     1     -21.660  26.590  42.763  1.00  0.00     0.012 C 
ENDBRANCH   9  36
BRANCH   6  39
ATOM     39  C   UNL     1     -21.234  29.836  36.886  1.00  0.00     0.264 C 
ATOM     40  O   UNL     1     -20.557  30.892  37.004  1.00  0.00    -0.298 OA
ENDBRANCH   6  39
BRANCH   8  41
ATOM     41  O   UNL     1     -23.922  28.995  40.889  1.00  0.00    -0.504 OA
ATOM     42  H   UNL     1     -24.719  29.525  40.558  1.00  0.00     0.293 HD
ENDBRANCH   8  41
BRANCH   7  43
ATOM     43  O   UNL     1     -23.300  30.545  38.722  1.00  0.00    -0.504 OA
ATOM     44  H   UNL     1     -24.218  30.564  38.299  1.00  0.00     0.293 HD
ENDBRANCH   7  43
TORSDOF 11
ENDMDL
MODEL 7
REMARK VINA RESULT:    -5.142      3.659      6.832
REMARK INTER + INTRA:          -8.910
REMARK INTER:                  -7.655
REMARK INTRA:                  -1.255
REMARK UNBOUND:                -1.364
REMARK SMILES Cc1cc2c(C(C)C)c(O)c(O)c(C=O)c2c(O)c1-c1c(C)cc2c(C(C)C)c(O)c(O)c(C=O)c2c1O
REMARK SMILES IDX 1 1 2 2 3 3 4 4 16 5 13 6 11 7 9 8 5 9 17 10 19 11 20 12
REMARK SMILES IDX 37 13 21 14 36 15 23 16 22 17 24 18 33 19 25 20 31 21 29 22
REMARK SMILES IDX 38 23 34 25 35 26 26 27 27 28 28 29 32 30 30 32 18 34 6 36
REMARK SMILES IDX 7 37 8 38 14 39 15 40 10 41 12 43
REMARK H PARENT 38 24 32 31 30 33 18 35 10 42 12 44
REMARK Flexibility Score: inf
ROOT
ATOM      1  C   UNL     1     -16.256  25.198  37.136  1.00  0.00     0.045 C 
ATOM      2  C   UNL     1     -16.931  26.549  37.158  1.00  0.00    -0.039 A 
ATOM      3  C   UNL     1     -16.154  27.703  37.050  1.00  0.00     0.013 A 
ATOM      4  C   UNL     1     -16.726  28.989  37.114  1.00  0.00    -0.006 A 
ATOM      5  C   UNL     1     -18.146  29.108  37.116  1.00  0.00     0.039 A 
ATOM      6  C   UNL     1     -18.731  30.394  36.921  1.00  0.00     0.072 A 
ATOM      7  C   UNL     1     -17.899  31.526  36.774  1.00  0.00     0.169 A 
ATOM      8  C   UNL     1     -16.512  31.409  36.916  1.00  0.00     0.162 A 
ATOM      9  C   UNL     1     -15.910  30.156  37.155  1.00  0.00     0.008 A 
ATOM     10  C   UNL     1     -18.930  27.935  37.337  1.00  0.00     0.132 A 
ATOM     11  C   UNL     1     -18.315  26.666  37.371  1.00  0.00     0.031 A 
ENDROOT
BRANCH  11  12
ATOM     12  C   UNL     1     -19.114  25.451  37.681  1.00  0.00     0.031 A 
ATOM     13  C   UNL     1     -19.723  24.726  36.636  1.00  0.00     0.132 A 
ATOM     14  C   UNL     1     -19.267  25.028  39.012  1.00  0.00    -0.039 A 
ATOM     15  C   UNL     1     -20.473  23.549  36.918  1.00  0.00     0.039 A 
ATOM     16  C   UNL     1     -20.093  23.938  39.295  1.00  0.00     0.013 A 
ATOM     17  C   UNL     1     -18.537  25.714  40.141  1.00  0.00     0.045 C 
ATOM     18  C   UNL     1     -20.777  23.242  38.275  1.00  0.00    -0.006 A 
ATOM     19  C   UNL     1     -20.939  22.680  35.891  1.00  0.00     0.072 A 
ATOM     20  C   UNL     1     -21.733  22.228  38.580  1.00  0.00     0.008 A 
ATOM     21  C   UNL     1     -21.771  21.590  36.219  1.00  0.00     0.169 A 
ATOM     22  C   UNL     1     -22.165  21.370  37.543  1.00  0.00     0.162 A 
BRANCH  13  23
ATOM     23  O   UNL     1     -19.622  25.195  35.322  1.00  0.00    -0.507 OA
ATOM     24  H   UNL     1     -20.170  24.838  34.551  1.00  0.00     0.293 HD
ENDBRANCH  13  23
BRANCH  19  25
ATOM     25  C   UNL     1     -20.478  22.794  34.490  1.00  0.00     0.264 C 
ATOM     26  O   UNL     1     -19.351  22.342  34.150  1.00  0.00    -0.298 OA
ENDBRANCH  19  25
BRANCH  20  27
ATOM     27  C   UNL     1     -22.316  22.074  39.995  1.00  0.00     0.017 C 
ATOM     28  C   UNL     1     -22.998  23.368  40.449  1.00  0.00     0.012 C 
ATOM     29  C   UNL     1     -21.286  21.588  41.031  1.00  0.00     0.012 C 
ENDBRANCH  20  27
BRANCH  21  30
ATOM     30  O   UNL     1     -22.213  20.685  35.245  1.00  0.00    -0.504 OA
ATOM     31  H   UNL     1     -22.167  20.856  34.251  1.00  0.00     0.293 HD
ENDBRANCH  21  30
BRANCH  22  32
ATOM     32  O   UNL     1     -22.978  20.274  37.844  1.00  0.00    -0.504 OA
ATOM     33  H   UNL     1     -23.549  20.223  38.682  1.00  0.00     0.293 HD
ENDBRANCH  22  32
ENDBRANCH  11  12
BRANCH  10  34
ATOM     34  O   UNL     1     -20.309  28.037  37.561  1.00  0.00    -0.507 OA
ATOM     35  H   UNL     1     -20.717  28.498  38.363  1.00  0.00     0.293 HD
ENDBRANCH  10  34
BRANCH   9  36
ATOM     36  C   UNL     1     -14.404  30.077  37.473  1.00  0.00     0.017 C 
ATOM     37  C   UNL     1     -13.564  30.447  36.247  1.00  0.00     0.012 C 
ATOM     38  C   UNL     1     -13.994  30.902  38.708  1.00  0.00     0.012 C 
ENDBRANCH   9  36
BRANCH   6  39
ATOM     39  C   UNL     1     -20.191  30.569  36.766  1.00  0.00     0.264 C 
ATOM     40  O   UNL     1     -20.869  31.132  37.665  1.00  0.00    -0.298 OA
ENDBRANCH   6  39
BRANCH   8  41
ATOM     41  O   UNL     1     -15.716  32.551  36.794  1.00  0.00    -0.504 OA
ATOM     42  H   UNL     1     -15.956  33.441  37.213  1.00  0.00     0.293 HD
ENDBRANCH   8  41
BRANCH   7  43
ATOM     43  O   UNL     1     -18.421  32.787  36.462  1.00  0.00    -0.504 OA
ATOM     44  H   UNL     1     -18.447  33.564  37.108  1.00  0.00     0.293 HD
ENDBRANCH   7  43
TORSDOF 11
ENDMDL
MODEL 8
REMARK VINA RESULT:    -5.116      9.683     13.058
REMARK INTER + INTRA:          -8.872
REMARK INTER:                  -7.650
REMARK INTRA:                  -1.221
REMARK UNBOUND:                -1.364
REMARK SMILES Cc1cc2c(C(C)C)c(O)c(O)c(C=O)c2c(O)c1-c1c(C)cc2c(C(C)C)c(O)c(O)c(C=O)c2c1O
REMARK SMILES IDX 1 1 2 2 3 3 4 4 16 5 13 6 11 7 9 8 5 9 17 10 19 11 20 12
REMARK SMILES IDX 37 13 21 14 36 15 23 16 22 17 24 18 33 19 25 20 31 21 29 22
REMARK SMILES IDX 38 23 34 25 35 26 26 27 27 28 28 29 32 30 30 32 18 34 6 36
REMARK SMILES IDX 7 37 8 38 14 39 15 40 10 41 12 43
REMARK H PARENT 38 24 32 31 30 33 18 35 10 42 12 44
REMARK Flexibility Score: inf
ROOT
ATOM      1  C   UNL     1      -9.922  30.583  41.929  1.00  0.00     0.045 C 
ATOM      2  C   UNL     1      -8.888  29.882  42.777  1.00  0.00    -0.039 A 
ATOM      3  C   UNL     1      -8.031  30.640  43.576  1.00  0.00     0.013 A 
ATOM      4  C   UNL     1      -7.017  30.042  44.349  1.00  0.00    -0.006 A 
ATOM      5  C   UNL     1      -6.980  28.620  44.449  1.00  0.00     0.039 A 
ATOM      6  C   UNL     1      -6.129  28.019  45.423  1.00  0.00     0.072 A 
ATOM      7  C   UNL     1      -5.312  28.834  46.237  1.00  0.00     0.169 A 
ATOM      8  C   UNL     1      -5.257  30.216  46.028  1.00  0.00     0.162 A 
ATOM      9  C   UNL     1      -6.053  30.833  45.040  1.00  0.00     0.008 A 
ATOM     10  C   UNL     1      -7.780  27.852  43.551  1.00  0.00     0.132 A 
ATOM     11  C   UNL     1      -8.718  28.489  42.711  1.00  0.00     0.031 A 
ENDROOT
BRANCH  11  12
ATOM     12  C   UNL     1      -9.495  27.702  41.719  1.00  0.00     0.031 A 
ATOM     13  C   UNL     1     -10.775  27.214  42.057  1.00  0.00     0.132 A 
ATOM     14  C   UNL     1      -8.956  27.439  40.448  1.00  0.00    -0.039 A 
ATOM     15  C   UNL     1     -11.539  26.478  41.107  1.00  0.00     0.039 A 
ATOM     16  C   UNL     1      -9.660  26.624  39.559  1.00  0.00     0.013 A 
ATOM     17  C   UNL     1      -7.642  28.041  40.016  1.00  0.00     0.045 C 
ATOM     18  C   UNL     1     -10.908  26.059  39.901  1.00  0.00    -0.006 A 
ATOM     19  C   UNL     1     -12.903  26.135  41.330  1.00  0.00     0.072 A 
ATOM     20  C   UNL     1     -11.552  25.110  39.052  1.00  0.00     0.008 A 
ATOM     21  C   UNL     1     -13.578  25.309  40.407  1.00  0.00     0.169 A 
ATOM     22  C   UNL     1     -12.910  24.802  39.287  1.00  0.00     0.162 A 
BRANCH  13  23
ATOM     23  O   UNL     1     -11.273  27.422  43.347  1.00  0.00    -0.507 OA
ATOM     24  H   UNL     1     -10.758  27.215  44.193  1.00  0.00     0.293 HD
ENDBRANCH  13  23
BRANCH  19  25
ATOM     25  C   UNL     1     -13.695  26.720  42.434  1.00  0.00     0.264 C 
ATOM     26  O   UNL     1     -14.736  27.388  42.190  1.00  0.00    -0.298 OA
ENDBRANCH  19  25
BRANCH  20  27
ATOM     27  C   UNL     1     -10.791  24.403  37.917  1.00  0.00     0.017 C 
ATOM     28  C   UNL     1     -11.286  24.879  36.548  1.00  0.00     0.012 C 
ATOM     29  C   UNL     1     -10.823  22.867  38.024  1.00  0.00     0.012 C 
ENDBRANCH  20  27
BRANCH  21  30
ATOM     30  O   UNL     1     -14.932  24.987  40.565  1.00  0.00    -0.504 OA
ATOM     31  H   UNL     1     -15.275  24.270  41.188  1.00  0.00     0.293 HD
ENDBRANCH  21  30
BRANCH  22  32
ATOM     32  O   UNL     1     -13.606  23.999  38.380  1.00  0.00    -0.504 OA
ATOM     33  H   UNL     1     -13.432  23.004  38.277  1.00  0.00     0.293 HD
ENDBRANCH  22  32
ENDBRANCH  11  12
BRANCH  10  34
ATOM     34  O   UNL     1      -7.616  26.463  43.467  1.00  0.00    -0.507 OA
ATOM     35  H   UNL     1      -8.071  25.882  42.775  1.00  0.00     0.293 HD
ENDBRANCH  10  34
BRANCH   9  36
ATOM     36  C   UNL     1      -5.854  32.326  44.716  1.00  0.00     0.017 C 
ATOM     37  C   UNL     1      -6.303  33.207  45.886  1.00  0.00     0.012 C 
ATOM     38  C   UNL     1      -4.421  32.670  44.268  1.00  0.00     0.012 C 
ENDBRANCH   9  36
BRANCH   6  39
ATOM     39  C   UNL     1      -6.150  26.563  45.681  1.00  0.00     0.264 C 
ATOM     40  O   UNL     1      -6.888  26.082  46.582  1.00  0.00    -0.298 OA
ENDBRANCH   6  39
BRANCH   8  41
ATOM     41  O   UNL     1      -4.418  30.995  46.828  1.00  0.00    -0.504 OA
ATOM     42  H   UNL     1      -3.693  30.602  47.416  1.00  0.00     0.293 HD
ENDBRANCH   8  41
BRANCH   7  43
ATOM     43  O   UNL     1      -4.552  28.300  47.284  1.00  0.00    -0.504 OA
ATOM     44  H   UNL     1      -4.916  27.666  47.982  1.00  0.00     0.293 HD
ENDBRANCH   7  43
TORSDOF 11
ENDMDL
MODEL 9
REMARK VINA RESULT:    -4.995      6.050      8.102
REMARK INTER + INTRA:          -8.695
REMARK INTER:                  -7.739
REMARK INTRA:                  -0.956
REMARK UNBOUND:                -1.364
REMARK SMILES Cc1cc2c(C(C)C)c(O)c(O)c(C=O)c2c(O)c1-c1c(C)cc2c(C(C)C)c(O)c(O)c(C=O)c2c1O
REMARK SMILES IDX 1 1 2 2 3 3 4 4 16 5 13 6 11 7 9 8 5 9 17 10 19 11 20 12
REMARK SMILES IDX 37 13 21 14 36 15 23 16 22 17 24 18 33 19 25 20 31 21 29 22
REMARK SMILES IDX 38 23 34 25 35 26 26 27 27 28 28 29 32 30 30 32 18 34 6 36
REMARK SMILES IDX 7 37 8 38 14 39 15 40 10 41 12 43
REMARK H PARENT 38 24 32 31 30 33 18 35 10 42 12 44
REMARK Flexibility Score: inf
ROOT
ATOM      1  C   UNL     1     -11.941  23.431  31.892  1.00  0.00     0.045 C 
ATOM      2  C   UNL     1     -11.775  22.922  33.303  1.00  0.00    -0.039 A 
ATOM      3  C   UNL     1     -10.945  21.826  33.541  1.00  0.00     0.013 A 
ATOM      4  C   UNL     1     -10.791  21.280  34.831  1.00  0.00    -0.006 A 
ATOM      5  C   UNL     1     -11.362  21.970  35.940  1.00  0.00     0.039 A 
ATOM      6  C   UNL     1     -11.000  21.572  37.260  1.00  0.00     0.072 A 
ATOM      7  C   UNL     1     -10.121  20.482  37.447  1.00  0.00     0.169 A 
ATOM      8  C   UNL     1      -9.684  19.729  36.352  1.00  0.00     0.162 A 
ATOM      9  C   UNL     1     -10.064  20.071  35.037  1.00  0.00     0.008 A 
ATOM     10  C   UNL     1     -12.295  23.019  35.684  1.00  0.00     0.132 A 
ATOM     11  C   UNL     1     -12.506  23.478  34.367  1.00  0.00     0.031 A 
ENDROOT
BRANCH  11  12
ATOM     12  C   UNL     1     -13.535  24.513  34.086  1.00  0.00     0.031 A 
ATOM     13  C   UNL     1     -14.808  24.128  33.616  1.00  0.00     0.132 A 
ATOM     14  C   UNL     1     -13.240  25.873  34.283  1.00  0.00    -0.039 A 
ATOM     15  C   UNL     1     -15.809  25.109  33.364  1.00  0.00     0.039 A 
ATOM     16  C   UNL     1     -14.186  26.838  33.930  1.00  0.00     0.013 A 
ATOM     17  C   UNL     1     -11.930  26.310  34.890  1.00  0.00     0.045 C 
ATOM     18  C   UNL     1     -15.438  26.484  33.385  1.00  0.00    -0.006 A 
ATOM     19  C   UNL     1     -17.160  24.760  33.079  1.00  0.00     0.072 A 
ATOM     20  C   UNL     1     -16.339  27.473  32.889  1.00  0.00     0.008 A 
ATOM     21  C   UNL     1     -18.084  25.766  32.727  1.00  0.00     0.169 A 
ATOM     22  C   UNL     1     -17.678  27.101  32.630  1.00  0.00     0.162 A 
BRANCH  13  23
ATOM     23  O   UNL     1     -15.068  22.778  33.357  1.00  0.00    -0.507 OA
ATOM     24  H   UNL     1     -15.860  22.447  32.822  1.00  0.00     0.293 HD
ENDBRANCH  13  23
BRANCH  19  25
ATOM     25  C   UNL     1     -17.678  23.387  33.263  1.00  0.00     0.264 C 
ATOM     26  O   UNL     1     -17.934  22.661  32.265  1.00  0.00    -0.298 OA
ENDBRANCH  19  25
BRANCH  20  27
ATOM     27  C   UNL     1     -15.875  28.912  32.606  1.00  0.00     0.017 C 
ATOM     28  C   UNL     1     -14.530  28.919  31.875  1.00  0.00     0.012 C 
ATOM     29  C   UNL     1     -15.836  29.799  33.865  1.00  0.00     0.012 C 
ENDBRANCH  20  27
BRANCH  21  30
ATOM     30  O   UNL     1     -19.432  25.471  32.485  1.00  0.00    -0.504 OA
ATOM     31  H   UNL     1     -19.775  24.556  32.230  1.00  0.00     0.293 HD
ENDBRANCH  21  30
BRANCH  22  32
ATOM     32  O   UNL     1     -18.617  28.081  32.295  1.00  0.00    -0.504 OA
ATOM     33  H   UNL     1     -18.435  28.809  31.611  1.00  0.00     0.293 HD
ENDBRANCH  22  32
ENDBRANCH  11  12
BRANCH  10  34
ATOM     34  O   UNL     1     -13.040  23.577  36.733  1.00  0.00    -0.507 OA
ATOM     35  H   UNL     1     -12.946  24.535  37.042  1.00  0.00     0.293 HD
ENDBRANCH  10  34
BRANCH   9  36
ATOM     36  C   UNL     1      -9.708  19.134  33.867  1.00  0.00     0.017 C 
ATOM     37  C   UNL     1     -10.881  19.004  32.892  1.00  0.00     0.012 C 
ATOM     38  C   UNL     1      -8.409  19.529  33.139  1.00  0.00     0.012 C 
ENDBRANCH   9  36
BRANCH   6  39
ATOM     39  C   UNL     1     -11.437  22.335  38.450  1.00  0.00     0.264 C 
ATOM     40  O   UNL     1     -12.216  21.817  39.293  1.00  0.00    -0.298 OA
ENDBRANCH   6  39
BRANCH   8  41
ATOM     41  O   UNL     1      -8.838  18.638  36.569  1.00  0.00    -0.504 OA
ATOM     42  H   UNL     1      -8.784  18.147  37.452  1.00  0.00     0.293 HD
ENDBRANCH   8  41
BRANCH   7  43
ATOM     43  O   UNL     1      -9.643  20.131  38.715  1.00  0.00    -0.504 OA
ATOM     44  H   UNL     1      -8.985  20.685  39.246  1.00  0.00     0.293 HD
ENDBRANCH   7  43
TORSDOF 11
ENDMDL
