MODEL 1
REMARK VINA RESULT:    -4.048      0.000      0.000
REMARK INTER + INTRA:          -7.218
REMARK INTER:                  -6.533
REMARK INTRA:                  -0.685
REMARK UNBOUND:                -0.685
REMARK SMILES CCCCCCCCCCCCO
REMARK SMILES IDX 7 1 6 2 5 3 4 4 3 5 2 6 1 7 8 8 9 9 10 10 11 11 12 12 13 13
REMARK H PARENT 13 14
REMARK Flexibility Score: inf
ROOT
ATOM      1  C   UNL     1     162.208 176.708 150.851  1.00  0.00     0.000 C 
ENDROOT
BRANCH   1   2
ATOM      2  C   UNL     1     163.357 177.712 151.049  1.00  0.00    -0.000 C 
BRANCH   2   3
ATOM      3  C   UNL     1     164.374 177.252 152.111  1.00  0.00    -0.000 C 
BRANCH   3   4
ATOM      4  C   UNL     1     165.763 176.860 151.567  1.00  0.00    -0.000 C 
BRANCH   4   5
ATOM      5  C   UNL     1     166.197 177.602 150.291  1.00  0.00    -0.000 C 
BRANCH   5   6
ATOM      6  C   UNL     1     167.241 176.827 149.476  1.00  0.00    -0.003 C 
ATOM      7  C   UNL     1     166.890 175.344 149.401  1.00  0.00     0.004 C 
ENDBRANCH   5   6
ENDBRANCH   4   5
ENDBRANCH   3   4
ENDBRANCH   2   3
ENDBRANCH   1   2
BRANCH   1   8
ATOM      8  C   UNL     1     160.877 177.397 150.507  1.00  0.00     0.000 C 
BRANCH   8   9
ATOM      9  C   UNL     1     160.254 178.120 151.711  1.00  0.00     0.000 C 
BRANCH   9  10
ATOM     10  C   UNL     1     160.193 177.194 152.935  1.00  0.00     0.002 C 
BRANCH  10  11
ATOM     11  C   UNL     1     161.020 177.722 154.119  1.00  0.00     0.028 C 
BRANCH  11  12
ATOM     12  C   UNL     1     160.524 177.199 155.468  1.00  0.00     0.156 C 
BRANCH  12  13
ATOM     13  O   UNL     1     159.892 175.963 155.284  1.00  0.00    -0.396 OA
ATOM     14  H   UNL     1     159.836 175.826 154.302  1.00  0.00     0.210 HD
ENDBRANCH  12  13
ENDBRANCH  11  12
ENDBRANCH  10  11
ENDBRANCH   9  10
ENDBRANCH   8   9
ENDBRANCH   1   8
TORSDOF 11
ENDMDL
MODEL 2
REMARK VINA RESULT:    -3.967     10.444     12.349
REMARK INTER + INTRA:          -7.088
REMARK INTER:                  -6.191
REMARK INTRA:                  -0.896
REMARK UNBOUND:                -0.685
REMARK SMILES CCCCCCCCCCCCO
REMARK SMILES IDX 7 1 6 2 5 3 4 4 3 5 2 6 1 7 8 8 9 9 10 10 11 11 12 12 13 13
REMARK H PARENT 13 14
REMARK Flexibility Score: inf
ROOT
ATOM      1  C   UNL     1     174.644 174.430 151.695  1.00  0.00     0.000 C 
ENDROOT
BRANCH   1   2
ATOM      2  C   UNL     1     176.049 174.912 151.295  1.00  0.00    -0.000 C 
BRANCH   2   3
ATOM      3  C   UNL     1     177.067 173.762 151.193  1.00  0.00    -0.000 C 
BRANCH   3   4
ATOM      4  C   UNL     1     177.018 172.953 149.880  1.00  0.00    -0.000 C 
BRANCH   4   5
ATOM      5  C   UNL     1     176.518 171.505 150.025  1.00  0.00    -0.000 C 
BRANCH   5   6
ATOM      6  C   UNL     1     175.193 171.256 149.293  1.00  0.00    -0.003 C 
ATOM      7  C   UNL     1     174.112 170.778 150.258  1.00  0.00     0.004 C 
ENDBRANCH   5   6
ENDBRANCH   4   5
ENDBRANCH   3   4
ENDBRANCH   2   3
ENDBRANCH   1   2
BRANCH   1   8
ATOM      8  C   UNL     1     173.542 175.017 150.797  1.00  0.00     0.000 C 
BRANCH   8   9
ATOM      9  C   UNL     1     173.639 176.543 150.659  1.00  0.00     0.000 C 
BRANCH   9  10
ATOM     10  C   UNL     1     172.940 177.247 151.832  1.00  0.00     0.002 C 
BRANCH  10  11
ATOM     11  C   UNL     1     173.924 177.993 152.746  1.00  0.00     0.028 C 
BRANCH  11  12
ATOM     12  C   UNL     1     173.779 177.603 154.218  1.00  0.00     0.156 C 
BRANCH  12  13
ATOM     13  O   UNL     1     172.510 177.978 154.676  1.00  0.00    -0.396 OA
ATOM     14  H   UNL     1     172.649 178.385 155.570  1.00  0.00     0.210 HD
ENDBRANCH  12  13
ENDBRANCH  11  12
ENDBRANCH  10  11
ENDBRANCH   9  10
ENDBRANCH   8   9
ENDBRANCH   1   8
TORSDOF 11
ENDMDL
MODEL 3
REMARK VINA RESULT:    -3.927      2.392      4.282
REMARK INTER + INTRA:          -7.022
REMARK INTER:                  -5.922
REMARK INTRA:                  -1.100
REMARK UNBOUND:                -0.685
REMARK SMILES CCCCCCCCCCCCO
REMARK SMILES IDX 7 1 6 2 5 3 4 4 3 5 2 6 1 7 8 8 9 9 10 10 11 11 12 12 13 13
REMARK H PARENT 13 14
REMARK Flexibility Score: inf
ROOT
ATOM      1  C   UNL     1     162.350 176.511 150.879  1.00  0.00     0.000 C 
ENDROOT
BRANCH   1   2
ATOM      2  C   UNL     1     163.310 177.693 151.100  1.00  0.00    -0.000 C 
BRANCH   2   3
ATOM      3  C   UNL     1     164.107 177.578 152.412  1.00  0.00    -0.000 C 
BRANCH   3   4
ATOM      4  C   UNL     1     163.342 176.950 153.595  1.00  0.00    -0.000 C 
BRANCH   4   5
ATOM      5  C   UNL     1     162.722 177.957 154.579  1.00  0.00    -0.000 C 
BRANCH   5   6
ATOM      6  C   UNL     1     161.700 177.314 155.526  1.00  0.00    -0.003 C 
ATOM      7  C   UNL     1     162.206 175.976 156.056  1.00  0.00     0.004 C 
ENDBRANCH   5   6
ENDBRANCH   4   5
ENDBRANCH   3   4
ENDBRANCH   2   3
ENDBRANCH   1   2
BRANCH   1   8
ATOM      8  C   UNL     1     160.903 176.966 150.631  1.00  0.00     0.000 C 
BRANCH   8   9
ATOM      9  C   UNL     1     160.095 177.113 151.930  1.00  0.00     0.000 C 
BRANCH   9  10
ATOM     10  C   UNL     1     159.985 175.768 152.663  1.00  0.00     0.002 C 
BRANCH  10  11
ATOM     11  C   UNL     1     159.255 174.699 151.835  1.00  0.00     0.028 C 
BRANCH  11  12
ATOM     12  C   UNL     1     159.833 173.296 152.034  1.00  0.00     0.156 C 
BRANCH  12  13
ATOM     13  O   UNL     1     159.342 172.758 153.230  1.00  0.00    -0.396 OA
ATOM     14  H   UNL     1     159.018 173.527 153.767  1.00  0.00     0.210 HD
ENDBRANCH  12  13
ENDBRANCH  11  12
ENDBRANCH  10  11
ENDBRANCH   9  10
ENDBRANCH   8   9
ENDBRANCH   1   8
TORSDOF 11
ENDMDL
MODEL 4
REMARK VINA RESULT:    -3.867     11.598     13.005
REMARK INTER + INTRA:          -6.926
REMARK INTER:                  -6.066
REMARK INTRA:                  -0.860
REMARK UNBOUND:                -0.685
REMARK SMILES CCCCCCCCCCCCO
REMARK SMILES IDX 7 1 6 2 5 3 4 4 3 5 2 6 1 7 8 8 9 9 10 10 11 11 12 12 13 13
REMARK H PARENT 13 14
REMARK Flexibility Score: inf
ROOT
ATOM      1  C   UNL     1     173.744 175.877 151.291  1.00  0.00     0.000 C 
ENDROOT
BRANCH   1   2
ATOM      2  C   UNL     1     174.621 174.659 150.952  1.00  0.00    -0.000 C 
BRANCH   2   3
ATOM      3  C   UNL     1     175.844 174.529 151.878  1.00  0.00    -0.000 C 
BRANCH   3   4
ATOM      4  C   UNL     1     176.832 173.402 151.510  1.00  0.00    -0.000 C 
BRANCH   4   5
ATOM      5  C   UNL     1     176.782 172.944 150.042  1.00  0.00    -0.000 C 
BRANCH   5   6
ATOM      6  C   UNL     1     176.522 171.439 149.895  1.00  0.00    -0.003 C 
ATOM      7  C   UNL     1     175.044 171.157 149.645  1.00  0.00     0.004 C 
ENDBRANCH   5   6
ENDBRANCH   4   5
ENDBRANCH   3   4
ENDBRANCH   2   3
ENDBRANCH   1   2
BRANCH   1   8
ATOM      8  C   UNL     1     174.105 177.115 150.453  1.00  0.00     0.000 C 
BRANCH   8   9
ATOM      9  C   UNL     1     174.968 178.124 151.225  1.00  0.00     0.000 C 
BRANCH   9  10
ATOM     10  C   UNL     1     174.608 178.125 152.718  1.00  0.00     0.002 C 
BRANCH  10  11
ATOM     11  C   UNL     1     175.804 177.770 153.617  1.00  0.00     0.028 C 
BRANCH  11  12
ATOM     12  C   UNL     1     175.451 176.744 154.695  1.00  0.00     0.156 C 
BRANCH  12  13
ATOM     13  O   UNL     1     176.591 175.998 155.018  1.00  0.00    -0.396 OA
ATOM     14  H   UNL     1     176.975 175.694 154.154  1.00  0.00     0.210 HD
ENDBRANCH  12  13
ENDBRANCH  11  12
ENDBRANCH  10  11
ENDBRANCH   9  10
ENDBRANCH   8   9
ENDBRANCH   1   8
TORSDOF 11
ENDMDL
MODEL 5
REMARK VINA RESULT:    -3.851      3.270      6.692
REMARK INTER + INTRA:          -6.900
REMARK INTER:                  -6.396
REMARK INTRA:                  -0.503
REMARK UNBOUND:                -0.685
REMARK SMILES CCCCCCCCCCCCO
REMARK SMILES IDX 7 1 6 2 5 3 4 4 3 5 2 6 1 7 8 8 9 9 10 10 11 11 12 12 13 13
REMARK H PARENT 13 14
REMARK Flexibility Score: inf
ROOT
ATOM      1  C   UNL     1     164.884 176.829 151.063  1.00  0.00     0.000 C 
ENDROOT
BRANCH   1   2
ATOM      2  C   UNL     1     164.248 177.618 152.221  1.00  0.00    -0.000 C 
BRANCH   2   3
ATOM      3  C   UNL     1     162.715 177.708 152.111  1.00  0.00    -0.000 C 
BRANCH   3   4
ATOM      4  C   UNL     1     162.120 177.210 150.777  1.00  0.00    -0.000 C 
BRANCH   4   5
ATOM      5  C   UNL     1     160.599 176.976 150.789  1.00  0.00    -0.000 C 
BRANCH   5   6
ATOM      6  C   UNL     1     160.103 176.343 152.096  1.00  0.00    -0.003 C 
ATOM      7  C   UNL     1     159.418 175.005 151.835  1.00  0.00     0.004 C 
ENDBRANCH   5   6
ENDBRANCH   4   5
ENDBRANCH   3   4
ENDBRANCH   2   3
ENDBRANCH   1   2
BRANCH   1   8
ATOM      8  C   UNL     1     165.968 177.633 150.327  1.00  0.00     0.000 C 
BRANCH   8   9
ATOM      9  C   UNL     1     166.980 176.737 149.598  1.00  0.00     0.000 C 
BRANCH   9  10
ATOM     10  C   UNL     1     167.915 176.039 150.596  1.00  0.00     0.002 C 
BRANCH  10  11
ATOM     11  C   UNL     1     168.906 177.010 151.258  1.00  0.00     0.028 C 
BRANCH  11  12
ATOM     12  C   UNL     1     169.188 176.664 152.722  1.00  0.00     0.156 C 
BRANCH  12  13
ATOM     13  O   UNL     1     169.849 177.736 153.333  1.00  0.00    -0.396 OA
ATOM     14  H   UNL     1     169.141 178.368 153.622  1.00  0.00     0.210 HD
ENDBRANCH  12  13
ENDBRANCH  11  12
ENDBRANCH  10  11
ENDBRANCH   9  10
ENDBRANCH   8   9
ENDBRANCH   1   8
TORSDOF 11
ENDMDL
MODEL 6
REMARK VINA RESULT:    -3.838     11.471     13.278
REMARK INTER + INTRA:          -6.879
REMARK INTER:                  -5.570
REMARK INTRA:                  -1.309
REMARK UNBOUND:                -0.685
REMARK SMILES CCCCCCCCCCCCO
REMARK SMILES IDX 7 1 6 2 5 3 4 4 3 5 2 6 1 7 8 8 9 9 10 10 11 11 12 12 13 13
REMARK H PARENT 13 14
REMARK Flexibility Score: inf
ROOT
ATOM      1  C   UNL     1     173.325 175.767 151.424  1.00  0.00     0.000 C 
ENDROOT
BRANCH   1   2
ATOM      2  C   UNL     1     173.996 176.669 150.374  1.00  0.00    -0.000 C 
BRANCH   2   3
ATOM      3  C   UNL     1     174.973 177.683 150.996  1.00  0.00    -0.000 C 
BRANCH   3   4
ATOM      4  C   UNL     1     174.637 178.124 152.436  1.00  0.00    -0.000 C 
BRANCH   4   5
ATOM      5  C   UNL     1     175.790 177.987 153.445  1.00  0.00    -0.000 C 
BRANCH   5   6
ATOM      6  C   UNL     1     175.516 176.931 154.524  1.00  0.00    -0.003 C 
ATOM      7  C   UNL     1     174.044 176.925 154.928  1.00  0.00     0.004 C 
ENDBRANCH   5   6
ENDBRANCH   4   5
ENDBRANCH   3   4
ENDBRANCH   2   3
ENDBRANCH   1   2
BRANCH   1   8
ATOM      8  C   UNL     1     173.956 174.366 151.488  1.00  0.00     0.000 C 
BRANCH   8   9
ATOM      9  C   UNL     1     175.366 174.321 150.880  1.00  0.00     0.000 C 
BRANCH   9  10
ATOM     10  C   UNL     1     176.438 174.352 151.979  1.00  0.00     0.002 C 
BRANCH  10  11
ATOM     11  C   UNL     1     176.028 173.558 153.230  1.00  0.00     0.028 C 
BRANCH  11  12
ATOM     12  C   UNL     1     176.831 172.267 153.404  1.00  0.00     0.156 C 
BRANCH  12  13
ATOM     13  O   UNL     1     178.024 172.550 154.079  1.00  0.00    -0.396 OA
ATOM     14  H   UNL     1     177.762 172.967 154.940  1.00  0.00     0.210 HD
ENDBRANCH  12  13
ENDBRANCH  11  12
ENDBRANCH  10  11
ENDBRANCH   9  10
ENDBRANCH   8   9
ENDBRANCH   1   8
TORSDOF 11
ENDMDL
MODEL 7
REMARK VINA RESULT:    -3.760      1.504      2.378
REMARK INTER + INTRA:          -6.753
REMARK INTER:                  -6.221
REMARK INTRA:                  -0.532
REMARK UNBOUND:                -0.685
REMARK SMILES CCCCCCCCCCCCO
REMARK SMILES IDX 7 1 6 2 5 3 4 4 3 5 2 6 1 7 8 8 9 9 10 10 11 11 12 12 13 13
REMARK H PARENT 13 14
REMARK Flexibility Score: inf
ROOT
ATOM      1  C   UNL     1     164.019 177.787 151.644  1.00  0.00     0.000 C 
ENDROOT
BRANCH   1   2
ATOM      2  C   UNL     1     165.494 177.380 151.485  1.00  0.00    -0.000 C 
BRANCH   2   3
ATOM      3  C   UNL     1     166.108 177.871 150.162  1.00  0.00    -0.000 C 
BRANCH   3   4
ATOM      4  C   UNL     1     167.217 176.972 149.576  1.00  0.00    -0.000 C 
BRANCH   4   5
ATOM      5  C   UNL     1     167.997 176.141 150.610  1.00  0.00    -0.000 C 
BRANCH   5   6
ATOM      6  C   UNL     1     169.138 176.927 151.268  1.00  0.00    -0.003 C 
ATOM      7  C   UNL     1     169.025 176.893 152.789  1.00  0.00     0.004 C 
ENDBRANCH   5   6
ENDBRANCH   4   5
ENDBRANCH   3   4
ENDBRANCH   2   3
ENDBRANCH   1   2
BRANCH   1   8
ATOM      8  C   UNL     1     163.056 176.778 150.998  1.00  0.00     0.000 C 
BRANCH   8   9
ATOM      9  C   UNL     1     161.637 177.340 150.822  1.00  0.00     0.000 C 
BRANCH   9  10
ATOM     10  C   UNL     1     160.592 176.387 151.420  1.00  0.00     0.002 C 
BRANCH  10  11
ATOM     11  C   UNL     1     160.185 176.774 152.851  1.00  0.00     0.028 C 
BRANCH  11  12
ATOM     12  C   UNL     1     160.844 175.894 153.915  1.00  0.00     0.156 C 
BRANCH  12  13
ATOM     13  O   UNL     1     159.885 175.511 154.860  1.00  0.00    -0.396 OA
ATOM     14  H   UNL     1     160.025 174.541 155.017  1.00  0.00     0.210 HD
ENDBRANCH  12  13
ENDBRANCH  11  12
ENDBRANCH  10  11
ENDBRANCH   9  10
ENDBRANCH   8   9
ENDBRANCH   1   8
TORSDOF 11
ENDMDL
MODEL 8
REMARK VINA RESULT:    -3.734     11.659     13.508
REMARK INTER + INTRA:          -6.712
REMARK INTER:                  -5.572
REMARK INTRA:                  -1.140
REMARK UNBOUND:                -0.685
REMARK SMILES CCCCCCCCCCCCO
REMARK SMILES IDX 7 1 6 2 5 3 4 4 3 5 2 6 1 7 8 8 9 9 10 10 11 11 12 12 13 13
REMARK H PARENT 13 14
REMARK Flexibility Score: inf
ROOT
ATOM      1  C   UNL     1     173.761 175.522 150.988  1.00  0.00     0.000 C 
ENDROOT
BRANCH   1   2
ATOM      2  C   UNL     1     174.430 176.834 150.543  1.00  0.00    -0.000 C 
BRANCH   2   3
ATOM      3  C   UNL     1     174.286 177.959 151.583  1.00  0.00    -0.000 C 
BRANCH   3   4
ATOM      4  C   UNL     1     175.482 178.125 152.544  1.00  0.00    -0.000 C 
BRANCH   4   5
ATOM      5  C   UNL     1     175.128 178.072 154.041  1.00  0.00    -0.000 C 
BRANCH   5   6
ATOM      6  C   UNL     1     174.683 176.677 154.499  1.00  0.00    -0.003 C 
ATOM      7  C   UNL     1     175.876 175.838 154.949  1.00  0.00     0.004 C 
ENDBRANCH   5   6
ENDBRANCH   4   5
ENDBRANCH   3   4
ENDBRANCH   2   3
ENDBRANCH   1   2
BRANCH   1   8
ATOM      8  C   UNL     1     174.780 174.471 151.458  1.00  0.00     0.000 C 
BRANCH   8   9
ATOM      9  C   UNL     1     176.227 174.851 151.114  1.00  0.00     0.000 C 
BRANCH   9  10
ATOM     10  C   UNL     1     176.976 173.660 150.498  1.00  0.00     0.002 C 
BRANCH  10  11
ATOM     11  C   UNL     1     176.325 172.310 150.839  1.00  0.00     0.028 C 
BRANCH  11  12
ATOM     12  C   UNL     1     176.109 171.427 149.608  1.00  0.00     0.156 C 
BRANCH  12  13
ATOM     13  O   UNL     1     174.743 171.378 149.306  1.00  0.00    -0.396 OA
ATOM     14  H   UNL     1     174.580 170.482 148.912  1.00  0.00     0.210 HD
ENDBRANCH  12  13
ENDBRANCH  11  12
ENDBRANCH  10  11
ENDBRANCH   9  10
ENDBRANCH   8   9
ENDBRANCH   1   8
TORSDOF 11
ENDMDL
