MODEL 1
REMARK VINA RESULT:    14.764      0.000      0.000
REMARK INTER + INTRA:          35.203
REMARK INTER:                  37.204
REMARK INTRA:                  -2.001
REMARK UNBOUND:                -2.001
REMARK SMILES CCCCCCCCCCCCCCCCCCCCCCCCCCCC(=O)[O-]
REMARK SMILES IDX 15 1 16 2 17 3 18 4 19 5 20 6 21 7 22 8 23 9 24 10 25 11
REMARK SMILES IDX 26 12 27 13 28 14 29 15 30 16 14 17 13 18 12 19 11 20 10 21
REMARK SMILES IDX 9 22 8 23 7 24 6 25 5 26 4 27 3 28 2 29 1 30
REMARK H PARENT
REMARK Flexibility Score: inf
ROOT
ATOM      1  C   UNL     1      34.222  12.971  39.995  1.00  0.00     0.000 C 
ENDROOT
BRANCH   1   2
ATOM      2  C   UNL     1      35.303  12.431  40.944  1.00  0.00     0.000 C 
BRANCH   2   3
ATOM      3  C   UNL     1      35.180  13.062  42.336  1.00  0.00     0.000 C 
BRANCH   3   4
ATOM      4  C   UNL     1      36.526  13.642  42.798  1.00  0.00     0.000 C 
BRANCH   4   5
ATOM      5  C   UNL     1      36.362  14.858  43.722  1.00  0.00     0.000 C 
BRANCH   5   6
ATOM      6  C   UNL     1      34.942  15.447  43.679  1.00  0.00     0.000 C 
BRANCH   6   7
ATOM      7  C   UNL     1      34.895  16.933  44.080  1.00  0.00     0.000 C 
BRANCH   7   8
ATOM      8  C   UNL     1      35.830  17.853  43.273  1.00  0.00     0.000 C 
BRANCH   8   9
ATOM      9  C   UNL     1      35.085  18.731  42.257  1.00  0.00     0.000 C 
BRANCH   9  10
ATOM     10  C   UNL     1      34.064  17.903  41.461  1.00  0.00     0.000 C 
BRANCH  10  11
ATOM     11  C   UNL     1      34.400  17.830  39.963  1.00  0.00     0.000 C 
BRANCH  11  12
ATOM     12  C   UNL     1      33.161  17.564  39.090  1.00  0.00     0.006 C 
BRANCH  12  13
ATOM     13  C   UNL     1      32.368  18.847  38.806  1.00  0.00     0.053 C 
BRANCH  13  14
ATOM     14  C   UNL     1      31.358  18.646  37.717  1.00  0.00     0.041 C 
ATOM     15  O   UNL     1      30.595  19.588  37.378  1.00  0.00    -0.550 OA
ATOM     16  O   UNL     1      31.289  17.431  37.048  1.00  0.00    -0.550 OA
ENDBRANCH  13  14
ENDBRANCH  12  13
ENDBRANCH  11  12
ENDBRANCH  10  11
ENDBRANCH   9  10
ENDBRANCH   8   9
ENDBRANCH   7   8
ENDBRANCH   6   7
ENDBRANCH   5   6
ENDBRANCH   4   5
ENDBRANCH   3   4
ENDBRANCH   2   3
ENDBRANCH   1   2
BRANCH   1  17
ATOM     17  C   UNL     1      32.866  12.250  40.156  1.00  0.00     0.000 C 
BRANCH  17  18
ATOM     18  C   UNL     1      32.917  10.998  41.052  1.00  0.00     0.000 C 
BRANCH  18  19
ATOM     19  C   UNL     1      32.769   9.650  40.321  1.00  0.00     0.000 C 
BRANCH  19  20
ATOM     20  C   UNL     1      33.924   9.288  39.369  1.00  0.00     0.000 C 
BRANCH  20  21
ATOM     21  C   UNL     1      35.241   8.996  40.103  1.00  0.00     0.000 C 
BRANCH  21  22
ATOM     22  C   UNL     1      34.980   8.217  41.398  1.00  0.00    -0.000 C 
BRANCH  22  23
ATOM     23  C   UNL     1      35.799   6.921  41.438  1.00  0.00    -0.000 C 
BRANCH  23  24
ATOM     24  C   UNL     1      34.889   5.701  41.630  1.00  0.00    -0.000 C 
BRANCH  24  25
ATOM     25  C   UNL     1      33.544   5.899  40.915  1.00  0.00    -0.000 C 
BRANCH  25  26
ATOM     26  C   UNL     1      32.578   4.726  41.141  1.00  0.00    -0.000 C 
BRANCH  26  27
ATOM     27  C   UNL     1      31.104   5.127  40.955  1.00  0.00    -0.000 C 
BRANCH  27  28
ATOM     28  C   UNL     1      30.287   4.982  42.248  1.00  0.00    -0.000 C 
BRANCH  28  29
ATOM     29  C   UNL     1      28.975   5.778  42.210  1.00  0.00    -0.003 C 
ATOM     30  C   UNL     1      29.086   6.978  41.274  1.00  0.00     0.004 C 
ENDBRANCH  28  29
ENDBRANCH  27  28
ENDBRANCH  26  27
ENDBRANCH  25  26
ENDBRANCH  24  25
ENDBRANCH  23  24
ENDBRANCH  22  23
ENDBRANCH  21  22
ENDBRANCH  20  21
ENDBRANCH  19  20
ENDBRANCH  18  19
ENDBRANCH  17  18
ENDBRANCH   1  17
TORSDOF 26
ENDMDL
MODEL 2
REMARK VINA RESULT:    14.947      3.258     10.623
REMARK INTER + INTRA:          35.666
REMARK INTER:                  37.822
REMARK INTRA:                  -2.156
REMARK UNBOUND:                -2.001
REMARK SMILES CCCCCCCCCCCCCCCCCCCCCCCCCCCC(=O)[O-]
REMARK SMILES IDX 15 1 16 2 17 3 18 4 19 5 20 6 21 7 22 8 23 9 24 10 25 11
REMARK SMILES IDX 26 12 27 13 28 14 29 15 30 16 14 17 13 18 12 19 11 20 10 21
REMARK SMILES IDX 9 22 8 23 7 24 6 25 5 26 4 27 3 28 2 29 1 30
REMARK H PARENT
REMARK Flexibility Score: inf
ROOT
ATOM      1  C   UNL     1      33.384  12.183  39.991  1.00  0.00     0.000 C 
ENDROOT
BRANCH   1   2
ATOM      2  C   UNL     1      32.845  11.185  41.029  1.00  0.00     0.000 C 
BRANCH   2   3
ATOM      3  C   UNL     1      32.657   9.795  40.412  1.00  0.00     0.000 C 
BRANCH   3   4
ATOM      4  C   UNL     1      33.757   9.496  39.382  1.00  0.00     0.000 C 
BRANCH   4   5
ATOM      5  C   UNL     1      35.128   9.260  40.033  1.00  0.00     0.000 C 
BRANCH   5   6
ATOM      6  C   UNL     1      35.026   8.538  41.387  1.00  0.00     0.000 C 
BRANCH   6   7
ATOM      7  C   UNL     1      36.071   7.418  41.552  1.00  0.00     0.000 C 
BRANCH   7   8
ATOM      8  C   UNL     1      35.494   5.992  41.598  1.00  0.00     0.000 C 
BRANCH   8   9
ATOM      9  C   UNL     1      34.260   5.810  40.702  1.00  0.00     0.000 C 
BRANCH   9  10
ATOM     10  C   UNL     1      33.055   5.322  41.520  1.00  0.00     0.000 C 
BRANCH  10  11
ATOM     11  C   UNL     1      32.120   4.409  40.710  1.00  0.00     0.000 C 
BRANCH  11  12
ATOM     12  C   UNL     1      30.699   4.347  41.297  1.00  0.00     0.006 C 
BRANCH  12  13
ATOM     13  C   UNL     1      30.414   5.517  42.248  1.00  0.00     0.053 C 
BRANCH  13  14
ATOM     14  C   UNL     1      29.091   6.159  41.958  1.00  0.00     0.041 C 
ATOM     15  O   UNL     1      28.020   5.550  42.220  1.00  0.00    -0.550 OA
ATOM     16  O   UNL     1      29.041   7.446  41.437  1.00  0.00    -0.550 OA
ENDBRANCH  13  14
ENDBRANCH  12  13
ENDBRANCH  11  12
ENDBRANCH  10  11
ENDBRANCH   9  10
ENDBRANCH   8   9
ENDBRANCH   7   8
ENDBRANCH   6   7
ENDBRANCH   5   6
ENDBRANCH   4   5
ENDBRANCH   3   4
ENDBRANCH   2   3
ENDBRANCH   1   2
BRANCH   1  17
ATOM     17  C   UNL     1      34.668  12.901  40.458  1.00  0.00     0.000 C 
BRANCH  17  18
ATOM     18  C   UNL     1      34.810  13.017  41.987  1.00  0.00     0.000 C 
BRANCH  18  19
ATOM     19  C   UNL     1      36.229  13.320  42.504  1.00  0.00     0.000 C 
BRANCH  19  20
ATOM     20  C   UNL     1      36.316  14.421  43.577  1.00  0.00     0.000 C 
BRANCH  20  21
ATOM     21  C   UNL     1      34.984  15.151  43.802  1.00  0.00     0.000 C 
BRANCH  21  22
ATOM     22  C   UNL     1      35.130  16.650  43.512  1.00  0.00    -0.000 C 
BRANCH  22  23
ATOM     23  C   UNL     1      33.961  17.166  42.663  1.00  0.00    -0.000 C 
BRANCH  23  24
ATOM     24  C   UNL     1      34.465  17.793  41.358  1.00  0.00    -0.000 C 
BRANCH  24  25
ATOM     25  C   UNL     1      34.193  16.870  40.161  1.00  0.00    -0.000 C 
BRANCH  25  26
ATOM     26  C   UNL     1      33.884  17.650  38.874  1.00  0.00    -0.000 C 
BRANCH  26  27
ATOM     27  C   UNL     1      32.460  18.235  38.862  1.00  0.00    -0.000 C 
BRANCH  27  28
ATOM     28  C   UNL     1      31.856  18.284  37.451  1.00  0.00    -0.000 C 
BRANCH  28  29
ATOM     29  C   UNL     1      30.610  19.178  37.372  1.00  0.00    -0.003 C 
ATOM     30  C   UNL     1      30.843  20.509  38.081  1.00  0.00     0.004 C 
ENDBRANCH  28  29
ENDBRANCH  27  28
ENDBRANCH  26  27
ENDBRANCH  25  26
ENDBRANCH  24  25
ENDBRANCH  23  24
ENDBRANCH  22  23
ENDBRANCH  21  22
ENDBRANCH  20  21
ENDBRANCH  19  20
ENDBRANCH  18  19
ENDBRANCH  17  18
ENDBRANCH   1  17
TORSDOF 26
ENDMDL
MODEL 3
REMARK VINA RESULT:    15.334      0.767      1.351
REMARK INTER + INTRA:          36.640
REMARK INTER:                  39.045
REMARK INTRA:                  -2.405
REMARK UNBOUND:                -2.001
REMARK SMILES CCCCCCCCCCCCCCCCCCCCCCCCCCCC(=O)[O-]
REMARK SMILES IDX 15 1 16 2 17 3 18 4 19 5 20 6 21 7 22 8 23 9 24 10 25 11
REMARK SMILES IDX 26 12 27 13 28 14 29 15 30 16 14 17 13 18 12 19 11 20 10 21
REMARK SMILES IDX 9 22 8 23 7 24 6 25 5 26 4 27 3 28 2 29 1 30
REMARK H PARENT
REMARK Flexibility Score: inf
ROOT
ATOM      1  C   UNL     1      33.172  12.333  39.993  1.00  0.00     0.000 C 
ENDROOT
BRANCH   1   2
ATOM      2  C   UNL     1      34.504  13.044  40.279  1.00  0.00     0.000 C 
BRANCH   2   3
ATOM      3  C   UNL     1      35.172  12.478  41.538  1.00  0.00     0.000 C 
BRANCH   3   4
ATOM      4  C   UNL     1      35.187  13.520  42.668  1.00  0.00     0.000 C 
BRANCH   4   5
ATOM      5  C   UNL     1      36.608  13.967  43.042  1.00  0.00     0.000 C 
BRANCH   5   6
ATOM      6  C   UNL     1      36.623  15.257  43.878  1.00  0.00     0.000 C 
BRANCH   6   7
ATOM      7  C   UNL     1      35.304  16.048  43.788  1.00  0.00     0.000 C 
BRANCH   7   8
ATOM      8  C   UNL     1      35.460  17.530  43.406  1.00  0.00     0.000 C 
BRANCH   8   9
ATOM      9  C   UNL     1      34.223  18.107  42.701  1.00  0.00     0.000 C 
BRANCH   9  10
ATOM     10  C   UNL     1      33.842  17.256  41.480  1.00  0.00     0.000 C 
BRANCH  10  11
ATOM     11  C   UNL     1      34.408  17.819  40.166  1.00  0.00     0.000 C 
BRANCH  11  12
ATOM     12  C   UNL     1      33.452  17.624  38.976  1.00  0.00     0.006 C 
BRANCH  12  13
ATOM     13  C   UNL     1      32.418  18.753  38.875  1.00  0.00     0.053 C 
BRANCH  13  14
ATOM     14  C   UNL     1      31.456  18.526  37.748  1.00  0.00     0.041 C 
ATOM     15  O   UNL     1      31.376  17.394  37.202  1.00  0.00    -0.550 OA
ATOM     16  O   UNL     1      30.620  19.553  37.328  1.00  0.00    -0.550 OA
ENDBRANCH  13  14
ENDBRANCH  12  13
ENDBRANCH  11  12
ENDBRANCH  10  11
ENDBRANCH   9  10
ENDBRANCH   8   9
ENDBRANCH   7   8
ENDBRANCH   6   7
ENDBRANCH   5   6
ENDBRANCH   4   5
ENDBRANCH   3   4
ENDBRANCH   2   3
ENDBRANCH   1   2
BRANCH   1  17
ATOM     17  C   UNL     1      32.676  11.484  41.183  1.00  0.00     0.000 C 
BRANCH  17  18
ATOM     18  C   UNL     1      32.502   9.987  40.864  1.00  0.00     0.000 C 
BRANCH  18  19
ATOM     19  C   UNL     1      33.071   9.523  39.510  1.00  0.00     0.000 C 
BRANCH  19  20
ATOM     20  C   UNL     1      34.201   8.480  39.595  1.00  0.00     0.000 C 
BRANCH  20  21
ATOM     21  C   UNL     1      35.085   8.648  40.840  1.00  0.00     0.000 C 
BRANCH  21  22
ATOM     22  C   UNL     1      35.342   7.293  41.510  1.00  0.00    -0.000 C 
BRANCH  22  23
ATOM     23  C   UNL     1      34.637   6.159  40.755  1.00  0.00    -0.000 C 
BRANCH  23  24
ATOM     24  C   UNL     1      33.507   5.556  41.598  1.00  0.00    -0.000 C 
BRANCH  24  25
ATOM     25  C   UNL     1      32.509   4.791  40.716  1.00  0.00    -0.000 C 
BRANCH  25  26
ATOM     26  C   UNL     1      31.108   4.714  41.342  1.00  0.00    -0.000 C 
BRANCH  26  27
ATOM     27  C   UNL     1      30.602   6.082  41.834  1.00  0.00    -0.000 C 
BRANCH  27  28
ATOM     28  C   UNL     1      29.070   6.149  41.914  1.00  0.00    -0.000 C 
BRANCH  28  29
ATOM     29  C   UNL     1      28.442   4.815  42.343  1.00  0.00    -0.003 C 
ATOM     30  C   UNL     1      26.998   4.705  41.859  1.00  0.00     0.004 C 
ENDBRANCH  28  29
ENDBRANCH  27  28
ENDBRANCH  26  27
ENDBRANCH  25  26
ENDBRANCH  24  25
ENDBRANCH  23  24
ENDBRANCH  22  23
ENDBRANCH  21  22
ENDBRANCH  20  21
ENDBRANCH  19  20
ENDBRANCH  18  19
ENDBRANCH  17  18
ENDBRANCH   1  17
TORSDOF 26
ENDMDL
MODEL 4
REMARK VINA RESULT:    15.635      3.271     10.439
REMARK INTER + INTRA:          37.398
REMARK INTER:                  39.659
REMARK INTRA:                  -2.261
REMARK UNBOUND:                -2.001
REMARK SMILES CCCCCCCCCCCCCCCCCCCCCCCCCCCC(=O)[O-]
REMARK SMILES IDX 15 1 16 2 17 3 18 4 19 5 20 6 21 7 22 8 23 9 24 10 25 11
REMARK SMILES IDX 26 12 27 13 28 14 29 15 30 16 14 17 13 18 12 19 11 20 10 21
REMARK SMILES IDX 9 22 8 23 7 24 6 25 5 26 4 27 3 28 2 29 1 30
REMARK H PARENT
REMARK Flexibility Score: inf
ROOT
ATOM      1  C   UNL     1      32.747  12.134  41.181  1.00  0.00     0.000 C 
ENDROOT
BRANCH   1   2
ATOM      2  C   UNL     1      32.558  10.610  41.248  1.00  0.00     0.000 C 
BRANCH   2   3
ATOM      3  C   UNL     1      32.668   9.979  39.855  1.00  0.00     0.000 C 
BRANCH   3   4
ATOM      4  C   UNL     1      33.972   9.178  39.715  1.00  0.00     0.000 C 
BRANCH   4   5
ATOM      5  C   UNL     1      34.864   9.278  40.961  1.00  0.00     0.000 C 
BRANCH   5   6
ATOM      6  C   UNL     1      36.046   8.294  40.924  1.00  0.00     0.000 C 
BRANCH   6   7
ATOM      7  C   UNL     1      35.998   7.255  42.060  1.00  0.00     0.000 C 
BRANCH   7   8
ATOM      8  C   UNL     1      35.681   5.817  41.612  1.00  0.00     0.000 C 
BRANCH   8   9
ATOM      9  C   UNL     1      34.424   5.720  40.736  1.00  0.00     0.000 C 
BRANCH   9  10
ATOM     10  C   UNL     1      33.264   5.076  41.511  1.00  0.00     0.000 C 
BRANCH  10  11
ATOM     11  C   UNL     1      31.916   5.216  40.784  1.00  0.00     0.000 C 
BRANCH  11  12
ATOM     12  C   UNL     1      30.779   4.459  41.493  1.00  0.00     0.006 C 
BRANCH  12  13
ATOM     13  C   UNL     1      30.074   5.328  42.543  1.00  0.00     0.053 C 
BRANCH  13  14
ATOM     14  C   UNL     1      28.885   6.037  41.970  1.00  0.00     0.041 C 
ATOM     15  O   UNL     1      27.758   5.477  41.955  1.00  0.00    -0.550 OA
ATOM     16  O   UNL     1      29.014   7.335  41.489  1.00  0.00    -0.550 OA
ENDBRANCH  13  14
ENDBRANCH  12  13
ENDBRANCH  11  12
ENDBRANCH  10  11
ENDBRANCH   9  10
ENDBRANCH   8   9
ENDBRANCH   7   8
ENDBRANCH   6   7
ENDBRANCH   5   6
ENDBRANCH   4   5
ENDBRANCH   3   4
ENDBRANCH   2   3
ENDBRANCH   1   2
BRANCH   1  17
ATOM     17  C   UNL     1      33.728  12.570  40.073  1.00  0.00     0.000 C 
BRANCH  17  18
ATOM     18  C   UNL     1      35.119  12.989  40.586  1.00  0.00     0.000 C 
BRANCH  18  19
ATOM     19  C   UNL     1      35.307  12.943  42.114  1.00  0.00     0.000 C 
BRANCH  19  20
ATOM     20  C   UNL     1      36.598  13.602  42.636  1.00  0.00     0.000 C 
BRANCH  20  21
ATOM     21  C   UNL     1      36.332  14.798  43.562  1.00  0.00     0.000 C 
BRANCH  21  22
ATOM     22  C   UNL     1      34.835  15.131  43.601  1.00  0.00    -0.000 C 
BRANCH  22  23
ATOM     23  C   UNL     1      34.608  16.641  43.746  1.00  0.00    -0.000 C 
BRANCH  23  24
ATOM     24  C   UNL     1      34.918  17.372  42.434  1.00  0.00    -0.000 C 
BRANCH  24  25
ATOM     25  C   UNL     1      33.787  17.177  41.412  1.00  0.00    -0.000 C 
BRANCH  25  26
ATOM     26  C   UNL     1      34.066  17.891  40.081  1.00  0.00    -0.000 C 
BRANCH  26  27
ATOM     27  C   UNL     1      32.913  17.737  39.073  1.00  0.00    -0.000 C 
BRANCH  27  28
ATOM     28  C   UNL     1      32.311  19.088  38.659  1.00  0.00    -0.000 C 
BRANCH  28  29
ATOM     29  C   UNL     1      31.062  18.933  37.779  1.00  0.00    -0.003 C 
ATOM     30  C   UNL     1      31.078  17.603  37.030  1.00  0.00     0.004 C 
ENDBRANCH  28  29
ENDBRANCH  27  28
ENDBRANCH  26  27
ENDBRANCH  25  26
ENDBRANCH  24  25
ENDBRANCH  23  24
ENDBRANCH  22  23
ENDBRANCH  21  22
ENDBRANCH  20  21
ENDBRANCH  19  20
ENDBRANCH  18  19
ENDBRANCH  17  18
ENDBRANCH   1  17
TORSDOF 26
ENDMDL
MODEL 5
REMARK VINA RESULT:    16.047      3.374     10.700
REMARK INTER + INTRA:          38.437
REMARK INTER:                  40.380
REMARK INTRA:                  -1.943
REMARK UNBOUND:                -2.001
REMARK SMILES CCCCCCCCCCCCCCCCCCCCCCCCCCCC(=O)[O-]
REMARK SMILES IDX 15 1 16 2 17 3 18 4 19 5 20 6 21 7 22 8 23 9 24 10 25 11
REMARK SMILES IDX 26 12 27 13 28 14 29 15 30 16 14 17 13 18 12 19 11 20 10 21
REMARK SMILES IDX 9 22 8 23 7 24 6 25 5 26 4 27 3 28 2 29 1 30
REMARK H PARENT
REMARK Flexibility Score: inf
ROOT
ATOM      1  C   UNL     1      35.147  13.002  42.364  1.00  0.00     0.000 C 
ENDROOT
BRANCH   1   2
ATOM      2  C   UNL     1      35.182  12.551  40.896  1.00  0.00     0.000 C 
BRANCH   2   3
ATOM      3  C   UNL     1      33.965  13.078  40.127  1.00  0.00     0.000 C 
BRANCH   3   4
ATOM      4  C   UNL     1      33.020  11.931  39.739  1.00  0.00     0.000 C 
BRANCH   4   5
ATOM      5  C   UNL     1      32.681  11.016  40.925  1.00  0.00     0.000 C 
BRANCH   5   6
ATOM      6  C   UNL     1      33.631   9.811  41.035  1.00  0.00     0.000 C 
BRANCH   6   7
ATOM      7  C   UNL     1      34.006   9.214  39.666  1.00  0.00     0.000 C 
BRANCH   7   8
ATOM      8  C   UNL     1      34.140   7.681  39.640  1.00  0.00     0.000 C 
BRANCH   8   9
ATOM      9  C   UNL     1      34.758   7.107  40.924  1.00  0.00     0.000 C 
BRANCH   9  10
ATOM     10  C   UNL     1      34.275   5.669  41.169  1.00  0.00     0.000 C 
BRANCH  10  11
ATOM     11  C   UNL     1      32.817   5.452  40.732  1.00  0.00     0.000 C 
BRANCH  11  12
ATOM     12  C   UNL     1      31.831   5.496  41.913  1.00  0.00     0.006 C 
BRANCH  12  13
ATOM     13  C   UNL     1      30.473   4.878  41.555  1.00  0.00     0.053 C 
BRANCH  13  14
ATOM     14  C   UNL     1      29.334   5.727  42.032  1.00  0.00     0.041 C 
ATOM     15  O   UNL     1      28.540   5.291  42.906  1.00  0.00    -0.550 OA
ATOM     16  O   UNL     1      29.174   7.017  41.541  1.00  0.00    -0.550 OA
ENDBRANCH  13  14
ENDBRANCH  12  13
ENDBRANCH  11  12
ENDBRANCH  10  11
ENDBRANCH   9  10
ENDBRANCH   8   9
ENDBRANCH   7   8
ENDBRANCH   6   7
ENDBRANCH   5   6
ENDBRANCH   4   5
ENDBRANCH   3   4
ENDBRANCH   2   3
ENDBRANCH   1   2
BRANCH   1  17
ATOM     17  C   UNL     1      36.489  13.596  42.843  1.00  0.00     0.000 C 
BRANCH  17  18
ATOM     18  C   UNL     1      36.355  14.916  43.626  1.00  0.00     0.000 C 
BRANCH  18  19
ATOM     19  C   UNL     1      34.934  15.506  43.699  1.00  0.00     0.000 C 
BRANCH  19  20
ATOM     20  C   UNL     1      34.843  16.931  44.276  1.00  0.00     0.000 C 
BRANCH  20  21
ATOM     21  C   UNL     1      36.085  17.783  43.976  1.00  0.00     0.000 C 
BRANCH  21  22
ATOM     22  C   UNL     1      35.765  18.859  42.930  1.00  0.00    -0.000 C 
BRANCH  22  23
ATOM     23  C   UNL     1      34.387  18.625  42.299  1.00  0.00    -0.000 C 
BRANCH  23  24
ATOM     24  C   UNL     1      34.498  18.480  40.776  1.00  0.00    -0.000 C 
BRANCH  24  25
ATOM     25  C   UNL     1      34.150  17.051  40.332  1.00  0.00    -0.000 C 
BRANCH  25  26
ATOM     26  C   UNL     1      33.535  17.005  38.925  1.00  0.00    -0.000 C 
BRANCH  26  27
ATOM     27  C   UNL     1      32.712  18.262  38.596  1.00  0.00    -0.000 C 
BRANCH  27  28
ATOM     28  C   UNL     1      31.676  18.014  37.489  1.00  0.00    -0.000 C 
BRANCH  28  29
ATOM     29  C   UNL     1      30.576  19.085  37.458  1.00  0.00    -0.003 C 
ATOM     30  C   UNL     1      31.039  20.369  38.141  1.00  0.00     0.004 C 
ENDBRANCH  28  29
ENDBRANCH  27  28
ENDBRANCH  26  27
ENDBRANCH  25  26
ENDBRANCH  24  25
ENDBRANCH  23  24
ENDBRANCH  22  23
ENDBRANCH  21  22
ENDBRANCH  20  21
ENDBRANCH  19  20
ENDBRANCH  18  19
ENDBRANCH  17  18
ENDBRANCH   1  17
TORSDOF 26
ENDMDL
MODEL 6
REMARK VINA RESULT:    16.150      2.719     10.225
REMARK INTER + INTRA:          38.696
REMARK INTER:                  40.597
REMARK INTRA:                  -1.901
REMARK UNBOUND:                -2.001
REMARK SMILES CCCCCCCCCCCCCCCCCCCCCCCCCCCC(=O)[O-]
REMARK SMILES IDX 15 1 16 2 17 3 18 4 19 5 20 6 21 7 22 8 23 9 24 10 25 11
REMARK SMILES IDX 26 12 27 13 28 14 29 15 30 16 14 17 13 18 12 19 11 20 10 21
REMARK SMILES IDX 9 22 8 23 7 24 6 25 5 26 4 27 3 28 2 29 1 30
REMARK H PARENT
REMARK Flexibility Score: inf
ROOT
ATOM      1  C   UNL     1      32.891  10.951  40.880  1.00  0.00     0.000 C 
ENDROOT
BRANCH   1   2
ATOM      2  C   UNL     1      32.790   9.650  40.068  1.00  0.00     0.000 C 
BRANCH   2   3
ATOM      3  C   UNL     1      34.167   8.996  39.900  1.00  0.00     0.000 C 
BRANCH   3   4
ATOM      4  C   UNL     1      34.029   7.502  39.569  1.00  0.00     0.000 C 
BRANCH   4   5
ATOM      5  C   UNL     1      34.158   6.606  40.809  1.00  0.00     0.000 C 
BRANCH   5   6
ATOM      6  C   UNL     1      33.255   5.363  40.739  1.00  0.00     0.000 C 
BRANCH   6   7
ATOM      7  C   UNL     1      32.143   5.367  41.806  1.00  0.00     0.000 C 
BRANCH   7   8
ATOM      8  C   UNL     1      30.763   4.902  41.306  1.00  0.00     0.000 C 
BRANCH   8   9
ATOM      9  C   UNL     1      29.618   5.280  42.257  1.00  0.00     0.000 C 
BRANCH   9  10
ATOM     10  C   UNL     1      28.833   6.487  41.718  1.00  0.00     0.000 C 
BRANCH  10  11
ATOM     11  C   UNL     1      29.730   7.494  40.981  1.00  0.00     0.000 C 
BRANCH  11  12
ATOM     12  C   UNL     1      28.944   8.378  39.996  1.00  0.00     0.006 C 
BRANCH  12  13
ATOM     13  C   UNL     1      29.508   8.299  38.571  1.00  0.00     0.053 C 
BRANCH  13  14
ATOM     14  C   UNL     1      28.458   8.589  37.542  1.00  0.00     0.041 C 
ATOM     15  O   UNL     1      27.730   9.611  37.649  1.00  0.00    -0.550 OA
ATOM     16  O   UNL     1      28.312   7.753  36.442  1.00  0.00    -0.550 OA
ENDBRANCH  13  14
ENDBRANCH  12  13
ENDBRANCH  11  12
ENDBRANCH  10  11
ENDBRANCH   9  10
ENDBRANCH   8   9
ENDBRANCH   7   8
ENDBRANCH   6   7
ENDBRANCH   5   6
ENDBRANCH   4   5
ENDBRANCH   3   4
ENDBRANCH   2   3
ENDBRANCH   1   2
BRANCH   1  17
ATOM     17  C   UNL     1      33.414  12.140  40.045  1.00  0.00     0.000 C 
BRANCH  17  18
ATOM     18  C   UNL     1      34.730  12.750  40.566  1.00  0.00     0.000 C 
BRANCH  18  19
ATOM     19  C   UNL     1      34.677  13.333  41.990  1.00  0.00     0.000 C 
BRANCH  19  20
ATOM     20  C   UNL     1      36.018  13.337  42.748  1.00  0.00     0.000 C 
BRANCH  20  21
ATOM     21  C   UNL     1      36.266  14.636  43.529  1.00  0.00     0.000 C 
BRANCH  21  22
ATOM     22  C   UNL     1      35.067  15.584  43.399  1.00  0.00    -0.000 C 
BRANCH  22  23
ATOM     23  C   UNL     1      35.426  16.998  43.871  1.00  0.00    -0.000 C 
BRANCH  23  24
ATOM     24  C   UNL     1      34.858  18.057  42.919  1.00  0.00    -0.000 C 
BRANCH  24  25
ATOM     25  C   UNL     1      34.135  17.401  41.733  1.00  0.00    -0.000 C 
BRANCH  25  26
ATOM     26  C   UNL     1      34.149  18.282  40.474  1.00  0.00    -0.000 C 
BRANCH  26  27
ATOM     27  C   UNL     1      33.623  17.545  39.229  1.00  0.00    -0.000 C 
BRANCH  27  28
ATOM     28  C   UNL     1      32.168  17.913  38.900  1.00  0.00    -0.000 C 
BRANCH  28  29
ATOM     29  C   UNL     1      32.057  18.873  37.706  1.00  0.00    -0.003 C 
ATOM     30  C   UNL     1      30.602  19.244  37.432  1.00  0.00     0.004 C 
ENDBRANCH  28  29
ENDBRANCH  27  28
ENDBRANCH  26  27
ENDBRANCH  25  26
ENDBRANCH  24  25
ENDBRANCH  23  24
ENDBRANCH  22  23
ENDBRANCH  21  22
ENDBRANCH  20  21
ENDBRANCH  19  20
ENDBRANCH  18  19
ENDBRANCH  17  18
ENDBRANCH   1  17
TORSDOF 26
ENDMDL
MODEL 7
REMARK VINA RESULT:    16.286      1.868      3.683
REMARK INTER + INTRA:          39.038
REMARK INTER:                  41.087
REMARK INTRA:                  -2.048
REMARK UNBOUND:                -2.001
REMARK SMILES CCCCCCCCCCCCCCCCCCCCCCCCCCCC(=O)[O-]
REMARK SMILES IDX 15 1 16 2 17 3 18 4 19 5 20 6 21 7 22 8 23 9 24 10 25 11
REMARK SMILES IDX 26 12 27 13 28 14 29 15 30 16 14 17 13 18 12 19 11 20 10 21
REMARK SMILES IDX 9 22 8 23 7 24 6 25 5 26 4 27 3 28 2 29 1 30
REMARK H PARENT
REMARK Flexibility Score: inf
ROOT
ATOM      1  C   UNL     1      33.175  10.642  39.811  1.00  0.00     0.000 C 
ENDROOT
BRANCH   1   2
ATOM      2  C   UNL     1      32.486  10.733  41.182  1.00  0.00     0.000 C 
BRANCH   2   3
ATOM      3  C   UNL     1      33.400  11.401  42.216  1.00  0.00     0.000 C 
BRANCH   3   4
ATOM      4  C   UNL     1      34.688  11.920  41.557  1.00  0.00     0.000 C 
BRANCH   4   5
ATOM      5  C   UNL     1      34.960  13.399  41.871  1.00  0.00     0.000 C 
BRANCH   5   6
ATOM      6  C   UNL     1      36.247  13.605  42.688  1.00  0.00     0.000 C 
BRANCH   6   7
ATOM      7  C   UNL     1      36.211  14.877  43.555  1.00  0.00     0.000 C 
BRANCH   7   8
ATOM      8  C   UNL     1      34.843  15.581  43.619  1.00  0.00     0.000 C 
BRANCH   8   9
ATOM      9  C   UNL     1      34.802  16.895  42.825  1.00  0.00     0.000 C 
BRANCH   9  10
ATOM     10  C   UNL     1      33.891  16.763  41.594  1.00  0.00     0.000 C 
BRANCH  10  11
ATOM     11  C   UNL     1      34.334  17.664  40.430  1.00  0.00     0.000 C 
BRANCH  11  12
ATOM     12  C   UNL     1      33.407  17.551  39.207  1.00  0.00     0.006 C 
BRANCH  12  13
ATOM     13  C   UNL     1      32.380  18.690  39.153  1.00  0.00     0.053 C 
BRANCH  13  14
ATOM     14  C   UNL     1      31.583  18.659  37.884  1.00  0.00     0.041 C 
ATOM     15  O   UNL     1      30.793  19.600  37.608  1.00  0.00    -0.550 OA
ATOM     16  O   UNL     1      31.743  17.610  36.987  1.00  0.00    -0.550 OA
ENDBRANCH  13  14
ENDBRANCH  12  13
ENDBRANCH  11  12
ENDBRANCH  10  11
ENDBRANCH   9  10
ENDBRANCH   8   9
ENDBRANCH   7   8
ENDBRANCH   6   7
ENDBRANCH   5   6
ENDBRANCH   4   5
ENDBRANCH   3   4
ENDBRANCH   2   3
ENDBRANCH   1   2
BRANCH   1  17
ATOM     17  C   UNL     1      33.809   9.259  39.548  1.00  0.00     0.000 C 
BRANCH  17  18
ATOM     18  C   UNL     1      33.302   8.141  40.479  1.00  0.00     0.000 C 
BRANCH  18  19
ATOM     19  C   UNL     1      34.048   6.798  40.375  1.00  0.00     0.000 C 
BRANCH  19  20
ATOM     20  C   UNL     1      33.498   5.670  41.269  1.00  0.00     0.000 C 
BRANCH  20  21
ATOM     21  C   UNL     1      32.204   5.047  40.726  1.00  0.00     0.000 C 
BRANCH  21  22
ATOM     22  C   UNL     1      31.140   4.957  41.827  1.00  0.00    -0.000 C 
BRANCH  22  23
ATOM     23  C   UNL     1      29.743   5.260  41.273  1.00  0.00    -0.000 C 
BRANCH  23  24
ATOM     24  C   UNL     1      29.174   6.544  41.889  1.00  0.00    -0.000 C 
BRANCH  24  25
ATOM     25  C   UNL     1      29.429   7.754  40.979  1.00  0.00    -0.000 C 
BRANCH  25  26
ATOM     26  C   UNL     1      28.900   7.541  39.553  1.00  0.00    -0.000 C 
BRANCH  26  27
ATOM     27  C   UNL     1      29.242   8.711  38.612  1.00  0.00    -0.000 C 
BRANCH  27  28
ATOM     28  C   UNL     1      28.354   8.735  37.359  1.00  0.00    -0.000 C 
BRANCH  28  29
ATOM     29  C   UNL     1      27.909   7.332  36.922  1.00  0.00    -0.003 C 
ATOM     30  C   UNL     1      28.173   7.110  35.435  1.00  0.00     0.004 C 
ENDBRANCH  28  29
ENDBRANCH  27  28
ENDBRANCH  26  27
ENDBRANCH  25  26
ENDBRANCH  24  25
ENDBRANCH  23  24
ENDBRANCH  22  23
ENDBRANCH  21  22
ENDBRANCH  20  21
ENDBRANCH  19  20
ENDBRANCH  18  19
ENDBRANCH  17  18
ENDBRANCH   1  17
TORSDOF 26
ENDMDL
MODEL 8
REMARK VINA RESULT:    16.620      3.990     10.877
REMARK INTER + INTRA:          39.880
REMARK INTER:                  41.437
REMARK INTRA:                  -1.557
REMARK UNBOUND:                -2.001
REMARK SMILES CCCCCCCCCCCCCCCCCCCCCCCCCCCC(=O)[O-]
REMARK SMILES IDX 15 1 16 2 17 3 18 4 19 5 20 6 21 7 22 8 23 9 24 10 25 11
REMARK SMILES IDX 26 12 27 13 28 14 29 15 30 16 14 17 13 18 12 19 11 20 10 21
REMARK SMILES IDX 9 22 8 23 7 24 6 25 5 26 4 27 3 28 2 29 1 30
REMARK H PARENT
REMARK Flexibility Score: inf
ROOT
ATOM      1  C   UNL     1      32.989  11.932  39.797  1.00  0.00     0.000 C 
ENDROOT
BRANCH   1   2
ATOM      2  C   UNL     1      33.239  10.615  40.550  1.00  0.00     0.000 C 
BRANCH   2   3
ATOM      3  C   UNL     1      34.026   9.625  39.683  1.00  0.00     0.000 C 
BRANCH   3   4
ATOM      4  C   UNL     1      34.330   8.335  40.460  1.00  0.00     0.000 C 
BRANCH   4   5
ATOM      5  C   UNL     1      35.550   8.474  41.383  1.00  0.00     0.000 C 
BRANCH   5   6
ATOM      6  C   UNL     1      35.974   7.135  42.010  1.00  0.00     0.000 C 
BRANCH   6   7
ATOM      7  C   UNL     1      35.567   5.917  41.160  1.00  0.00     0.000 C 
BRANCH   7   8
ATOM      8  C   UNL     1      34.326   5.159  41.665  1.00  0.00     0.000 C 
BRANCH   8   9
ATOM      9  C   UNL     1      33.164   5.164  40.660  1.00  0.00     0.000 C 
BRANCH   9  10
ATOM     10  C   UNL     1      31.953   4.401  41.220  1.00  0.00     0.000 C 
BRANCH  10  11
ATOM     11  C   UNL     1      30.617   5.085  40.885  1.00  0.00     0.000 C 
BRANCH  11  12
ATOM     12  C   UNL     1      30.100   5.968  42.035  1.00  0.00     0.006 C 
BRANCH  12  13
ATOM     13  C   UNL     1      28.576   6.144  41.987  1.00  0.00     0.053 C 
BRANCH  13  14
ATOM     14  C   UNL     1      27.861   4.836  42.145  1.00  0.00     0.041 C 
ATOM     15  O   UNL     1      28.416   3.879  42.745  1.00  0.00    -0.550 OA
ATOM     16  O   UNL     1      26.565   4.689  41.666  1.00  0.00    -0.550 OA
ENDBRANCH  13  14
ENDBRANCH  12  13
ENDBRANCH  11  12
ENDBRANCH  10  11
ENDBRANCH   9  10
ENDBRANCH   8   9
ENDBRANCH   7   8
ENDBRANCH   6   7
ENDBRANCH   5   6
ENDBRANCH   4   5
ENDBRANCH   3   4
ENDBRANCH   2   3
ENDBRANCH   1   2
BRANCH   1  17
ATOM     17  C   UNL     1      34.080  12.992  40.063  1.00  0.00     0.000 C 
BRANCH  17  18
ATOM     18  C   UNL     1      35.096  12.597  41.151  1.00  0.00     0.000 C 
BRANCH  18  19
ATOM     19  C   UNL     1      35.034  13.421  42.451  1.00  0.00     0.000 C 
BRANCH  19  20
ATOM     20  C   UNL     1      36.398  13.873  43.008  1.00  0.00     0.000 C 
BRANCH  20  21
ATOM     21  C   UNL     1      36.301  15.114  43.906  1.00  0.00     0.000 C 
BRANCH  21  22
ATOM     22  C   UNL     1      34.952  15.818  43.715  1.00  0.00    -0.000 C 
BRANCH  22  23
ATOM     23  C   UNL     1      35.108  17.343  43.779  1.00  0.00    -0.000 C 
BRANCH  23  24
ATOM     24  C   UNL     1      34.969  17.968  42.386  1.00  0.00    -0.000 C 
BRANCH  24  25
ATOM     25  C   UNL     1      33.761  17.386  41.638  1.00  0.00    -0.000 C 
BRANCH  25  26
ATOM     26  C   UNL     1      34.088  17.023  40.182  1.00  0.00    -0.000 C 
BRANCH  26  27
ATOM     27  C   UNL     1      33.882  18.204  39.216  1.00  0.00    -0.000 C 
BRANCH  27  28
ATOM     28  C   UNL     1      32.403  18.588  39.063  1.00  0.00    -0.000 C 
BRANCH  28  29
ATOM     29  C   UNL     1      31.749  17.942  37.833  1.00  0.00    -0.003 C 
ATOM     30  C   UNL     1      30.839  18.931  37.110  1.00  0.00     0.004 C 
ENDBRANCH  28  29
ENDBRANCH  27  28
ENDBRANCH  26  27
ENDBRANCH  25  26
ENDBRANCH  24  25
ENDBRANCH  23  24
ENDBRANCH  22  23
ENDBRANCH  21  22
ENDBRANCH  20  21
ENDBRANCH  19  20
ENDBRANCH  18  19
ENDBRANCH  17  18
ENDBRANCH   1  17
TORSDOF 26
ENDMDL
MODEL 9
REMARK VINA RESULT:    16.668      2.268      3.820
REMARK INTER + INTRA:          40.003
REMARK INTER:                  41.334
REMARK INTRA:                  -1.331
REMARK UNBOUND:                -2.001
REMARK SMILES CCCCCCCCCCCCCCCCCCCCCCCCCCCC(=O)[O-]
REMARK SMILES IDX 15 1 16 2 17 3 18 4 19 5 20 6 21 7 22 8 23 9 24 10 25 11
REMARK SMILES IDX 26 12 27 13 28 14 29 15 30 16 14 17 13 18 12 19 11 20 10 21
REMARK SMILES IDX 9 22 8 23 7 24 6 25 5 26 4 27 3 28 2 29 1 30
REMARK H PARENT
REMARK Flexibility Score: inf
ROOT
ATOM      1  C   UNL     1      33.024  11.561  40.609  1.00  0.00     0.000 C 
ENDROOT
BRANCH   1   2
ATOM      2  C   UNL     1      33.847  12.723  40.031  1.00  0.00     0.000 C 
BRANCH   2   3
ATOM      3  C   UNL     1      35.203  12.843  40.736  1.00  0.00     0.000 C 
BRANCH   3   4
ATOM      4  C   UNL     1      35.024  13.232  42.211  1.00  0.00     0.000 C 
BRANCH   4   5
ATOM      5  C   UNL     1      36.345  13.637  42.882  1.00  0.00     0.000 C 
BRANCH   5   6
ATOM      6  C   UNL     1      36.198  14.878  43.779  1.00  0.00     0.000 C 
BRANCH   6   7
ATOM      7  C   UNL     1      34.852  15.602  43.589  1.00  0.00     0.000 C 
BRANCH   7   8
ATOM      8  C   UNL     1      34.898  17.124  43.809  1.00  0.00     0.000 C 
BRANCH   8   9
ATOM      9  C   UNL     1      35.137  17.916  42.514  1.00  0.00     0.000 C 
BRANCH   9  10
ATOM     10  C   UNL     1      34.056  17.596  41.469  1.00  0.00     0.000 C 
BRANCH  10  11
ATOM     11  C   UNL     1      34.320  18.279  40.117  1.00  0.00     0.000 C 
BRANCH  11  12
ATOM     12  C   UNL     1      33.337  17.826  39.023  1.00  0.00     0.006 C 
BRANCH  12  13
ATOM     13  C   UNL     1      32.025  18.620  39.060  1.00  0.00     0.053 C 
BRANCH  13  14
ATOM     14  C   UNL     1      31.355  18.647  37.719  1.00  0.00     0.041 C 
ATOM     15  O   UNL     1      30.985  17.574  37.174  1.00  0.00    -0.550 OA
ATOM     16  O   UNL     1      31.101  19.861  37.092  1.00  0.00    -0.550 OA
ENDBRANCH  13  14
ENDBRANCH  12  13
ENDBRANCH  11  12
ENDBRANCH  10  11
ENDBRANCH   9  10
ENDBRANCH   8   9
ENDBRANCH   7   8
ENDBRANCH   6   7
ENDBRANCH   5   6
ENDBRANCH   4   5
ENDBRANCH   3   4
ENDBRANCH   2   3
ENDBRANCH   1   2
BRANCH   1  17
ATOM     17  C   UNL     1      33.681  10.184  40.375  1.00  0.00     0.000 C 
BRANCH  17  18
ATOM     18  C   UNL     1      32.681   9.042  40.108  1.00  0.00     0.000 C 
BRANCH  18  19
ATOM     19  C   UNL     1      31.275   9.234  40.707  1.00  0.00     0.000 C 
BRANCH  19  20
ATOM     20  C   UNL     1      30.234   8.179  40.287  1.00  0.00     0.000 C 
BRANCH  20  21
ATOM     21  C   UNL     1      29.551   7.498  41.482  1.00  0.00     0.000 C 
BRANCH  21  22
ATOM     22  C   UNL     1      29.864   5.996  41.502  1.00  0.00    -0.000 C 
BRANCH  22  23
ATOM     23  C   UNL     1      28.708   5.181  40.908  1.00  0.00    -0.000 C 
BRANCH  23  24
ATOM     24  C   UNL     1      28.239   5.783  39.578  1.00  0.00    -0.000 C 
BRANCH  24  25
ATOM     25  C   UNL     1      28.539   4.835  38.407  1.00  0.00    -0.000 C 
BRANCH  25  26
ATOM     26  C   UNL     1      27.379   4.752  37.404  1.00  0.00    -0.000 C 
BRANCH  26  27
ATOM     27  C   UNL     1      27.539   5.733  36.229  1.00  0.00    -0.000 C 
BRANCH  27  28
ATOM     28  C   UNL     1      28.344   6.984  36.613  1.00  0.00    -0.000 C 
BRANCH  28  29
ATOM     29  C   UNL     1      27.462   8.231  36.766  1.00  0.00    -0.003 C 
ATOM     30  C   UNL     1      28.260   9.403  37.330  1.00  0.00     0.004 C 
ENDBRANCH  28  29
ENDBRANCH  27  28
ENDBRANCH  26  27
ENDBRANCH  25  26
ENDBRANCH  24  25
ENDBRANCH  23  24
ENDBRANCH  22  23
ENDBRANCH  21  22
ENDBRANCH  20  21
ENDBRANCH  19  20
ENDBRANCH  18  19
ENDBRANCH  17  18
ENDBRANCH   1  17
TORSDOF 26
ENDMDL
