MODEL 1
REMARK VINA RESULT:    -5.847      0.000      0.000
REMARK INTER + INTRA:          -7.042
REMARK INTER:                  -6.873
REMARK INTRA:                  -0.170
REMARK UNBOUND:                -0.170
REMARK SMILES COc1ccc(C=CC(=O)[O-])cc1
REMARK SMILES IDX 6 1 5 2 12 3 4 4 13 5 3 6 7 7 8 8 9 9 10 10 11 11 2 12 1 13
REMARK H PARENT
REMARK Flexibility Score: inf
ROOT
ATOM      1  C   UNL     1      14.089  15.653  28.726  1.00  0.00    -0.025 A 
ATOM      2  C   UNL     1      14.821  15.204  27.615  1.00  0.00     0.012 A 
ATOM      3  C   UNL     1      13.313  16.822  28.601  1.00  0.00     0.012 A 
ATOM      4  C   UNL     1      14.801  15.920  26.415  1.00  0.00     0.047 A 
ATOM      5  C   UNL     1      13.295  17.535  27.399  1.00  0.00     0.047 A 
ATOM      6  C   UNL     1      14.043  17.089  26.294  1.00  0.00     0.118 A 
ENDROOT
BRANCH   1   7
ATOM      7  C   UNL     1      14.134  14.853  29.976  1.00  0.00     0.010 C 
ATOM      8  C   UNL     1      15.154  14.049  30.309  1.00  0.00     0.025 C 
BRANCH   8   9
ATOM      9  C   UNL     1      15.158  13.260  31.552  1.00  0.00     0.064 C 
ATOM     10  O   UNL     1      14.714  13.738  32.630  1.00  0.00    -0.545 OA
ATOM     11  O   UNL     1      15.664  11.966  31.538  1.00  0.00    -0.545 OA
ENDBRANCH   8   9
ENDBRANCH   1   7
BRANCH   6  12
ATOM     12  O   UNL     1      14.059  17.771  25.069  1.00  0.00    -0.497 OA
ATOM     13  C   UNL     1      13.138  17.538  24.008  1.00  0.00     0.278 C 
ENDBRANCH   6  12
TORSDOF 3
ENDMDL
MODEL 2
REMARK VINA RESULT:    -5.322      2.072      3.243
REMARK INTER + INTRA:          -6.425
REMARK INTER:                  -6.264
REMARK INTRA:                  -0.161
REMARK UNBOUND:                -0.170
REMARK SMILES COc1ccc(C=CC(=O)[O-])cc1
REMARK SMILES IDX 6 1 5 2 12 3 4 4 13 5 3 6 7 7 8 8 9 9 10 10 11 11 2 12 1 13
REMARK H PARENT
REMARK Flexibility Score: inf
ROOT
ATOM      1  C   UNL     1      13.793  16.375  25.827  1.00  0.00    -0.025 A 
ATOM      2  C   UNL     1      14.318  17.439  25.076  1.00  0.00     0.012 A 
ATOM      3  C   UNL     1      12.585  15.781  25.410  1.00  0.00     0.012 A 
ATOM      4  C   UNL     1      13.643  17.916  23.949  1.00  0.00     0.047 A 
ATOM      5  C   UNL     1      11.912  16.261  24.282  1.00  0.00     0.047 A 
ATOM      6  C   UNL     1      12.437  17.336  23.543  1.00  0.00     0.118 A 
ENDROOT
BRANCH   1   7
ATOM      7  C   UNL     1      14.552  15.898  27.009  1.00  0.00     0.010 C 
ATOM      8  C   UNL     1      13.976  15.459  28.137  1.00  0.00     0.025 C 
BRANCH   8   9
ATOM      9  C   UNL     1      14.763  15.003  29.296  1.00  0.00     0.064 C 
ATOM     10  O   UNL     1      14.206  14.480  30.298  1.00  0.00    -0.545 OA
ATOM     11  O   UNL     1      16.143  15.156  29.284  1.00  0.00    -0.545 OA
ENDBRANCH   8   9
ENDBRANCH   1   7
BRANCH   6  12
ATOM     12  O   UNL     1      11.798  17.853  22.406  1.00  0.00    -0.497 OA
ATOM     13  C   UNL     1      12.433  18.050  21.147  1.00  0.00     0.278 C 
ENDBRANCH   6  12
TORSDOF 3
ENDMDL
MODEL 3
REMARK VINA RESULT:    -5.100      1.234      6.409
REMARK INTER + INTRA:          -6.164
REMARK INTER:                  -6.001
REMARK INTRA:                  -0.164
REMARK UNBOUND:                -0.170
REMARK SMILES COc1ccc(C=CC(=O)[O-])cc1
REMARK SMILES IDX 6 1 5 2 12 3 4 4 13 5 3 6 7 7 8 8 9 9 10 10 11 11 2 12 1 13
REMARK H PARENT
REMARK Flexibility Score: inf
ROOT
ATOM      1  C   UNL     1      14.320  16.238  27.525  1.00  0.00    -0.025 A 
ATOM      2  C   UNL     1      13.237  16.207  28.418  1.00  0.00     0.012 A 
ATOM      3  C   UNL     1      15.481  15.503  27.838  1.00  0.00     0.012 A 
ATOM      4  C   UNL     1      13.319  15.481  29.609  1.00  0.00     0.047 A 
ATOM      5  C   UNL     1      15.559  14.778  29.031  1.00  0.00     0.047 A 
ATOM      6  C   UNL     1      14.476  14.764  29.929  1.00  0.00     0.118 A 
ENDROOT
BRANCH   1   7
ATOM      7  C   UNL     1      14.181  17.015  26.267  1.00  0.00     0.010 C 
ATOM      8  C   UNL     1      13.467  16.600  25.210  1.00  0.00     0.025 C 
BRANCH   8   9
ATOM      9  C   UNL     1      13.362  17.392  23.974  1.00  0.00     0.064 C 
ATOM     10  O   UNL     1      14.310  18.125  23.586  1.00  0.00    -0.545 OA
ATOM     11  O   UNL     1      12.194  17.335  23.225  1.00  0.00    -0.545 OA
ENDBRANCH   8   9
ENDBRANCH   1   7
BRANCH   6  12
ATOM     12  O   UNL     1      14.509  14.053  31.137  1.00  0.00    -0.497 OA
ATOM     13  C   UNL     1      15.392  12.970  31.409  1.00  0.00     0.278 C 
ENDBRANCH   6  12
TORSDOF 3
ENDMDL
MODEL 4
REMARK VINA RESULT:    -4.964      1.689      6.662
REMARK INTER + INTRA:          -6.004
REMARK INTER:                  -5.841
REMARK INTRA:                  -0.163
REMARK UNBOUND:                -0.170
REMARK SMILES COc1ccc(C=CC(=O)[O-])cc1
REMARK SMILES IDX 6 1 5 2 12 3 4 4 13 5 3 6 7 7 8 8 9 9 10 10 11 11 2 12 1 13
REMARK H PARENT
REMARK Flexibility Score: inf
ROOT
ATOM      1  C   UNL     1      13.941  16.686  26.240  1.00  0.00    -0.025 A 
ATOM      2  C   UNL     1      14.399  15.381  26.484  1.00  0.00     0.012 A 
ATOM      3  C   UNL     1      13.607  17.505  27.336  1.00  0.00     0.012 A 
ATOM      4  C   UNL     1      14.496  14.895  27.790  1.00  0.00     0.047 A 
ATOM      5  C   UNL     1      13.706  17.015  28.642  1.00  0.00     0.047 A 
ATOM      6  C   UNL     1      14.151  15.702  28.879  1.00  0.00     0.118 A 
ENDROOT
BRANCH   1   7
ATOM      7  C   UNL     1      13.865  17.160  24.835  1.00  0.00     0.010 C 
ATOM      8  C   UNL     1      12.713  17.349  24.174  1.00  0.00     0.025 C 
BRANCH   8   9
ATOM      9  C   UNL     1      12.676  17.809  22.776  1.00  0.00     0.064 C 
ATOM     10  O   UNL     1      13.732  18.122  22.164  1.00  0.00    -0.545 OA
ATOM     11  O   UNL     1      11.455  17.903  22.121  1.00  0.00    -0.545 OA
ENDBRANCH   8   9
ENDBRANCH   1   7
BRANCH   6  12
ATOM     12  O   UNL     1      14.265  15.166  30.170  1.00  0.00    -0.497 OA
ATOM     13  C   UNL     1      14.987  13.980  30.486  1.00  0.00     0.278 C 
ENDBRANCH   6  12
TORSDOF 3
ENDMDL
MODEL 5
REMARK VINA RESULT:    -3.141      2.612      4.483
REMARK INTER + INTRA:          -3.861
REMARK INTER:                  -3.701
REMARK INTRA:                  -0.160
REMARK UNBOUND:                -0.170
REMARK SMILES COc1ccc(C=CC(=O)[O-])cc1
REMARK SMILES IDX 6 1 5 2 12 3 4 4 13 5 3 6 7 7 8 8 9 9 10 10 11 11 2 12 1 13
REMARK H PARENT
REMARK Flexibility Score: inf
ROOT
ATOM      1  C   UNL     1      13.682  17.294  24.854  1.00  0.00    -0.025 A 
ATOM      2  C   UNL     1      12.352  17.083  24.457  1.00  0.00     0.012 A 
ATOM      3  C   UNL     1      14.596  17.816  23.917  1.00  0.00     0.012 A 
ATOM      4  C   UNL     1      11.948  17.361  23.148  1.00  0.00     0.047 A 
ATOM      5  C   UNL     1      14.188  18.092  22.609  1.00  0.00     0.047 A 
ATOM      6  C   UNL     1      12.858  17.864  22.213  1.00  0.00     0.118 A 
ENDROOT
BRANCH   1   7
ATOM      7  C   UNL     1      14.060  16.994  26.258  1.00  0.00     0.010 C 
ATOM      8  C   UNL     1      14.544  15.810  26.661  1.00  0.00     0.025 C 
BRANCH   8   9
ATOM      9  C   UNL     1      14.897  15.544  28.066  1.00  0.00     0.064 C 
ATOM     10  O   UNL     1      14.832  14.381  28.547  1.00  0.00    -0.545 OA
ATOM     11  O   UNL     1      15.307  16.595  28.877  1.00  0.00    -0.545 OA
ENDBRANCH   8   9
ENDBRANCH   1   7
BRANCH   6  12
ATOM     12  O   UNL     1      12.402  18.125  20.913  1.00  0.00    -0.497 OA
ATOM     13  C   UNL     1      11.345  17.415  20.274  1.00  0.00     0.278 C 
ENDBRANCH   6  12
TORSDOF 3
ENDMDL
