MODEL 1
REMARK VINA RESULT:    15.989      0.000      0.000
REMARK INTER + INTRA:          31.028
REMARK INTER:                  26.270
REMARK INTRA:                   4.758
REMARK UNBOUND:                 4.758
REMARK SMILES C[C@@H]1O[C@H](OC[C@@H]2O[C@@H](Oc3c(-c4ccc(O)c(O)c4)oc4cc(O)cc(O)c4c3=O)[C@H](O)[C@H](O)[C@@H]2O)[C@@H](O)[C@H](O)[C@H]1O
REMARK SMILES IDX 7 1 36 2 34 3 32 4 9 5 8 6 6 7 5 8 4 9 1 10 2 11 42 12 3 13
REMARK SMILES IDX 40 14 38 15 43 16 41 18 39 20 37 22 35 24 10 26 11 27 12 28
REMARK SMILES IDX 30 29 21 30 29 31 31 32 22 33 27 34 23 35 26 36 24 37 13 38
REMARK SMILES IDX 20 39 14 40 18 41 15 42 16 43 19 44 17 46 28 48 25 50 33 52
REMARK H PARENT 43 17 41 19 39 21 37 23 35 25 19 45 17 47 28 49 25 51 33 53
REMARK Flexibility Score: inf
ROOT
ATOM      1  C   UNL     1      75.052  40.253  24.936  1.00  0.00     0.180 C 
ATOM      2  C   UNL     1      76.493  40.613  24.521  1.00  0.00     0.177 C 
ATOM      3  C   UNL     1      76.531  40.926  23.008  1.00  0.00     0.180 C 
ATOM      4  C   UNL     1      75.857  39.790  22.215  1.00  0.00     0.214 C 
ATOM      5  C   UNL     1      74.444  39.464  22.809  1.00  0.00     0.339 C 
ATOM      6  O   UNL     1      74.555  39.148  24.186  1.00  0.00    -0.332 OA
ENDROOT
BRANCH   1   7
ATOM      7  C   UNL     1      74.965  39.902  26.431  1.00  0.00     0.198 C 
BRANCH   7   8
ATOM      8  O   UNL     1      75.435  38.585  26.623  1.00  0.00    -0.347 OA
BRANCH   8   9
ATOM      9  C   UNL     1      76.717  38.528  27.241  1.00  0.00     0.281 C 
ATOM     10  C   UNL     1      75.039  41.125  28.407  1.00  0.00     0.041 C 
ATOM     11  C   UNL     1      75.964  40.028  28.943  1.00  0.00     0.150 C 
ATOM     12  C   UNL     1      75.164  38.810  29.480  1.00  0.00     0.174 C 
ATOM     13  O   UNL     1      76.963  39.724  27.968  1.00  0.00    -0.344 OA
ATOM     14  C   UNL     1      76.085  37.574  29.532  1.00  0.00     0.179 C 
ATOM     15  C   UNL     1      76.783  37.301  28.175  1.00  0.00     0.202 C 
BRANCH  12  16
ATOM     16  O   UNL     1      74.689  39.090  30.773  1.00  0.00    -0.388 OA
ATOM     17  H   UNL     1      74.103  38.325  31.037  1.00  0.00     0.211 HD
ENDBRANCH  12  16
BRANCH  14  18
ATOM     18  O   UNL     1      75.392  36.441  29.986  1.00  0.00    -0.387 OA
ATOM     19  H   UNL     1      75.322  35.815  29.216  1.00  0.00     0.211 HD
ENDBRANCH  14  18
BRANCH  15  20
ATOM     20  O   UNL     1      78.129  36.966  28.417  1.00  0.00    -0.385 OA
ATOM     21  H   UNL     1      78.132  36.050  28.807  1.00  0.00     0.211 HD
ENDBRANCH  15  20
ENDBRANCH   8   9
ENDBRANCH   7   8
ENDBRANCH   1   7
BRANCH   2  22
ATOM     22  O   UNL     1      77.346  39.540  24.835  1.00  0.00    -0.387 OA
ATOM     23  H   UNL     1      78.074  39.893  25.407  1.00  0.00     0.211 HD
ENDBRANCH   2  22
BRANCH   3  24
ATOM     24  O   UNL     1      77.862  41.087  22.569  1.00  0.00    -0.387 OA
ATOM     25  H   UNL     1      78.391  40.362  22.988  1.00  0.00     0.211 HD
ENDBRANCH   3  24
BRANCH   5  26
ATOM     26  O   UNL     1      73.405  40.455  22.617  1.00  0.00    -0.454 OA
BRANCH  26  27
ATOM     27  C   UNL     1      72.348  40.399  21.686  1.00  0.00     0.214 A 
ATOM     28  C   UNL     1      72.538  40.287  20.291  1.00  0.00     0.180 A 
ATOM     29  C   UNL     1      71.039  40.461  22.178  1.00  0.00     0.239 A 
ATOM     30  O   UNL     1      71.488  40.431  19.487  1.00  0.00    -0.452 OA
ATOM     31  C   UNL     1      69.954  40.657  21.294  1.00  0.00     0.111 A 
ATOM     32  O   UNL     1      70.850  40.316  23.415  1.00  0.00    -0.285 OA
ATOM     33  C   UNL     1      70.251  40.636  19.914  1.00  0.00     0.146 A 
ATOM     34  C   UNL     1      68.598  40.867  21.702  1.00  0.00     0.134 A 
ATOM     35  C   UNL     1      69.236  40.811  18.966  1.00  0.00     0.094 A 
ATOM     36  C   UNL     1      67.593  40.978  20.732  1.00  0.00     0.093 A 
ATOM     37  C   UNL     1      67.913  40.970  19.369  1.00  0.00     0.123 A 
BRANCH  28  38
ATOM     38  C   UNL     1      73.849  39.979  19.655  1.00  0.00     0.025 A 
ATOM     39  C   UNL     1      75.006  40.704  19.978  1.00  0.00     0.062 A 
ATOM     40  C   UNL     1      73.966  38.865  18.804  1.00  0.00     0.016 A 
ATOM     41  C   UNL     1      76.245  40.355  19.433  1.00  0.00     0.158 A 
ATOM     42  C   UNL     1      75.205  38.500  18.268  1.00  0.00     0.051 A 
ATOM     43  C   UNL     1      76.351  39.245  18.580  1.00  0.00     0.157 A 
BRANCH  41  44
ATOM     44  O   UNL     1      77.365  41.113  19.777  1.00  0.00    -0.504 OA
ATOM     45  H   UNL     1      77.336  41.788  20.539  1.00  0.00     0.293 HD
ENDBRANCH  41  44
BRANCH  43  46
ATOM     46  O   UNL     1      77.584  38.883  18.036  1.00  0.00    -0.504 OA
ATOM     47  H   UNL     1      77.906  37.914  18.041  1.00  0.00     0.293 HD
ENDBRANCH  43  46
ENDBRANCH  28  38
BRANCH  34  48
ATOM     48  O   UNL     1      68.211  41.016  23.038  1.00  0.00    -0.507 OA
ATOM     49  H   UNL     1      67.538  40.425  23.504  1.00  0.00     0.293 HD
ENDBRANCH  34  48
BRANCH  37  50
ATOM     50  O   UNL     1      66.919  41.124  18.403  1.00  0.00    -0.508 OA
ATOM     51  H   UNL     1      66.776  42.010  17.929  1.00  0.00     0.293 HD
ENDBRANCH  37  50
ENDBRANCH  26  27
ENDBRANCH   5  26
BRANCH   4  52
ATOM     52  O   UNL     1      76.709  38.662  22.244  1.00  0.00    -0.384 OA
ATOM     53  H   UNL     1      76.215  37.856  21.923  1.00  0.00     0.211 HD
ENDBRANCH   4  52
TORSDOF 16
ENDMDL
MODEL 2
REMARK VINA RESULT:    17.308      0.967      1.930
REMARK INTER + INTRA:          33.197
REMARK INTER:                  32.601
REMARK INTRA:                   0.596
REMARK UNBOUND:                 4.758
REMARK SMILES C[C@@H]1O[C@H](OC[C@@H]2O[C@@H](Oc3c(-c4ccc(O)c(O)c4)oc4cc(O)cc(O)c4c3=O)[C@H](O)[C@H](O)[C@@H]2O)[C@@H](O)[C@H](O)[C@H]1O
REMARK SMILES IDX 7 1 36 2 34 3 32 4 9 5 8 6 6 7 5 8 4 9 1 10 2 11 42 12 3 13
REMARK SMILES IDX 40 14 38 15 43 16 41 18 39 20 37 22 35 24 10 26 11 27 12 28
REMARK SMILES IDX 30 29 21 30 29 31 31 32 22 33 27 34 23 35 26 36 24 37 13 38
REMARK SMILES IDX 20 39 14 40 18 41 15 42 16 43 19 44 17 46 28 48 25 50 33 52
REMARK H PARENT 43 17 41 19 39 21 37 23 35 25 19 45 17 47 28 49 25 51 33 53
REMARK Flexibility Score: inf
ROOT
ATOM      1  C   UNL     1      75.272  40.080  24.887  1.00  0.00     0.180 C 
ATOM      2  C   UNL     1      76.644  40.447  24.286  1.00  0.00     0.177 C 
ATOM      3  C   UNL     1      76.495  40.683  22.766  1.00  0.00     0.180 C 
ATOM      4  C   UNL     1      75.762  39.494  22.116  1.00  0.00     0.214 C 
ATOM      5  C   UNL     1      74.438  39.170  22.888  1.00  0.00     0.339 C 
ATOM      6  O   UNL     1      74.719  38.927  24.256  1.00  0.00    -0.332 OA
ENDROOT
BRANCH   1   7
ATOM      7  C   UNL     1      75.371  39.804  26.397  1.00  0.00     0.198 C 
BRANCH   7   8
ATOM      8  O   UNL     1      75.625  38.431  26.598  1.00  0.00    -0.347 OA
BRANCH   8   9
ATOM      9  C   UNL     1      74.911  37.880  27.701  1.00  0.00     0.281 C 
ATOM     10  C   UNL     1      78.154  37.439  28.151  1.00  0.00     0.041 C 
ATOM     11  C   UNL     1      76.927  37.826  28.982  1.00  0.00     0.150 C 
ATOM     12  C   UNL     1      76.756  39.366  29.075  1.00  0.00     0.174 C 
ATOM     13  O   UNL     1      75.784  37.108  28.513  1.00  0.00    -0.344 OA
ATOM     14  C   UNL     1      75.299  39.698  29.461  1.00  0.00     0.179 C 
ATOM     15  C   UNL     1      74.271  39.021  28.520  1.00  0.00     0.202 C 
BRANCH  12  16
ATOM     16  O   UNL     1      77.624  39.880  30.054  1.00  0.00    -0.388 OA
ATOM     17  H   UNL     1      77.060  40.392  30.700  1.00  0.00     0.211 HD
ENDBRANCH  12  16
BRANCH  14  18
ATOM     18  O   UNL     1      75.093  41.085  29.529  1.00  0.00    -0.387 OA
ATOM     19  H   UNL     1      74.573  41.341  28.720  1.00  0.00     0.211 HD
ENDBRANCH  14  18
BRANCH  15  20
ATOM     20  O   UNL     1      73.215  38.506  29.298  1.00  0.00    -0.385 OA
ATOM     21  H   UNL     1      73.287  38.929  30.195  1.00  0.00     0.211 HD
ENDBRANCH  15  20
ENDBRANCH   8   9
ENDBRANCH   7   8
ENDBRANCH   1   7
BRANCH   2  22
ATOM     22  O   UNL     1      77.556  39.409  24.548  1.00  0.00    -0.387 OA
ATOM     23  H   UNL     1      77.310  38.642  23.971  1.00  0.00     0.211 HD
ENDBRANCH   2  22
BRANCH   3  24
ATOM     24  O   UNL     1      77.760  40.849  22.164  1.00  0.00    -0.387 OA
ATOM     25  H   UNL     1      78.185  41.628  22.603  1.00  0.00     0.211 HD
ENDBRANCH   3  24
BRANCH   5  26
ATOM     26  O   UNL     1      73.358  40.128  22.774  1.00  0.00    -0.454 OA
BRANCH  26  27
ATOM     27  C   UNL     1      72.356  40.154  21.783  1.00  0.00     0.214 A 
ATOM     28  C   UNL     1      72.625  40.208  20.397  1.00  0.00     0.180 A 
ATOM     29  C   UNL     1      71.020  40.129  22.202  1.00  0.00     0.239 A 
ATOM     30  O   UNL     1      71.618  40.419  19.556  1.00  0.00    -0.452 OA
ATOM     31  C   UNL     1      69.980  40.400  21.284  1.00  0.00     0.111 A 
ATOM     32  O   UNL     1      70.768  39.838  23.401  1.00  0.00    -0.285 OA
ATOM     33  C   UNL     1      70.353  40.544  19.930  1.00  0.00     0.146 A 
ATOM     34  C   UNL     1      68.598  40.529  21.634  1.00  0.00     0.134 A 
ATOM     35  C   UNL     1      69.386  40.802  18.951  1.00  0.00     0.094 A 
ATOM     36  C   UNL     1      67.645  40.727  20.627  1.00  0.00     0.093 A 
ATOM     37  C   UNL     1      68.039  40.884  19.293  1.00  0.00     0.123 A 
BRANCH  28  38
ATOM     38  C   UNL     1      73.978  40.007  19.807  1.00  0.00     0.025 A 
ATOM     39  C   UNL     1      74.462  38.724  19.510  1.00  0.00     0.062 A 
ATOM     40  C   UNL     1      74.744  41.123  19.424  1.00  0.00     0.016 A 
ATOM     41  C   UNL     1      75.701  38.553  18.885  1.00  0.00     0.158 A 
ATOM     42  C   UNL     1      75.976  40.960  18.784  1.00  0.00     0.051 A 
ATOM     43  C   UNL     1      76.461  39.673  18.512  1.00  0.00     0.157 A 
BRANCH  41  44
ATOM     44  O   UNL     1      76.144  37.257  18.619  1.00  0.00    -0.504 OA
ATOM     45  H   UNL     1      76.087  36.522  19.322  1.00  0.00     0.293 HD
ENDBRANCH  41  44
BRANCH  43  46
ATOM     46  O   UNL     1      77.695  39.515  17.880  1.00  0.00    -0.504 OA
ATOM     47  H   UNL     1      78.515  39.180  18.386  1.00  0.00     0.293 HD
ENDBRANCH  43  46
ENDBRANCH  28  38
BRANCH  34  48
ATOM     48  O   UNL     1      68.134  40.515  22.954  1.00  0.00    -0.507 OA
ATOM     49  H   UNL     1      67.268  40.938  23.256  1.00  0.00     0.293 HD
ENDBRANCH  34  48
BRANCH  37  50
ATOM     50  O   UNL     1      67.096  41.124  18.293  1.00  0.00    -0.508 OA
ATOM     51  H   UNL     1      66.247  40.572  18.225  1.00  0.00     0.293 HD
ENDBRANCH  37  50
ENDBRANCH  26  27
ENDBRANCH   5  26
BRANCH   4  52
ATOM     52  O   UNL     1      76.641  38.386  22.097  1.00  0.00    -0.384 OA
ATOM     53  H   UNL     1      77.229  38.407  22.902  1.00  0.00     0.211 HD
ENDBRANCH   4  52
TORSDOF 16
ENDMDL
