MODEL 1
REMARK VINA RESULT:    -5.961      0.000      0.000
REMARK INTER + INTRA:          -7.950
REMARK INTER:                  -9.097
REMARK INTRA:                   1.147
REMARK UNBOUND:                 1.147
REMARK SMILES CC1=CCC[C@@H](C)C(=O)C[C@H](C(C)C)C(=O)C1
REMARK SMILES IDX 8 1 9 2 6 3 7 4 5 5 4 6 3 7 2 8 1 9 10 11 11 12 15 13 16 14
REMARK SMILES IDX 17 15 12 17 13 18 14 19
REMARK H PARENT
REMARK Flexibility Score: 70.00
ROOT
ATOM      1  C   UNL     1      17.592  24.762   4.616  1.00  0.00     0.136 C 
ATOM      2  O   UNL     1      18.238  23.800   5.009  1.00  0.00    -0.299 OA
ENDROOT
BRANCH   1   3
ATOM      3  C   UNL     1      16.105  24.863   4.978  1.00  0.00     0.053 C 
ATOM      4  C   UNL     1      15.633  26.326   4.906  1.00  0.00     0.016 C 
BRANCH   3   5
ATOM      5  C   UNL     1      15.761  24.281   6.381  1.00  0.00     0.015 C 
BRANCH   5   6
ATOM      6  C   UNL     1      15.629  25.362   7.480  1.00  0.00     0.028 C 
BRANCH   6   7
ATOM      7  C   UNL     1      16.831  25.383   8.397  1.00  0.00    -0.028 C 
ATOM      8  C   UNL     1      17.956  26.122   8.227  1.00  0.00    -0.070 CG0
ATOM      9  C   UNL     1      19.023  26.034   9.288  1.00  0.00     0.039 C 
ATOM     10  G   UNL     1      18.190  27.057   7.054  1.00  0.00     0.000 G0
ENDBRANCH   6   7
ENDBRANCH   5   6
ENDBRANCH   3   5
ENDBRANCH   1   3
BRANCH   1  11
ATOM     11  C   UNL     1      18.324  25.804   3.805  1.00  0.00     0.087 C 
BRANCH  11  12
ATOM     12  C   UNL     1      19.161  26.881   4.574  1.00  0.00     0.066 C 
BRANCH  12  13
ATOM     13  C   UNL     1      19.169  26.505   6.053  1.00  0.00     0.140 C 
ATOM     14  O   UNL     1      20.052  25.764   6.464  1.00  0.00    -0.299 OA
BRANCH  13  15
ATOM     15  C   UNL     1      18.180  27.066   7.053  1.00  0.00     0.106 CG0
ATOM     16  G   UNL     1      17.969  26.122   8.222  1.00  0.00     0.000 G0
ENDBRANCH  13  15
ENDBRANCH  12  13
BRANCH  12  17
ATOM     17  C   UNL     1      20.588  27.264   4.035  1.00  0.00    -0.006 C 
ATOM     18  C   UNL     1      21.317  26.068   3.378  1.00  0.00     0.008 C 
ATOM     19  C   UNL     1      20.502  28.395   2.986  1.00  0.00     0.008 C 
ENDBRANCH  12  17
ENDBRANCH  11  12
ENDBRANCH   1  11
TORSDOF 1
ENDMDL
MODEL 2
REMARK VINA RESULT:    -5.245      1.532      3.490
REMARK INTER + INTRA:          -6.858
REMARK INTER:                  -7.041
REMARK INTRA:                   0.183
REMARK UNBOUND:                 1.147
REMARK SMILES CC1=CCC[C@@H](C)C(=O)C[C@H](C(C)C)C(=O)C1
REMARK SMILES IDX 8 1 9 2 6 3 7 4 5 5 4 6 3 7 2 8 1 9 10 11 11 12 15 13 16 14
REMARK SMILES IDX 17 15 12 17 13 18 14 19
REMARK H PARENT
REMARK Flexibility Score: 70.00
ROOT
ATOM      1  C   UNL     1      19.127  26.203   7.409  1.00  0.00     0.136 C 
ATOM      2  O   UNL     1      19.751  25.155   7.513  1.00  0.00    -0.299 OA
ENDROOT
BRANCH   1   3
ATOM      3  C   UNL     1      18.399  26.764   8.637  1.00  0.00     0.053 C 
ATOM      4  C   UNL     1      18.945  26.120   9.924  1.00  0.00     0.016 C 
BRANCH   3   5
ATOM      5  C   UNL     1      16.854  26.584   8.588  1.00  0.00     0.015 C 
BRANCH   5   6
ATOM      6  C   UNL     1      16.410  25.244   7.955  1.00  0.00     0.028 C 
BRANCH   6   7
ATOM      7  C   UNL     1      15.561  25.455   6.723  1.00  0.00    -0.028 C 
ATOM      8  C   UNL     1      15.905  25.142   5.448  1.00  0.00    -0.070 CG0
ATOM      9  C   UNL     1      14.889  25.392   4.363  1.00  0.00     0.039 C 
ATOM     10  G   UNL     1      17.235  24.525   5.054  1.00  0.00     0.000 G0
ENDBRANCH   6   7
ENDBRANCH   5   6
ENDBRANCH   3   5
ENDBRANCH   1   3
BRANCH   1  11
ATOM     11  C   UNL     1      19.135  26.884   6.062  1.00  0.00     0.087 C 
BRANCH  11  12
ATOM     12  C   UNL     1      19.426  26.009   4.796  1.00  0.00     0.066 C 
BRANCH  12  13
ATOM     13  C   UNL     1      18.093  25.488   4.266  1.00  0.00     0.140 C 
ATOM     14  O   UNL     1      17.736  25.828   3.145  1.00  0.00    -0.299 OA
BRANCH  13  15
ATOM     15  C   UNL     1      17.226  24.510   5.029  1.00  0.00     0.106 CG0
ATOM     16  G   UNL     1      15.909  25.137   5.447  1.00  0.00     0.000 G0
ENDBRANCH  13  15
ENDBRANCH  12  13
BRANCH  12  17
ATOM     17  C   UNL     1      20.346  26.593   3.663  1.00  0.00    -0.006 C 
ATOM     18  C   UNL     1      20.528  28.125   3.773  1.00  0.00     0.008 C 
ATOM     19  C   UNL     1      21.751  25.950   3.700  1.00  0.00     0.008 C 
ENDBRANCH  12  17
ENDBRANCH  11  12
ENDBRANCH   1  11
TORSDOF 1
ENDMDL
MODEL 3
REMARK VINA RESULT:    -5.241      1.725      4.581
REMARK INTER + INTRA:          -6.851
REMARK INTER:                  -7.161
REMARK INTRA:                   0.310
REMARK UNBOUND:                 1.147
REMARK SMILES CC1=CCC[C@@H](C)C(=O)C[C@H](C(C)C)C(=O)C1
REMARK SMILES IDX 8 1 9 2 6 3 7 4 5 5 4 6 3 7 2 8 1 9 10 11 11 12 15 13 16 14
REMARK SMILES IDX 17 15 12 17 13 18 14 19
REMARK H PARENT
REMARK Flexibility Score: 70.00
ROOT
ATOM      1  C   UNL     1      19.554  26.302   5.868  1.00  0.00     0.136 C 
ATOM      2  O   UNL     1      19.784  27.503   5.936  1.00  0.00    -0.299 OA
ENDROOT
BRANCH   1   3
ATOM      3  C   UNL     1      19.642  25.601   4.506  1.00  0.00     0.053 C 
ATOM      4  C   UNL     1      21.113  25.348   4.128  1.00  0.00     0.016 C 
BRANCH   3   5
ATOM      5  C   UNL     1      18.942  26.379   3.354  1.00  0.00     0.015 C 
BRANCH   5   6
ATOM      6  C   UNL     1      17.516  26.860   3.712  1.00  0.00     0.028 C 
BRANCH   6   7
ATOM      7  C   UNL     1      16.621  25.713   4.124  1.00  0.00    -0.028 C 
ATOM      8  C   UNL     1      16.008  25.567   5.325  1.00  0.00    -0.070 CG0
ATOM      9  C   UNL     1      15.115  24.368   5.518  1.00  0.00     0.039 C 
ATOM     10  G   UNL     1      16.138  26.553   6.472  1.00  0.00     0.000 G0
ENDBRANCH   6   7
ENDBRANCH   5   6
ENDBRANCH   3   5
ENDBRANCH   1   3
BRANCH   1  11
ATOM     11  C   UNL     1      19.213  25.587   7.153  1.00  0.00     0.087 C 
BRANCH  11  12
ATOM     12  C   UNL     1      18.209  26.278   8.136  1.00  0.00     0.066 C 
BRANCH  12  13
ATOM     13  C   UNL     1      16.793  25.925   7.689  1.00  0.00     0.140 C 
ATOM     14  O   UNL     1      16.140  25.149   8.374  1.00  0.00    -0.299 OA
BRANCH  13  15
ATOM     15  C   UNL     1      16.130  26.548   6.480  1.00  0.00     0.106 CG0
ATOM     16  G   UNL     1      16.013  25.561   5.334  1.00  0.00     0.000 G0
ENDBRANCH  13  15
ENDBRANCH  12  13
BRANCH  12  17
ATOM     17  C   UNL     1      18.421  26.105   9.685  1.00  0.00    -0.006 C 
ATOM     18  C   UNL     1      19.819  25.544  10.037  1.00  0.00     0.008 C 
ATOM     19  C   UNL     1      18.254  27.452  10.423  1.00  0.00     0.008 C 
ENDBRANCH  12  17
ENDBRANCH  11  12
ENDBRANCH   1  11
TORSDOF 1
ENDMDL
MODEL 4
REMARK VINA RESULT:    -4.984     18.875     21.528
REMARK INTER + INTRA:          -6.459
REMARK INTER:                  -6.446
REMARK INTRA:                  -0.013
REMARK UNBOUND:                 1.147
REMARK SMILES CC1=CCC[C@@H](C)C(=O)C[C@H](C(C)C)C(=O)C1
REMARK SMILES IDX 8 1 9 2 6 3 7 4 5 5 4 6 3 7 2 8 1 9 10 11 11 12 15 13 16 14
REMARK SMILES IDX 17 15 12 17 13 18 14 19
REMARK H PARENT
REMARK Flexibility Score: 70.00
ROOT
ATOM      1  C   UNL     1      30.582  14.452  -6.146  1.00  0.00     0.136 C 
ATOM      2  O   UNL     1      30.227  14.421  -4.974  1.00  0.00    -0.299 OA
ENDROOT
BRANCH   1   3
ATOM      3  C   UNL     1      30.692  13.137  -6.928  1.00  0.00     0.053 C 
ATOM      4  C   UNL     1      29.382  12.337  -6.819  1.00  0.00     0.016 C 
BRANCH   3   5
ATOM      5  C   UNL     1      31.881  12.238  -6.478  1.00  0.00     0.015 C 
BRANCH   5   6
ATOM      6  C   UNL     1      33.259  12.759  -6.949  1.00  0.00     0.028 C 
BRANCH   6   7
ATOM      7  C   UNL     1      34.005  13.465  -5.840  1.00  0.00    -0.028 C 
ATOM      8  C   UNL     1      34.245  14.798  -5.757  1.00  0.00    -0.070 CG0
ATOM      9  C   UNL     1      34.970  15.309  -4.539  1.00  0.00     0.039 C 
ATOM     10  G   UNL     1      33.798  15.808  -6.798  1.00  0.00     0.000 G0
ENDBRANCH   6   7
ENDBRANCH   5   6
ENDBRANCH   3   5
ENDBRANCH   1   3
BRANCH   1  11
ATOM     11  C   UNL     1      30.872  15.806  -6.747  1.00  0.00     0.087 C 
BRANCH  11  12
ATOM     12  C   UNL     1      31.530  16.893  -5.832  1.00  0.00     0.066 C 
BRANCH  12  13
ATOM     13  C   UNL     1      33.014  16.966  -6.179  1.00  0.00     0.140 C 
ATOM     14  O   UNL     1      33.634  17.981  -5.888  1.00  0.00    -0.299 OA
BRANCH  13  15
ATOM     15  C   UNL     1      33.775  15.814  -6.799  1.00  0.00     0.106 CG0
ATOM     16  G   UNL     1      34.249  14.827  -5.748  1.00  0.00     0.000 G0
ENDBRANCH  13  15
ENDBRANCH  12  13
BRANCH  12  17
ATOM     17  C   UNL     1      30.857  18.310  -5.730  1.00  0.00    -0.006 C 
ATOM     18  C   UNL     1      29.859  18.581  -6.881  1.00  0.00     0.008 C 
ATOM     19  C   UNL     1      30.090  18.468  -4.397  1.00  0.00     0.008 C 
ENDBRANCH  12  17
ENDBRANCH  11  12
ENDBRANCH   1  11
TORSDOF 1
ENDMDL
MODEL 5
REMARK VINA RESULT:    -4.863      1.566      4.104
REMARK INTER + INTRA:          -6.274
REMARK INTER:                  -6.703
REMARK INTRA:                   0.429
REMARK UNBOUND:                 1.147
REMARK SMILES CC1=CCC[C@@H](C)C(=O)C[C@H](C(C)C)C(=O)C1
REMARK SMILES IDX 8 1 9 2 6 3 7 4 5 5 4 6 3 7 2 8 1 9 10 11 11 12 15 13 16 14
REMARK SMILES IDX 17 15 12 17 13 18 14 19
REMARK H PARENT
REMARK Flexibility Score: 70.00
ROOT
ATOM      1  C   UNL     1      15.917  24.898   6.785  1.00  0.00     0.136 C 
ATOM      2  O   UNL     1      15.238  23.893   6.952  1.00  0.00    -0.299 OA
ENDROOT
BRANCH   1   3
ATOM      3  C   UNL     1      16.194  25.384   5.356  1.00  0.00     0.053 C 
ATOM      4  C   UNL     1      14.875  25.728   4.642  1.00  0.00     0.016 C 
BRANCH   3   5
ATOM      5  C   UNL     1      16.996  24.367   4.493  1.00  0.00     0.015 C 
BRANCH   5   6
ATOM      6  C   UNL     1      18.510  24.347   4.811  1.00  0.00     0.028 C 
BRANCH   6   7
ATOM      7  C   UNL     1      19.201  25.610   4.349  1.00  0.00    -0.028 C 
ATOM      8  C   UNL     1      19.829  26.515   5.140  1.00  0.00    -0.070 CG0
ATOM      9  C   UNL     1      20.499  27.688   4.473  1.00  0.00     0.039 C 
ATOM     10  G   UNL     1      19.929  26.399   6.651  1.00  0.00     0.000 G0
ENDBRANCH   6   7
ENDBRANCH   5   6
ENDBRANCH   3   5
ENDBRANCH   1   3
BRANCH   1  11
ATOM     11  C   UNL     1      16.423  25.606   8.018  1.00  0.00     0.087 C 
BRANCH  11  12
ATOM     12  C   UNL     1      17.967  25.618   8.280  1.00  0.00     0.066 C 
BRANCH  12  13
ATOM     13  C   UNL     1      18.598  26.636   7.333  1.00  0.00     0.140 C 
ATOM     14  O   UNL     1      18.029  27.705   7.160  1.00  0.00    -0.299 OA
BRANCH  13  15
ATOM     15  C   UNL     1      19.933  26.415   6.655  1.00  0.00     0.106 CG0
ATOM     16  G   UNL     1      19.821  26.527   5.146  1.00  0.00     0.000 G0
ENDBRANCH  13  15
ENDBRANCH  12  13
BRANCH  12  17
ATOM     17  C   UNL     1      18.487  25.757   9.757  1.00  0.00    -0.006 C 
ATOM     18  C   UNL     1      20.015  25.544   9.874  1.00  0.00     0.008 C 
ATOM     19  C   UNL     1      18.162  27.153  10.333  1.00  0.00     0.008 C 
ENDBRANCH  12  17
ENDBRANCH  11  12
ENDBRANCH   1  11
TORSDOF 1
ENDMDL
MODEL 6
REMARK VINA RESULT:    -4.584      1.806      3.120
REMARK INTER + INTRA:          -5.848
REMARK INTER:                  -7.898
REMARK INTRA:                   2.049
REMARK UNBOUND:                 1.147
REMARK SMILES CC1=CCC[C@@H](C)C(=O)C[C@H](C(C)C)C(=O)C1
REMARK SMILES IDX 8 1 9 2 6 3 7 4 5 5 4 6 3 7 2 8 1 9 10 11 11 12 15 13 16 14
REMARK SMILES IDX 17 15 12 17 13 18 14 19
REMARK H PARENT
REMARK Flexibility Score: 70.00
ROOT
ATOM      1  C   UNL     1      18.644  26.504   7.085  1.00  0.00     0.136 C 
ATOM      2  O   UNL     1      19.270  25.647   7.696  1.00  0.00    -0.299 OA
ENDROOT
BRANCH   1   3
ATOM      3  C   UNL     1      17.186  26.781   7.469  1.00  0.00     0.053 C 
ATOM      4  C   UNL     1      16.748  25.854   8.617  1.00  0.00     0.016 C 
BRANCH   3   5
ATOM      5  C   UNL     1      16.187  26.637   6.284  1.00  0.00     0.015 C 
BRANCH   5   6
ATOM      6  C   UNL     1      15.732  25.180   6.034  1.00  0.00     0.028 C 
BRANCH   6   7
ATOM      7  C   UNL     1      16.907  24.244   5.860  1.00  0.00    -0.028 C 
ATOM      8  C   UNL     1      17.773  24.231   4.816  1.00  0.00    -0.070 CG0
ATOM      9  C   UNL     1      18.911  23.243   4.857  1.00  0.00     0.039 C 
ATOM     10  G   UNL     1      17.688  25.173   3.629  1.00  0.00     0.000 G0
ENDBRANCH   6   7
ENDBRANCH   5   6
ENDBRANCH   3   5
ENDBRANCH   1   3
BRANCH   1  11
ATOM     11  C   UNL     1      19.374  27.247   5.992  1.00  0.00     0.087 C 
BRANCH  11  12
ATOM     12  C   UNL     1      19.757  26.460   4.694  1.00  0.00     0.066 C 
BRANCH  12  13
ATOM     13  C   UNL     1      18.527  26.412   3.791  1.00  0.00     0.140 C 
ATOM     14  O   UNL     1      18.243  27.407   3.137  1.00  0.00    -0.299 OA
BRANCH  13  15
ATOM     15  C   UNL     1      17.686  25.168   3.607  1.00  0.00     0.106 CG0
ATOM     16  G   UNL     1      17.781  24.245   4.809  1.00  0.00     0.000 G0
ENDBRANCH  13  15
ENDBRANCH  12  13
BRANCH  12  17
ATOM     17  C   UNL     1      21.066  26.859   3.920  1.00  0.00    -0.006 C 
ATOM     18  C   UNL     1      21.610  25.712   3.036  1.00  0.00     0.008 C 
ATOM     19  C   UNL     1      20.822  28.081   3.007  1.00  0.00     0.008 C 
ENDBRANCH  12  17
ENDBRANCH  11  12
ENDBRANCH   1  11
TORSDOF 1
ENDMDL
MODEL 7
REMARK VINA RESULT:    -4.553      1.663      4.278
REMARK INTER + INTRA:          -5.802
REMARK INTER:                  -6.320
REMARK INTRA:                   0.518
REMARK UNBOUND:                 1.147
REMARK SMILES CC1=CCC[C@@H](C)C(=O)C[C@H](C(C)C)C(=O)C1
REMARK SMILES IDX 8 1 9 2 6 3 7 4 5 5 4 6 3 7 2 8 1 9 10 11 11 12 15 13 16 14
REMARK SMILES IDX 17 15 12 17 13 18 14 19
REMARK H PARENT
REMARK Flexibility Score: 70.00
ROOT
ATOM      1  C   UNL     1      15.992  25.511   7.467  1.00  0.00     0.136 C 
ATOM      2  O   UNL     1      15.657  24.609   8.224  1.00  0.00    -0.299 OA
ENDROOT
BRANCH   1   3
ATOM      3  C   UNL     1      15.248  25.685   6.137  1.00  0.00     0.053 C 
ATOM      4  C   UNL     1      15.021  24.318   5.467  1.00  0.00     0.016 C 
BRANCH   3   5
ATOM      5  C   UNL     1      15.969  26.634   5.135  1.00  0.00     0.015 C 
BRANCH   5   6
ATOM      6  C   UNL     1      16.517  25.907   3.884  1.00  0.00     0.028 C 
BRANCH   6   7
ATOM      7  C   UNL     1      17.955  26.278   3.600  1.00  0.00    -0.028 C 
ATOM      8  C   UNL     1      19.036  25.915   4.334  1.00  0.00    -0.070 CG0
ATOM      9  C   UNL     1      20.395  26.353   3.851  1.00  0.00     0.039 C 
ATOM     10  G   UNL     1      18.965  25.067   5.592  1.00  0.00     0.000 G0
ENDBRANCH   6   7
ENDBRANCH   5   6
ENDBRANCH   3   5
ENDBRANCH   1   3
BRANCH   1  11
ATOM     11  C   UNL     1      17.117  26.411   7.916  1.00  0.00     0.087 C 
BRANCH  11  12
ATOM     12  C   UNL     1      18.530  25.771   8.135  1.00  0.00     0.066 C 
BRANCH  12  13
ATOM     13  C   UNL     1      19.311  25.895   6.830  1.00  0.00     0.140 C 
ATOM     14  O   UNL     1      20.276  26.647   6.794  1.00  0.00    -0.299 OA
BRANCH  13  15
ATOM     15  C   UNL     1      18.995  25.074   5.598  1.00  0.00     0.106 CG0
ATOM     16  G   UNL     1      19.029  25.920   4.338  1.00  0.00     0.000 G0
ENDBRANCH  13  15
ENDBRANCH  12  13
BRANCH  12  17
ATOM     17  C   UNL     1      19.372  26.199   9.392  1.00  0.00    -0.006 C 
ATOM     18  C   UNL     1      18.553  27.039  10.401  1.00  0.00     0.008 C 
ATOM     19  C   UNL     1      19.917  24.964  10.143  1.00  0.00     0.008 C 
ENDBRANCH  12  17
ENDBRANCH  11  12
ENDBRANCH   1  11
TORSDOF 1
ENDMDL
MODEL 8
REMARK VINA RESULT:    -3.619      1.624      4.016
REMARK INTER + INTRA:          -4.376
REMARK INTER:                  -5.201
REMARK INTRA:                   0.824
REMARK UNBOUND:                 1.147
REMARK SMILES CC1=CCC[C@@H](C)C(=O)C[C@H](C(C)C)C(=O)C1
REMARK SMILES IDX 8 1 9 2 6 3 7 4 5 5 4 6 3 7 2 8 1 9 10 11 11 12 15 13 16 14
REMARK SMILES IDX 17 15 12 17 13 18 14 19
REMARK H PARENT
REMARK Flexibility Score: 70.00
ROOT
ATOM      1  C   UNL     1      18.674  26.145   4.442  1.00  0.00     0.136 C 
ATOM      2  O   UNL     1      18.404  25.400   3.509  1.00  0.00    -0.299 OA
ENDROOT
BRANCH   1   3
ATOM      3  C   UNL     1      20.145  26.452   4.752  1.00  0.00     0.053 C 
ATOM      4  C   UNL     1      21.059  25.388   4.119  1.00  0.00     0.016 C 
BRANCH   3   5
ATOM      5  C   UNL     1      20.457  26.558   6.273  1.00  0.00     0.015 C 
BRANCH   5   6
ATOM      6  C   UNL     1      19.832  25.417   7.111  1.00  0.00     0.028 C 
BRANCH   6   7
ATOM      7  C   UNL     1      19.798  25.752   8.584  1.00  0.00    -0.028 C 
ATOM      8  C   UNL     1      18.691  25.819   9.366  1.00  0.00    -0.070 CG0
ATOM      9  C   UNL     1      18.880  26.125  10.830  1.00  0.00     0.039 C 
ATOM     10  G   UNL     1      17.281  25.570   8.864  1.00  0.00     0.000 G0
ENDBRANCH   6   7
ENDBRANCH   5   6
ENDBRANCH   3   5
ENDBRANCH   1   3
BRANCH   1  11
ATOM     11  C   UNL     1      17.520  26.729   5.219  1.00  0.00     0.087 C 
BRANCH  11  12
ATOM     12  C   UNL     1      16.787  25.809   6.253  1.00  0.00     0.066 C 
BRANCH  12  13
ATOM     13  C   UNL     1      16.974  26.417   7.641  1.00  0.00     0.140 C 
ATOM     14  O   UNL     1      16.817  27.623   7.778  1.00  0.00    -0.299 OA
BRANCH  13  15
ATOM     15  C   UNL     1      17.269  25.587   8.872  1.00  0.00     0.106 CG0
ATOM     16  G   UNL     1      18.682  25.818   9.377  1.00  0.00     0.000 G0
ENDBRANCH  13  15
ENDBRANCH  12  13
BRANCH  12  17
ATOM     17  C   UNL     1      15.301  25.381   5.971  1.00  0.00    -0.006 C 
ATOM     18  C   UNL     1      14.958  25.375   4.462  1.00  0.00     0.008 C 
ATOM     19  C   UNL     1      15.015  23.966   6.523  1.00  0.00     0.008 C 
ENDBRANCH  12  17
ENDBRANCH  11  12
ENDBRANCH   1  11
TORSDOF 1
ENDMDL
MODEL 9
REMARK VINA RESULT:    -3.514     18.782     21.306
REMARK INTER + INTRA:          -4.216
REMARK INTER:                  -5.123
REMARK INTRA:                   0.907
REMARK UNBOUND:                 1.147
REMARK SMILES CC1=CCC[C@@H](C)C(=O)C[C@H](C(C)C)C(=O)C1
REMARK SMILES IDX 8 1 9 2 6 3 7 4 5 5 4 6 3 7 2 8 1 9 10 11 11 12 15 13 16 14
REMARK SMILES IDX 17 15 12 17 13 18 14 19
REMARK H PARENT
REMARK Flexibility Score: 70.00
ROOT
ATOM      1  C   UNL     1      34.201  14.871  -5.626  1.00  0.00     0.136 C 
ATOM      2  O   UNL     1      34.773  13.820  -5.369  1.00  0.00    -0.299 OA
ENDROOT
BRANCH   1   3
ATOM      3  C   UNL     1      34.552  16.129  -4.822  1.00  0.00     0.053 C 
ATOM      4  C   UNL     1      34.558  15.818  -3.315  1.00  0.00     0.016 C 
BRANCH   3   5
ATOM      5  C   UNL     1      33.601  17.332  -5.094  1.00  0.00     0.015 C 
BRANCH   5   6
ATOM      6  C   UNL     1      32.313  17.304  -4.238  1.00  0.00     0.028 C 
BRANCH   6   7
ATOM      7  C   UNL     1      31.197  18.104  -4.870  1.00  0.00    -0.028 C 
ATOM      8  C   UNL     1      30.714  17.950  -6.129  1.00  0.00    -0.070 CG0
ATOM      9  C   UNL     1      29.560  18.822  -6.552  1.00  0.00     0.039 C 
ATOM     10  G   UNL     1      31.240  16.930  -7.122  1.00  0.00     0.000 G0
ENDBRANCH   6   7
ENDBRANCH   5   6
ENDBRANCH   3   5
ENDBRANCH   1   3
BRANCH   1  11
ATOM     11  C   UNL     1      33.189  14.853  -6.747  1.00  0.00     0.087 C 
BRANCH  11  12
ATOM     12  C   UNL     1      31.731  14.392  -6.415  1.00  0.00     0.066 C 
BRANCH  12  13
ATOM     13  C   UNL     1      30.779  15.523  -6.795  1.00  0.00     0.140 C 
ATOM     14  O   UNL     1      29.575  15.307  -6.774  1.00  0.00    -0.299 OA
BRANCH  13  15
ATOM     15  C   UNL     1      31.252  16.923  -7.124  1.00  0.00     0.106 CG0
ATOM     16  G   UNL     1      30.740  17.937  -6.117  1.00  0.00     0.000 G0
ENDBRANCH  13  15
ENDBRANCH  12  13
BRANCH  12  17
ATOM     17  C   UNL     1      31.242  12.987  -6.927  1.00  0.00    -0.006 C 
ATOM     18  C   UNL     1      32.300  11.877  -6.723  1.00  0.00     0.008 C 
ATOM     19  C   UNL     1      29.952  12.547  -6.200  1.00  0.00     0.008 C 
ENDBRANCH  12  17
ENDBRANCH  11  12
ENDBRANCH   1  11
TORSDOF 1
ENDMDL
