MODEL 1
REMARK VINA RESULT:    -3.613      0.000      0.000
REMARK INTER + INTRA:          -9.928
REMARK INTER:                  -6.993
REMARK INTRA:                  -2.935
REMARK UNBOUND:                -2.935
REMARK SMILES CCCCCCCCCCCCCCCCCC(=O)[O-]
REMARK SMILES IDX 10 1 11 2 12 3 13 4 14 5 15 6 16 7 17 8 18 9 19 10 20 11
REMARK SMILES IDX 9 12 8 13 7 14 6 15 5 16 4 17 3 18 2 19 1 20
REMARK H PARENT
REMARK Flexibility Score: inf
ROOT
ATOM      1  C   UNL     1      77.035 -74.980  -1.046  1.00  0.00     0.000 C 
ENDROOT
BRANCH   1   2
ATOM      2  C   UNL     1      78.082 -74.912  -2.172  1.00  0.00     0.000 C 
BRANCH   2   3
ATOM      3  C   UNL     1      77.547 -74.436  -3.538  1.00  0.00     0.000 C 
BRANCH   3   4
ATOM      4  C   UNL     1      77.062 -72.971  -3.544  1.00  0.00     0.000 C 
BRANCH   4   5
ATOM      5  C   UNL     1      75.553 -72.859  -3.828  1.00  0.00     0.000 C 
BRANCH   5   6
ATOM      6  C   UNL     1      74.856 -71.836  -2.920  1.00  0.00     0.000 C 
BRANCH   6   7
ATOM      7  C   UNL     1      74.505 -72.417  -1.539  1.00  0.00     0.006 C 
BRANCH   7   8
ATOM      8  C   UNL     1      73.070 -72.078  -1.116  1.00  0.00     0.053 C 
BRANCH   8   9
ATOM      9  C   UNL     1      73.038 -70.993  -0.085  1.00  0.00     0.041 C 
ATOM     10  O   UNL     1      74.008 -70.198   0.027  1.00  0.00    -0.550 OA
ATOM     11  O   UNL     1      71.954 -70.883   0.777  1.00  0.00    -0.550 OA
ENDBRANCH   8   9
ENDBRANCH   7   8
ENDBRANCH   6   7
ENDBRANCH   5   6
ENDBRANCH   4   5
ENDBRANCH   3   4
ENDBRANCH   2   3
ENDBRANCH   1   2
BRANCH   1  12
ATOM     12  C   UNL     1      76.995 -76.352  -0.349  1.00  0.00     0.000 C 
BRANCH  12  13
ATOM     13  C   UNL     1      77.752 -77.439  -1.133  1.00  0.00    -0.000 C 
BRANCH  13  14
ATOM     14  C   UNL     1      76.895 -78.639  -1.573  1.00  0.00    -0.000 C 
BRANCH  14  15
ATOM     15  C   UNL     1      75.536 -78.222  -2.155  1.00  0.00    -0.000 C 
BRANCH  15  16
ATOM     16  C   UNL     1      75.687 -77.727  -3.601  1.00  0.00    -0.000 C 
BRANCH  16  17
ATOM     17  C   UNL     1      74.660 -76.646  -3.971  1.00  0.00    -0.000 C 
BRANCH  17  18
ATOM     18  C   UNL     1      74.020 -75.992  -2.735  1.00  0.00    -0.000 C 
BRANCH  18  19
ATOM     19  C   UNL     1      72.513 -75.750  -2.909  1.00  0.00    -0.003 C 
ATOM     20  C   UNL     1      72.202 -74.560  -3.816  1.00  0.00     0.004 C 
ENDBRANCH  18  19
ENDBRANCH  17  18
ENDBRANCH  16  17
ENDBRANCH  15  16
ENDBRANCH  14  15
ENDBRANCH  13  14
ENDBRANCH  12  13
ENDBRANCH   1  12
TORSDOF 16
ENDMDL
MODEL 2
REMARK VINA RESULT:    -3.538      2.160      4.482
REMARK INTER + INTRA:          -9.782
REMARK INTER:                  -6.805
REMARK INTRA:                  -2.977
REMARK UNBOUND:                -2.935
REMARK SMILES CCCCCCCCCCCCCCCCCC(=O)[O-]
REMARK SMILES IDX 10 1 11 2 12 3 13 4 14 5 15 6 16 7 17 8 18 9 19 10 20 11
REMARK SMILES IDX 9 12 8 13 7 14 6 15 5 16 4 17 3 18 2 19 1 20
REMARK H PARENT
REMARK Flexibility Score: inf
ROOT
ATOM      1  C   UNL     1      78.187 -76.424  -1.124  1.00  0.00     0.000 C 
ENDROOT
BRANCH   1   2
ATOM      2  C   UNL     1      78.651 -77.699  -1.850  1.00  0.00     0.000 C 
BRANCH   2   3
ATOM      3  C   UNL     1      77.805 -78.104  -3.074  1.00  0.00     0.000 C 
BRANCH   3   4
ATOM      4  C   UNL     1      76.298 -78.246  -2.773  1.00  0.00     0.000 C 
BRANCH   4   5
ATOM      5  C   UNL     1      75.456 -77.189  -3.511  1.00  0.00     0.000 C 
BRANCH   5   6
ATOM      6  C   UNL     1      74.424 -76.513  -2.597  1.00  0.00     0.000 C 
BRANCH   6   7
ATOM      7  C   UNL     1      74.679 -76.800  -1.107  1.00  0.00     0.006 C 
BRANCH   7   8
ATOM      8  C   UNL     1      74.434 -75.566  -0.229  1.00  0.00     0.053 C 
BRANCH   8   9
ATOM      9  C   UNL     1      73.352 -75.809   0.777  1.00  0.00     0.041 C 
ATOM     10  O   UNL     1      73.340 -76.874   1.449  1.00  0.00    -0.550 OA
ATOM     11  O   UNL     1      72.337 -74.876   0.947  1.00  0.00    -0.550 OA
ENDBRANCH   8   9
ENDBRANCH   7   8
ENDBRANCH   6   7
ENDBRANCH   5   6
ENDBRANCH   4   5
ENDBRANCH   3   4
ENDBRANCH   2   3
ENDBRANCH   1   2
BRANCH   1  12
ATOM     12  C   UNL     1      78.592 -75.135  -1.860  1.00  0.00     0.000 C 
BRANCH  12  13
ATOM     13  C   UNL     1      77.388 -74.235  -2.190  1.00  0.00    -0.000 C 
BRANCH  13  14
ATOM     14  C   UNL     1      77.253 -73.849  -3.674  1.00  0.00    -0.000 C 
BRANCH  14  15
ATOM     15  C   UNL     1      75.832 -73.401  -4.048  1.00  0.00    -0.000 C 
BRANCH  15  16
ATOM     16  C   UNL     1      75.139 -72.725  -2.856  1.00  0.00    -0.000 C 
BRANCH  16  17
ATOM     17  C   UNL     1      73.620 -72.957  -2.841  1.00  0.00    -0.000 C 
BRANCH  17  18
ATOM     18  C   UNL     1      72.950 -72.396  -1.575  1.00  0.00    -0.000 C 
BRANCH  18  19
ATOM     19  C   UNL     1      73.971 -71.932  -0.524  1.00  0.00    -0.003 C 
ATOM     20  C   UNL     1      73.689 -70.524  -0.003  1.00  0.00     0.004 C 
ENDBRANCH  18  19
ENDBRANCH  17  18
ENDBRANCH  16  17
ENDBRANCH  15  16
ENDBRANCH  14  15
ENDBRANCH  13  14
ENDBRANCH  12  13
ENDBRANCH   1  12
TORSDOF 16
ENDMDL
MODEL 3
REMARK VINA RESULT:    -3.532      1.221      2.650
REMARK INTER + INTRA:          -9.770
REMARK INTER:                  -7.074
REMARK INTRA:                  -2.696
REMARK UNBOUND:                -2.935
REMARK SMILES CCCCCCCCCCCCCCCCCC(=O)[O-]
REMARK SMILES IDX 10 1 11 2 12 3 13 4 14 5 15 6 16 7 17 8 18 9 19 10 20 11
REMARK SMILES IDX 9 12 8 13 7 14 6 15 5 16 4 17 3 18 2 19 1 20
REMARK H PARENT
REMARK Flexibility Score: inf
ROOT
ATOM      1  C   UNL     1      77.819 -75.143  -2.516  1.00  0.00     0.000 C 
ENDROOT
BRANCH   1   2
ATOM      2  C   UNL     1      77.664 -73.612  -2.481  1.00  0.00     0.000 C 
BRANCH   2   3
ATOM      3  C   UNL     1      77.000 -72.990  -3.726  1.00  0.00     0.000 C 
BRANCH   3   4
ATOM      4  C   UNL     1      75.588 -73.539  -4.021  1.00  0.00     0.000 C 
BRANCH   4   5
ATOM      5  C   UNL     1      74.483 -72.672  -3.388  1.00  0.00     0.000 C 
BRANCH   5   6
ATOM      6  C   UNL     1      73.746 -73.392  -2.250  1.00  0.00     0.000 C 
BRANCH   6   7
ATOM      7  C   UNL     1      74.043 -72.774  -0.872  1.00  0.00     0.006 C 
BRANCH   7   8
ATOM      8  C   UNL     1      74.106 -71.242  -0.927  1.00  0.00     0.053 C 
BRANCH   8   9
ATOM      9  C   UNL     1      73.224 -70.614   0.107  1.00  0.00     0.041 C 
ATOM     10  O   UNL     1      73.589 -69.563   0.697  1.00  0.00    -0.550 OA
ATOM     11  O   UNL     1      72.016 -71.210   0.447  1.00  0.00    -0.550 OA
ENDBRANCH   8   9
ENDBRANCH   7   8
ENDBRANCH   6   7
ENDBRANCH   5   6
ENDBRANCH   4   5
ENDBRANCH   3   4
ENDBRANCH   2   3
ENDBRANCH   1   2
BRANCH   1  12
ATOM     12  C   UNL     1      78.271 -75.729  -1.167  1.00  0.00     0.000 C 
BRANCH  12  13
ATOM     13  C   UNL     1      77.234 -76.691  -0.560  1.00  0.00    -0.000 C 
BRANCH  13  14
ATOM     14  C   UNL     1      75.782 -76.178  -0.578  1.00  0.00    -0.000 C 
BRANCH  14  15
ATOM     15  C   UNL     1      74.802 -77.178  -1.209  1.00  0.00    -0.000 C 
BRANCH  15  16
ATOM     16  C   UNL     1      74.503 -76.806  -2.668  1.00  0.00    -0.000 C 
BRANCH  16  17
ATOM     17  C   UNL     1      75.272 -77.676  -3.675  1.00  0.00    -0.000 C 
BRANCH  17  18
ATOM     18  C   UNL     1      75.739 -79.009  -3.067  1.00  0.00    -0.000 C 
BRANCH  18  19
ATOM     19  C   UNL     1      76.975 -79.580  -3.780  1.00  0.00    -0.003 C 
ATOM     20  C   UNL     1      78.240 -78.763  -3.522  1.00  0.00     0.004 C 
ENDBRANCH  18  19
ENDBRANCH  17  18
ENDBRANCH  16  17
ENDBRANCH  15  16
ENDBRANCH  14  15
ENDBRANCH  13  14
ENDBRANCH  12  13
ENDBRANCH   1  12
TORSDOF 16
ENDMDL
MODEL 4
REMARK VINA RESULT:    -3.514      1.283      1.703
REMARK INTER + INTRA:          -9.735
REMARK INTER:                  -6.830
REMARK INTRA:                  -2.905
REMARK UNBOUND:                -2.935
REMARK SMILES CCCCCCCCCCCCCCCCCC(=O)[O-]
REMARK SMILES IDX 10 1 11 2 12 3 13 4 14 5 15 6 16 7 17 8 18 9 19 10 20 11
REMARK SMILES IDX 9 12 8 13 7 14 6 15 5 16 4 17 3 18 2 19 1 20
REMARK H PARENT
REMARK Flexibility Score: inf
ROOT
ATOM      1  C   UNL     1      77.273 -76.209  -0.439  1.00  0.00     0.000 C 
ENDROOT
BRANCH   1   2
ATOM      2  C   UNL     1      76.811 -75.028  -1.311  1.00  0.00     0.000 C 
BRANCH   2   3
ATOM      3  C   UNL     1      77.856 -74.504  -2.316  1.00  0.00     0.000 C 
BRANCH   3   4
ATOM      4  C   UNL     1      77.407 -74.598  -3.790  1.00  0.00     0.000 C 
BRANCH   4   5
ATOM      5  C   UNL     1      76.124 -73.791  -4.059  1.00  0.00     0.000 C 
BRANCH   5   6
ATOM      6  C   UNL     1      76.288 -72.297  -3.743  1.00  0.00     0.000 C 
BRANCH   6   7
ATOM      7  C   UNL     1      74.959 -71.630  -3.349  1.00  0.00     0.006 C 
BRANCH   7   8
ATOM      8  C   UNL     1      73.864 -72.659  -3.038  1.00  0.00     0.053 C 
BRANCH   8   9
ATOM      9  C   UNL     1      73.552 -72.710  -1.575  1.00  0.00     0.041 C 
ATOM     10  O   UNL     1      74.432 -72.404  -0.729  1.00  0.00    -0.550 OA
ATOM     11  O   UNL     1      72.300 -73.132  -1.144  1.00  0.00    -0.550 OA
ENDBRANCH   8   9
ENDBRANCH   7   8
ENDBRANCH   6   7
ENDBRANCH   5   6
ENDBRANCH   4   5
ENDBRANCH   3   4
ENDBRANCH   2   3
ENDBRANCH   1   2
BRANCH   1  12
ATOM     12  C   UNL     1      78.269 -77.132  -1.162  1.00  0.00     0.000 C 
BRANCH  12  13
ATOM     13  C   UNL     1      77.884 -78.619  -1.059  1.00  0.00    -0.000 C 
BRANCH  13  14
ATOM     14  C   UNL     1      77.249 -79.217  -2.327  1.00  0.00    -0.000 C 
BRANCH  14  15
ATOM     15  C   UNL     1      76.975 -78.163  -3.411  1.00  0.00    -0.000 C 
BRANCH  15  16
ATOM     16  C   UNL     1      75.484 -78.133  -3.781  1.00  0.00    -0.000 C 
BRANCH  16  17
ATOM     17  C   UNL     1      74.579 -77.814  -2.581  1.00  0.00    -0.000 C 
BRANCH  17  18
ATOM     18  C   UNL     1      73.872 -76.455  -2.721  1.00  0.00    -0.000 C 
BRANCH  18  19
ATOM     19  C   UNL     1      73.258 -76.250  -4.115  1.00  0.00    -0.003 C 
ATOM     20  C   UNL     1      71.856 -75.645  -4.063  1.00  0.00     0.004 C 
ENDBRANCH  18  19
ENDBRANCH  17  18
ENDBRANCH  16  17
ENDBRANCH  15  16
ENDBRANCH  14  15
ENDBRANCH  13  14
ENDBRANCH  12  13
ENDBRANCH   1  12
TORSDOF 16
ENDMDL
MODEL 5
REMARK VINA RESULT:    -3.511      1.319      3.082
REMARK INTER + INTRA:          -9.730
REMARK INTER:                  -7.255
REMARK INTRA:                  -2.475
REMARK UNBOUND:                -2.935
REMARK SMILES CCCCCCCCCCCCCCCCCC(=O)[O-]
REMARK SMILES IDX 10 1 11 2 12 3 13 4 14 5 15 6 16 7 17 8 18 9 19 10 20 11
REMARK SMILES IDX 9 12 8 13 7 14 6 15 5 16 4 17 3 18 2 19 1 20
REMARK H PARENT
REMARK Flexibility Score: inf
ROOT
ATOM      1  C   UNL     1      77.069 -73.253  -3.322  1.00  0.00     0.000 C 
ENDROOT
BRANCH   1   2
ATOM      2  C   UNL     1      76.314 -72.180  -4.125  1.00  0.00     0.000 C 
BRANCH   2   3
ATOM      3  C   UNL     1      74.959 -71.745  -3.530  1.00  0.00     0.000 C 
BRANCH   3   4
ATOM      4  C   UNL     1      73.970 -72.910  -3.311  1.00  0.00     0.000 C 
BRANCH   4   5
ATOM      5  C   UNL     1      73.382 -72.914  -1.889  1.00  0.00     0.000 C 
BRANCH   5   6
ATOM      6  C   UNL     1      74.324 -72.275  -0.858  1.00  0.00     0.000 C 
BRANCH   6   7
ATOM      7  C   UNL     1      73.741 -70.989  -0.245  1.00  0.00     0.006 C 
BRANCH   7   8
ATOM      8  C   UNL     1      72.244 -71.122   0.064  1.00  0.00     0.053 C 
BRANCH   8   9
ATOM      9  C   UNL     1      71.875 -70.413   1.330  1.00  0.00     0.041 C 
ATOM     10  O   UNL     1      72.318 -69.256   1.559  1.00  0.00    -0.550 OA
ATOM     11  O   UNL     1      71.072 -71.042   2.273  1.00  0.00    -0.550 OA
ENDBRANCH   8   9
ENDBRANCH   7   8
ENDBRANCH   6   7
ENDBRANCH   5   6
ENDBRANCH   4   5
ENDBRANCH   3   4
ENDBRANCH   2   3
ENDBRANCH   1   2
BRANCH   1  12
ATOM     12  C   UNL     1      77.293 -74.550  -4.119  1.00  0.00     0.000 C 
BRANCH  12  13
ATOM     13  C   UNL     1      77.925 -75.668  -3.271  1.00  0.00    -0.000 C 
BRANCH  13  14
ATOM     14  C   UNL     1      78.325 -75.255  -1.843  1.00  0.00    -0.000 C 
BRANCH  14  15
ATOM     15  C   UNL     1      77.541 -76.010  -0.760  1.00  0.00    -0.000 C 
BRANCH  15  16
ATOM     16  C   UNL     1      76.098 -75.493  -0.666  1.00  0.00    -0.000 C 
BRANCH  16  17
ATOM     17  C   UNL     1      75.054 -76.584  -0.952  1.00  0.00    -0.000 C 
BRANCH  17  18
ATOM     18  C   UNL     1      74.374 -76.406  -2.319  1.00  0.00    -0.000 C 
BRANCH  18  19
ATOM     19  C   UNL     1      74.623 -77.595  -3.261  1.00  0.00    -0.003 C 
ATOM     20  C   UNL     1      75.646 -78.585  -2.708  1.00  0.00     0.004 C 
ENDBRANCH  18  19
ENDBRANCH  17  18
ENDBRANCH  16  17
ENDBRANCH  15  16
ENDBRANCH  14  15
ENDBRANCH  13  14
ENDBRANCH  12  13
ENDBRANCH   1  12
TORSDOF 16
ENDMDL
MODEL 6
REMARK VINA RESULT:    -3.477      3.817      6.162
REMARK INTER + INTRA:          -9.664
REMARK INTER:                  -6.895
REMARK INTRA:                  -2.769
REMARK UNBOUND:                -2.935
REMARK SMILES CCCCCCCCCCCCCCCCCC(=O)[O-]
REMARK SMILES IDX 10 1 11 2 12 3 13 4 14 5 15 6 16 7 17 8 18 9 19 10 20 11
REMARK SMILES IDX 9 12 8 13 7 14 6 15 5 16 4 17 3 18 2 19 1 20
REMARK H PARENT
REMARK Flexibility Score: inf
ROOT
ATOM      1  C   UNL     1      76.366 -72.346  -3.756  1.00  0.00     0.000 C 
ENDROOT
BRANCH   1   2
ATOM      2  C   UNL     1      77.509 -73.370  -3.640  1.00  0.00     0.000 C 
BRANCH   2   3
ATOM      3  C   UNL     1      77.154 -74.804  -4.085  1.00  0.00     0.000 C 
BRANCH   3   4
ATOM      4  C   UNL     1      77.886 -75.904  -3.288  1.00  0.00     0.000 C 
BRANCH   4   5
ATOM      5  C   UNL     1      78.265 -75.441  -1.870  1.00  0.00     0.000 C 
BRANCH   5   6
ATOM      6  C   UNL     1      77.742 -76.387  -0.779  1.00  0.00     0.000 C 
BRANCH   6   7
ATOM      7  C   UNL     1      77.502 -77.813  -1.304  1.00  0.00     0.006 C 
BRANCH   7   8
ATOM      8  C   UNL     1      78.546 -78.807  -0.777  1.00  0.00     0.053 C 
BRANCH   8   9
ATOM      9  C   UNL     1      79.347 -79.409  -1.889  1.00  0.00     0.041 C 
ATOM     10  O   UNL     1      80.033 -78.672  -2.646  1.00  0.00    -0.550 OA
ATOM     11  O   UNL     1      79.309 -80.779  -2.113  1.00  0.00    -0.550 OA
ENDBRANCH   8   9
ENDBRANCH   7   8
ENDBRANCH   6   7
ENDBRANCH   5   6
ENDBRANCH   4   5
ENDBRANCH   3   4
ENDBRANCH   2   3
ENDBRANCH   1   2
BRANCH   1  12
ATOM     12  C   UNL     1      75.008 -72.998  -4.071  1.00  0.00     0.000 C 
BRANCH  12  13
ATOM     13  C   UNL     1      73.956 -72.740  -2.977  1.00  0.00    -0.000 C 
BRANCH  13  14
ATOM     14  C   UNL     1      74.531 -72.417  -1.586  1.00  0.00    -0.000 C 
BRANCH  14  15
ATOM     15  C   UNL     1      74.809 -73.673  -0.748  1.00  0.00    -0.000 C 
BRANCH  15  16
ATOM     16  C   UNL     1      73.712 -74.727  -0.957  1.00  0.00    -0.000 C 
BRANCH  16  17
ATOM     17  C   UNL     1      74.276 -76.122  -1.267  1.00  0.00    -0.000 C 
BRANCH  17  18
ATOM     18  C   UNL     1      74.112 -76.510  -2.746  1.00  0.00    -0.000 C 
BRANCH  18  19
ATOM     19  C   UNL     1      72.659 -76.386  -3.231  1.00  0.00    -0.003 C 
ATOM     20  C   UNL     1      71.971 -77.740  -3.396  1.00  0.00     0.004 C 
ENDBRANCH  18  19
ENDBRANCH  17  18
ENDBRANCH  16  17
ENDBRANCH  15  16
ENDBRANCH  14  15
ENDBRANCH  13  14
ENDBRANCH  12  13
ENDBRANCH   1  12
TORSDOF 16
ENDMDL
MODEL 7
REMARK VINA RESULT:    -3.458      2.700      4.574
REMARK INTER + INTRA:          -9.627
REMARK INTER:                  -6.853
REMARK INTRA:                  -2.774
REMARK UNBOUND:                -2.935
REMARK SMILES CCCCCCCCCCCCCCCCCC(=O)[O-]
REMARK SMILES IDX 10 1 11 2 12 3 13 4 14 5 15 6 16 7 17 8 18 9 19 10 20 11
REMARK SMILES IDX 9 12 8 13 7 14 6 15 5 16 4 17 3 18 2 19 1 20
REMARK H PARENT
REMARK Flexibility Score: inf
ROOT
ATOM      1  C   UNL     1      78.185 -78.043  -1.610  1.00  0.00     0.000 C 
ENDROOT
BRANCH   1   2
ATOM      2  C   UNL     1      76.897 -78.608  -2.234  1.00  0.00     0.000 C 
BRANCH   2   3
ATOM      3  C   UNL     1      76.493 -77.984  -3.585  1.00  0.00     0.000 C 
BRANCH   3   4
ATOM      4  C   UNL     1      75.139 -77.243  -3.551  1.00  0.00     0.000 C 
BRANCH   4   5
ATOM      5  C   UNL     1      74.330 -77.568  -2.283  1.00  0.00     0.000 C 
BRANCH   5   6
ATOM      6  C   UNL     1      73.735 -76.315  -1.624  1.00  0.00     0.000 C 
BRANCH   6   7
ATOM      7  C   UNL     1      74.398 -75.989  -0.274  1.00  0.00     0.006 C 
BRANCH   7   8
ATOM      8  C   UNL     1      73.366 -75.711   0.826  1.00  0.00     0.053 C 
BRANCH   8   9
ATOM      9  C   UNL     1      73.140 -76.912   1.691  1.00  0.00     0.041 C 
ATOM     10  O   UNL     1      73.347 -76.846   2.932  1.00  0.00    -0.550 OA
ATOM     11  O   UNL     1      72.738 -78.114   1.123  1.00  0.00    -0.550 OA
ENDBRANCH   8   9
ENDBRANCH   7   8
ENDBRANCH   6   7
ENDBRANCH   5   6
ENDBRANCH   4   5
ENDBRANCH   3   4
ENDBRANCH   2   3
ENDBRANCH   1   2
BRANCH   1  12
ATOM     12  C   UNL     1      77.944 -76.753  -0.807  1.00  0.00     0.000 C 
BRANCH  12  13
ATOM     13  C   UNL     1      78.363 -75.487  -1.575  1.00  0.00    -0.000 C 
BRANCH  13  14
ATOM     14  C   UNL     1      77.198 -74.600  -2.052  1.00  0.00    -0.000 C 
BRANCH  14  15
ATOM     15  C   UNL     1      77.585 -73.684  -3.222  1.00  0.00    -0.000 C 
BRANCH  15  16
ATOM     16  C   UNL     1      76.420 -72.759  -3.603  1.00  0.00    -0.000 C 
BRANCH  16  17
ATOM     17  C   UNL     1      75.060 -73.475  -3.585  1.00  0.00    -0.000 C 
BRANCH  17  18
ATOM     18  C   UNL     1      73.988 -72.686  -2.815  1.00  0.00    -0.000 C 
BRANCH  18  19
ATOM     19  C   UNL     1      74.400 -72.394  -1.363  1.00  0.00    -0.003 C 
ATOM     20  C   UNL     1      73.302 -71.694  -0.564  1.00  0.00     0.004 C 
ENDBRANCH  18  19
ENDBRANCH  17  18
ENDBRANCH  16  17
ENDBRANCH  15  16
ENDBRANCH  14  15
ENDBRANCH  13  14
ENDBRANCH  12  13
ENDBRANCH   1  12
TORSDOF 16
ENDMDL
MODEL 8
REMARK VINA RESULT:    -3.455      3.351      5.000
REMARK INTER + INTRA:          -9.621
REMARK INTER:                  -6.841
REMARK INTRA:                  -2.780
REMARK UNBOUND:                -2.935
REMARK SMILES CCCCCCCCCCCCCCCCCC(=O)[O-]
REMARK SMILES IDX 10 1 11 2 12 3 13 4 14 5 15 6 16 7 17 8 18 9 19 10 20 11
REMARK SMILES IDX 9 12 8 13 7 14 6 15 5 16 4 17 3 18 2 19 1 20
REMARK H PARENT
REMARK Flexibility Score: inf
ROOT
ATOM      1  C   UNL     1      75.454 -77.853  -1.725  1.00  0.00     0.000 C 
ENDROOT
BRANCH   1   2
ATOM      2  C   UNL     1      74.844 -77.354  -3.046  1.00  0.00     0.000 C 
BRANCH   2   3
ATOM      3  C   UNL     1      73.679 -76.355  -2.896  1.00  0.00     0.000 C 
BRANCH   3   4
ATOM      4  C   UNL     1      72.805 -76.596  -1.647  1.00  0.00     0.000 C 
BRANCH   4   5
ATOM      5  C   UNL     1      72.617 -75.316  -0.813  1.00  0.00     0.000 C 
BRANCH   5   6
ATOM      6  C   UNL     1      73.481 -75.305   0.456  1.00  0.00     0.000 C 
BRANCH   6   7
ATOM      7  C   UNL     1      73.320 -76.590   1.288  1.00  0.00     0.006 C 
BRANCH   7   8
ATOM      8  C   UNL     1      72.642 -76.324   2.638  1.00  0.00     0.053 C 
BRANCH   8   9
ATOM      9  C   UNL     1      73.115 -77.275   3.693  1.00  0.00     0.041 C 
ATOM     10  O   UNL     1      74.244 -77.118   4.226  1.00  0.00    -0.550 OA
ATOM     11  O   UNL     1      72.324 -78.356   4.061  1.00  0.00    -0.550 OA
ENDBRANCH   8   9
ENDBRANCH   7   8
ENDBRANCH   6   7
ENDBRANCH   5   6
ENDBRANCH   4   5
ENDBRANCH   3   4
ENDBRANCH   2   3
ENDBRANCH   1   2
BRANCH   1  12
ATOM     12  C   UNL     1      76.856 -77.277  -1.458  1.00  0.00     0.000 C 
BRANCH  12  13
ATOM     13  C   UNL     1      76.831 -76.070  -0.503  1.00  0.00    -0.000 C 
BRANCH  13  14
ATOM     14  C   UNL     1      76.734 -74.697  -1.193  1.00  0.00    -0.000 C 
BRANCH  14  15
ATOM     15  C   UNL     1      77.372 -74.683  -2.590  1.00  0.00    -0.000 C 
BRANCH  15  16
ATOM     16  C   UNL     1      76.438 -74.020  -3.613  1.00  0.00    -0.000 C 
BRANCH  16  17
ATOM     17  C   UNL     1      76.629 -72.497  -3.694  1.00  0.00    -0.000 C 
BRANCH  17  18
ATOM     18  C   UNL     1      75.298 -71.731  -3.618  1.00  0.00    -0.000 C 
BRANCH  18  19
ATOM     19  C   UNL     1      74.239 -72.471  -2.785  1.00  0.00    -0.003 C 
ATOM     20  C   UNL     1      74.126 -71.937  -1.358  1.00  0.00     0.004 C 
ENDBRANCH  18  19
ENDBRANCH  17  18
ENDBRANCH  16  17
ENDBRANCH  15  16
ENDBRANCH  14  15
ENDBRANCH  13  14
ENDBRANCH  12  13
ENDBRANCH   1  12
TORSDOF 16
ENDMDL
MODEL 9
REMARK VINA RESULT:    -3.408      1.413      2.119
REMARK INTER + INTRA:          -9.530
REMARK INTER:                  -6.526
REMARK INTRA:                  -3.004
REMARK UNBOUND:                -2.935
REMARK SMILES CCCCCCCCCCCCCCCCCC(=O)[O-]
REMARK SMILES IDX 10 1 11 2 12 3 13 4 14 5 15 6 16 7 17 8 18 9 19 10 20 11
REMARK SMILES IDX 9 12 8 13 7 14 6 15 5 16 4 17 3 18 2 19 1 20
REMARK H PARENT
REMARK Flexibility Score: inf
ROOT
ATOM      1  C   UNL     1      77.756 -76.933  -0.734  1.00  0.00     0.000 C 
ENDROOT
BRANCH   1   2
ATOM      2  C   UNL     1      78.064 -75.653  -1.531  1.00  0.00     0.000 C 
BRANCH   2   3
ATOM      3  C   UNL     1      78.268 -75.856  -3.047  1.00  0.00     0.000 C 
BRANCH   3   4
ATOM      4  C   UNL     1      77.619 -74.760  -3.917  1.00  0.00     0.000 C 
BRANCH   4   5
ATOM      5  C   UNL     1      77.408 -73.448  -3.139  1.00  0.00     0.000 C 
BRANCH   5   6
ATOM      6  C   UNL     1      75.957 -72.949  -3.204  1.00  0.00     0.000 C 
BRANCH   6   7
ATOM      7  C   UNL     1      75.257 -72.996  -1.835  1.00  0.00     0.006 C 
BRANCH   7   8
ATOM      8  C   UNL     1      73.752 -72.715  -1.944  1.00  0.00     0.053 C 
BRANCH   8   9
ATOM      9  C   UNL     1      73.266 -71.854  -0.820  1.00  0.00     0.041 C 
ATOM     10  O   UNL     1      72.194 -72.137  -0.224  1.00  0.00    -0.550 OA
ATOM     11  O   UNL     1      73.978 -70.719  -0.453  1.00  0.00    -0.550 OA
ENDBRANCH   8   9
ENDBRANCH   7   8
ENDBRANCH   6   7
ENDBRANCH   5   6
ENDBRANCH   4   5
ENDBRANCH   3   4
ENDBRANCH   2   3
ENDBRANCH   1   2
BRANCH   1  12
ATOM     12  C   UNL     1      78.207 -78.213  -1.459  1.00  0.00     0.000 C 
BRANCH  12  13
ATOM     13  C   UNL     1      77.056 -79.213  -1.672  1.00  0.00    -0.000 C 
BRANCH  13  14
ATOM     14  C   UNL     1      76.440 -79.205  -3.083  1.00  0.00    -0.000 C 
BRANCH  14  15
ATOM     15  C   UNL     1      74.935 -78.902  -3.076  1.00  0.00    -0.000 C 
BRANCH  15  16
ATOM     16  C   UNL     1      74.654 -77.504  -3.646  1.00  0.00    -0.000 C 
BRANCH  16  17
ATOM     17  C   UNL     1      74.556 -76.425  -2.556  1.00  0.00    -0.000 C 
BRANCH  17  18
ATOM     18  C   UNL     1      73.947 -76.959  -1.250  1.00  0.00    -0.000 C 
BRANCH  18  19
ATOM     19  C   UNL     1      74.273 -76.070  -0.039  1.00  0.00    -0.003 C 
ATOM     20  C   UNL     1      73.025 -75.605   0.710  1.00  0.00     0.004 C 
ENDBRANCH  18  19
ENDBRANCH  17  18
ENDBRANCH  16  17
ENDBRANCH  15  16
ENDBRANCH  14  15
ENDBRANCH  13  14
ENDBRANCH  12  13
ENDBRANCH   1  12
TORSDOF 16
ENDMDL
