MODEL 1
REMARK VINA RESULT:    -4.977      0.000      0.000
REMARK INTER + INTRA:         -11.240
REMARK INTER:                  -9.050
REMARK INTRA:                  -2.189
REMARK UNBOUND:                -2.189
REMARK SMILES CCCCCCCCCCCCCC[C@H](C)C(=O)[O-]
REMARK SMILES IDX 9 1 10 2 11 3 12 4 13 5 14 6 15 7 16 8 17 9 18 10 19 11 8 12
REMARK SMILES IDX 7 13 6 14 5 15 4 16 3 17 2 18 1 19
REMARK H PARENT
REMARK Flexibility Score: inf
ROOT
ATOM      1  C   UNL     1      21.406   9.060  10.390  1.00  0.00     0.000 C 
ENDROOT
BRANCH   1   2
ATOM      2  C   UNL     1      22.611   8.220   9.936  1.00  0.00     0.000 C 
BRANCH   2   3
ATOM      3  C   UNL     1      23.809   9.116   9.602  1.00  0.00     0.000 C 
BRANCH   3   4
ATOM      4  C   UNL     1      25.134   8.384   9.860  1.00  0.00     0.000 C 
BRANCH   4   5
ATOM      5  C   UNL     1      24.976   7.160  10.779  1.00  0.00     0.001 C 
BRANCH   5   6
ATOM      6  C   UNL     1      25.555   7.328  12.200  1.00  0.00     0.009 C 
BRANCH   6   7
ATOM      7  C   UNL     1      24.496   7.327  13.326  1.00  0.00     0.032 C 
ATOM      8  C   UNL     1      23.355   6.364  12.984  1.00  0.00     0.014 C 
BRANCH   7   9
ATOM      9  C   UNL     1      23.942   8.707  13.562  1.00  0.00     0.044 C 
ATOM     10  O   UNL     1      22.874   8.855  14.211  1.00  0.00    -0.550 OA
ATOM     11  O   UNL     1      24.604   9.824  13.065  1.00  0.00    -0.550 OA
ENDBRANCH   7   9
ENDBRANCH   6   7
ENDBRANCH   5   6
ENDBRANCH   4   5
ENDBRANCH   3   4
ENDBRANCH   2   3
ENDBRANCH   1   2
BRANCH   1  12
ATOM     12  C   UNL     1      20.631   8.407  11.547  1.00  0.00     0.000 C 
BRANCH  12  13
ATOM     13  C   UNL     1      19.231   7.931  11.124  1.00  0.00    -0.000 C 
BRANCH  13  14
ATOM     14  C   UNL     1      19.063   6.403  11.215  1.00  0.00    -0.000 C 
BRANCH  14  15
ATOM     15  C   UNL     1      19.017   5.662   9.866  1.00  0.00    -0.000 C 
BRANCH  15  16
ATOM     16  C   UNL     1      19.907   6.310   8.793  1.00  0.00    -0.000 C 
BRANCH  16  17
ATOM     17  C   UNL     1      19.107   6.835   7.587  1.00  0.00    -0.000 C 
BRANCH  17  18
ATOM     18  C   UNL     1      19.147   8.361   7.390  1.00  0.00    -0.003 C 
ATOM     19  C   UNL     1      20.440   8.848   6.738  1.00  0.00     0.004 C 
ENDBRANCH  17  18
ENDBRANCH  16  17
ENDBRANCH  15  16
ENDBRANCH  14  15
ENDBRANCH  13  14
ENDBRANCH  12  13
ENDBRANCH   1  12
TORSDOF 14
ENDMDL
MODEL 2
REMARK VINA RESULT:    -4.586      1.615      2.082
REMARK INTER + INTRA:         -10.529
REMARK INTER:                  -8.961
REMARK INTRA:                  -1.568
REMARK UNBOUND:                -2.189
REMARK SMILES CCCCCCCCCCCCCC[C@H](C)C(=O)[O-]
REMARK SMILES IDX 9 1 10 2 11 3 12 4 13 5 14 6 15 7 16 8 17 9 18 10 19 11 8 12
REMARK SMILES IDX 7 13 6 14 5 15 4 16 3 17 2 18 1 19
REMARK H PARENT
REMARK Flexibility Score: inf
ROOT
ATOM      1  C   UNL     1      22.294   7.657  10.809  1.00  0.00     0.000 C 
ENDROOT
BRANCH   1   2
ATOM      2  C   UNL     1      22.095   8.989  10.070  1.00  0.00     0.000 C 
BRANCH   2   3
ATOM      3  C   UNL     1      23.407   9.465   9.434  1.00  0.00     0.000 C 
BRANCH   3   4
ATOM      4  C   UNL     1      24.544   8.469   9.705  1.00  0.00     0.000 C 
BRANCH   4   5
ATOM      5  C   UNL     1      25.466   8.907  10.856  1.00  0.00     0.001 C 
BRANCH   5   6
ATOM      6  C   UNL     1      25.179  10.313  11.426  1.00  0.00     0.009 C 
BRANCH   6   7
ATOM      7  C   UNL     1      25.178  10.389  12.970  1.00  0.00     0.032 C 
ATOM      8  C   UNL     1      24.035   9.547  13.544  1.00  0.00     0.014 C 
BRANCH   7   9
ATOM      9  C   UNL     1      25.054  11.810  13.451  1.00  0.00     0.044 C 
ATOM     10  O   UNL     1      24.555  12.051  14.581  1.00  0.00    -0.550 OA
ATOM     11  O   UNL     1      25.487  12.862  12.653  1.00  0.00    -0.550 OA
ENDBRANCH   7   9
ENDBRANCH   6   7
ENDBRANCH   5   6
ENDBRANCH   4   5
ENDBRANCH   3   4
ENDBRANCH   2   3
ENDBRANCH   1   2
BRANCH   1  12
ATOM     12  C   UNL     1      21.152   7.345  11.789  1.00  0.00     0.000 C 
BRANCH  12  13
ATOM     13  C   UNL     1      19.829   8.022  11.387  1.00  0.00    -0.000 C 
BRANCH  13  14
ATOM     14  C   UNL     1      18.645   7.039  11.331  1.00  0.00    -0.000 C 
BRANCH  14  15
ATOM     15  C   UNL     1      19.005   5.591  10.950  1.00  0.00    -0.000 C 
BRANCH  15  16
ATOM     16  C   UNL     1      19.600   5.472   9.538  1.00  0.00    -0.000 C 
BRANCH  16  17
ATOM     17  C   UNL     1      18.926   6.411   8.520  1.00  0.00    -0.000 C 
BRANCH  17  18
ATOM     18  C   UNL     1      19.893   7.261   7.676  1.00  0.00    -0.003 C 
ATOM     19  C   UNL     1      19.187   8.345   6.865  1.00  0.00     0.004 C 
ENDBRANCH  17  18
ENDBRANCH  16  17
ENDBRANCH  15  16
ENDBRANCH  14  15
ENDBRANCH  13  14
ENDBRANCH  12  13
ENDBRANCH   1  12
TORSDOF 14
ENDMDL
MODEL 3
REMARK VINA RESULT:    -4.521      1.781      2.890
REMARK INTER + INTRA:         -10.410
REMARK INTER:                  -8.856
REMARK INTRA:                  -1.554
REMARK UNBOUND:                -2.189
REMARK SMILES CCCCCCCCCCCCCC[C@H](C)C(=O)[O-]
REMARK SMILES IDX 9 1 10 2 11 3 12 4 13 5 14 6 15 7 16 8 17 9 18 10 19 11 8 12
REMARK SMILES IDX 7 13 6 14 5 15 4 16 3 17 2 18 1 19
REMARK H PARENT
REMARK Flexibility Score: inf
ROOT
ATOM      1  C   UNL     1      21.784   7.520  11.859  1.00  0.00     0.000 C 
ENDROOT
BRANCH   1   2
ATOM      2  C   UNL     1      22.633   7.926  13.074  1.00  0.00     0.000 C 
BRANCH   2   3
ATOM      3  C   UNL     1      23.837   6.991  13.238  1.00  0.00     0.000 C 
BRANCH   3   4
ATOM      4  C   UNL     1      24.946   7.659  14.063  1.00  0.00     0.000 C 
BRANCH   4   5
ATOM      5  C   UNL     1      25.875   8.546  13.215  1.00  0.00     0.001 C 
BRANCH   5   6
ATOM      6  C   UNL     1      26.035   8.109  11.743  1.00  0.00     0.009 C 
BRANCH   6   7
ATOM      7  C   UNL     1      25.497   9.127  10.712  1.00  0.00     0.032 C 
ATOM      8  C   UNL     1      24.887  10.337  11.426  1.00  0.00     0.014 C 
BRANCH   7   9
ATOM      9  C   UNL     1      24.471   8.502   9.805  1.00  0.00     0.044 C 
ATOM     10  O   UNL     1      23.576   9.215   9.280  1.00  0.00    -0.550 OA
ATOM     11  O   UNL     1      24.504   7.138   9.541  1.00  0.00    -0.550 OA
ENDBRANCH   7   9
ENDBRANCH   6   7
ENDBRANCH   5   6
ENDBRANCH   4   5
ENDBRANCH   3   4
ENDBRANCH   2   3
ENDBRANCH   1   2
BRANCH   1  12
ATOM     12  C   UNL     1      20.517   8.378  11.708  1.00  0.00     0.000 C 
BRANCH  12  13
ATOM     13  C   UNL     1      19.285   7.546  11.311  1.00  0.00    -0.000 C 
BRANCH  13  14
ATOM     14  C   UNL     1      19.636   6.094  10.936  1.00  0.00    -0.000 C 
BRANCH  14  15
ATOM     15  C   UNL     1      18.784   5.477   9.811  1.00  0.00    -0.000 C 
BRANCH  15  16
ATOM     16  C   UNL     1      19.027   6.135   8.443  1.00  0.00    -0.000 C 
BRANCH  16  17
ATOM     17  C   UNL     1      20.356   6.912   8.378  1.00  0.00    -0.000 C 
BRANCH  17  18
ATOM     18  C   UNL     1      20.336   8.166   7.486  1.00  0.00    -0.003 C 
ATOM     19  C   UNL     1      18.952   8.478   6.920  1.00  0.00     0.004 C 
ENDBRANCH  17  18
ENDBRANCH  16  17
ENDBRANCH  15  16
ENDBRANCH  14  15
ENDBRANCH  13  14
ENDBRANCH  12  13
ENDBRANCH   1  12
TORSDOF 14
ENDMDL
MODEL 4
REMARK VINA RESULT:    -4.407      2.221      5.812
REMARK INTER + INTRA:         -10.204
REMARK INTER:                  -7.867
REMARK INTRA:                  -2.336
REMARK UNBOUND:                -2.189
REMARK SMILES CCCCCCCCCCCCCC[C@H](C)C(=O)[O-]
REMARK SMILES IDX 9 1 10 2 11 3 12 4 13 5 14 6 15 7 16 8 17 9 18 10 19 11 8 12
REMARK SMILES IDX 7 13 6 14 5 15 4 16 3 17 2 18 1 19
REMARK H PARENT
REMARK Flexibility Score: inf
ROOT
ATOM      1  C   UNL     1      26.084   6.753  10.616  1.00  0.00     0.000 C 
ENDROOT
BRANCH   1   2
ATOM      2  C   UNL     1      25.609   8.150  10.185  1.00  0.00     0.000 C 
BRANCH   2   3
ATOM      3  C   UNL     1      24.199   8.089   9.586  1.00  0.00     0.000 C 
BRANCH   3   4
ATOM      4  C   UNL     1      23.493   9.447   9.699  1.00  0.00     0.000 C 
BRANCH   4   5
ATOM      5  C   UNL     1      22.087   9.449   9.074  1.00  0.00     0.001 C 
BRANCH   5   6
ATOM      6  C   UNL     1      21.002   8.726   9.901  1.00  0.00     0.009 C 
BRANCH   6   7
ATOM      7  C   UNL     1      20.506   7.398   9.285  1.00  0.00     0.032 C 
ATOM      8  C   UNL     1      19.768   7.664   7.969  1.00  0.00     0.014 C 
BRANCH   7   9
ATOM      9  C   UNL     1      19.603   6.654  10.232  1.00  0.00     0.044 C 
ATOM     10  O   UNL     1      19.276   7.173  11.331  1.00  0.00    -0.550 OA
ATOM     11  O   UNL     1      19.127   5.391   9.901  1.00  0.00    -0.550 OA
ENDBRANCH   7   9
ENDBRANCH   6   7
ENDBRANCH   5   6
ENDBRANCH   4   5
ENDBRANCH   3   4
ENDBRANCH   2   3
ENDBRANCH   1   2
BRANCH   1  12
ATOM     12  C   UNL     1      26.050   6.559  12.141  1.00  0.00     0.000 C 
BRANCH  12  13
ATOM     13  C   UNL     1      25.019   5.503  12.577  1.00  0.00    -0.000 C 
BRANCH  13  14
ATOM     14  C   UNL     1      23.867   6.096  13.410  1.00  0.00    -0.000 C 
BRANCH  14  15
ATOM     15  C   UNL     1      22.848   6.939  12.622  1.00  0.00    -0.000 C 
BRANCH  15  16
ATOM     16  C   UNL     1      22.698   8.368  13.170  1.00  0.00    -0.000 C 
BRANCH  16  17
ATOM     17  C   UNL     1      23.601   8.643  14.386  1.00  0.00    -0.000 C 
BRANCH  17  18
ATOM     18  C   UNL     1      24.334   9.996  14.362  1.00  0.00    -0.003 C 
ATOM     19  C   UNL     1      24.848  10.376  12.975  1.00  0.00     0.004 C 
ENDBRANCH  17  18
ENDBRANCH  16  17
ENDBRANCH  15  16
ENDBRANCH  14  15
ENDBRANCH  13  14
ENDBRANCH  12  13
ENDBRANCH   1  12
TORSDOF 14
ENDMDL
MODEL 5
REMARK VINA RESULT:    -4.404      2.560      6.167
REMARK INTER + INTRA:         -10.198
REMARK INTER:                  -8.197
REMARK INTRA:                  -2.001
REMARK UNBOUND:                -2.189
REMARK SMILES CCCCCCCCCCCCCC[C@H](C)C(=O)[O-]
REMARK SMILES IDX 9 1 10 2 11 3 12 4 13 5 14 6 15 7 16 8 17 9 18 10 19 11 8 12
REMARK SMILES IDX 7 13 6 14 5 15 4 16 3 17 2 18 1 19
REMARK H PARENT
REMARK Flexibility Score: inf
ROOT
ATOM      1  C   UNL     1      25.839   8.744  11.003  1.00  0.00     0.000 C 
ENDROOT
BRANCH   1   2
ATOM      2  C   UNL     1      24.973   8.251   9.834  1.00  0.00     0.000 C 
BRANCH   2   3
ATOM      3  C   UNL     1      23.746   9.151   9.643  1.00  0.00     0.000 C 
BRANCH   3   4
ATOM      4  C   UNL     1      22.468   8.314   9.487  1.00  0.00     0.000 C 
BRANCH   4   5
ATOM      5  C   UNL     1      21.235   8.972  10.131  1.00  0.00     0.001 C 
BRANCH   5   6
ATOM      6  C   UNL     1      19.874   8.460   9.614  1.00  0.00     0.009 C 
BRANCH   6   7
ATOM      7  C   UNL     1      19.953   7.154   8.792  1.00  0.00     0.032 C 
ATOM      8  C   UNL     1      19.359   7.365   7.396  1.00  0.00     0.014 C 
BRANCH   7   9
ATOM      9  C   UNL     1      19.236   6.024   9.482  1.00  0.00     0.044 C 
ATOM     10  O   UNL     1      18.257   5.464   8.924  1.00  0.00    -0.550 OA
ATOM     11  O   UNL     1      19.647   5.595  10.738  1.00  0.00    -0.550 OA
ENDBRANCH   7   9
ENDBRANCH   6   7
ENDBRANCH   5   6
ENDBRANCH   4   5
ENDBRANCH   3   4
ENDBRANCH   2   3
ENDBRANCH   1   2
BRANCH   1  12
ATOM     12  C   UNL     1      25.499  10.182  11.429  1.00  0.00     0.000 C 
BRANCH  12  13
ATOM     13  C   UNL     1      24.884  10.251  12.837  1.00  0.00    -0.000 C 
BRANCH  13  14
ATOM     14  C   UNL     1      24.588   8.861  13.432  1.00  0.00    -0.000 C 
BRANCH  14  15
ATOM     15  C   UNL     1      23.097   8.482  13.514  1.00  0.00    -0.000 C 
BRANCH  15  16
ATOM     16  C   UNL     1      22.780   7.140  12.836  1.00  0.00    -0.000 C 
BRANCH  16  17
ATOM     17  C   UNL     1      23.973   6.166  12.845  1.00  0.00    -0.000 C 
BRANCH  17  18
ATOM     18  C   UNL     1      23.732   4.845  13.597  1.00  0.00    -0.003 C 
ATOM     19  C   UNL     1      24.968   3.950  13.649  1.00  0.00     0.004 C 
ENDBRANCH  17  18
ENDBRANCH  16  17
ENDBRANCH  15  16
ENDBRANCH  14  15
ENDBRANCH  13  14
ENDBRANCH  12  13
ENDBRANCH   1  12
TORSDOF 14
ENDMDL
MODEL 6
REMARK VINA RESULT:    -4.404      2.755      6.028
REMARK INTER + INTRA:         -10.198
REMARK INTER:                  -7.959
REMARK INTRA:                  -2.239
REMARK UNBOUND:                -2.189
REMARK SMILES CCCCCCCCCCCCCC[C@H](C)C(=O)[O-]
REMARK SMILES IDX 9 1 10 2 11 3 12 4 13 5 14 6 15 7 16 8 17 9 18 10 19 11 8 12
REMARK SMILES IDX 7 13 6 14 5 15 4 16 3 17 2 18 1 19
REMARK H PARENT
REMARK Flexibility Score: inf
ROOT
ATOM      1  C   UNL     1      25.800  10.148  11.256  1.00  0.00     0.000 C 
ENDROOT
BRANCH   1   2
ATOM      2  C   UNL     1      25.835   8.687  10.779  1.00  0.00     0.000 C 
BRANCH   2   3
ATOM      3  C   UNL     1      24.632   8.375   9.881  1.00  0.00     0.000 C 
BRANCH   3   4
ATOM      4  C   UNL     1      23.617   9.527   9.899  1.00  0.00     0.000 C 
BRANCH   4   5
ATOM      5  C   UNL     1      22.306   9.185   9.170  1.00  0.00     0.001 C 
BRANCH   5   6
ATOM      6  C   UNL     1      21.601   7.900   9.657  1.00  0.00     0.009 C 
BRANCH   6   7
ATOM      7  C   UNL     1      20.058   7.971   9.640  1.00  0.00     0.032 C 
ATOM      8  C   UNL     1      19.505   7.894  11.066  1.00  0.00     0.014 C 
BRANCH   7   9
ATOM      9  C   UNL     1      19.464   6.868   8.805  1.00  0.00     0.044 C 
ATOM     10  O   UNL     1      19.267   7.044   7.575  1.00  0.00    -0.550 OA
ATOM     11  O   UNL     1      19.129   5.651   9.387  1.00  0.00    -0.550 OA
ENDBRANCH   7   9
ENDBRANCH   6   7
ENDBRANCH   5   6
ENDBRANCH   4   5
ENDBRANCH   3   4
ENDBRANCH   2   3
ENDBRANCH   1   2
BRANCH   1  12
ATOM     12  C   UNL     1      26.125  10.292  12.752  1.00  0.00     0.000 C 
BRANCH  12  13
ATOM     13  C   UNL     1      24.879  10.603  13.599  1.00  0.00    -0.000 C 
BRANCH  13  14
ATOM     14  C   UNL     1      24.637   9.569  14.714  1.00  0.00    -0.000 C 
BRANCH  14  15
ATOM     15  C   UNL     1      23.294   8.817  14.638  1.00  0.00    -0.000 C 
BRANCH  15  16
ATOM     16  C   UNL     1      22.838   8.546  13.195  1.00  0.00    -0.000 C 
BRANCH  16  17
ATOM     17  C   UNL     1      22.802   7.046  12.849  1.00  0.00    -0.000 C 
BRANCH  17  18
ATOM     18  C   UNL     1      24.137   6.302  13.031  1.00  0.00    -0.003 C 
ATOM     19  C   UNL     1      23.965   4.882  13.568  1.00  0.00     0.004 C 
ENDBRANCH  17  18
ENDBRANCH  16  17
ENDBRANCH  15  16
ENDBRANCH  14  15
ENDBRANCH  13  14
ENDBRANCH  12  13
ENDBRANCH   1  12
TORSDOF 14
ENDMDL
MODEL 7
REMARK VINA RESULT:    -4.396      2.736      6.033
REMARK INTER + INTRA:         -10.184
REMARK INTER:                  -8.013
REMARK INTRA:                  -2.170
REMARK UNBOUND:                -2.189
REMARK SMILES CCCCCCCCCCCCCC[C@H](C)C(=O)[O-]
REMARK SMILES IDX 9 1 10 2 11 3 12 4 13 5 14 6 15 7 16 8 17 9 18 10 19 11 8 12
REMARK SMILES IDX 7 13 6 14 5 15 4 16 3 17 2 18 1 19
REMARK H PARENT
REMARK Flexibility Score: inf
ROOT
ATOM      1  C   UNL     1      23.936   8.604  14.836  1.00  0.00     0.000 C 
ENDROOT
BRANCH   1   2
ATOM      2  C   UNL     1      24.628   7.443  14.104  1.00  0.00     0.000 C 
BRANCH   2   3
ATOM      3  C   UNL     1      23.671   6.773  13.111  1.00  0.00     0.000 C 
BRANCH   3   4
ATOM      4  C   UNL     1      22.485   7.691  12.784  1.00  0.00     0.000 C 
BRANCH   4   5
ATOM      5  C   UNL     1      21.452   7.031  11.853  1.00  0.00     0.001 C 
BRANCH   5   6
ATOM      6  C   UNL     1      20.291   7.947  11.409  1.00  0.00     0.009 C 
BRANCH   6   7
ATOM      7  C   UNL     1      19.336   7.313  10.373  1.00  0.00     0.032 C 
ATOM      8  C   UNL     1      19.094   5.837  10.705  1.00  0.00     0.014 C 
BRANCH   7   9
ATOM      9  C   UNL     1      19.880   7.435   8.975  1.00  0.00     0.044 C 
ATOM     10  O   UNL     1      20.801   6.670   8.587  1.00  0.00    -0.550 OA
ATOM     11  O   UNL     1      19.372   8.394   8.106  1.00  0.00    -0.550 OA
ENDBRANCH   7   9
ENDBRANCH   6   7
ENDBRANCH   5   6
ENDBRANCH   4   5
ENDBRANCH   3   4
ENDBRANCH   2   3
ENDBRANCH   1   2
BRANCH   1  12
ATOM     12  C   UNL     1      24.887   9.777  15.120  1.00  0.00     0.000 C 
BRANCH  12  13
ATOM     13  C   UNL     1      24.587  11.006  14.244  1.00  0.00    -0.000 C 
BRANCH  13  14
ATOM     14  C   UNL     1      25.812  11.488  13.445  1.00  0.00    -0.000 C 
BRANCH  14  15
ATOM     15  C   UNL     1      26.087  10.726  12.135  1.00  0.00    -0.000 C 
BRANCH  15  16
ATOM     16  C   UNL     1      24.803  10.268  11.425  1.00  0.00    -0.000 C 
BRANCH  16  17
ATOM     17  C   UNL     1      25.032   9.072  10.482  1.00  0.00    -0.000 C 
BRANCH  17  18
ATOM     18  C   UNL     1      23.858   8.748   9.541  1.00  0.00    -0.003 C 
ATOM     19  C   UNL     1      22.745   9.794   9.588  1.00  0.00     0.004 C 
ENDBRANCH  17  18
ENDBRANCH  16  17
ENDBRANCH  15  16
ENDBRANCH  14  15
ENDBRANCH  13  14
ENDBRANCH  12  13
ENDBRANCH   1  12
TORSDOF 14
ENDMDL
MODEL 8
REMARK VINA RESULT:    -4.353      2.314      5.903
REMARK INTER + INTRA:         -10.105
REMARK INTER:                  -8.181
REMARK INTRA:                  -1.924
REMARK UNBOUND:                -2.189
REMARK SMILES CCCCCCCCCCCCCC[C@H](C)C(=O)[O-]
REMARK SMILES IDX 9 1 10 2 11 3 12 4 13 5 14 6 15 7 16 8 17 9 18 10 19 11 8 12
REMARK SMILES IDX 7 13 6 14 5 15 4 16 3 17 2 18 1 19
REMARK H PARENT
REMARK Flexibility Score: inf
ROOT
ATOM      1  C   UNL     1      25.018   7.253   9.454  1.00  0.00     0.000 C 
ENDROOT
BRANCH   1   2
ATOM      2  C   UNL     1      25.343   8.501  10.288  1.00  0.00     0.000 C 
BRANCH   2   3
ATOM      3  C   UNL     1      24.192   9.512  10.234  1.00  0.00     0.000 C 
BRANCH   3   4
ATOM      4  C   UNL     1      22.978   8.926   9.500  1.00  0.00     0.000 C 
BRANCH   4   5
ATOM      5  C   UNL     1      21.649   9.181  10.233  1.00  0.00     0.001 C 
BRANCH   5   6
ATOM      6  C   UNL     1      20.380   8.804   9.440  1.00  0.00     0.009 C 
BRANCH   6   7
ATOM      7  C   UNL     1      20.346   7.340   8.946  1.00  0.00     0.032 C 
ATOM      8  C   UNL     1      19.668   7.255   7.575  1.00  0.00     0.014 C 
BRANCH   7   9
ATOM      9  C   UNL     1      19.630   6.446   9.922  1.00  0.00     0.044 C 
ATOM     10  O   UNL     1      19.769   6.623  11.160  1.00  0.00    -0.550 OA
ATOM     11  O   UNL     1      18.813   5.419   9.464  1.00  0.00    -0.550 OA
ENDBRANCH   7   9
ENDBRANCH   6   7
ENDBRANCH   5   6
ENDBRANCH   4   5
ENDBRANCH   3   4
ENDBRANCH   2   3
ENDBRANCH   1   2
BRANCH   1  12
ATOM     12  C   UNL     1      25.741   5.995   9.961  1.00  0.00     0.000 C 
BRANCH  12  13
ATOM     13  C   UNL     1      26.072   6.069  11.462  1.00  0.00    -0.000 C 
BRANCH  13  14
ATOM     14  C   UNL     1      25.735   4.770  12.217  1.00  0.00    -0.000 C 
BRANCH  14  15
ATOM     15  C   UNL     1      24.522   4.851  13.163  1.00  0.00    -0.000 C 
BRANCH  15  16
ATOM     16  C   UNL     1      24.236   6.280  13.652  1.00  0.00    -0.000 C 
BRANCH  16  17
ATOM     17  C   UNL     1      23.098   6.964  12.872  1.00  0.00    -0.000 C 
BRANCH  17  18
ATOM     18  C   UNL     1      22.686   8.350  13.401  1.00  0.00    -0.003 C 
ATOM     19  C   UNL     1      23.873   9.192  13.866  1.00  0.00     0.004 C 
ENDBRANCH  17  18
ENDBRANCH  16  17
ENDBRANCH  15  16
ENDBRANCH  14  15
ENDBRANCH  13  14
ENDBRANCH  12  13
ENDBRANCH   1  12
TORSDOF 14
ENDMDL
MODEL 9
REMARK VINA RESULT:    -4.289      2.325      3.139
REMARK INTER + INTRA:          -9.989
REMARK INTER:                  -8.165
REMARK INTRA:                  -1.823
REMARK UNBOUND:                -2.189
REMARK SMILES CCCCCCCCCCCCCC[C@H](C)C(=O)[O-]
REMARK SMILES IDX 9 1 10 2 11 3 12 4 13 5 14 6 15 7 16 8 17 9 18 10 19 11 8 12
REMARK SMILES IDX 7 13 6 14 5 15 4 16 3 17 2 18 1 19
REMARK H PARENT
REMARK Flexibility Score: inf
ROOT
ATOM      1  C   UNL     1      23.097   9.097  10.052  1.00  0.00     0.000 C 
ENDROOT
BRANCH   1   2
ATOM      2  C   UNL     1      24.020   9.912  10.971  1.00  0.00     0.000 C 
BRANCH   2   3
ATOM      3  C   UNL     1      25.191   9.057  11.470  1.00  0.00     0.000 C 
BRANCH   3   4
ATOM      4  C   UNL     1      25.170   8.933  13.000  1.00  0.00     0.000 C 
BRANCH   4   5
ATOM      5  C   UNL     1      25.812   7.630  13.507  1.00  0.00     0.001 C 
BRANCH   5   6
ATOM      6  C   UNL     1      24.841   6.439  13.663  1.00  0.00     0.009 C 
BRANCH   6   7
ATOM      7  C   UNL     1      25.432   5.074  13.246  1.00  0.00     0.032 C 
ATOM      8  C   UNL     1      25.730   5.058  11.744  1.00  0.00     0.014 C 
BRANCH   7   9
ATOM      9  C   UNL     1      24.501   3.942  13.590  1.00  0.00     0.044 C 
ATOM     10  O   UNL     1      23.313   4.183  13.929  1.00  0.00    -0.550 OA
ATOM     11  O   UNL     1      24.945   2.626  13.538  1.00  0.00    -0.550 OA
ENDBRANCH   7   9
ENDBRANCH   6   7
ENDBRANCH   5   6
ENDBRANCH   4   5
ENDBRANCH   3   4
ENDBRANCH   2   3
ENDBRANCH   1   2
BRANCH   1  12
ATOM     12  C   UNL     1      23.042   7.609  10.435  1.00  0.00     0.000 C 
BRANCH  12  13
ATOM     13  C   UNL     1      22.061   7.333  11.587  1.00  0.00    -0.000 C 
BRANCH  13  14
ATOM     14  C   UNL     1      20.938   8.382  11.686  1.00  0.00    -0.000 C 
BRANCH  14  15
ATOM     15  C   UNL     1      19.577   7.949  11.112  1.00  0.00    -0.000 C 
BRANCH  15  16
ATOM     16  C   UNL     1      19.613   6.553  10.467  1.00  0.00    -0.000 C 
BRANCH  16  17
ATOM     17  C   UNL     1      19.533   6.600   8.930  1.00  0.00    -0.000 C 
BRANCH  17  18
ATOM     18  C   UNL     1      19.542   8.012   8.318  1.00  0.00    -0.003 C 
ATOM     19  C   UNL     1      19.474   8.005   6.792  1.00  0.00     0.004 C 
ENDBRANCH  17  18
ENDBRANCH  16  17
ENDBRANCH  15  16
ENDBRANCH  14  15
ENDBRANCH  13  14
ENDBRANCH  12  13
ENDBRANCH   1  12
TORSDOF 14
ENDMDL
