MODEL 1
REMARK VINA RESULT:    -5.137      0.000      0.000
REMARK INTER + INTRA:         -11.647
REMARK INTER:                  -9.342
REMARK INTRA:                  -2.305
REMARK UNBOUND:                -2.305
REMARK SMILES CCCCCCCCCCCCCCCC(=O)[O-]
REMARK SMILES IDX 9 1 10 2 11 3 12 4 13 5 14 6 15 7 16 8 17 9 18 10 8 11 7 12
REMARK SMILES IDX 6 13 5 14 4 15 3 16 2 17 1 18
REMARK H PARENT
REMARK Flexibility Score: inf
ROOT
ATOM      1  C   UNL     1      33.485   3.490   5.523  1.00  0.00     0.000 C 
ENDROOT
BRANCH   1   2
ATOM      2  C   UNL     1      34.332   4.710   5.913  1.00  0.00     0.000 C 
BRANCH   2   3
ATOM      3  C   UNL     1      34.471   4.815   7.439  1.00  0.00     0.000 C 
BRANCH   3   4
ATOM      4  C   UNL     1      35.443   3.776   8.025  1.00  0.00     0.000 C 
BRANCH   4   5
ATOM      5  C   UNL     1      36.932   4.018   7.701  1.00  0.00     0.000 C 
BRANCH   5   6
ATOM      6  C   UNL     1      37.593   2.938   6.826  1.00  0.00     0.006 C 
BRANCH   6   7
ATOM      7  C   UNL     1      37.760   3.374   5.365  1.00  0.00     0.053 C 
BRANCH   7   8
ATOM      8  C   UNL     1      38.808   2.548   4.690  1.00  0.00     0.041 C 
ATOM      9  O   UNL     1      40.026   2.838   4.823  1.00  0.00    -0.550 OA
ATOM     10  O   UNL     1      38.444   1.429   3.953  1.00  0.00    -0.550 OA
ENDBRANCH   7   8
ENDBRANCH   6   7
ENDBRANCH   5   6
ENDBRANCH   4   5
ENDBRANCH   3   4
ENDBRANCH   2   3
ENDBRANCH   1   2
BRANCH   1  11
ATOM     11  C   UNL     1      33.560   3.167   4.020  1.00  0.00     0.000 C 
BRANCH  11  12
ATOM     12  C   UNL     1      34.720   2.238   3.606  1.00  0.00    -0.000 C 
BRANCH  12  13
ATOM     13  C   UNL     1      34.299   0.851   3.087  1.00  0.00    -0.000 C 
BRANCH  13  14
ATOM     14  C   UNL     1      35.378  -0.223   3.307  1.00  0.00    -0.000 C 
BRANCH  14  15
ATOM     15  C   UNL     1      35.185  -1.008   4.618  1.00  0.00    -0.000 C 
BRANCH  15  16
ATOM     16  C   UNL     1      35.897  -0.413   5.848  1.00  0.00    -0.000 C 
BRANCH  16  17
ATOM     17  C   UNL     1      34.932   0.270   6.827  1.00  0.00    -0.003 C 
ATOM     18  C   UNL     1      33.497  -0.200   6.602  1.00  0.00     0.004 C 
ENDBRANCH  16  17
ENDBRANCH  15  16
ENDBRANCH  14  15
ENDBRANCH  13  14
ENDBRANCH  12  13
ENDBRANCH  11  12
ENDBRANCH   1  11
TORSDOF 14
ENDMDL
MODEL 2
REMARK VINA RESULT:    -5.052     16.406     18.998
REMARK INTER + INTRA:         -11.492
REMARK INTER:                  -8.919
REMARK INTRA:                  -2.573
REMARK UNBOUND:                -2.305
REMARK SMILES CCCCCCCCCCCCCCCC(=O)[O-]
REMARK SMILES IDX 9 1 10 2 11 3 12 4 13 5 14 6 15 7 16 8 17 9 18 10 8 11 7 12
REMARK SMILES IDX 6 13 5 14 4 15 3 16 2 17 1 18
REMARK H PARENT
REMARK Flexibility Score: inf
ROOT
ATOM      1  C   UNL     1      46.248  11.952  -9.621  1.00  0.00     0.000 C 
ENDROOT
BRANCH   1   2
ATOM      2  C   UNL     1      45.431  12.330  -8.377  1.00  0.00     0.000 C 
BRANCH   2   3
ATOM      3  C   UNL     1      46.289  13.116  -7.374  1.00  0.00     0.000 C 
BRANCH   3   4
ATOM      4  C   UNL     1      45.876  12.872  -5.912  1.00  0.00     0.000 C 
BRANCH   4   5
ATOM      5  C   UNL     1      46.532  11.647  -5.243  1.00  0.00     0.000 C 
BRANCH   5   6
ATOM      6  C   UNL     1      45.552  10.553  -4.781  1.00  0.00     0.006 C 
BRANCH   6   7
ATOM      7  C   UNL     1      44.093  10.875  -5.126  1.00  0.00     0.053 C 
BRANCH   7   8
ATOM      8  C   UNL     1      43.314  11.164  -3.882  1.00  0.00     0.041 C 
ATOM      9  O   UNL     1      43.257  12.338  -3.429  1.00  0.00    -0.550 OA
ATOM     10  O   UNL     1      42.610  10.148  -3.250  1.00  0.00    -0.550 OA
ENDBRANCH   7   8
ENDBRANCH   6   7
ENDBRANCH   5   6
ENDBRANCH   4   5
ENDBRANCH   3   4
ENDBRANCH   2   3
ENDBRANCH   1   2
BRANCH   1  11
ATOM     11  C   UNL     1      46.816  10.524  -9.552  1.00  0.00     0.000 C 
BRANCH  11  12
ATOM     12  C   UNL     1      45.953   9.514  -8.767  1.00  0.00    -0.000 C 
BRANCH  12  13
ATOM     13  C   UNL     1      46.731   8.579  -7.821  1.00  0.00    -0.000 C 
BRANCH  13  14
ATOM     14  C   UNL     1      48.247   8.589  -8.083  1.00  0.00    -0.000 C 
BRANCH  14  15
ATOM     15  C   UNL     1      49.054   9.182  -6.914  1.00  0.00    -0.000 C 
BRANCH  15  16
ATOM     16  C   UNL     1      50.145  10.191  -7.316  1.00  0.00    -0.000 C 
BRANCH  16  17
ATOM     17  C   UNL     1      49.680  11.650  -7.210  1.00  0.00    -0.003 C 
ATOM     18  C   UNL     1      49.901  12.394  -8.524  1.00  0.00     0.004 C 
ENDBRANCH  16  17
ENDBRANCH  15  16
ENDBRANCH  14  15
ENDBRANCH  13  14
ENDBRANCH  12  13
ENDBRANCH  11  12
ENDBRANCH   1  11
TORSDOF 14
ENDMDL
MODEL 3
REMARK VINA RESULT:    -5.043     17.708     19.735
REMARK INTER + INTRA:         -11.476
REMARK INTER:                  -9.162
REMARK INTRA:                  -2.314
REMARK UNBOUND:                -2.305
REMARK SMILES CCCCCCCCCCCCCCCC(=O)[O-]
REMARK SMILES IDX 9 1 10 2 11 3 12 4 13 5 14 6 15 7 16 8 17 9 18 10 8 11 7 12
REMARK SMILES IDX 6 13 5 14 4 15 3 16 2 17 1 18
REMARK H PARENT
REMARK Flexibility Score: inf
ROOT
ATOM      1  C   UNL     1      45.881  13.052  -5.869  1.00  0.00     0.000 C 
ENDROOT
BRANCH   1   2
ATOM      2  C   UNL     1      45.868  13.303  -7.384  1.00  0.00     0.000 C 
BRANCH   2   3
ATOM      3  C   UNL     1      46.907  12.423  -8.095  1.00  0.00     0.000 C 
BRANCH   3   4
ATOM      4  C   UNL     1      46.604  12.229  -9.591  1.00  0.00     0.000 C 
BRANCH   4   5
ATOM      5  C   UNL     1      46.524  10.761 -10.057  1.00  0.00     0.000 C 
BRANCH   5   6
ATOM      6  C   UNL     1      45.098  10.221 -10.271  1.00  0.00     0.006 C 
BRANCH   6   7
ATOM      7  C   UNL     1      44.534   9.522  -9.028  1.00  0.00     0.053 C 
BRANCH   7   8
ATOM      8  C   UNL     1      43.597  10.431  -8.298  1.00  0.00     0.041 C 
ATOM      9  O   UNL     1      43.212  10.142  -7.134  1.00  0.00    -0.550 OA
ATOM     10  O   UNL     1      43.186  11.622  -8.882  1.00  0.00    -0.550 OA
ENDBRANCH   7   8
ENDBRANCH   6   7
ENDBRANCH   5   6
ENDBRANCH   4   5
ENDBRANCH   3   4
ENDBRANCH   2   3
ENDBRANCH   1   2
BRANCH   1  11
ATOM     11  C   UNL     1      45.872  11.555  -5.512  1.00  0.00     0.000 C 
BRANCH  11  12
ATOM     12  C   UNL     1      47.120  11.056  -4.754  1.00  0.00    -0.000 C 
BRANCH  12  13
ATOM     13  C   UNL     1      48.321  12.019  -4.756  1.00  0.00    -0.000 C 
BRANCH  13  14
ATOM     14  C   UNL     1      49.653  11.314  -5.064  1.00  0.00    -0.000 C 
BRANCH  14  15
ATOM     15  C   UNL     1      50.196  11.643  -6.467  1.00  0.00    -0.000 C 
BRANCH  15  16
ATOM     16  C   UNL     1      49.995  10.539  -7.522  1.00  0.00    -0.000 C 
BRANCH  16  17
ATOM     17  C   UNL     1      49.560   9.199  -6.913  1.00  0.00    -0.003 C 
ATOM     18  C   UNL     1      48.382   8.604  -7.679  1.00  0.00     0.004 C 
ENDBRANCH  16  17
ENDBRANCH  15  16
ENDBRANCH  14  15
ENDBRANCH  13  14
ENDBRANCH  12  13
ENDBRANCH  11  12
ENDBRANCH   1  11
TORSDOF 14
ENDMDL
MODEL 4
REMARK VINA RESULT:    -5.004      2.403      5.312
REMARK INTER + INTRA:         -11.404
REMARK INTER:                  -8.727
REMARK INTRA:                  -2.678
REMARK UNBOUND:                -2.305
REMARK SMILES CCCCCCCCCCCCCCCC(=O)[O-]
REMARK SMILES IDX 9 1 10 2 11 3 12 4 13 5 14 6 15 7 16 8 17 9 18 10 8 11 7 12
REMARK SMILES IDX 6 13 5 14 4 15 3 16 2 17 1 18
REMARK H PARENT
REMARK Flexibility Score: inf
ROOT
ATOM      1  C   UNL     1      35.794  -1.078   4.677  1.00  0.00     0.000 C 
ENDROOT
BRANCH   1   2
ATOM      2  C   UNL     1      35.985   0.033   3.634  1.00  0.00     0.000 C 
BRANCH   2   3
ATOM      3  C   UNL     1      34.630   0.551   3.130  1.00  0.00     0.000 C 
BRANCH   3   4
ATOM      4  C   UNL     1      34.384   2.028   3.487  1.00  0.00     0.000 C 
BRANCH   4   5
ATOM      5  C   UNL     1      33.888   2.279   4.926  1.00  0.00     0.000 C 
BRANCH   5   6
ATOM      6  C   UNL     1      33.562   3.747   5.257  1.00  0.00     0.006 C 
BRANCH   6   7
ATOM      7  C   UNL     1      33.751   4.079   6.742  1.00  0.00     0.053 C 
BRANCH   7   8
ATOM      8  C   UNL     1      34.627   5.280   6.902  1.00  0.00     0.041 C 
ATOM      9  O   UNL     1      34.596   6.205   6.047  1.00  0.00    -0.550 OA
ATOM     10  O   UNL     1      35.443   5.403   8.018  1.00  0.00    -0.550 OA
ENDBRANCH   7   8
ENDBRANCH   6   7
ENDBRANCH   5   6
ENDBRANCH   4   5
ENDBRANCH   3   4
ENDBRANCH   2   3
ENDBRANCH   1   2
BRANCH   1  11
ATOM     11  C   UNL     1      35.839  -0.554   6.123  1.00  0.00     0.000 C 
BRANCH  11  12
ATOM     12  C   UNL     1      37.057   0.329   6.462  1.00  0.00    -0.000 C 
BRANCH  12  13
ATOM     13  C   UNL     1      36.728   1.680   7.125  1.00  0.00    -0.000 C 
BRANCH  13  14
ATOM     14  C   UNL     1      37.678   2.809   6.689  1.00  0.00    -0.000 C 
BRANCH  14  15
ATOM     15  C   UNL     1      37.830   2.907   5.160  1.00  0.00    -0.000 C 
BRANCH  15  16
ATOM     16  C   UNL     1      37.224   4.171   4.522  1.00  0.00    -0.000 C 
BRANCH  16  17
ATOM     17  C   UNL     1      37.345   4.186   2.991  1.00  0.00    -0.003 C 
ATOM     18  C   UNL     1      37.904   2.865   2.471  1.00  0.00     0.004 C 
ENDBRANCH  16  17
ENDBRANCH  15  16
ENDBRANCH  14  15
ENDBRANCH  13  14
ENDBRANCH  12  13
ENDBRANCH  11  12
ENDBRANCH   1  11
TORSDOF 14
ENDMDL
MODEL 5
REMARK VINA RESULT:    -4.977      1.249      3.965
REMARK INTER + INTRA:         -11.356
REMARK INTER:                  -8.993
REMARK INTRA:                  -2.363
REMARK UNBOUND:                -2.305
REMARK SMILES CCCCCCCCCCCCCCCC(=O)[O-]
REMARK SMILES IDX 9 1 10 2 11 3 12 4 13 5 14 6 15 7 16 8 17 9 18 10 8 11 7 12
REMARK SMILES IDX 6 13 5 14 4 15 3 16 2 17 1 18
REMARK H PARENT
REMARK Flexibility Score: inf
ROOT
ATOM      1  C   UNL     1      35.684  -0.683   3.852  1.00  0.00     0.000 C 
ENDROOT
BRANCH   1   2
ATOM      2  C   UNL     1      36.759  -1.023   4.895  1.00  0.00     0.000 C 
BRANCH   2   3
ATOM      3  C   UNL     1      36.410  -0.413   6.261  1.00  0.00     0.000 C 
BRANCH   3   4
ATOM      4  C   UNL     1      37.591   0.340   6.898  1.00  0.00     0.000 C 
BRANCH   4   5
ATOM      5  C   UNL     1      37.493   1.878   6.839  1.00  0.00     0.000 C 
BRANCH   5   6
ATOM      6  C   UNL     1      38.446   2.555   5.837  1.00  0.00     0.006 C 
BRANCH   6   7
ATOM      7  C   UNL     1      37.824   2.721   4.444  1.00  0.00     0.053 C 
BRANCH   7   8
ATOM      8  C   UNL     1      38.758   2.214   3.391  1.00  0.00     0.041 C 
ATOM      9  O   UNL     1      39.873   2.772   3.212  1.00  0.00    -0.550 OA
ATOM     10  O   UNL     1      38.420   1.096   2.641  1.00  0.00    -0.550 OA
ENDBRANCH   7   8
ENDBRANCH   6   7
ENDBRANCH   5   6
ENDBRANCH   4   5
ENDBRANCH   3   4
ENDBRANCH   2   3
ENDBRANCH   1   2
BRANCH   1  11
ATOM     11  C   UNL     1      34.630   0.306   4.381  1.00  0.00     0.000 C 
BRANCH  11  12
ATOM     12  C   UNL     1      34.359   1.523   3.473  1.00  0.00    -0.000 C 
BRANCH  12  13
ATOM     13  C   UNL     1      34.007   2.829   4.209  1.00  0.00    -0.000 C 
BRANCH  13  14
ATOM     14  C   UNL     1      34.126   2.705   5.738  1.00  0.00    -0.000 C 
BRANCH  14  15
ATOM     15  C   UNL     1      33.729   3.996   6.477  1.00  0.00    -0.000 C 
BRANCH  15  16
ATOM     16  C   UNL     1      34.687   5.185   6.279  1.00  0.00    -0.000 C 
BRANCH  16  17
ATOM     17  C   UNL     1      35.878   5.164   7.247  1.00  0.00    -0.003 C 
ATOM     18  C   UNL     1      35.432   4.788   8.658  1.00  0.00     0.004 C 
ENDBRANCH  16  17
ENDBRANCH  15  16
ENDBRANCH  14  15
ENDBRANCH  13  14
ENDBRANCH  12  13
ENDBRANCH  11  12
ENDBRANCH   1  11
TORSDOF 14
ENDMDL
MODEL 6
REMARK VINA RESULT:    -4.974      2.088      3.739
REMARK INTER + INTRA:         -11.349
REMARK INTER:                  -8.798
REMARK INTRA:                  -2.552
REMARK UNBOUND:                -2.305
REMARK SMILES CCCCCCCCCCCCCCCC(=O)[O-]
REMARK SMILES IDX 9 1 10 2 11 3 12 4 13 5 14 6 15 7 16 8 17 9 18 10 8 11 7 12
REMARK SMILES IDX 6 13 5 14 4 15 3 16 2 17 1 18
REMARK H PARENT
REMARK Flexibility Score: inf
ROOT
ATOM      1  C   UNL     1      34.899   3.231   7.214  1.00  0.00     0.000 C 
ENDROOT
BRANCH   1   2
ATOM      2  C   UNL     1      33.719   4.137   6.835  1.00  0.00     0.000 C 
BRANCH   2   3
ATOM      3  C   UNL     1      33.156   3.755   5.458  1.00  0.00     0.000 C 
BRANCH   3   4
ATOM      4  C   UNL     1      34.116   2.871   4.643  1.00  0.00     0.000 C 
BRANCH   4   5
ATOM      5  C   UNL     1      34.274   3.271   3.161  1.00  0.00     0.000 C 
BRANCH   5   6
ATOM      6  C   UNL     1      35.678   3.762   2.764  1.00  0.00     0.006 C 
BRANCH   6   7
ATOM      7  C   UNL     1      36.616   3.923   3.968  1.00  0.00     0.053 C 
BRANCH   7   8
ATOM      8  C   UNL     1      36.818   5.371   4.282  1.00  0.00     0.041 C 
ATOM      9  O   UNL     1      35.900   6.034   4.832  1.00  0.00    -0.550 OA
ATOM     10  O   UNL     1      38.038   5.978   4.012  1.00  0.00    -0.550 OA
ENDBRANCH   7   8
ENDBRANCH   6   7
ENDBRANCH   5   6
ENDBRANCH   4   5
ENDBRANCH   3   4
ENDBRANCH   2   3
ENDBRANCH   1   2
BRANCH   1  11
ATOM     11  C   UNL     1      34.630   2.398   8.480  1.00  0.00     0.000 C 
BRANCH  11  12
ATOM     12  C   UNL     1      33.453   1.406   8.372  1.00  0.00    -0.000 C 
BRANCH  12  13
ATOM     13  C   UNL     1      33.831  -0.018   7.924  1.00  0.00    -0.000 C 
BRANCH  13  14
ATOM     14  C   UNL     1      33.393  -0.329   6.483  1.00  0.00    -0.000 C 
BRANCH  14  15
ATOM     15  C   UNL     1      34.578  -0.447   5.507  1.00  0.00    -0.000 C 
BRANCH  15  16
ATOM     16  C   UNL     1      35.951  -0.668   6.169  1.00  0.00    -0.000 C 
BRANCH  16  17
ATOM     17  C   UNL     1      36.978   0.409   5.794  1.00  0.00    -0.003 C 
ATOM     18  C   UNL     1      37.775   0.858   7.015  1.00  0.00     0.004 C 
ENDBRANCH  16  17
ENDBRANCH  15  16
ENDBRANCH  14  15
ENDBRANCH  13  14
ENDBRANCH  12  13
ENDBRANCH  11  12
ENDBRANCH   1  11
TORSDOF 14
ENDMDL
MODEL 7
REMARK VINA RESULT:    -4.960      2.237      4.008
REMARK INTER + INTRA:         -11.324
REMARK INTER:                  -8.575
REMARK INTRA:                  -2.749
REMARK UNBOUND:                -2.305
REMARK SMILES CCCCCCCCCCCCCCCC(=O)[O-]
REMARK SMILES IDX 9 1 10 2 11 3 12 4 13 5 14 6 15 7 16 8 17 9 18 10 8 11 7 12
REMARK SMILES IDX 6 13 5 14 4 15 3 16 2 17 1 18
REMARK H PARENT
REMARK Flexibility Score: inf
ROOT
ATOM      1  C   UNL     1      34.303   5.152   6.854  1.00  0.00     0.000 C 
ENDROOT
BRANCH   1   2
ATOM      2  C   UNL     1      35.838   5.113   6.876  1.00  0.00     0.000 C 
BRANCH   2   3
ATOM      3  C   UNL     1      36.345   3.879   7.638  1.00  0.00     0.000 C 
BRANCH   3   4
ATOM      4  C   UNL     1      37.531   3.190   6.940  1.00  0.00     0.000 C 
BRANCH   4   5
ATOM      5  C   UNL     1      37.479   1.649   6.933  1.00  0.00     0.000 C 
BRANCH   5   6
ATOM      6  C   UNL     1      36.067   1.044   6.828  1.00  0.00     0.006 C 
BRANCH   6   7
ATOM      7  C   UNL     1      36.055  -0.320   6.127  1.00  0.00     0.053 C 
BRANCH   7   8
ATOM      8  C   UNL     1      34.704  -0.596   5.546  1.00  0.00     0.041 C 
ATOM      9  O   UNL     1      34.596  -0.985   4.353  1.00  0.00    -0.550 OA
ATOM     10  O   UNL     1      33.568  -0.472   6.334  1.00  0.00    -0.550 OA
ENDBRANCH   7   8
ENDBRANCH   6   7
ENDBRANCH   5   6
ENDBRANCH   4   5
ENDBRANCH   3   4
ENDBRANCH   2   3
ENDBRANCH   1   2
BRANCH   1  11
ATOM     11  C   UNL     1      33.675   3.775   6.574  1.00  0.00     0.000 C 
BRANCH  11  12
ATOM     12  C   UNL     1      33.123   3.585   5.146  1.00  0.00    -0.000 C 
BRANCH  12  13
ATOM     13  C   UNL     1      34.028   2.785   4.191  1.00  0.00    -0.000 C 
BRANCH  13  14
ATOM     14  C   UNL     1      35.027   3.673   3.429  1.00  0.00    -0.000 C 
BRANCH  14  15
ATOM     15  C   UNL     1      36.466   3.128   3.470  1.00  0.00    -0.000 C 
BRANCH  15  16
ATOM     16  C   UNL     1      36.617   1.645   3.084  1.00  0.00    -0.000 C 
BRANCH  16  17
ATOM     17  C   UNL     1      38.049   1.121   3.261  1.00  0.00    -0.003 C 
ATOM     18  C   UNL     1      39.027   2.267   3.500  1.00  0.00     0.004 C 
ENDBRANCH  16  17
ENDBRANCH  15  16
ENDBRANCH  14  15
ENDBRANCH  13  14
ENDBRANCH  12  13
ENDBRANCH  11  12
ENDBRANCH   1  11
TORSDOF 14
ENDMDL
MODEL 8
REMARK VINA RESULT:    -4.952      2.098      3.700
REMARK INTER + INTRA:         -11.310
REMARK INTER:                  -9.019
REMARK INTRA:                  -2.291
REMARK UNBOUND:                -2.305
REMARK SMILES CCCCCCCCCCCCCCCC(=O)[O-]
REMARK SMILES IDX 9 1 10 2 11 3 12 4 13 5 14 6 15 7 16 8 17 9 18 10 8 11 7 12
REMARK SMILES IDX 6 13 5 14 4 15 3 16 2 17 1 18
REMARK H PARENT
REMARK Flexibility Score: inf
ROOT
ATOM      1  C   UNL     1      34.699   4.127   7.771  1.00  0.00     0.000 C 
ENDROOT
BRANCH   1   2
ATOM      2  C   UNL     1      33.510   3.744   6.878  1.00  0.00     0.000 C 
BRANCH   2   3
ATOM      3  C   UNL     1      33.770   4.145   5.418  1.00  0.00     0.000 C 
BRANCH   3   4
ATOM      4  C   UNL     1      33.362   3.050   4.416  1.00  0.00     0.000 C 
BRANCH   4   5
ATOM      5  C   UNL     1      34.490   2.567   3.482  1.00  0.00     0.000 C 
BRANCH   5   6
ATOM      6  C   UNL     1      35.813   3.346   3.598  1.00  0.00     0.006 C 
BRANCH   6   7
ATOM      7  C   UNL     1      35.955   4.439   2.531  1.00  0.00     0.053 C 
BRANCH   7   8
ATOM      8  C   UNL     1      36.740   5.594   3.068  1.00  0.00     0.041 C 
ATOM      9  O   UNL     1      36.519   6.024   4.231  1.00  0.00    -0.550 OA
ATOM     10  O   UNL     1      37.750   6.165   2.305  1.00  0.00    -0.550 OA
ENDBRANCH   7   8
ENDBRANCH   6   7
ENDBRANCH   5   6
ENDBRANCH   4   5
ENDBRANCH   3   4
ENDBRANCH   2   3
ENDBRANCH   1   2
BRANCH   1  11
ATOM     11  C   UNL     1      35.815   3.068   7.766  1.00  0.00     0.000 C 
BRANCH  11  12
ATOM     12  C   UNL     1      37.186   3.563   7.260  1.00  0.00    -0.000 C 
BRANCH  12  13
ATOM     13  C   UNL     1      38.042   2.507   6.537  1.00  0.00    -0.000 C 
BRANCH  13  14
ATOM     14  C   UNL     1      37.648   1.065   6.903  1.00  0.00    -0.000 C 
BRANCH  14  15
ATOM     15  C   UNL     1      37.063   0.283   5.712  1.00  0.00    -0.000 C 
BRANCH  15  16
ATOM     16  C   UNL     1      35.984  -0.754   6.076  1.00  0.00    -0.000 C 
BRANCH  16  17
ATOM     17  C   UNL     1      34.573  -0.327   5.649  1.00  0.00    -0.003 C 
ATOM     18  C   UNL     1      33.722   0.045   6.860  1.00  0.00     0.004 C 
ENDBRANCH  16  17
ENDBRANCH  15  16
ENDBRANCH  14  15
ENDBRANCH  13  14
ENDBRANCH  12  13
ENDBRANCH  11  12
ENDBRANCH   1  11
TORSDOF 14
ENDMDL
MODEL 9
REMARK VINA RESULT:    -4.932     16.534     19.419
REMARK INTER + INTRA:         -11.274
REMARK INTER:                  -8.669
REMARK INTRA:                  -2.605
REMARK UNBOUND:                -2.305
REMARK SMILES CCCCCCCCCCCCCCCC(=O)[O-]
REMARK SMILES IDX 9 1 10 2 11 3 12 4 13 5 14 6 15 7 16 8 17 9 18 10 8 11 7 12
REMARK SMILES IDX 6 13 5 14 4 15 3 16 2 17 1 18
REMARK H PARENT
REMARK Flexibility Score: inf
ROOT
ATOM      1  C   UNL     1      49.271  11.923  -7.203  1.00  0.00     0.000 C 
ENDROOT
BRANCH   1   2
ATOM      2  C   UNL     1      49.413  10.685  -8.100  1.00  0.00     0.000 C 
BRANCH   2   3
ATOM      3  C   UNL     1      49.604   9.416  -7.256  1.00  0.00     0.000 C 
BRANCH   3   4
ATOM      4  C   UNL     1      48.781   8.223  -7.775  1.00  0.00     0.000 C 
BRANCH   4   5
ATOM      5  C   UNL     1      47.347   8.567  -8.230  1.00  0.00     0.000 C 
BRANCH   5   6
ATOM      6  C   UNL     1      46.280   8.510  -7.122  1.00  0.00     0.006 C 
BRANCH   6   7
ATOM      7  C   UNL     1      46.654   7.552  -5.984  1.00  0.00     0.053 C 
BRANCH   7   8
ATOM      8  C   UNL     1      46.770   8.296  -4.692  1.00  0.00     0.041 C 
ATOM      9  O   UNL     1      47.905   8.554  -4.210  1.00  0.00    -0.550 OA
ATOM     10  O   UNL     1      45.629   8.749  -4.044  1.00  0.00    -0.550 OA
ENDBRANCH   7   8
ENDBRANCH   6   7
ENDBRANCH   5   6
ENDBRANCH   4   5
ENDBRANCH   3   4
ENDBRANCH   2   3
ENDBRANCH   1   2
BRANCH   1  11
ATOM     11  C   UNL     1      48.982  11.567  -5.734  1.00  0.00     0.000 C 
BRANCH  11  12
ATOM     12  C   UNL     1      47.778  12.300  -5.107  1.00  0.00    -0.000 C 
BRANCH  12  13
ATOM     13  C   UNL     1      46.396  11.864  -5.630  1.00  0.00    -0.000 C 
BRANCH  13  14
ATOM     14  C   UNL     1      45.852  12.791  -6.730  1.00  0.00    -0.000 C 
BRANCH  14  15
ATOM     15  C   UNL     1      45.441  12.032  -8.005  1.00  0.00    -0.000 C 
BRANCH  15  16
ATOM     16  C   UNL     1      46.215  12.422  -9.278  1.00  0.00    -0.000 C 
BRANCH  16  17
ATOM     17  C   UNL     1      46.365  11.259 -10.269  1.00  0.00    -0.003 C 
ATOM     18  C   UNL     1      45.036  10.538 -10.475  1.00  0.00     0.004 C 
ENDBRANCH  16  17
ENDBRANCH  15  16
ENDBRANCH  14  15
ENDBRANCH  13  14
ENDBRANCH  12  13
ENDBRANCH  11  12
ENDBRANCH   1  11
TORSDOF 14
ENDMDL
