MODEL 1
REMARK VINA RESULT:    -6.001      0.000      0.000
REMARK INTER + INTRA:          -7.319
REMARK INTER:                  -7.053
REMARK INTRA:                  -0.266
REMARK UNBOUND:                -0.266
REMARK SMILES O=c1cc(-c2ccc(O)c(O)c2)oc2cc(O)cc(O)c12
REMARK SMILES IDX 4 1 3 2 2 3 1 4 21 5 19 6 18 7 16 8 15 9 14 10 13 11 5 12
REMARK SMILES IDX 6 13 7 14 8 15 12 16 10 17 9 18 11 20 20 22 17 24
REMARK H PARENT 9 19 11 21 20 23 17 25
REMARK Flexibility Score: inf
ROOT
ATOM      1  C   UNL     1     138.546 147.392 120.421  1.00  0.00     0.138 A 
ATOM      2  C   UNL     1     137.674 148.268 121.082  1.00  0.00     0.100 A 
ATOM      3  C   UNL     1     137.988 149.626 121.161  1.00  0.00     0.197 A 
ATOM      4  O   UNL     1     137.219 150.376 121.815  1.00  0.00    -0.289 OA
ATOM      5  C   UNL     1     139.167 150.111 120.546  1.00  0.00     0.107 A 
ATOM      6  C   UNL     1     139.568 151.481 120.527  1.00  0.00     0.134 A 
ATOM      7  C   UNL     1     140.813 151.828 119.988  1.00  0.00     0.093 A 
ATOM      8  C   UNL     1     141.644 150.866 119.415  1.00  0.00     0.123 A 
ATOM      9  C   UNL     1     141.238 149.530 119.380  1.00  0.00     0.094 A 
ATOM     10  C   UNL     1     140.016 149.148 119.940  1.00  0.00     0.146 A 
ATOM     11  O   UNL     1     139.673 147.865 119.900  1.00  0.00    -0.456 OA
ENDROOT
BRANCH   1  12
ATOM     12  C   UNL     1     138.259 145.940 120.307  1.00  0.00     0.021 A 
ATOM     13  C   UNL     1     137.838 145.362 119.097  1.00  0.00     0.016 A 
ATOM     14  C   UNL     1     137.586 143.991 119.016  1.00  0.00     0.051 A 
ATOM     15  C   UNL     1     137.754 143.166 120.133  1.00  0.00     0.157 A 
ATOM     16  C   UNL     1     138.442 145.107 121.425  1.00  0.00     0.062 A 
ATOM     17  C   UNL     1     138.191 143.732 121.354  1.00  0.00     0.158 A 
BRANCH  15  18
ATOM     18  O   UNL     1     137.482 141.805 119.986  1.00  0.00    -0.504 OA
ATOM     19  H   UNL     1     137.766 141.256 119.189  1.00  0.00     0.293 HD
ENDBRANCH  15  18
BRANCH  17  20
ATOM     20  O   UNL     1     138.386 142.973 122.509  1.00  0.00    -0.504 OA
ATOM     21  H   UNL     1     137.736 142.941 123.282  1.00  0.00     0.293 HD
ENDBRANCH  17  20
ENDBRANCH   1  12
BRANCH   6  22
ATOM     22  O   UNL     1     138.776 152.533 120.997  1.00  0.00    -0.507 OA
ATOM     23  H   UNL     1     138.050 152.444 121.689  1.00  0.00     0.293 HD
ENDBRANCH   6  22
BRANCH   8  24
ATOM     24  O   UNL     1     142.869 151.250 118.875  1.00  0.00    -0.508 OA
ATOM     25  H   UNL     1     142.936 151.655 117.948  1.00  0.00     0.293 HD
ENDBRANCH   8  24
TORSDOF 5
ENDMDL
MODEL 2
REMARK VINA RESULT:    -5.934      1.157      2.679
REMARK INTER + INTRA:          -7.241
REMARK INTER:                  -6.968
REMARK INTRA:                  -0.273
REMARK UNBOUND:                -0.266
REMARK SMILES O=c1cc(-c2ccc(O)c(O)c2)oc2cc(O)cc(O)c12
REMARK SMILES IDX 4 1 3 2 2 3 1 4 21 5 19 6 18 7 16 8 15 9 14 10 13 11 5 12
REMARK SMILES IDX 6 13 7 14 8 15 12 16 10 17 9 18 11 20 20 22 17 24
REMARK H PARENT 9 19 11 21 20 23 17 25
REMARK Flexibility Score: inf
ROOT
ATOM      1  C   UNL     1     139.058 147.376 120.149  1.00  0.00     0.138 A 
ATOM      2  C   UNL     1     140.229 147.804 119.509  1.00  0.00     0.100 A 
ATOM      3  C   UNL     1     140.562 149.160 119.513  1.00  0.00     0.197 A 
ATOM      4  O   UNL     1     141.585 149.522 118.876  1.00  0.00    -0.289 OA
ATOM      5  C   UNL     1     139.731 150.085 120.190  1.00  0.00     0.107 A 
ATOM      6  C   UNL     1     139.992 151.485 120.294  1.00  0.00     0.134 A 
ATOM      7  C   UNL     1     139.040 152.322 120.889  1.00  0.00     0.093 A 
ATOM      8  C   UNL     1     137.867 151.803 121.436  1.00  0.00     0.123 A 
ATOM      9  C   UNL     1     137.626 150.429 121.386  1.00  0.00     0.094 A 
ATOM     10  C   UNL     1     138.541 149.572 120.769  1.00  0.00     0.146 A 
ATOM     11  O   UNL     1     138.268 148.273 120.730  1.00  0.00    -0.456 OA
ENDROOT
BRANCH   1  12
ATOM     12  C   UNL     1     138.658 145.947 120.176  1.00  0.00     0.021 A 
ATOM     13  C   UNL     1     138.338 145.246 119.000  1.00  0.00     0.016 A 
ATOM     14  C   UNL     1     137.975 143.899 119.055  1.00  0.00     0.051 A 
ATOM     15  C   UNL     1     137.931 143.219 120.277  1.00  0.00     0.157 A 
ATOM     16  C   UNL     1     138.628 145.259 121.402  1.00  0.00     0.062 A 
ATOM     17  C   UNL     1     138.264 143.908 121.466  1.00  0.00     0.158 A 
BRANCH  15  18
ATOM     18  O   UNL     1     137.557 141.874 120.262  1.00  0.00    -0.504 OA
ATOM     19  H   UNL     1     136.896 141.479 119.610  1.00  0.00     0.293 HD
ENDBRANCH  15  18
BRANCH  17  20
ATOM     20  O   UNL     1     138.248 143.296 122.721  1.00  0.00    -0.504 OA
ATOM     21  H   UNL     1     137.420 143.196 123.291  1.00  0.00     0.293 HD
ENDBRANCH  17  20
ENDBRANCH   1  12
BRANCH   6  22
ATOM     22  O   UNL     1     141.172 152.094 119.857  1.00  0.00    -0.507 OA
ATOM     23  H   UNL     1     141.369 152.353 118.903  1.00  0.00     0.293 HD
ENDBRANCH   6  22
BRANCH   8  24
ATOM     24  O   UNL     1     136.949 152.664 122.033  1.00  0.00    -0.508 OA
ATOM     25  H   UNL     1     136.065 152.326 122.398  1.00  0.00     0.293 HD
ENDBRANCH   8  24
TORSDOF 5
ENDMDL
MODEL 3
REMARK VINA RESULT:    -5.841      2.010      3.119
REMARK INTER + INTRA:          -7.132
REMARK INTER:                  -6.835
REMARK INTRA:                  -0.296
REMARK UNBOUND:                -0.266
REMARK SMILES O=c1cc(-c2ccc(O)c(O)c2)oc2cc(O)cc(O)c12
REMARK SMILES IDX 4 1 3 2 2 3 1 4 21 5 19 6 18 7 16 8 15 9 14 10 13 11 5 12
REMARK SMILES IDX 6 13 7 14 8 15 12 16 10 17 9 18 11 20 20 22 17 24
REMARK H PARENT 9 19 11 21 20 23 17 25
REMARK Flexibility Score: inf
ROOT
ATOM      1  C   UNL     1     139.062 150.146 120.313  1.00  0.00     0.138 A 
ATOM      2  C   UNL     1     138.085 151.148 120.247  1.00  0.00     0.100 A 
ATOM      3  C   UNL     1     138.473 152.488 120.189  1.00  0.00     0.197 A 
ATOM      4  O   UNL     1     137.573 153.367 120.195  1.00  0.00    -0.289 OA
ATOM      5  C   UNL     1     139.849 152.820 120.164  1.00  0.00     0.107 A 
ATOM      6  C   UNL     1     140.361 154.149 120.066  1.00  0.00     0.134 A 
ATOM      7  C   UNL     1     141.741 154.366 120.167  1.00  0.00     0.093 A 
ATOM      8  C   UNL     1     142.629 153.300 120.304  1.00  0.00     0.123 A 
ATOM      9  C   UNL     1     142.143 151.992 120.348  1.00  0.00     0.094 A 
ATOM     10  C   UNL     1     140.769 151.746 120.283  1.00  0.00     0.146 A 
ATOM     11  O   UNL     1     140.346 150.489 120.343  1.00  0.00    -0.456 OA
ENDROOT
BRANCH   1  12
ATOM     12  C   UNL     1     138.705 148.706 120.375  1.00  0.00     0.021 A 
ATOM     13  C   UNL     1     137.622 148.246 121.145  1.00  0.00     0.016 A 
ATOM     14  C   UNL     1     137.302 146.887 121.176  1.00  0.00     0.051 A 
ATOM     15  C   UNL     1     138.046 145.960 120.438  1.00  0.00     0.157 A 
ATOM     16  C   UNL     1     139.442 147.776 119.622  1.00  0.00     0.062 A 
ATOM     17  C   UNL     1     139.130 146.411 119.648  1.00  0.00     0.158 A 
BRANCH  15  18
ATOM     18  O   UNL     1     137.676 144.616 120.516  1.00  0.00    -0.504 OA
ATOM     19  H   UNL     1     137.969 143.911 119.856  1.00  0.00     0.293 HD
ENDBRANCH  15  18
BRANCH  17  20
ATOM     20  O   UNL     1     139.914 145.547 118.882  1.00  0.00    -0.504 OA
ATOM     21  H   UNL     1     139.621 144.626 118.590  1.00  0.00     0.293 HD
ENDBRANCH  17  20
ENDBRANCH   1  12
BRANCH   6  22
ATOM     22  O   UNL     1     139.566 155.278 119.843  1.00  0.00    -0.507 OA
ATOM     23  H   UNL     1     139.830 156.223 120.072  1.00  0.00     0.293 HD
ENDBRANCH   6  22
BRANCH   8  24
ATOM     24  O   UNL     1     143.997 153.552 120.387  1.00  0.00    -0.508 OA
ATOM     25  H   UNL     1     144.534 153.834 119.575  1.00  0.00     0.293 HD
ENDBRANCH   8  24
TORSDOF 5
ENDMDL
MODEL 4
REMARK VINA RESULT:    -5.819      4.437      7.476
REMARK INTER + INTRA:          -7.106
REMARK INTER:                  -6.820
REMARK INTRA:                  -0.286
REMARK UNBOUND:                -0.266
REMARK SMILES O=c1cc(-c2ccc(O)c(O)c2)oc2cc(O)cc(O)c12
REMARK SMILES IDX 4 1 3 2 2 3 1 4 21 5 19 6 18 7 16 8 15 9 14 10 13 11 5 12
REMARK SMILES IDX 6 13 7 14 8 15 12 16 10 17 9 18 11 20 20 22 17 24
REMARK H PARENT 9 19 11 21 20 23 17 25
REMARK Flexibility Score: inf
ROOT
ATOM      1  C   UNL     1     141.232 153.904 120.378  1.00  0.00     0.138 A 
ATOM      2  C   UNL     1     142.222 154.379 121.250  1.00  0.00     0.100 A 
ATOM      3  C   UNL     1     142.279 155.741 121.553  1.00  0.00     0.197 A 
ATOM      4  O   UNL     1     143.217 156.147 122.287  1.00  0.00    -0.289 OA
ATOM      5  C   UNL     1     141.318 156.624 121.004  1.00  0.00     0.107 A 
ATOM      6  C   UNL     1     141.254 158.024 121.275  1.00  0.00     0.134 A 
ATOM      7  C   UNL     1     140.331 158.819 120.584  1.00  0.00     0.093 A 
ATOM      8  C   UNL     1     139.432 158.257 119.679  1.00  0.00     0.123 A 
ATOM      9  C   UNL     1     139.450 156.880 119.446  1.00  0.00     0.094 A 
ATOM     10  C   UNL     1     140.382 156.066 120.094  1.00  0.00     0.146 A 
ATOM     11  O   UNL     1     140.376 154.763 119.834  1.00  0.00    -0.456 OA
ENDROOT
BRANCH   1  12
ATOM     12  C   UNL     1     141.126 152.466 120.024  1.00  0.00     0.021 A 
ATOM     13  C   UNL     1     139.898 151.882 119.666  1.00  0.00     0.016 A 
ATOM     14  C   UNL     1     139.830 150.529 119.327  1.00  0.00     0.051 A 
ATOM     15  C   UNL     1     140.980 149.733 119.329  1.00  0.00     0.157 A 
ATOM     16  C   UNL     1     142.283 151.668 120.011  1.00  0.00     0.062 A 
ATOM     17  C   UNL     1     142.224 150.311 119.674  1.00  0.00     0.158 A 
BRANCH  15  18
ATOM     18  O   UNL     1     140.842 148.387 118.983  1.00  0.00    -0.504 OA
ATOM     19  H   UNL     1     141.234 147.976 118.149  1.00  0.00     0.293 HD
ENDBRANCH  15  18
BRANCH  17  20
ATOM     20  O   UNL     1     143.414 149.581 119.693  1.00  0.00    -0.504 OA
ATOM     21  H   UNL     1     144.237 149.828 119.163  1.00  0.00     0.293 HD
ENDBRANCH  17  20
ENDBRANCH   1  12
BRANCH   6  22
ATOM     22  O   UNL     1     142.050 158.673 122.223  1.00  0.00    -0.507 OA
ATOM     23  H   UNL     1     142.518 158.219 122.992  1.00  0.00     0.293 HD
ENDBRANCH   6  22
BRANCH   8  24
ATOM     24  O   UNL     1     138.518 159.076 119.020  1.00  0.00    -0.508 OA
ATOM     25  H   UNL     1     137.786 158.690 118.435  1.00  0.00     0.293 HD
ENDBRANCH   8  24
TORSDOF 5
ENDMDL
MODEL 5
REMARK VINA RESULT:    -5.797      3.508      9.172
REMARK INTER + INTRA:          -7.080
REMARK INTER:                  -6.809
REMARK INTRA:                  -0.271
REMARK UNBOUND:                -0.266
REMARK SMILES O=c1cc(-c2ccc(O)c(O)c2)oc2cc(O)cc(O)c12
REMARK SMILES IDX 4 1 3 2 2 3 1 4 21 5 19 6 18 7 16 8 15 9 14 10 13 11 5 12
REMARK SMILES IDX 6 13 7 14 8 15 12 16 10 17 9 18 11 20 20 22 17 24
REMARK H PARENT 9 19 11 21 20 23 17 25
REMARK Flexibility Score: inf
ROOT
ATOM      1  C   UNL     1     141.251 153.439 120.462  1.00  0.00     0.138 A 
ATOM      2  C   UNL     1     142.342 152.633 120.111  1.00  0.00     0.100 A 
ATOM      3  C   UNL     1     142.146 151.271 119.875  1.00  0.00     0.197 A 
ATOM      4  O   UNL     1     143.154 150.561 119.624  1.00  0.00    -0.289 OA
ATOM      5  C   UNL     1     140.844 150.723 119.960  1.00  0.00     0.107 A 
ATOM      6  C   UNL     1     140.519 149.357 119.701  1.00  0.00     0.134 A 
ATOM      7  C   UNL     1     139.215 148.903 119.930  1.00  0.00     0.093 A 
ATOM      8  C   UNL     1     138.212 149.775 120.350  1.00  0.00     0.123 A 
ATOM      9  C   UNL     1     138.506 151.124 120.555  1.00  0.00     0.094 A 
ATOM     10  C   UNL     1     139.806 151.601 120.368  1.00  0.00     0.146 A 
ATOM     11  O   UNL     1     140.048 152.888 120.588  1.00  0.00    -0.456 OA
ENDROOT
BRANCH   1  12
ATOM     12  C   UNL     1     141.403 154.893 120.722  1.00  0.00     0.021 A 
ATOM     13  C   UNL     1     140.570 155.845 120.109  1.00  0.00     0.016 A 
ATOM     14  C   UNL     1     140.729 157.205 120.381  1.00  0.00     0.051 A 
ATOM     15  C   UNL     1     141.713 157.646 121.272  1.00  0.00     0.157 A 
ATOM     16  C   UNL     1     142.381 155.336 121.629  1.00  0.00     0.062 A 
ATOM     17  C   UNL     1     142.549 156.698 121.907  1.00  0.00     0.158 A 
BRANCH  15  18
ATOM     18  O   UNL     1     141.821 159.019 121.497  1.00  0.00    -0.504 OA
ATOM     19  H   UNL     1     142.496 159.438 122.120  1.00  0.00     0.293 HD
ENDBRANCH  15  18
BRANCH  17  20
ATOM     20  O   UNL     1     143.548 157.061 122.811  1.00  0.00    -0.504 OA
ATOM     21  H   UNL     1     144.102 156.400 123.338  1.00  0.00     0.293 HD
ENDBRANCH  17  20
ENDBRANCH   1  12
BRANCH   6  22
ATOM     22  O   UNL     1     141.428 148.421 119.198  1.00  0.00    -0.507 OA
ATOM     23  H   UNL     1     141.189 147.488 118.900  1.00  0.00     0.293 HD
ENDBRANCH   6  22
BRANCH   8  24
ATOM     24  O   UNL     1     136.921 149.291 120.554  1.00  0.00    -0.508 OA
ATOM     25  H   UNL     1     136.178 149.467 119.887  1.00  0.00     0.293 HD
ENDBRANCH   8  24
TORSDOF 5
ENDMDL
MODEL 6
REMARK VINA RESULT:    -5.702      2.435      4.755
REMARK INTER + INTRA:          -6.968
REMARK INTER:                  -6.673
REMARK INTRA:                  -0.295
REMARK UNBOUND:                -0.266
REMARK SMILES O=c1cc(-c2ccc(O)c(O)c2)oc2cc(O)cc(O)c12
REMARK SMILES IDX 4 1 3 2 2 3 1 4 21 5 19 6 18 7 16 8 15 9 14 10 13 11 5 12
REMARK SMILES IDX 6 13 7 14 8 15 12 16 10 17 9 18 11 20 20 22 17 24
REMARK H PARENT 9 19 11 21 20 23 17 25
REMARK Flexibility Score: inf
ROOT
ATOM      1  C   UNL     1     140.162 150.822 120.240  1.00  0.00     0.138 A 
ATOM      2  C   UNL     1     141.503 150.863 119.835  1.00  0.00     0.100 A 
ATOM      3  C   UNL     1     142.249 152.027 120.032  1.00  0.00     0.197 A 
ATOM      4  O   UNL     1     143.430 152.055 119.601  1.00  0.00    -0.289 OA
ATOM      5  C   UNL     1     141.654 153.143 120.667  1.00  0.00     0.107 A 
ATOM      6  C   UNL     1     142.328 154.368 120.956  1.00  0.00     0.134 A 
ATOM      7  C   UNL     1     141.606 155.446 121.483  1.00  0.00     0.093 A 
ATOM      8  C   UNL     1     140.250 155.325 121.786  1.00  0.00     0.123 A 
ATOM      9  C   UNL     1     139.593 154.115 121.556  1.00  0.00     0.094 A 
ATOM     10  C   UNL     1     140.278 153.032 121.000  1.00  0.00     0.146 A 
ATOM     11  O   UNL     1     139.613 151.903 120.784  1.00  0.00    -0.456 OA
ENDROOT
BRANCH   1  12
ATOM     12  C   UNL     1     139.325 149.610 120.055  1.00  0.00     0.021 A 
ATOM     13  C   UNL     1     137.944 149.618 120.316  1.00  0.00     0.016 A 
ATOM     14  C   UNL     1     137.179 148.466 120.123  1.00  0.00     0.051 A 
ATOM     15  C   UNL     1     137.770 147.285 119.662  1.00  0.00     0.157 A 
ATOM     16  C   UNL     1     139.915 148.427 119.577  1.00  0.00     0.062 A 
ATOM     17  C   UNL     1     139.157 147.266 119.383  1.00  0.00     0.158 A 
BRANCH  15  18
ATOM     18  O   UNL     1     136.950 146.168 119.494  1.00  0.00    -0.504 OA
ATOM     19  H   UNL     1     137.244 145.315 119.040  1.00  0.00     0.293 HD
ENDBRANCH  15  18
BRANCH  17  20
ATOM     20  O   UNL     1     139.815 146.127 118.915  1.00  0.00    -0.504 OA
ATOM     21  H   UNL     1     139.841 145.246 119.408  1.00  0.00     0.293 HD
ENDBRANCH  17  20
ENDBRANCH   1  12
BRANCH   6  22
ATOM     22  O   UNL     1     143.700 154.566 120.771  1.00  0.00    -0.507 OA
ATOM     23  H   UNL     1     144.199 154.384 119.915  1.00  0.00     0.293 HD
ENDBRANCH   6  22
BRANCH   8  24
ATOM     24  O   UNL     1     139.567 156.414 122.323  1.00  0.00    -0.508 OA
ATOM     25  H   UNL     1     139.969 157.344 122.323  1.00  0.00     0.293 HD
ENDBRANCH   8  24
TORSDOF 5
ENDMDL
MODEL 7
REMARK VINA RESULT:    -5.680      3.528      6.009
REMARK INTER + INTRA:          -6.942
REMARK INTER:                  -6.640
REMARK INTRA:                  -0.302
REMARK UNBOUND:                -0.266
REMARK SMILES O=c1cc(-c2ccc(O)c(O)c2)oc2cc(O)cc(O)c12
REMARK SMILES IDX 4 1 3 2 2 3 1 4 21 5 19 6 18 7 16 8 15 9 14 10 13 11 5 12
REMARK SMILES IDX 6 13 7 14 8 15 12 16 10 17 9 18 11 20 20 22 17 24
REMARK H PARENT 9 19 11 21 20 23 17 25
REMARK Flexibility Score: inf
ROOT
ATOM      1  C   UNL     1     140.030 152.825 119.756  1.00  0.00     0.138 A 
ATOM      2  C   UNL     1     139.054 153.648 119.178  1.00  0.00     0.100 A 
ATOM      3  C   UNL     1     139.126 155.031 119.354  1.00  0.00     0.197 A 
ATOM      4  O   UNL     1     138.201 155.739 118.877  1.00  0.00    -0.289 OA
ATOM      5  C   UNL     1     140.199 155.592 120.087  1.00  0.00     0.107 A 
ATOM      6  C   UNL     1     140.396 156.991 120.296  1.00  0.00     0.134 A 
ATOM      7  C   UNL     1     141.429 157.424 121.136  1.00  0.00     0.093 A 
ATOM      8  C   UNL     1     142.308 156.515 121.724  1.00  0.00     0.123 A 
ATOM      9  C   UNL     1     142.157 155.148 121.483  1.00  0.00     0.094 A 
ATOM     10  C   UNL     1     141.115 154.682 120.677  1.00  0.00     0.146 A 
ATOM     11  O   UNL     1     140.997 153.374 120.485  1.00  0.00    -0.456 OA
ENDROOT
BRANCH   1  12
ATOM     12  C   UNL     1     140.003 151.349 119.600  1.00  0.00     0.021 A 
ATOM     13  C   UNL     1     138.794 150.635 119.525  1.00  0.00     0.016 A 
ATOM     14  C   UNL     1     138.799 149.248 119.367  1.00  0.00     0.051 A 
ATOM     15  C   UNL     1     140.003 148.544 119.272  1.00  0.00     0.157 A 
ATOM     16  C   UNL     1     141.213 150.641 119.490  1.00  0.00     0.062 A 
ATOM     17  C   UNL     1     141.227 149.250 119.332  1.00  0.00     0.158 A 
BRANCH  15  18
ATOM     18  O   UNL     1     139.938 147.157 119.119  1.00  0.00    -0.504 OA
ATOM     19  H   UNL     1     139.745 146.514 119.872  1.00  0.00     0.293 HD
ENDBRANCH  15  18
BRANCH  17  20
ATOM     20  O   UNL     1     142.468 148.617 119.240  1.00  0.00    -0.504 OA
ATOM     21  H   UNL     1     143.124 148.544 120.004  1.00  0.00     0.293 HD
ENDBRANCH  17  20
ENDBRANCH   1  12
BRANCH   6  22
ATOM     22  O   UNL     1     139.627 157.987 119.687  1.00  0.00    -0.507 OA
ATOM     23  H   UNL     1     138.965 157.832 118.944  1.00  0.00     0.293 HD
ENDBRANCH   6  22
BRANCH   8  24
ATOM     24  O   UNL     1     143.334 156.983 122.542  1.00  0.00    -0.508 OA
ATOM     25  H   UNL     1     144.268 157.143 122.181  1.00  0.00     0.293 HD
ENDBRANCH   8  24
TORSDOF 5
ENDMDL
MODEL 8
REMARK VINA RESULT:    -5.453      2.090      7.208
REMARK INTER + INTRA:          -6.676
REMARK INTER:                  -6.404
REMARK INTRA:                  -0.272
REMARK UNBOUND:                -0.266
REMARK SMILES O=c1cc(-c2ccc(O)c(O)c2)oc2cc(O)cc(O)c12
REMARK SMILES IDX 4 1 3 2 2 3 1 4 21 5 19 6 18 7 16 8 15 9 14 10 13 11 5 12
REMARK SMILES IDX 6 13 7 14 8 15 12 16 10 17 9 18 11 20 20 22 17 24
REMARK H PARENT 9 19 11 21 20 23 17 25
REMARK Flexibility Score: inf
ROOT
ATOM      1  C   UNL     1     139.429 150.601 120.605  1.00  0.00     0.138 A 
ATOM      2  C   UNL     1     138.389 150.473 121.537  1.00  0.00     0.100 A 
ATOM      3  C   UNL     1     137.850 149.213 121.801  1.00  0.00     0.197 A 
ATOM      4  O   UNL     1     136.876 149.138 122.594  1.00  0.00    -0.289 OA
ATOM      5  C   UNL     1     138.378 148.072 121.150  1.00  0.00     0.107 A 
ATOM      6  C   UNL     1     137.934 146.733 121.371  1.00  0.00     0.134 A 
ATOM      7  C   UNL     1     138.451 145.697 120.584  1.00  0.00     0.093 A 
ATOM      8  C   UNL     1     139.437 145.940 119.629  1.00  0.00     0.123 A 
ATOM      9  C   UNL     1     139.916 147.238 119.442  1.00  0.00     0.094 A 
ATOM     10  C   UNL     1     139.396 148.299 120.187  1.00  0.00     0.146 A 
ATOM     11  O   UNL     1     139.869 149.520 119.969  1.00  0.00    -0.456 OA
ENDROOT
BRANCH   1  12
ATOM     12  C   UNL     1     140.039 151.917 120.289  1.00  0.00     0.021 A 
ATOM     13  C   UNL     1     139.324 152.920 119.613  1.00  0.00     0.016 A 
ATOM     14  C   UNL     1     139.920 154.152 119.337  1.00  0.00     0.051 A 
ATOM     15  C   UNL     1     141.236 154.414 119.734  1.00  0.00     0.157 A 
ATOM     16  C   UNL     1     141.356 152.186 120.700  1.00  0.00     0.062 A 
ATOM     17  C   UNL     1     141.963 153.418 120.427  1.00  0.00     0.158 A 
BRANCH  15  18
ATOM     18  O   UNL     1     141.774 155.665 119.425  1.00  0.00    -0.504 OA
ATOM     19  H   UNL     1     141.866 156.023 118.486  1.00  0.00     0.293 HD
ENDBRANCH  15  18
BRANCH  17  20
ATOM     20  O   UNL     1     143.276 153.608 120.859  1.00  0.00    -0.504 OA
ATOM     21  H   UNL     1     144.092 153.367 120.314  1.00  0.00     0.293 HD
ENDBRANCH  17  20
ENDBRANCH   1  12
BRANCH   6  22
ATOM     22  O   UNL     1     137.014 146.369 122.359  1.00  0.00    -0.507 OA
ATOM     23  H   UNL     1     136.276 145.693 122.239  1.00  0.00     0.293 HD
ENDBRANCH   6  22
BRANCH   8  24
ATOM     24  O   UNL     1     139.939 144.882 118.875  1.00  0.00    -0.508 OA
ATOM     25  H   UNL     1     139.923 143.930 119.222  1.00  0.00     0.293 HD
ENDBRANCH   8  24
TORSDOF 5
ENDMDL
MODEL 9
REMARK VINA RESULT:    -5.410      4.323      6.900
REMARK INTER + INTRA:          -6.624
REMARK INTER:                  -6.321
REMARK INTRA:                  -0.303
REMARK UNBOUND:                -0.266
REMARK SMILES O=c1cc(-c2ccc(O)c(O)c2)oc2cc(O)cc(O)c12
REMARK SMILES IDX 4 1 3 2 2 3 1 4 21 5 19 6 18 7 16 8 15 9 14 10 13 11 5 12
REMARK SMILES IDX 6 13 7 14 8 15 12 16 10 17 9 18 11 20 20 22 17 24
REMARK H PARENT 9 19 11 21 20 23 17 25
REMARK Flexibility Score: inf
ROOT
ATOM      1  C   UNL     1     139.890 153.563 120.978  1.00  0.00     0.138 A 
ATOM      2  C   UNL     1     138.721 153.779 121.720  1.00  0.00     0.100 A 
ATOM      3  C   UNL     1     138.437 155.058 122.204  1.00  0.00     0.197 A 
ATOM      4  O   UNL     1     137.414 155.207 122.920  1.00  0.00    -0.289 OA
ATOM      5  C   UNL     1     139.315 156.129 121.914  1.00  0.00     0.107 A 
ATOM      6  C   UNL     1     139.107 157.482 122.321  1.00  0.00     0.134 A 
ATOM      7  C   UNL     1     140.101 158.437 122.076  1.00  0.00     0.093 A 
ATOM      8  C   UNL     1     141.267 158.102 121.388  1.00  0.00     0.123 A 
ATOM      9  C   UNL     1     141.457 156.794 120.939  1.00  0.00     0.094 A 
ATOM     10  C   UNL     1     140.499 155.811 121.198  1.00  0.00     0.146 A 
ATOM     11  O   UNL     1     140.724 154.575 120.766  1.00  0.00    -0.456 OA
ENDROOT
BRANCH   1  12
ATOM     12  C   UNL     1     140.238 152.224 120.438  1.00  0.00     0.021 A 
ATOM     13  C   UNL     1     139.254 151.334 119.975  1.00  0.00     0.016 A 
ATOM     14  C   UNL     1     139.612 150.085 119.463  1.00  0.00     0.051 A 
ATOM     15  C   UNL     1     140.955 149.699 119.395  1.00  0.00     0.157 A 
ATOM     16  C   UNL     1     141.588 151.841 120.355  1.00  0.00     0.062 A 
ATOM     17  C   UNL     1     141.957 150.590 119.845  1.00  0.00     0.158 A 
BRANCH  15  18
ATOM     18  O   UNL     1     141.245 148.436 118.875  1.00  0.00    -0.504 OA
ATOM     19  H   UNL     1     140.582 147.676 118.838  1.00  0.00     0.293 HD
ENDBRANCH  15  18
BRANCH  17  20
ATOM     20  O   UNL     1     143.317 150.277 119.804  1.00  0.00    -0.504 OA
ATOM     21  H   UNL     1     144.012 150.837 119.330  1.00  0.00     0.293 HD
ENDBRANCH  17  20
ENDBRANCH   1  12
BRANCH   6  22
ATOM     22  O   UNL     1     137.940 157.940 122.940  1.00  0.00    -0.507 OA
ATOM     23  H   UNL     1     137.905 158.404 123.834  1.00  0.00     0.293 HD
ENDBRANCH   6  22
BRANCH   8  24
ATOM     24  O   UNL     1     142.229 159.082 121.149  1.00  0.00    -0.508 OA
ATOM     25  H   UNL     1     142.863 159.020 120.361  1.00  0.00     0.293 HD
ENDBRANCH   8  24
TORSDOF 5
ENDMDL
