MODEL 1
REMARK VINA RESULT:    -3.343      0.000      0.000
REMARK INTER + INTRA:          -7.793
REMARK INTER:                  -5.688
REMARK INTRA:                  -2.105
REMARK UNBOUND:                -2.105
REMARK SMILES CCCCCCCCCCCCCC(=O)[O-]
REMARK SMILES IDX 8 1 9 2 10 3 11 4 12 5 13 6 14 7 15 8 16 9 7 10 6 11 5 12
REMARK SMILES IDX 4 13 3 14 2 15 1 16
REMARK H PARENT
REMARK Flexibility Score: inf
ROOT
ATOM      1  C   UNL     1      -2.070  26.855  -0.331  1.00  0.00     0.000 C 
ENDROOT
BRANCH   1   2
ATOM      2  C   UNL     1      -1.789  26.334   1.089  1.00  0.00     0.000 C 
BRANCH   2   3
ATOM      3  C   UNL     1      -2.874  25.365   1.588  1.00  0.00     0.000 C 
BRANCH   3   4
ATOM      4  C   UNL     1      -3.298  25.652   3.038  1.00  0.00     0.000 C 
BRANCH   4   5
ATOM      5  C   UNL     1      -4.694  26.294   3.133  1.00  0.00     0.006 C 
BRANCH   5   6
ATOM      6  C   UNL     1      -5.637  25.792   2.032  1.00  0.00     0.053 C 
BRANCH   6   7
ATOM      7  C   UNL     1      -6.476  24.644   2.501  1.00  0.00     0.041 C 
ATOM      8  O   UNL     1      -6.364  23.512   1.960  1.00  0.00    -0.550 OA
ATOM      9  O   UNL     1      -7.410  24.832   3.514  1.00  0.00    -0.550 OA
ENDBRANCH   6   7
ENDBRANCH   5   6
ENDBRANCH   4   5
ENDBRANCH   3   4
ENDBRANCH   2   3
ENDBRANCH   1   2
BRANCH   1  10
ATOM     10  C   UNL     1      -2.492  28.335  -0.346  1.00  0.00     0.000 C 
BRANCH  10  11
ATOM     11  C   UNL     1      -3.896  28.553   0.244  1.00  0.00    -0.000 C 
BRANCH  11  12
ATOM     12  C   UNL     1      -4.030  29.911   0.956  1.00  0.00    -0.000 C 
BRANCH  12  13
ATOM     13  C   UNL     1      -2.813  30.247   1.838  1.00  0.00    -0.000 C 
BRANCH  13  14
ATOM     14  C   UNL     1      -2.742  29.480   3.171  1.00  0.00    -0.000 C 
BRANCH  14  15
ATOM     15  C   UNL     1      -1.308  29.102   3.569  1.00  0.00    -0.003 C 
ATOM     16  C   UNL     1      -0.304  29.580   2.524  1.00  0.00     0.004 C 
ENDBRANCH  14  15
ENDBRANCH  13  14
ENDBRANCH  12  13
ENDBRANCH  11  12
ENDBRANCH  10  11
ENDBRANCH   1  10
TORSDOF 12
ENDMDL
MODEL 2
REMARK VINA RESULT:    -3.327      2.747      4.787
REMARK INTER + INTRA:          -7.766
REMARK INTER:                  -6.291
REMARK INTRA:                  -1.475
REMARK UNBOUND:                -2.105
REMARK SMILES CCCCCCCCCCCCCC(=O)[O-]
REMARK SMILES IDX 8 1 9 2 10 3 11 4 12 5 13 6 14 7 15 8 16 9 7 10 6 11 5 12
REMARK SMILES IDX 4 13 3 14 2 15 1 16
REMARK H PARENT
REMARK Flexibility Score: inf
ROOT
ATOM      1  C   UNL     1      -3.769  22.922  -0.972  1.00  0.00     0.000 C 
ENDROOT
BRANCH   1   2
ATOM      2  C   UNL     1      -4.741  23.920  -0.319  1.00  0.00     0.000 C 
BRANCH   2   3
ATOM      3  C   UNL     1      -4.912  23.678   1.190  1.00  0.00     0.000 C 
BRANCH   3   4
ATOM      4  C   UNL     1      -4.213  24.751   2.041  1.00  0.00     0.000 C 
BRANCH   4   5
ATOM      5  C   UNL     1      -5.207  25.722   2.705  1.00  0.00     0.006 C 
BRANCH   5   6
ATOM      6  C   UNL     1      -6.562  25.059   2.986  1.00  0.00     0.053 C 
BRANCH   6   7
ATOM      7  C   UNL     1      -7.704  25.917   2.532  1.00  0.00     0.041 C 
ATOM      8  O   UNL     1      -7.613  27.172   2.582  1.00  0.00    -0.550 OA
ATOM      9  O   UNL     1      -8.883  25.329   2.088  1.00  0.00    -0.550 OA
ENDBRANCH   6   7
ENDBRANCH   5   6
ENDBRANCH   4   5
ENDBRANCH   3   4
ENDBRANCH   2   3
ENDBRANCH   1   2
BRANCH   1  10
ATOM     10  C   UNL     1      -3.397  21.759  -0.035  1.00  0.00     0.000 C 
BRANCH  10  11
ATOM     11  C   UNL     1      -1.896  21.427  -0.076  1.00  0.00    -0.000 C 
BRANCH  11  12
ATOM     12  C   UNL     1      -1.071  22.514  -0.788  1.00  0.00    -0.000 C 
BRANCH  12  13
ATOM     13  C   UNL     1      -0.525  23.580   0.180  1.00  0.00    -0.000 C 
BRANCH  13  14
ATOM     14  C   UNL     1      -0.506  25.016  -0.374  1.00  0.00    -0.000 C 
BRANCH  14  15
ATOM     15  C   UNL     1      -1.360  25.988   0.452  1.00  0.00    -0.003 C 
ATOM     16  C   UNL     1      -2.320  26.771  -0.440  1.00  0.00     0.004 C 
ENDBRANCH  14  15
ENDBRANCH  13  14
ENDBRANCH  12  13
ENDBRANCH  11  12
ENDBRANCH  10  11
ENDBRANCH   1  10
TORSDOF 12
ENDMDL
MODEL 3
REMARK VINA RESULT:    -3.272      3.014      4.996
REMARK INTER + INTRA:          -7.672
REMARK INTER:                  -6.557
REMARK INTRA:                  -1.115
REMARK UNBOUND:                -2.105
REMARK SMILES CCCCCCCCCCCCCC(=O)[O-]
REMARK SMILES IDX 8 1 9 2 10 3 11 4 12 5 13 6 14 7 15 8 16 9 7 10 6 11 5 12
REMARK SMILES IDX 4 13 3 14 2 15 1 16
REMARK H PARENT
REMARK Flexibility Score: inf
ROOT
ATOM      1  C   UNL     1      -4.570  23.606   0.809  1.00  0.00     0.000 C 
ENDROOT
BRANCH   1   2
ATOM      2  C   UNL     1      -3.986  25.011   1.031  1.00  0.00     0.000 C 
BRANCH   2   3
ATOM      3  C   UNL     1      -3.733  25.318   2.516  1.00  0.00     0.000 C 
BRANCH   3   4
ATOM      4  C   UNL     1      -4.702  26.374   3.073  1.00  0.00     0.000 C 
BRANCH   4   5
ATOM      5  C   UNL     1      -5.796  26.767   2.063  1.00  0.00     0.006 C 
BRANCH   5   6
ATOM      6  C   UNL     1      -7.204  26.437   2.578  1.00  0.00     0.053 C 
BRANCH   6   7
ATOM      7  C   UNL     1      -7.612  25.042   2.221  1.00  0.00     0.041 C 
ATOM      8  O   UNL     1      -7.249  24.071   2.937  1.00  0.00    -0.550 OA
ATOM      9  O   UNL     1      -8.365  24.808   1.076  1.00  0.00    -0.550 OA
ENDBRANCH   6   7
ENDBRANCH   5   6
ENDBRANCH   4   5
ENDBRANCH   3   4
ENDBRANCH   2   3
ENDBRANCH   1   2
BRANCH   1  10
ATOM     10  C   UNL     1      -3.959  22.897  -0.413  1.00  0.00     0.000 C 
BRANCH  10  11
ATOM     11  C   UNL     1      -3.145  21.650  -0.026  1.00  0.00    -0.000 C 
BRANCH  11  12
ATOM     12  C   UNL     1      -1.632  21.849  -0.225  1.00  0.00    -0.000 C 
BRANCH  12  13
ATOM     13  C   UNL     1      -1.292  23.167  -0.946  1.00  0.00    -0.000 C 
BRANCH  13  14
ATOM     14  C   UNL     1      -0.328  24.095  -0.186  1.00  0.00    -0.000 C 
BRANCH  14  15
ATOM     15  C   UNL     1       0.629  24.856  -1.115  1.00  0.00    -0.003 C 
ATOM     16  C   UNL     1       1.810  23.980  -1.523  1.00  0.00     0.004 C 
ENDBRANCH  14  15
ENDBRANCH  13  14
ENDBRANCH  12  13
ENDBRANCH  11  12
ENDBRANCH  10  11
ENDBRANCH   1  10
TORSDOF 12
ENDMDL
MODEL 4
REMARK VINA RESULT:    -3.244      3.728      5.870
REMARK INTER + INTRA:          -7.625
REMARK INTER:                  -5.956
REMARK INTRA:                  -1.669
REMARK UNBOUND:                -2.105
REMARK SMILES CCCCCCCCCCCCCC(=O)[O-]
REMARK SMILES IDX 8 1 9 2 10 3 11 4 12 5 13 6 14 7 15 8 16 9 7 10 6 11 5 12
REMARK SMILES IDX 4 13 3 14 2 15 1 16
REMARK H PARENT
REMARK Flexibility Score: inf
ROOT
ATOM      1  C   UNL     1      -4.195  23.943  -1.018  1.00  0.00     0.000 C 
ENDROOT
BRANCH   1   2
ATOM      2  C   UNL     1      -4.407  24.280   0.468  1.00  0.00     0.000 C 
BRANCH   2   3
ATOM      3  C   UNL     1      -3.692  25.575   0.888  1.00  0.00     0.000 C 
BRANCH   3   4
ATOM      4  C   UNL     1      -3.111  25.493   2.309  1.00  0.00     0.000 C 
BRANCH   4   5
ATOM      5  C   UNL     1      -3.652  26.595   3.237  1.00  0.00     0.006 C 
BRANCH   5   6
ATOM      6  C   UNL     1      -3.384  28.001   2.683  1.00  0.00     0.053 C 
BRANCH   6   7
ATOM      7  C   UNL     1      -2.281  28.689   3.426  1.00  0.00     0.041 C 
ATOM      8  O   UNL     1      -2.534  29.351   4.467  1.00  0.00    -0.550 OA
ATOM      9  O   UNL     1      -0.976  28.629   2.950  1.00  0.00    -0.550 OA
ENDBRANCH   6   7
ENDBRANCH   5   6
ENDBRANCH   4   5
ENDBRANCH   3   4
ENDBRANCH   2   3
ENDBRANCH   1   2
BRANCH   1  10
ATOM     10  C   UNL     1      -3.895  22.452  -1.249  1.00  0.00     0.000 C 
BRANCH  10  11
ATOM     11  C   UNL     1      -3.347  21.758   0.011  1.00  0.00    -0.000 C 
BRANCH  11  12
ATOM     12  C   UNL     1      -1.914  21.231  -0.184  1.00  0.00    -0.000 C 
BRANCH  12  13
ATOM     13  C   UNL     1      -0.948  22.304  -0.719  1.00  0.00    -0.000 C 
BRANCH  13  14
ATOM     14  C   UNL     1      -0.639  23.450   0.261  1.00  0.00    -0.000 C 
BRANCH  14  15
ATOM     15  C   UNL     1      -0.368  24.786  -0.445  1.00  0.00    -0.003 C 
ATOM     16  C   UNL     1      -0.660  24.686  -1.940  1.00  0.00     0.004 C 
ENDBRANCH  14  15
ENDBRANCH  13  14
ENDBRANCH  12  13
ENDBRANCH  11  12
ENDBRANCH  10  11
ENDBRANCH   1  10
TORSDOF 12
ENDMDL
MODEL 5
REMARK VINA RESULT:    -3.221      2.488      4.645
REMARK INTER + INTRA:          -7.586
REMARK INTER:                  -5.880
REMARK INTRA:                  -1.706
REMARK UNBOUND:                -2.105
REMARK SMILES CCCCCCCCCCCCCC(=O)[O-]
REMARK SMILES IDX 8 1 9 2 10 3 11 4 12 5 13 6 14 7 15 8 16 9 7 10 6 11 5 12
REMARK SMILES IDX 4 13 3 14 2 15 1 16
REMARK H PARENT
REMARK Flexibility Score: inf
ROOT
ATOM      1  C   UNL     1      -2.600  27.056   0.099  1.00  0.00     0.000 C 
ENDROOT
BRANCH   1   2
ATOM      2  C   UNL     1      -2.859  27.967   1.311  1.00  0.00     0.000 C 
BRANCH   2   3
ATOM      3  C   UNL     1      -2.498  27.294   2.645  1.00  0.00     0.000 C 
BRANCH   3   4
ATOM      4  C   UNL     1      -3.278  25.989   2.877  1.00  0.00     0.000 C 
BRANCH   4   5
ATOM      5  C   UNL     1      -4.664  26.230   3.504  1.00  0.00     0.006 C 
BRANCH   5   6
ATOM      6  C   UNL     1      -5.781  25.526   2.722  1.00  0.00     0.053 C 
BRANCH   6   7
ATOM      7  C   UNL     1      -6.778  26.502   2.178  1.00  0.00     0.041 C 
ATOM      8  O   UNL     1      -8.008  26.232   2.201  1.00  0.00    -0.550 OA
ATOM      9  O   UNL     1      -6.345  27.696   1.613  1.00  0.00    -0.550 OA
ENDBRANCH   6   7
ENDBRANCH   5   6
ENDBRANCH   4   5
ENDBRANCH   3   4
ENDBRANCH   2   3
ENDBRANCH   1   2
BRANCH   1  10
ATOM     10  C   UNL     1      -3.887  26.718  -0.673  1.00  0.00     0.000 C 
BRANCH  10  11
ATOM     11  C   UNL     1      -3.858  25.302  -1.276  1.00  0.00    -0.000 C 
BRANCH  11  12
ATOM     12  C   UNL     1      -4.684  24.296  -0.455  1.00  0.00    -0.000 C 
BRANCH  12  13
ATOM     13  C   UNL     1      -3.807  23.303   0.331  1.00  0.00    -0.000 C 
BRANCH  13  14
ATOM     14  C   UNL     1      -2.317  23.301  -0.055  1.00  0.00    -0.000 C 
BRANCH  14  15
ATOM     15  C   UNL     1      -1.719  21.889  -0.128  1.00  0.00    -0.003 C 
ATOM     16  C   UNL     1      -2.814  20.835  -0.270  1.00  0.00     0.004 C 
ENDBRANCH  14  15
ENDBRANCH  13  14
ENDBRANCH  12  13
ENDBRANCH  11  12
ENDBRANCH  10  11
ENDBRANCH   1  10
TORSDOF 12
ENDMDL
MODEL 6
REMARK VINA RESULT:    -3.216      2.739      4.848
REMARK INTER + INTRA:          -7.578
REMARK INTER:                  -5.648
REMARK INTRA:                  -1.929
REMARK UNBOUND:                -2.105
REMARK SMILES CCCCCCCCCCCCCC(=O)[O-]
REMARK SMILES IDX 8 1 9 2 10 3 11 4 12 5 13 6 14 7 15 8 16 9 7 10 6 11 5 12
REMARK SMILES IDX 4 13 3 14 2 15 1 16
REMARK H PARENT
REMARK Flexibility Score: inf
ROOT
ATOM      1  C   UNL     1      -2.763  25.931  -1.426  1.00  0.00     0.000 C 
ENDROOT
BRANCH   1   2
ATOM      2  C   UNL     1      -3.522  26.102  -0.100  1.00  0.00     0.000 C 
BRANCH   2   3
ATOM      3  C   UNL     1      -2.632  25.843   1.128  1.00  0.00     0.000 C 
BRANCH   3   4
ATOM      4  C   UNL     1      -3.450  25.546   2.396  1.00  0.00     0.000 C 
BRANCH   4   5
ATOM      5  C   UNL     1      -4.693  24.684   2.113  1.00  0.00     0.006 C 
BRANCH   5   6
ATOM      6  C   UNL     1      -5.989  25.376   2.556  1.00  0.00     0.053 C 
BRANCH   6   7
ATOM      7  C   UNL     1      -7.147  24.995   1.686  1.00  0.00     0.041 C 
ATOM      8  O   UNL     1      -8.123  25.779   1.550  1.00  0.00    -0.550 OA
ATOM      9  O   UNL     1      -7.165  23.758   1.052  1.00  0.00    -0.550 OA
ENDBRANCH   6   7
ENDBRANCH   5   6
ENDBRANCH   4   5
ENDBRANCH   3   4
ENDBRANCH   2   3
ENDBRANCH   1   2
BRANCH   1  10
ATOM     10  C   UNL     1      -3.297  24.758  -2.267  1.00  0.00     0.000 C 
BRANCH  10  11
ATOM     11  C   UNL     1      -4.434  23.998  -1.562  1.00  0.00    -0.000 C 
BRANCH  11  12
ATOM     12  C   UNL     1      -4.140  22.493  -1.427  1.00  0.00    -0.000 C 
BRANCH  12  13
ATOM     13  C   UNL     1      -3.377  22.146  -0.135  1.00  0.00    -0.000 C 
BRANCH  13  14
ATOM     14  C   UNL     1      -1.887  21.812  -0.328  1.00  0.00    -0.000 C 
BRANCH  14  15
ATOM     15  C   UNL     1      -0.959  22.976   0.047  1.00  0.00    -0.003 C 
ATOM     16  C   UNL     1       0.070  23.232  -1.051  1.00  0.00     0.004 C 
ENDBRANCH  14  15
ENDBRANCH  13  14
ENDBRANCH  12  13
ENDBRANCH  11  12
ENDBRANCH  10  11
ENDBRANCH   1  10
TORSDOF 12
ENDMDL
MODEL 7
REMARK VINA RESULT:    -3.207      3.346      5.775
REMARK INTER + INTRA:          -7.561
REMARK INTER:                  -6.483
REMARK INTRA:                  -1.078
REMARK UNBOUND:                -2.105
REMARK SMILES CCCCCCCCCCCCCC(=O)[O-]
REMARK SMILES IDX 8 1 9 2 10 3 11 4 12 5 13 6 14 7 15 8 16 9 7 10 6 11 5 12
REMARK SMILES IDX 4 13 3 14 2 15 1 16
REMARK H PARENT
REMARK Flexibility Score: inf
ROOT
ATOM      1  C   UNL     1      -3.785  25.240   1.820  1.00  0.00     0.000 C 
ENDROOT
BRANCH   1   2
ATOM      2  C   UNL     1      -3.512  26.007   3.124  1.00  0.00     0.000 C 
BRANCH   2   3
ATOM      3  C   UNL     1      -3.409  27.526   2.905  1.00  0.00     0.000 C 
BRANCH   3   4
ATOM      4  C   UNL     1      -1.967  27.985   2.628  1.00  0.00     0.000 C 
BRANCH   4   5
ATOM      5  C   UNL     1      -1.901  29.390   2.004  1.00  0.00     0.006 C 
BRANCH   5   6
ATOM      6  C   UNL     1      -3.223  30.154   2.157  1.00  0.00     0.053 C 
BRANCH   6   7
ATOM      7  C   UNL     1      -3.691  30.720   0.852  1.00  0.00     0.041 C 
ATOM      8  O   UNL     1      -4.801  31.311   0.778  1.00  0.00    -0.550 OA
ATOM      9  O   UNL     1      -2.918  30.565  -0.293  1.00  0.00    -0.550 OA
ENDBRANCH   6   7
ENDBRANCH   5   6
ENDBRANCH   4   5
ENDBRANCH   3   4
ENDBRANCH   2   3
ENDBRANCH   1   2
BRANCH   1  10
ATOM     10  C   UNL     1      -5.057  24.378   1.895  1.00  0.00     0.000 C 
BRANCH  10  11
ATOM     11  C   UNL     1      -6.221  24.972   1.082  1.00  0.00    -0.000 C 
BRANCH  11  12
ATOM     12  C   UNL     1      -7.477  25.207   1.938  1.00  0.00    -0.000 C 
BRANCH  12  13
ATOM     13  C   UNL     1      -7.265  26.270   3.033  1.00  0.00    -0.000 C 
BRANCH  13  14
ATOM     14  C   UNL     1      -7.699  25.846   4.447  1.00  0.00    -0.000 C 
BRANCH  14  15
ATOM     15  C   UNL     1      -6.693  26.257   5.531  1.00  0.00    -0.003 C 
ATOM     16  C   UNL     1      -7.196  25.876   6.921  1.00  0.00     0.004 C 
ENDBRANCH  14  15
ENDBRANCH  13  14
ENDBRANCH  12  13
ENDBRANCH  11  12
ENDBRANCH  10  11
ENDBRANCH   1  10
TORSDOF 12
ENDMDL
MODEL 8
REMARK VINA RESULT:    -3.153      1.782      3.466
REMARK INTER + INTRA:          -7.469
REMARK INTER:                  -5.625
REMARK INTRA:                  -1.844
REMARK UNBOUND:                -2.105
REMARK SMILES CCCCCCCCCCCCCC(=O)[O-]
REMARK SMILES IDX 8 1 9 2 10 3 11 4 12 5 13 6 14 7 15 8 16 9 7 10 6 11 5 12
REMARK SMILES IDX 4 13 3 14 2 15 1 16
REMARK H PARENT
REMARK Flexibility Score: inf
ROOT
ATOM      1  C   UNL     1      -3.728  25.564   2.976  1.00  0.00     0.000 C 
ENDROOT
BRANCH   1   2
ATOM      2  C   UNL     1      -3.297  25.218   1.541  1.00  0.00     0.000 C 
BRANCH   2   3
ATOM      3  C   UNL     1      -4.179  24.131   0.905  1.00  0.00     0.000 C 
BRANCH   3   4
ATOM      4  C   UNL     1      -5.546  24.002   1.597  1.00  0.00     0.000 C 
BRANCH   4   5
ATOM      5  C   UNL     1      -6.644  24.827   0.901  1.00  0.00     0.006 C 
BRANCH   5   6
ATOM      6  C   UNL     1      -7.906  24.955   1.766  1.00  0.00     0.053 C 
BRANCH   6   7
ATOM      7  C   UNL     1      -7.723  25.951   2.869  1.00  0.00     0.041 C 
ATOM      8  O   UNL     1      -7.761  25.579   4.072  1.00  0.00    -0.550 OA
ATOM      9  O   UNL     1      -7.547  27.297   2.570  1.00  0.00    -0.550 OA
ENDBRANCH   6   7
ENDBRANCH   5   6
ENDBRANCH   4   5
ENDBRANCH   3   4
ENDBRANCH   2   3
ENDBRANCH   1   2
BRANCH   1  10
ATOM     10  C   UNL     1      -3.504  27.047   3.320  1.00  0.00     0.000 C 
BRANCH  10  11
ATOM     11  C   UNL     1      -2.733  27.798   2.220  1.00  0.00    -0.000 C 
BRANCH  11  12
ATOM     12  C   UNL     1      -3.391  29.138   1.849  1.00  0.00    -0.000 C 
BRANCH  12  13
ATOM     13  C   UNL     1      -3.983  29.141   0.427  1.00  0.00    -0.000 C 
BRANCH  13  14
ATOM     14  C   UNL     1      -5.166  28.179   0.211  1.00  0.00    -0.000 C 
BRANCH  14  15
ATOM     15  C   UNL     1      -5.219  27.604  -1.211  1.00  0.00    -0.003 C 
ATOM     16  C   UNL     1      -3.886  26.970  -1.597  1.00  0.00     0.004 C 
ENDBRANCH  14  15
ENDBRANCH  13  14
ENDBRANCH  12  13
ENDBRANCH  11  12
ENDBRANCH  10  11
ENDBRANCH   1  10
TORSDOF 12
ENDMDL
MODEL 9
REMARK VINA RESULT:    -3.131      2.597      4.627
REMARK INTER + INTRA:          -7.433
REMARK INTER:                  -6.360
REMARK INTRA:                  -1.073
REMARK UNBOUND:                -2.105
REMARK SMILES CCCCCCCCCCCCCC(=O)[O-]
REMARK SMILES IDX 8 1 9 2 10 3 11 4 12 5 13 6 14 7 15 8 16 9 7 10 6 11 5 12
REMARK SMILES IDX 4 13 3 14 2 15 1 16
REMARK H PARENT
REMARK Flexibility Score: inf
ROOT
ATOM      1  C   UNL     1      -3.763  26.646   1.299  1.00  0.00     0.000 C 
ENDROOT
BRANCH   1   2
ATOM      2  C   UNL     1      -2.617  25.943   0.551  1.00  0.00     0.000 C 
BRANCH   2   3
ATOM      3  C   UNL     1      -2.898  24.450   0.310  1.00  0.00     0.000 C 
BRANCH   3   4
ATOM      4  C   UNL     1      -4.346  24.061   0.650  1.00  0.00     0.000 C 
BRANCH   4   5
ATOM      5  C   UNL     1      -5.276  24.103  -0.576  1.00  0.00     0.006 C 
BRANCH   5   6
ATOM      6  C   UNL     1      -6.472  25.041  -0.362  1.00  0.00     0.053 C 
BRANCH   6   7
ATOM      7  C   UNL     1      -7.646  24.319   0.223  1.00  0.00     0.041 C 
ATOM      8  O   UNL     1      -7.603  23.891   1.407  1.00  0.00    -0.550 OA
ATOM      9  O   UNL     1      -8.778  24.088  -0.551  1.00  0.00    -0.550 OA
ENDBRANCH   6   7
ENDBRANCH   5   6
ENDBRANCH   4   5
ENDBRANCH   3   4
ENDBRANCH   2   3
ENDBRANCH   1   2
BRANCH   1  10
ATOM     10  C   UNL     1      -3.350  27.122   2.702  1.00  0.00     0.000 C 
BRANCH  10  11
ATOM     11  C   UNL     1      -4.258  26.556   3.808  1.00  0.00    -0.000 C 
BRANCH  11  12
ATOM     12  C   UNL     1      -5.670  26.222   3.295  1.00  0.00    -0.000 C 
BRANCH  12  13
ATOM     13  C   UNL     1      -6.724  26.194   4.419  1.00  0.00    -0.000 C 
BRANCH  13  14
ATOM     14  C   UNL     1      -6.163  26.361   5.842  1.00  0.00    -0.000 C 
BRANCH  14  15
ATOM     15  C   UNL     1      -7.184  26.012   6.934  1.00  0.00    -0.003 C 
ATOM     16  C   UNL     1      -8.460  25.433   6.328  1.00  0.00     0.004 C 
ENDBRANCH  14  15
ENDBRANCH  13  14
ENDBRANCH  12  13
ENDBRANCH  11  12
ENDBRANCH  10  11
ENDBRANCH   1  10
TORSDOF 12
ENDMDL
