MODEL 1
REMARK VINA RESULT:    -3.703      0.000      0.000
REMARK INTER + INTRA:          -5.298
REMARK INTER:                  -5.003
REMARK INTRA:                  -0.295
REMARK UNBOUND:                -0.295
REMARK SMILES CCCCCCCC(=O)[O-]
REMARK SMILES IDX 5 1 6 2 7 3 8 4 9 5 10 6 4 7 3 8 2 9 1 10
REMARK H PARENT
REMARK Flexibility Score: inf
ROOT
ATOM      1  C   UNL     1      25.049   3.202  17.466  1.00  0.00     0.000 C 
ENDROOT
BRANCH   1   2
ATOM      2  C   UNL     1      25.756   1.842  17.445  1.00  0.00     0.006 C 
BRANCH   2   3
ATOM      3  C   UNL     1      24.986   0.810  18.275  1.00  0.00     0.053 C 
BRANCH   3   4
ATOM      4  C   UNL     1      24.991  -0.521  17.592  1.00  0.00     0.041 C 
ATOM      5  O   UNL     1      24.774  -0.599  16.354  1.00  0.00    -0.550 OA
ATOM      6  O   UNL     1      25.284  -1.672  18.313  1.00  0.00    -0.550 OA
ENDBRANCH   3   4
ENDBRANCH   2   3
ENDBRANCH   1   2
BRANCH   1   7
ATOM      7  C   UNL     1      24.246   3.386  18.762  1.00  0.00     0.000 C 
BRANCH   7   8
ATOM      8  C   UNL     1      23.136   4.445  18.635  1.00  0.00    -0.000 C 
BRANCH   8   9
ATOM      9  C   UNL     1      23.048   5.127  17.258  1.00  0.00    -0.003 C 
ATOM     10  C   UNL     1      23.481   6.593  17.288  1.00  0.00     0.004 C 
ENDBRANCH   8   9
ENDBRANCH   7   8
ENDBRANCH   1   7
TORSDOF 6
ENDMDL
MODEL 2
REMARK VINA RESULT:    -3.663      9.064     10.604
REMARK INTER + INTRA:          -5.243
REMARK INTER:                  -4.785
REMARK INTRA:                  -0.458
REMARK UNBOUND:                -0.295
REMARK SMILES CCCCCCCC(=O)[O-]
REMARK SMILES IDX 5 1 6 2 7 3 8 4 9 5 10 6 4 7 3 8 2 9 1 10
REMARK H PARENT
REMARK Flexibility Score: inf
ROOT
ATOM      1  C   UNL     1      27.293   1.864   7.997  1.00  0.00     0.000 C 
ENDROOT
BRANCH   1   2
ATOM      2  C   UNL     1      27.392   3.393   7.955  1.00  0.00     0.006 C 
BRANCH   2   3
ATOM      3  C   UNL     1      28.534   3.895   8.845  1.00  0.00     0.053 C 
BRANCH   3   4
ATOM      4  C   UNL     1      28.229   3.636  10.286  1.00  0.00     0.041 C 
ATOM      5  O   UNL     1      27.141   4.029  10.784  1.00  0.00    -0.550 OA
ATOM      6  O   UNL     1      29.123   2.916  11.068  1.00  0.00    -0.550 OA
ENDBRANCH   3   4
ENDBRANCH   2   3
ENDBRANCH   1   2
BRANCH   1   7
ATOM      7  C   UNL     1      28.400   1.218   7.150  1.00  0.00     0.000 C 
BRANCH   7   8
ATOM      8  C   UNL     1      29.007  -0.034   7.809  1.00  0.00    -0.000 C 
BRANCH   8   9
ATOM      9  C   UNL     1      28.867  -0.089   9.341  1.00  0.00    -0.003 C 
ATOM     10  C   UNL     1      28.254  -1.397   9.839  1.00  0.00     0.004 C 
ENDBRANCH   8   9
ENDBRANCH   7   8
ENDBRANCH   1   7
TORSDOF 6
ENDMDL
MODEL 3
REMARK VINA RESULT:    -3.640      1.560      2.525
REMARK INTER + INTRA:          -5.212
REMARK INTER:                  -4.679
REMARK INTRA:                  -0.533
REMARK UNBOUND:                -0.295
REMARK SMILES CCCCCCCC(=O)[O-]
REMARK SMILES IDX 5 1 6 2 7 3 8 4 9 5 10 6 4 7 3 8 2 9 1 10
REMARK H PARENT
REMARK Flexibility Score: inf
ROOT
ATOM      1  C   UNL     1      25.134   2.632  17.443  1.00  0.00     0.000 C 
ENDROOT
BRANCH   1   2
ATOM      2  C   UNL     1      25.567   1.166  17.549  1.00  0.00     0.006 C 
BRANCH   2   3
ATOM      3  C   UNL     1      24.611   0.252  16.776  1.00  0.00     0.053 C 
BRANCH   3   4
ATOM      4  C   UNL     1      24.565  -1.107  17.400  1.00  0.00     0.041 C 
ATOM      5  O   UNL     1      25.232  -1.350  18.439  1.00  0.00    -0.550 OA
ATOM      6  O   UNL     1      23.745  -2.091  16.862  1.00  0.00    -0.550 OA
ENDBRANCH   3   4
ENDBRANCH   2   3
ENDBRANCH   1   2
BRANCH   1   7
ATOM      7  C   UNL     1      24.394   3.080  18.713  1.00  0.00     0.000 C 
BRANCH   7   8
ATOM      8  C   UNL     1      22.898   3.352  18.472  1.00  0.00    -0.000 C 
BRANCH   8   9
ATOM      9  C   UNL     1      21.990   2.115  18.592  1.00  0.00    -0.003 C 
ATOM     10  C   UNL     1      22.450   1.138  19.673  1.00  0.00     0.004 C 
ENDBRANCH   8   9
ENDBRANCH   7   8
ENDBRANCH   1   7
TORSDOF 6
ENDMDL
MODEL 4
REMARK VINA RESULT:    -3.600      9.526     10.900
REMARK INTER + INTRA:          -5.158
REMARK INTER:                  -4.722
REMARK INTRA:                  -0.436
REMARK UNBOUND:                -0.295
REMARK SMILES CCCCCCCC(=O)[O-]
REMARK SMILES IDX 5 1 6 2 7 3 8 4 9 5 10 6 4 7 3 8 2 9 1 10
REMARK H PARENT
REMARK Flexibility Score: inf
ROOT
ATOM      1  C   UNL     1      26.618   4.145  10.272  1.00  0.00     0.000 C 
ENDROOT
BRANCH   1   2
ATOM      2  C   UNL     1      26.532   5.646   9.978  1.00  0.00     0.006 C 
BRANCH   2   3
ATOM      3  C   UNL     1      26.914   5.946   8.525  1.00  0.00     0.053 C 
BRANCH   3   4
ATOM      4  C   UNL     1      26.615   7.371   8.187  1.00  0.00     0.041 C 
ATOM      5  O   UNL     1      27.448   8.058   7.539  1.00  0.00    -0.550 OA
ATOM      6  O   UNL     1      25.393   7.929   8.542  1.00  0.00    -0.550 OA
ENDBRANCH   3   4
ENDBRANCH   2   3
ENDBRANCH   1   2
BRANCH   1   7
ATOM      7  C   UNL     1      28.019   3.762  10.774  1.00  0.00     0.000 C 
BRANCH   7   8
ATOM      8  C   UNL     1      28.766   2.821   9.811  1.00  0.00    -0.000 C 
BRANCH   8   9
ATOM      9  C   UNL     1      27.887   2.184   8.720  1.00  0.00    -0.003 C 
ATOM     10  C   UNL     1      28.390   2.469   7.305  1.00  0.00     0.004 C 
ENDBRANCH   8   9
ENDBRANCH   7   8
ENDBRANCH   1   7
TORSDOF 6
ENDMDL
MODEL 5
REMARK VINA RESULT:    -3.585      1.827      2.100
REMARK INTER + INTRA:          -5.138
REMARK INTER:                  -4.771
REMARK INTRA:                  -0.367
REMARK UNBOUND:                -0.295
REMARK SMILES CCCCCCCC(=O)[O-]
REMARK SMILES IDX 5 1 6 2 7 3 8 4 9 5 10 6 4 7 3 8 2 9 1 10
REMARK H PARENT
REMARK Flexibility Score: inf
ROOT
ATOM      1  C   UNL     1      25.105   1.569  17.141  1.00  0.00     0.000 C 
ENDROOT
BRANCH   1   2
ATOM      2  C   UNL     1      25.338   0.608  18.312  1.00  0.00     0.006 C 
BRANCH   2   3
ATOM      3  C   UNL     1      24.325  -0.541  18.291  1.00  0.00     0.053 C 
BRANCH   3   4
ATOM      4  C   UNL     1      22.965  -0.050  18.675  1.00  0.00     0.041 C 
ATOM      5  O   UNL     1      21.962  -0.352  17.977  1.00  0.00    -0.550 OA
ATOM      6  O   UNL     1      22.799   0.700  19.832  1.00  0.00    -0.550 OA
ENDBRANCH   3   4
ENDBRANCH   2   3
ENDBRANCH   1   2
BRANCH   1   7
ATOM      7  C   UNL     1      25.309   3.027  17.577  1.00  0.00     0.000 C 
BRANCH   7   8
ATOM      8  C   UNL     1      24.100   3.601  18.338  1.00  0.00    -0.000 C 
BRANCH   8   9
ATOM      9  C   UNL     1      23.142   4.449  17.483  1.00  0.00    -0.003 C 
ATOM     10  C   UNL     1      23.852   5.568  16.721  1.00  0.00     0.004 C 
ENDBRANCH   8   9
ENDBRANCH   7   8
ENDBRANCH   1   7
TORSDOF 6
ENDMDL
MODEL 6
REMARK VINA RESULT:    -3.566      9.269     11.032
REMARK INTER + INTRA:          -5.112
REMARK INTER:                  -4.848
REMARK INTRA:                  -0.264
REMARK UNBOUND:                -0.295
REMARK SMILES CCCCCCCC(=O)[O-]
REMARK SMILES IDX 5 1 6 2 7 3 8 4 9 5 10 6 4 7 3 8 2 9 1 10
REMARK H PARENT
REMARK Flexibility Score: inf
ROOT
ATOM      1  C   UNL     1      27.765   1.332   8.383  1.00  0.00     0.000 C 
ENDROOT
BRANCH   1   2
ATOM      2  C   UNL     1      28.369   2.585   7.738  1.00  0.00     0.006 C 
BRANCH   2   3
ATOM      3  C   UNL     1      28.762   3.616   8.800  1.00  0.00     0.053 C 
BRANCH   3   4
ATOM      4  C   UNL     1      27.542   4.230   9.411  1.00  0.00     0.041 C 
ATOM      5  O   UNL     1      27.324   4.112  10.646  1.00  0.00    -0.550 OA
ATOM      6  O   UNL     1      26.672   4.977   8.627  1.00  0.00    -0.550 OA
ENDBRANCH   3   4
ENDBRANCH   2   3
ENDBRANCH   1   2
BRANCH   1   7
ATOM      7  C   UNL     1      28.821   0.570   9.198  1.00  0.00     0.000 C 
BRANCH   7   8
ATOM      8  C   UNL     1      28.418  -0.888   9.487  1.00  0.00    -0.000 C 
BRANCH   8   9
ATOM      9  C   UNL     1      28.261  -1.774   8.238  1.00  0.00    -0.003 C 
ATOM     10  C   UNL     1      28.283  -3.268   8.559  1.00  0.00     0.004 C 
ENDBRANCH   8   9
ENDBRANCH   7   8
ENDBRANCH   1   7
TORSDOF 6
ENDMDL
MODEL 7
REMARK VINA RESULT:    -3.543      1.490      2.176
REMARK INTER + INTRA:          -5.082
REMARK INTER:                  -4.703
REMARK INTRA:                  -0.379
REMARK UNBOUND:                -0.295
REMARK SMILES CCCCCCCC(=O)[O-]
REMARK SMILES IDX 5 1 6 2 7 3 8 4 9 5 10 6 4 7 3 8 2 9 1 10
REMARK H PARENT
REMARK Flexibility Score: inf
ROOT
ATOM      1  C   UNL     1      22.324   1.958  18.551  1.00  0.00     0.000 C 
ENDROOT
BRANCH   1   2
ATOM      2  C   UNL     1      22.929   0.711  19.206  1.00  0.00     0.006 C 
BRANCH   2   3
ATOM      3  C   UNL     1      23.144  -0.402  18.176  1.00  0.00     0.053 C 
BRANCH   3   4
ATOM      4  C   UNL     1      24.599  -0.730  18.053  1.00  0.00     0.041 C 
ATOM      5  O   UNL     1      25.467   0.067  18.495  1.00  0.00    -0.550 OA
ATOM      6  O   UNL     1      24.994  -1.940  17.496  1.00  0.00    -0.550 OA
ENDBRANCH   3   4
ENDBRANCH   2   3
ENDBRANCH   1   2
BRANCH   1   7
ATOM      7  C   UNL     1      23.024   3.233  19.043  1.00  0.00     0.000 C 
BRANCH   7   8
ATOM      8  C   UNL     1      24.516   3.282  18.666  1.00  0.00    -0.000 C 
BRANCH   8   9
ATOM      9  C   UNL     1      24.802   3.708  17.215  1.00  0.00    -0.003 C 
ATOM     10  C   UNL     1      24.001   4.937  16.784  1.00  0.00     0.004 C 
ENDBRANCH   8   9
ENDBRANCH   7   8
ENDBRANCH   1   7
TORSDOF 6
ENDMDL
MODEL 8
REMARK VINA RESULT:    -3.518      9.102     10.591
REMARK INTER + INTRA:          -5.047
REMARK INTER:                  -4.627
REMARK INTRA:                  -0.420
REMARK UNBOUND:                -0.295
REMARK SMILES CCCCCCCC(=O)[O-]
REMARK SMILES IDX 5 1 6 2 7 3 8 4 9 5 10 6 4 7 3 8 2 9 1 10
REMARK H PARENT
REMARK Flexibility Score: inf
ROOT
ATOM      1  C   UNL     1      28.029   3.751  10.666  1.00  0.00     0.000 C 
ENDROOT
BRANCH   1   2
ATOM      2  C   UNL     1      26.628   4.104  10.155  1.00  0.00     0.006 C 
BRANCH   2   3
ATOM      3  C   UNL     1      26.477   5.617   9.966  1.00  0.00     0.053 C 
BRANCH   3   4
ATOM      4  C   UNL     1      26.636   5.984   8.525  1.00  0.00     0.041 C 
ATOM      5  O   UNL     1      26.180   5.230   7.625  1.00  0.00    -0.550 OA
ATOM      6  O   UNL     1      27.243   7.183   8.176  1.00  0.00    -0.550 OA
ENDBRANCH   3   4
ENDBRANCH   2   3
ENDBRANCH   1   2
BRANCH   1   7
ATOM      7  C   UNL     1      28.795   2.911   9.632  1.00  0.00     0.000 C 
BRANCH   7   8
ATOM      8  C   UNL     1      27.874   2.268   8.579  1.00  0.00    -0.000 C 
BRANCH   8   9
ATOM      9  C   UNL     1      28.070   0.754   8.388  1.00  0.00    -0.003 C 
ATOM     10  C   UNL     1      28.946   0.123   9.470  1.00  0.00     0.004 C 
ENDBRANCH   8   9
ENDBRANCH   7   8
ENDBRANCH   1   7
TORSDOF 6
ENDMDL
MODEL 9
REMARK VINA RESULT:    -3.513      3.035      4.673
REMARK INTER + INTRA:          -5.041
REMARK INTER:                  -4.455
REMARK INTRA:                  -0.586
REMARK UNBOUND:                -0.295
REMARK SMILES CCCCCCCC(=O)[O-]
REMARK SMILES IDX 5 1 6 2 7 3 8 4 9 5 10 6 4 7 3 8 2 9 1 10
REMARK H PARENT
REMARK Flexibility Score: inf
ROOT
ATOM      1  C   UNL     1      25.372   1.506  17.315  1.00  0.00     0.000 C 
ENDROOT
BRANCH   1   2
ATOM      2  C   UNL     1      25.255   3.024  17.485  1.00  0.00     0.006 C 
BRANCH   2   3
ATOM      3  C   UNL     1      24.414   3.377  18.715  1.00  0.00     0.053 C 
BRANCH   3   4
ATOM      4  C   UNL     1      23.233   4.207  18.324  1.00  0.00     0.041 C 
ATOM      5  O   UNL     1      22.366   3.744  17.537  1.00  0.00    -0.550 OA
ATOM      6  O   UNL     1      23.062   5.474  18.867  1.00  0.00    -0.550 OA
ENDBRANCH   3   4
ENDBRANCH   2   3
ENDBRANCH   1   2
BRANCH   1   7
ATOM      7  C   UNL     1      24.930   0.774  18.592  1.00  0.00     0.000 C 
BRANCH   7   8
ATOM      8  C   UNL     1      23.922  -0.356  18.317  1.00  0.00    -0.000 C 
BRANCH   8   9
ATOM      9  C   UNL     1      22.459   0.103  18.179  1.00  0.00    -0.003 C 
ATOM     10  C   UNL     1      21.926   0.788  19.436  1.00  0.00     0.004 C 
ENDBRANCH   8   9
ENDBRANCH   7   8
ENDBRANCH   1   7
TORSDOF 6
ENDMDL
