MODEL 1
REMARK VINA RESULT:    -4.362      0.000      0.000
REMARK INTER + INTRA:          -6.361
REMARK INTER:                  -5.893
REMARK INTRA:                  -0.468
REMARK UNBOUND:                -0.468
REMARK SMILES [NH3+]CCCC[C@@H]([NH3+])C(=O)[O-]
REMARK SMILES IDX 4 1 3 2 2 3 1 4 5 8 6 9 7 10 8 14 9 15 10 16
REMARK H PARENT 1 5 1 6 1 7 7 11 7 12 7 13
REMARK Flexibility Score: inf
ROOT
ATOM      1  C   UNL     1       8.591  10.761  31.528  1.00  0.00     0.012 C 
ENDROOT
BRANCH   1   2
ATOM      2  C   UNL     1       8.869   9.273  31.264  1.00  0.00     0.061 C 
BRANCH   2   3
ATOM      3  C   UNL     1       8.161   8.752  30.003  1.00  0.00     0.258 C 
BRANCH   3   4
ATOM      4  N   UNL     1       7.388   7.547  30.298  1.00  0.00    -0.358 N 
ATOM      5  H   UNL     1       7.863   6.987  31.043  1.00  0.00     0.344 HD
ATOM      6  H   UNL     1       6.439   7.823  30.638  1.00  0.00     0.344 HD
ATOM      7  H   UNL     1       7.283   6.967  29.433  1.00  0.00     0.344 HD
ENDBRANCH   3   4
ENDBRANCH   2   3
ENDBRANCH   1   2
BRANCH   1   8
ATOM      8  C   UNL     1       7.570  10.981  32.660  1.00  0.00     0.072 C 
BRANCH   8   9
ATOM      9  C   UNL     1       7.421   9.734  33.558  1.00  0.00     0.227 C 
BRANCH   9  10
ATOM     10  N   UNL     1       7.661  10.082  34.963  1.00  0.00    -0.350 N 
ATOM     11  H   UNL     1       6.763  10.033  35.499  1.00  0.00     0.345 HD
ATOM     12  H   UNL     1       8.026  11.061  35.030  1.00  0.00     0.345 HD
ATOM     13  H   UNL     1       8.353   9.426  35.395  1.00  0.00     0.345 HD
ENDBRANCH   9  10
BRANCH   9  14
ATOM     14  C   UNL     1       6.052   9.120  33.408  1.00  0.00     0.099 C 
ATOM     15  O   UNL     1       5.914   8.022  32.807  1.00  0.00    -0.544 OA
ATOM     16  O   UNL     1       4.934   9.763  33.926  1.00  0.00    -0.544 OA
ENDBRANCH   9  14
ENDBRANCH   8   9
ENDBRANCH   1   8
TORSDOF 7
ENDMDL
MODEL 2
REMARK VINA RESULT:    -4.229      1.664      1.994
REMARK INTER + INTRA:          -6.181
REMARK INTER:                  -6.032
REMARK INTRA:                  -0.149
REMARK UNBOUND:                -0.468
REMARK SMILES [NH3+]CCCC[C@@H]([NH3+])C(=O)[O-]
REMARK SMILES IDX 4 1 3 2 2 3 1 4 5 8 6 9 7 10 8 14 9 15 10 16
REMARK H PARENT 1 5 1 6 1 7 7 11 7 12 7 13
REMARK Flexibility Score: inf
ROOT
ATOM      1  C   UNL     1       7.687  11.339  32.625  1.00  0.00     0.012 C 
ENDROOT
BRANCH   1   2
ATOM      2  C   UNL     1       8.638  11.172  31.430  1.00  0.00     0.061 C 
BRANCH   2   3
ATOM      3  C   UNL     1       8.851   9.700  31.042  1.00  0.00     0.258 C 
BRANCH   3   4
ATOM      4  N   UNL     1       7.894   9.286  30.017  1.00  0.00    -0.358 N 
ATOM      5  H   UNL     1       7.220   8.592  30.413  1.00  0.00     0.344 HD
ATOM      6  H   UNL     1       7.361  10.122  29.687  1.00  0.00     0.344 HD
ATOM      7  H   UNL     1       8.400   8.863  29.204  1.00  0.00     0.344 HD
ENDBRANCH   3   4
ENDBRANCH   2   3
ENDBRANCH   1   2
BRANCH   1   8
ATOM      8  C   UNL     1       7.530  10.044  33.443  1.00  0.00     0.072 C 
BRANCH   8   9
ATOM      9  C   UNL     1       6.131   9.413  33.272  1.00  0.00     0.227 C 
BRANCH   9  10
ATOM     10  N   UNL     1       6.248   7.994  32.916  1.00  0.00    -0.350 N 
ATOM     11  H   UNL     1       6.780   7.486  33.660  1.00  0.00     0.345 HD
ATOM     12  H   UNL     1       6.772   7.895  32.016  1.00  0.00     0.345 HD
ATOM     13  H   UNL     1       5.302   7.558  32.814  1.00  0.00     0.345 HD
ENDBRANCH   9  10
BRANCH   9  14
ATOM     14  C   UNL     1       5.313   9.562  34.530  1.00  0.00     0.099 C 
ATOM     15  O   UNL     1       5.884   9.633  35.650  1.00  0.00    -0.544 OA
ATOM     16  O   UNL     1       3.927   9.615  34.463  1.00  0.00    -0.544 OA
ENDBRANCH   9  14
ENDBRANCH   8   9
ENDBRANCH   1   8
TORSDOF 7
ENDMDL
MODEL 3
REMARK VINA RESULT:    -4.041      2.600      4.239
REMARK INTER + INTRA:          -5.927
REMARK INTER:                  -5.678
REMARK INTRA:                  -0.249
REMARK UNBOUND:                -0.468
REMARK SMILES [NH3+]CCCC[C@@H]([NH3+])C(=O)[O-]
REMARK SMILES IDX 4 1 3 2 2 3 1 4 5 8 6 9 7 10 8 14 9 15 10 16
REMARK H PARENT 1 5 1 6 1 7 7 11 7 12 7 13
REMARK Flexibility Score: inf
ROOT
ATOM      1  C   UNL     1       7.268  10.128  34.770  1.00  0.00     0.012 C 
ENDROOT
BRANCH   1   2
ATOM      2  C   UNL     1       6.110   9.365  35.431  1.00  0.00     0.061 C 
BRANCH   2   3
ATOM      3  C   UNL     1       4.744   9.710  34.817  1.00  0.00     0.258 C 
BRANCH   3   4
ATOM      4  N   UNL     1       3.980   8.498  34.529  1.00  0.00    -0.358 N 
ATOM      5  H   UNL     1       3.998   8.297  33.503  1.00  0.00     0.344 HD
ATOM      6  H   UNL     1       4.409   7.692  35.038  1.00  0.00     0.344 HD
ATOM      7  H   UNL     1       2.990   8.613  34.848  1.00  0.00     0.344 HD
ENDBRANCH   3   4
ENDBRANCH   2   3
ENDBRANCH   1   2
BRANCH   1   8
ATOM      8  C   UNL     1       7.068  10.309  33.254  1.00  0.00     0.072 C 
BRANCH   8   9
ATOM      9  C   UNL     1       7.700   9.156  32.444  1.00  0.00     0.227 C 
BRANCH   9  10
ATOM     10  N   UNL     1       6.661   8.240  31.959  1.00  0.00    -0.350 N 
ATOM     11  H   UNL     1       6.944   7.251  32.150  1.00  0.00     0.345 HD
ATOM     12  H   UNL     1       6.542   8.351  30.926  1.00  0.00     0.345 HD
ATOM     13  H   UNL     1       5.747   8.432  32.434  1.00  0.00     0.345 HD
ENDBRANCH   9  10
BRANCH   9  14
ATOM     14  C   UNL     1       8.499   9.687  31.280  1.00  0.00     0.099 C 
ATOM     15  O   UNL     1       8.942  10.865  31.303  1.00  0.00    -0.544 OA
ATOM     16  O   UNL     1       8.747   8.883  30.175  1.00  0.00    -0.544 OA
ENDBRANCH   9  14
ENDBRANCH   8   9
ENDBRANCH   1   8
TORSDOF 7
ENDMDL
MODEL 4
REMARK VINA RESULT:    -4.025      1.342      1.535
REMARK INTER + INTRA:          -5.906
REMARK INTER:                  -5.577
REMARK INTRA:                  -0.329
REMARK UNBOUND:                -0.468
REMARK SMILES [NH3+]CCCC[C@@H]([NH3+])C(=O)[O-]
REMARK SMILES IDX 4 1 3 2 2 3 1 4 5 8 6 9 7 10 8 14 9 15 10 16
REMARK H PARENT 1 5 1 6 1 7 7 11 7 12 7 13
REMARK Flexibility Score: inf
ROOT
ATOM      1  C   UNL     1       8.372   9.752  32.416  1.00  0.00     0.012 C 
ENDROOT
BRANCH   1   2
ATOM      2  C   UNL     1       8.549   9.907  30.897  1.00  0.00     0.061 C 
BRANCH   2   3
ATOM      3  C   UNL     1       8.267   8.605  30.131  1.00  0.00     0.258 C 
BRANCH   3   4
ATOM      4  N   UNL     1       6.838   8.299  30.130  1.00  0.00    -0.358 N 
ATOM      5  H   UNL     1       6.565   7.856  29.223  1.00  0.00     0.344 HD
ATOM      6  H   UNL     1       6.629   7.632  30.907  1.00  0.00     0.344 HD
ATOM      7  H   UNL     1       6.283   9.174  30.276  1.00  0.00     0.344 HD
ENDBRANCH   3   4
ENDBRANCH   2   3
ENDBRANCH   1   2
BRANCH   1   8
ATOM      8  C   UNL     1       7.202  10.589  32.964  1.00  0.00     0.072 C 
BRANCH   8   9
ATOM      9  C   UNL     1       6.456   9.867  34.107  1.00  0.00     0.227 C 
BRANCH   9  10
ATOM     10  N   UNL     1       5.095  10.398  34.246  1.00  0.00    -0.350 N 
ATOM     11  H   UNL     1       5.119  11.301  34.775  1.00  0.00     0.345 HD
ATOM     12  H   UNL     1       4.503   9.722  34.783  1.00  0.00     0.345 HD
ATOM     13  H   UNL     1       4.663  10.564  33.307  1.00  0.00     0.345 HD
ENDBRANCH   9  10
BRANCH   9  14
ATOM     14  C   UNL     1       6.405   8.380  33.864  1.00  0.00     0.099 C 
ATOM     15  O   UNL     1       6.948   7.587  34.678  1.00  0.00    -0.544 OA
ATOM     16  O   UNL     1       5.764   7.874  32.740  1.00  0.00    -0.544 OA
ENDBRANCH   9  14
ENDBRANCH   8   9
ENDBRANCH   1   8
TORSDOF 7
ENDMDL
MODEL 5
REMARK VINA RESULT:    -3.982      1.467      1.914
REMARK INTER + INTRA:          -5.847
REMARK INTER:                  -5.390
REMARK INTRA:                  -0.457
REMARK UNBOUND:                -0.468
REMARK SMILES [NH3+]CCCC[C@@H]([NH3+])C(=O)[O-]
REMARK SMILES IDX 4 1 3 2 2 3 1 4 5 8 6 9 7 10 8 14 9 15 10 16
REMARK H PARENT 1 5 1 6 1 7 7 11 7 12 7 13
REMARK Flexibility Score: inf
ROOT
ATOM      1  C   UNL     1       7.336  10.561  32.807  1.00  0.00     0.012 C 
ENDROOT
BRANCH   1   2
ATOM      2  C   UNL     1       8.445  10.376  31.761  1.00  0.00     0.061 C 
BRANCH   2   3
ATOM      3  C   UNL     1       8.304   9.064  30.972  1.00  0.00     0.258 C 
BRANCH   3   4
ATOM      4  N   UNL     1       6.897   8.728  30.765  1.00  0.00    -0.358 N 
ATOM      5  H   UNL     1       6.807   7.990  30.030  1.00  0.00     0.344 HD
ATOM      6  H   UNL     1       6.496   8.364  31.659  1.00  0.00     0.344 HD
ATOM      7  H   UNL     1       6.363   9.580  30.476  1.00  0.00     0.344 HD
ENDBRANCH   3   4
ENDBRANCH   2   3
ENDBRANCH   1   2
BRANCH   1   8
ATOM      8  C   UNL     1       7.630   9.812  34.121  1.00  0.00     0.072 C 
BRANCH   8   9
ATOM      9  C   UNL     1       6.349   9.229  34.756  1.00  0.00     0.227 C 
BRANCH   9  10
ATOM     10  N   UNL     1       5.189  10.067  34.432  1.00  0.00    -0.350 N 
ATOM     11  H   UNL     1       4.306   9.551  34.653  1.00  0.00     0.345 HD
ATOM     12  H   UNL     1       5.187  10.292  33.411  1.00  0.00     0.345 HD
ATOM     13  H   UNL     1       5.210  10.958  34.982  1.00  0.00     0.345 HD
ENDBRANCH   9  10
BRANCH   9  14
ATOM     14  C   UNL     1       6.109   7.816  34.288  1.00  0.00     0.099 C 
ATOM     15  O   UNL     1       5.473   7.602  33.223  1.00  0.00    -0.544 OA
ATOM     16  O   UNL     1       6.581   6.741  35.031  1.00  0.00    -0.544 OA
ENDBRANCH   9  14
ENDBRANCH   8   9
ENDBRANCH   1   8
TORSDOF 7
ENDMDL
MODEL 6
REMARK VINA RESULT:    -3.868      2.601      4.112
REMARK INTER + INTRA:          -5.693
REMARK INTER:                  -5.452
REMARK INTRA:                  -0.240
REMARK UNBOUND:                -0.468
REMARK SMILES [NH3+]CCCC[C@@H]([NH3+])C(=O)[O-]
REMARK SMILES IDX 4 1 3 2 2 3 1 4 5 8 6 9 7 10 8 14 9 15 10 16
REMARK H PARENT 1 5 1 6 1 7 7 11 7 12 7 13
REMARK Flexibility Score: inf
ROOT
ATOM      1  C   UNL     1       5.472   9.559  34.181  1.00  0.00     0.012 C 
ENDROOT
BRANCH   1   2
ATOM      2  C   UNL     1       5.959   8.872  35.466  1.00  0.00     0.061 C 
BRANCH   2   3
ATOM      3  C   UNL     1       5.624   7.373  35.502  1.00  0.00     0.258 C 
BRANCH   3   4
ATOM      4  N   UNL     1       6.774   6.570  35.091  1.00  0.00    -0.358 N 
ATOM      5  H   UNL     1       7.174   6.065  35.915  1.00  0.00     0.344 HD
ATOM      6  H   UNL     1       6.466   5.867  34.382  1.00  0.00     0.344 HD
ATOM      7  H   UNL     1       7.506   7.184  34.664  1.00  0.00     0.344 HD
ENDBRANCH   3   4
ENDBRANCH   2   3
ENDBRANCH   1   2
BRANCH   1   8
ATOM      8  C   UNL     1       6.607  10.278  33.428  1.00  0.00     0.072 C 
BRANCH   8   9
ATOM      9  C   UNL     1       7.516   9.289  32.666  1.00  0.00     0.227 C 
BRANCH   9  10
ATOM     10  N   UNL     1       6.706   8.311  31.930  1.00  0.00    -0.350 N 
ATOM     11  H   UNL     1       6.018   7.862  32.577  1.00  0.00     0.345 HD
ATOM     12  H   UNL     1       7.323   7.561  31.539  1.00  0.00     0.345 HD
ATOM     13  H   UNL     1       6.188   8.774  31.147  1.00  0.00     0.345 HD
ENDBRANCH   9  10
BRANCH   9  14
ATOM     14  C   UNL     1       8.431  10.019  31.715  1.00  0.00     0.099 C 
ATOM     15  O   UNL     1       9.141   9.373  30.900  1.00  0.00    -0.544 OA
ATOM     16  O   UNL     1       8.502  11.406  31.735  1.00  0.00    -0.544 OA
ENDBRANCH   9  14
ENDBRANCH   8   9
ENDBRANCH   1   8
TORSDOF 7
ENDMDL
MODEL 7
REMARK VINA RESULT:    -3.754      2.537      4.284
REMARK INTER + INTRA:          -5.539
REMARK INTER:                  -5.412
REMARK INTRA:                  -0.127
REMARK UNBOUND:                -0.468
REMARK SMILES [NH3+]CCCC[C@@H]([NH3+])C(=O)[O-]
REMARK SMILES IDX 4 1 3 2 2 3 1 4 5 8 6 9 7 10 8 14 9 15 10 16
REMARK H PARENT 1 5 1 6 1 7 7 11 7 12 7 13
REMARK Flexibility Score: inf
ROOT
ATOM      1  C   UNL     1       6.657  10.023  33.210  1.00  0.00     0.012 C 
ENDROOT
BRANCH   1   2
ATOM      2  C   UNL     1       7.128   9.809  34.657  1.00  0.00     0.061 C 
BRANCH   2   3
ATOM      3  C   UNL     1       5.961   9.613  35.638  1.00  0.00     0.258 C 
BRANCH   3   4
ATOM      4  N   UNL     1       4.692  10.003  35.025  1.00  0.00    -0.358 N 
ATOM      5  H   UNL     1       4.463  10.993  35.270  1.00  0.00     0.344 HD
ATOM      6  H   UNL     1       4.774   9.923  33.986  1.00  0.00     0.344 HD
ATOM      7  H   UNL     1       3.926   9.371  35.355  1.00  0.00     0.344 HD
ENDBRANCH   3   4
ENDBRANCH   2   3
ENDBRANCH   1   2
BRANCH   1   8
ATOM      8  C   UNL     1       6.926   8.801  32.313  1.00  0.00     0.072 C 
BRANCH   8   9
ATOM      9  C   UNL     1       7.617   9.192  30.989  1.00  0.00     0.227 C 
BRANCH   9  10
ATOM     10  N   UNL     1       8.953   9.742  31.252  1.00  0.00    -0.350 N 
ATOM     11  H   UNL     1       9.625   8.963  31.442  1.00  0.00     0.345 HD
ATOM     12  H   UNL     1       8.923  10.359  32.096  1.00  0.00     0.345 HD
ATOM     13  H   UNL     1       9.294  10.295  30.431  1.00  0.00     0.345 HD
ENDBRANCH   9  10
BRANCH   9  14
ATOM     14  C   UNL     1       7.723   8.008  30.062  1.00  0.00     0.099 C 
ATOM     15  O   UNL     1       8.841   7.667  29.596  1.00  0.00    -0.544 OA
ATOM     16  O   UNL     1       6.587   7.288  29.712  1.00  0.00    -0.544 OA
ENDBRANCH   9  14
ENDBRANCH   8   9
ENDBRANCH   1   8
TORSDOF 7
ENDMDL
MODEL 8
REMARK VINA RESULT:    -3.301      2.762      4.955
REMARK INTER + INTRA:          -4.927
REMARK INTER:                  -4.826
REMARK INTRA:                  -0.102
REMARK UNBOUND:                -0.468
REMARK SMILES [NH3+]CCCC[C@@H]([NH3+])C(=O)[O-]
REMARK SMILES IDX 4 1 3 2 2 3 1 4 5 8 6 9 7 10 8 14 9 15 10 16
REMARK H PARENT 1 5 1 6 1 7 7 11 7 12 7 13
REMARK Flexibility Score: inf
ROOT
ATOM      1  C   UNL     1       5.091   9.259  34.860  1.00  0.00     0.012 C 
ENDROOT
BRANCH   1   2
ATOM      2  C   UNL     1       5.911   9.142  36.154  1.00  0.00     0.061 C 
BRANCH   2   3
ATOM      3  C   UNL     1       5.182   9.728  37.374  1.00  0.00     0.258 C 
BRANCH   3   4
ATOM      4  N   UNL     1       6.104   9.915  38.493  1.00  0.00    -0.358 N 
ATOM      5  H   UNL     1       5.724   9.456  39.352  1.00  0.00     0.344 HD
ATOM      6  H   UNL     1       7.024   9.480  38.256  1.00  0.00     0.344 HD
ATOM      7  H   UNL     1       6.247  10.936  38.672  1.00  0.00     0.344 HD
ENDBRANCH   3   4
ENDBRANCH   2   3
ENDBRANCH   1   2
BRANCH   1   8
ATOM      8  C   UNL     1       5.817  10.070  33.770  1.00  0.00     0.072 C 
BRANCH   8   9
ATOM      9  C   UNL     1       7.055   9.329  33.222  1.00  0.00     0.227 C 
BRANCH   9  10
ATOM     10  N   UNL     1       6.645   8.163  32.429  1.00  0.00    -0.350 N 
ATOM     11  H   UNL     1       7.417   7.889  31.778  1.00  0.00     0.345 HD
ATOM     12  H   UNL     1       5.804   8.402  31.855  1.00  0.00     0.345 HD
ATOM     13  H   UNL     1       6.419   7.353  33.052  1.00  0.00     0.345 HD
ENDBRANCH   9  10
BRANCH   9  14
ATOM     14  C   UNL     1       7.907  10.247  32.383  1.00  0.00     0.099 C 
ATOM     15  O   UNL     1       8.747   9.768  31.576  1.00  0.00    -0.544 OA
ATOM     16  O   UNL     1       7.776  11.625  32.497  1.00  0.00    -0.544 OA
ENDBRANCH   9  14
ENDBRANCH   8   9
ENDBRANCH   1   8
TORSDOF 7
ENDMDL
MODEL 9
REMARK VINA RESULT:    -3.294      2.798      3.366
REMARK INTER + INTRA:          -4.918
REMARK INTER:                  -4.808
REMARK INTRA:                  -0.110
REMARK UNBOUND:                -0.468
REMARK SMILES [NH3+]CCCC[C@@H]([NH3+])C(=O)[O-]
REMARK SMILES IDX 4 1 3 2 2 3 1 4 5 8 6 9 7 10 8 14 9 15 10 16
REMARK H PARENT 1 5 1 6 1 7 7 11 7 12 7 13
REMARK Flexibility Score: inf
ROOT
ATOM      1  C   UNL     1       6.074   9.932  33.659  1.00  0.00     0.012 C 
ENDROOT
BRANCH   1   2
ATOM      2  C   UNL     1       7.361  10.637  33.204  1.00  0.00     0.061 C 
BRANCH   2   3
ATOM      3  C   UNL     1       8.090   9.877  32.084  1.00  0.00     0.258 C 
BRANCH   3   4
ATOM      4  N   UNL     1       8.634  10.804  31.093  1.00  0.00    -0.358 N 
ATOM      5  H   UNL     1       7.969  11.595  30.936  1.00  0.00     0.344 HD
ATOM      6  H   UNL     1       9.540  11.189  31.445  1.00  0.00     0.344 HD
ATOM      7  H   UNL     1       8.806  10.303  30.190  1.00  0.00     0.344 HD
ENDBRANCH   3   4
ENDBRANCH   2   3
ENDBRANCH   1   2
BRANCH   1   8
ATOM      8  C   UNL     1       6.085   9.589  35.160  1.00  0.00     0.072 C 
BRANCH   8   9
ATOM      9  C   UNL     1       5.147   8.409  35.494  1.00  0.00     0.227 C 
BRANCH   9  10
ATOM     10  N   UNL     1       4.281   8.103  34.349  1.00  0.00    -0.350 N 
ATOM     11  H   UNL     1       4.538   8.712  33.538  1.00  0.00     0.345 HD
ATOM     12  H   UNL     1       3.283   8.296  34.597  1.00  0.00     0.345 HD
ATOM     13  H   UNL     1       4.379   7.100  34.068  1.00  0.00     0.345 HD
ENDBRANCH   9  10
BRANCH   9  14
ATOM     14  C   UNL     1       5.936   7.185  35.883  1.00  0.00     0.099 C 
ATOM     15  O   UNL     1       6.836   6.744  35.121  1.00  0.00    -0.544 OA
ATOM     16  O   UNL     1       5.671   6.532  37.081  1.00  0.00    -0.544 OA
ENDBRANCH   9  14
ENDBRANCH   8   9
ENDBRANCH   1   8
TORSDOF 7
ENDMDL
