MODEL 1
REMARK VINA RESULT:    -2.939      0.000      0.000
REMARK INTER + INTRA:         -13.072
REMARK INTER:                  -7.406
REMARK INTRA:                  -5.666
REMARK UNBOUND:                -5.666
REMARK SMILES CCCCCCCCCCCCCCCCCCCCCCCCCCCC(=O)[O-]
REMARK SMILES IDX 15 1 16 2 17 3 18 4 19 5 20 6 21 7 22 8 23 9 24 10 25 11
REMARK SMILES IDX 26 12 27 13 28 14 29 15 30 16 14 17 13 18 12 19 11 20 10 21
REMARK SMILES IDX 9 22 8 23 7 24 6 25 5 26 4 27 3 28 2 29 1 30
REMARK H PARENT
REMARK Flexibility Score: inf
ROOT
ATOM      1  C   UNL     1      -3.509  41.278  96.892  1.00  0.00     0.000 C 
ENDROOT
BRANCH   1   2
ATOM      2  C   UNL     1      -2.331  40.392  97.329  1.00  0.00     0.000 C 
BRANCH   2   3
ATOM      3  C   UNL     1      -2.159  39.156  96.429  1.00  0.00     0.000 C 
BRANCH   3   4
ATOM      4  C   UNL     1      -1.069  39.343  95.358  1.00  0.00     0.000 C 
BRANCH   4   5
ATOM      5  C   UNL     1      -1.520  39.092  93.903  1.00  0.00     0.000 C 
BRANCH   5   6
ATOM      6  C   UNL     1      -2.699  39.955  93.419  1.00  0.00     0.000 C 
BRANCH   6   7
ATOM      7  C   UNL     1      -3.231  39.525  92.041  1.00  0.00     0.000 C 
BRANCH   7   8
ATOM      8  C   UNL     1      -4.103  40.603  91.374  1.00  0.00     0.000 C 
BRANCH   8   9
ATOM      9  C   UNL     1      -4.837  41.543  92.346  1.00  0.00     0.000 C 
BRANCH   9  10
ATOM     10  C   UNL     1      -6.154  40.948  92.873  1.00  0.00     0.000 C 
BRANCH  10  11
ATOM     11  C   UNL     1      -6.185  40.845  94.407  1.00  0.00     0.000 C 
BRANCH  11  12
ATOM     12  C   UNL     1      -6.021  39.398  94.903  1.00  0.00     0.006 C 
BRANCH  12  13
ATOM     13  C   UNL     1      -6.327  38.372  93.804  1.00  0.00     0.053 C 
BRANCH  13  14
ATOM     14  C   UNL     1      -5.556  37.100  93.990  1.00  0.00     0.041 C 
ATOM     15  O   UNL     1      -5.994  36.018  93.518  1.00  0.00    -0.550 OA
ATOM     16  O   UNL     1      -4.366  37.105  94.711  1.00  0.00    -0.550 OA
ENDBRANCH  13  14
ENDBRANCH  12  13
ENDBRANCH  11  12
ENDBRANCH  10  11
ENDBRANCH   9  10
ENDBRANCH   8   9
ENDBRANCH   7   8
ENDBRANCH   6   7
ENDBRANCH   5   6
ENDBRANCH   4   5
ENDBRANCH   3   4
ENDBRANCH   2   3
ENDBRANCH   1   2
BRANCH   1  17
ATOM     17  C   UNL     1      -3.109  42.751  96.715  1.00  0.00     0.000 C 
BRANCH  17  18
ATOM     18  C   UNL     1      -3.113  43.146  95.233  1.00  0.00     0.000 C 
BRANCH  18  19
ATOM     19  C   UNL     1      -4.233  44.153  94.933  1.00  0.00     0.000 C 
BRANCH  19  20
ATOM     20  C   UNL     1      -3.707  45.499  94.400  1.00  0.00     0.000 C 
BRANCH  20  21
ATOM     21  C   UNL     1      -2.184  45.698  94.508  1.00  0.00     0.000 C 
BRANCH  21  22
ATOM     22  C   UNL     1      -1.791  46.766  95.542  1.00  0.00    -0.000 C 
BRANCH  22  23
ATOM     23  C   UNL     1      -1.843  46.247  96.991  1.00  0.00    -0.000 C 
BRANCH  23  24
ATOM     24  C   UNL     1      -2.926  46.885  97.879  1.00  0.00    -0.000 C 
BRANCH  24  25
ATOM     25  C   UNL     1      -4.113  45.949  98.148  1.00  0.00    -0.000 C 
BRANCH  25  26
ATOM     26  C   UNL     1      -5.421  46.552  97.612  1.00  0.00    -0.000 C 
BRANCH  26  27
ATOM     27  C   UNL     1      -6.590  45.554  97.650  1.00  0.00    -0.000 C 
BRANCH  27  28
ATOM     28  C   UNL     1      -6.185  44.194  98.237  1.00  0.00    -0.000 C 
BRANCH  28  29
ATOM     29  C   UNL     1      -6.779  43.044  97.413  1.00  0.00    -0.003 C 
ATOM     30  C   UNL     1      -7.803  43.559  96.405  1.00  0.00     0.004 C 
ENDBRANCH  28  29
ENDBRANCH  27  28
ENDBRANCH  26  27
ENDBRANCH  25  26
ENDBRANCH  24  25
ENDBRANCH  23  24
ENDBRANCH  22  23
ENDBRANCH  21  22
ENDBRANCH  20  21
ENDBRANCH  19  20
ENDBRANCH  18  19
ENDBRANCH  17  18
ENDBRANCH   1  17
TORSDOF 26
ENDMDL
MODEL 2
REMARK VINA RESULT:    -2.937     11.418     15.204
REMARK INTER + INTRA:         -13.066
REMARK INTER:                  -8.059
REMARK INTRA:                  -5.007
REMARK UNBOUND:                -5.666
REMARK SMILES CCCCCCCCCCCCCCCCCCCCCCCCCCCC(=O)[O-]
REMARK SMILES IDX 15 1 16 2 17 3 18 4 19 5 20 6 21 7 22 8 23 9 24 10 25 11
REMARK SMILES IDX 26 12 27 13 28 14 29 15 30 16 14 17 13 18 12 19 11 20 10 21
REMARK SMILES IDX 9 22 8 23 7 24 6 25 5 26 4 27 3 28 2 29 1 30
REMARK H PARENT
REMARK Flexibility Score: inf
ROOT
ATOM      1  C   UNL     1     -19.258  41.506  93.543  1.00  0.00     0.000 C 
ENDROOT
BRANCH   1   2
ATOM      2  C   UNL     1     -20.468  40.631  93.181  1.00  0.00     0.000 C 
BRANCH   2   3
ATOM      3  C   UNL     1     -20.125  39.560  92.132  1.00  0.00     0.000 C 
BRANCH   3   4
ATOM      4  C   UNL     1     -20.536  38.141  92.568  1.00  0.00     0.000 C 
BRANCH   4   5
ATOM      5  C   UNL     1     -19.890  36.990  91.768  1.00  0.00     0.000 C 
BRANCH   5   6
ATOM      6  C   UNL     1     -19.076  37.419  90.535  1.00  0.00     0.000 C 
BRANCH   6   7
ATOM      7  C   UNL     1     -17.565  37.185  90.702  1.00  0.00     0.000 C 
BRANCH   7   8
ATOM      8  C   UNL     1     -16.784  38.484  90.969  1.00  0.00     0.000 C 
BRANCH   8   9
ATOM      9  C   UNL     1     -15.288  38.295  91.280  1.00  0.00     0.000 C 
BRANCH   9  10
ATOM     10  C   UNL     1     -14.763  39.301  92.318  1.00  0.00     0.000 C 
BRANCH  10  11
ATOM     11  C   UNL     1     -14.665  38.697  93.729  1.00  0.00     0.000 C 
BRANCH  11  12
ATOM     12  C   UNL     1     -13.510  39.299  94.548  1.00  0.00     0.006 C 
BRANCH  12  13
ATOM     13  C   UNL     1     -13.697  40.803  94.792  1.00  0.00     0.053 C 
BRANCH  13  14
ATOM     14  C   UNL     1     -12.488  41.593  94.391  1.00  0.00     0.041 C 
ATOM     15  O   UNL     1     -11.885  42.304  95.238  1.00  0.00    -0.550 OA
ATOM     16  O   UNL     1     -12.044  41.566  93.073  1.00  0.00    -0.550 OA
ENDBRANCH  13  14
ENDBRANCH  12  13
ENDBRANCH  11  12
ENDBRANCH  10  11
ENDBRANCH   9  10
ENDBRANCH   8   9
ENDBRANCH   7   8
ENDBRANCH   6   7
ENDBRANCH   5   6
ENDBRANCH   4   5
ENDBRANCH   3   4
ENDBRANCH   2   3
ENDBRANCH   1   2
BRANCH   1  17
ATOM     17  C   UNL     1     -17.991  40.682  93.821  1.00  0.00     0.000 C 
BRANCH  17  18
ATOM     18  C   UNL     1     -17.302  41.153  95.108  1.00  0.00     0.000 C 
BRANCH  18  19
ATOM     19  C   UNL     1     -18.330  41.447  96.209  1.00  0.00     0.000 C 
BRANCH  19  20
ATOM     20  C   UNL     1     -18.583  40.244  97.136  1.00  0.00     0.000 C 
BRANCH  20  21
ATOM     21  C   UNL     1     -19.985  39.615  97.029  1.00  0.00     0.000 C 
BRANCH  21  22
ATOM     22  C   UNL     1     -20.047  38.458  96.017  1.00  0.00    -0.000 C 
BRANCH  22  23
ATOM     23  C   UNL     1     -18.966  37.390  96.261  1.00  0.00    -0.000 C 
BRANCH  23  24
ATOM     24  C   UNL     1     -17.782  37.415  95.277  1.00  0.00    -0.000 C 
BRANCH  24  25
ATOM     25  C   UNL     1     -17.033  36.076  95.203  1.00  0.00    -0.000 C 
BRANCH  25  26
ATOM     26  C   UNL     1     -16.733  35.694  93.745  1.00  0.00    -0.000 C 
BRANCH  26  27
ATOM     27  C   UNL     1     -17.588  34.514  93.257  1.00  0.00    -0.000 C 
BRANCH  27  28
ATOM     28  C   UNL     1     -18.860  34.319  94.097  1.00  0.00    -0.000 C 
BRANCH  28  29
ATOM     29  C   UNL     1     -19.019  32.853  94.516  1.00  0.00    -0.003 C 
ATOM     30  C   UNL     1     -20.455  32.552  94.940  1.00  0.00     0.004 C 
ENDBRANCH  28  29
ENDBRANCH  27  28
ENDBRANCH  26  27
ENDBRANCH  25  26
ENDBRANCH  24  25
ENDBRANCH  23  24
ENDBRANCH  22  23
ENDBRANCH  21  22
ENDBRANCH  20  21
ENDBRANCH  19  20
ENDBRANCH  18  19
ENDBRANCH  17  18
ENDBRANCH   1  17
TORSDOF 26
ENDMDL
MODEL 3
REMARK VINA RESULT:    -2.899     12.403     15.797
REMARK INTER + INTRA:         -12.971
REMARK INTER:                  -7.322
REMARK INTRA:                  -5.649
REMARK UNBOUND:                -5.666
REMARK SMILES CCCCCCCCCCCCCCCCCCCCCCCCCCCC(=O)[O-]
REMARK SMILES IDX 15 1 16 2 17 3 18 4 19 5 20 6 21 7 22 8 23 9 24 10 25 11
REMARK SMILES IDX 26 12 27 13 28 14 29 15 30 16 14 17 13 18 12 19 11 20 10 21
REMARK SMILES IDX 9 22 8 23 7 24 6 25 5 26 4 27 3 28 2 29 1 30
REMARK H PARENT
REMARK Flexibility Score: inf
ROOT
ATOM      1  C   UNL     1     -16.174  39.853  94.581  1.00  0.00     0.000 C 
ENDROOT
BRANCH   1   2
ATOM      2  C   UNL     1     -16.307  38.426  94.025  1.00  0.00     0.000 C 
BRANCH   2   3
ATOM      3  C   UNL     1     -17.260  37.556  94.862  1.00  0.00     0.000 C 
BRANCH   3   4
ATOM      4  C   UNL     1     -18.025  36.522  94.016  1.00  0.00     0.000 C 
BRANCH   4   5
ATOM      5  C   UNL     1     -19.420  36.134  94.548  1.00  0.00     0.000 C 
BRANCH   5   6
ATOM      6  C   UNL     1     -20.111  34.976  93.807  1.00  0.00     0.000 C 
BRANCH   6   7
ATOM      7  C   UNL     1     -20.861  34.022  94.752  1.00  0.00     0.000 C 
BRANCH   7   8
ATOM      8  C   UNL     1     -20.389  32.562  94.626  1.00  0.00     0.000 C 
BRANCH   8   9
ATOM      9  C   UNL     1     -18.928  32.310  95.038  1.00  0.00     0.000 C 
BRANCH   9  10
ATOM     10  C   UNL     1     -18.043  31.867  93.860  1.00  0.00     0.000 C 
BRANCH  10  11
ATOM     11  C   UNL     1     -16.998  32.926  93.474  1.00  0.00     0.000 C 
BRANCH  11  12
ATOM     12  C   UNL     1     -16.023  33.237  94.623  1.00  0.00     0.006 C 
BRANCH  12  13
ATOM     13  C   UNL     1     -14.817  34.059  94.151  1.00  0.00     0.053 C 
BRANCH  13  14
ATOM     14  C   UNL     1     -14.485  35.169  95.102  1.00  0.00     0.041 C 
ATOM     15  O   UNL     1     -14.991  35.188  96.255  1.00  0.00    -0.550 OA
ATOM     16  O   UNL     1     -13.640  36.199  94.704  1.00  0.00    -0.550 OA
ENDBRANCH  13  14
ENDBRANCH  12  13
ENDBRANCH  11  12
ENDBRANCH  10  11
ENDBRANCH   9  10
ENDBRANCH   8   9
ENDBRANCH   7   8
ENDBRANCH   6   7
ENDBRANCH   5   6
ENDBRANCH   4   5
ENDBRANCH   3   4
ENDBRANCH   2   3
ENDBRANCH   1   2
BRANCH   1  17
ATOM     17  C   UNL     1     -16.980  40.065  95.872  1.00  0.00     0.000 C 
BRANCH  17  18
ATOM     18  C   UNL     1     -18.077  41.117  95.667  1.00  0.00     0.000 C 
BRANCH  18  19
ATOM     19  C   UNL     1     -18.101  41.614  94.215  1.00  0.00     0.000 C 
BRANCH  19  20
ATOM     20  C   UNL     1     -19.468  41.419  93.533  1.00  0.00     0.000 C 
BRANCH  20  21
ATOM     21  C   UNL     1     -20.191  40.102  93.874  1.00  0.00     0.000 C 
BRANCH  21  22
ATOM     22  C   UNL     1     -20.318  39.158  92.668  1.00  0.00    -0.000 C 
BRANCH  22  23
ATOM     23  C   UNL     1     -19.122  39.252  91.703  1.00  0.00    -0.000 C 
BRANCH  23  24
ATOM     24  C   UNL     1     -19.280  38.480  90.381  1.00  0.00    -0.000 C 
BRANCH  24  25
ATOM     25  C   UNL     1     -19.661  37.006  90.588  1.00  0.00    -0.000 C 
BRANCH  25  26
ATOM     26  C   UNL     1     -19.307  36.168  89.350  1.00  0.00    -0.000 C 
BRANCH  26  27
ATOM     27  C   UNL     1     -17.826  35.755  89.321  1.00  0.00    -0.000 C 
BRANCH  27  28
ATOM     28  C   UNL     1     -17.336  35.226  90.678  1.00  0.00    -0.000 C 
BRANCH  28  29
ATOM     29  C   UNL     1     -15.949  35.789  91.015  1.00  0.00    -0.003 C 
ATOM     30  C   UNL     1     -15.823  37.246  90.577  1.00  0.00     0.004 C 
ENDBRANCH  28  29
ENDBRANCH  27  28
ENDBRANCH  26  27
ENDBRANCH  25  26
ENDBRANCH  24  25
ENDBRANCH  23  24
ENDBRANCH  22  23
ENDBRANCH  21  22
ENDBRANCH  20  21
ENDBRANCH  19  20
ENDBRANCH  18  19
ENDBRANCH  17  18
ENDBRANCH   1  17
TORSDOF 26
ENDMDL
MODEL 4
REMARK VINA RESULT:    -2.826      3.517      6.903
REMARK INTER + INTRA:         -12.788
REMARK INTER:                  -6.738
REMARK INTRA:                  -6.050
REMARK UNBOUND:                -5.666
REMARK SMILES CCCCCCCCCCCCCCCCCCCCCCCCCCCC(=O)[O-]
REMARK SMILES IDX 15 1 16 2 17 3 18 4 19 5 20 6 21 7 22 8 23 9 24 10 25 11
REMARK SMILES IDX 26 12 27 13 28 14 29 15 30 16 14 17 13 18 12 19 11 20 10 21
REMARK SMILES IDX 9 22 8 23 7 24 6 25 5 26 4 27 3 28 2 29 1 30
REMARK H PARENT
REMARK Flexibility Score: inf
ROOT
ATOM      1  C   UNL     1      -5.224  42.377  96.909  1.00  0.00     0.000 C 
ENDROOT
BRANCH   1   2
ATOM      2  C   UNL     1      -5.815  41.935  95.560  1.00  0.00     0.000 C 
BRANCH   2   3
ATOM      3  C   UNL     1      -6.654  43.040  94.896  1.00  0.00     0.000 C 
BRANCH   3   4
ATOM      4  C   UNL     1      -6.336  44.443  95.443  1.00  0.00     0.000 C 
BRANCH   4   5
ATOM      5  C   UNL     1      -5.515  45.350  94.501  1.00  0.00     0.000 C 
BRANCH   5   6
ATOM      6  C   UNL     1      -4.104  44.841  94.160  1.00  0.00     0.000 C 
BRANCH   6   7
ATOM      7  C   UNL     1      -3.005  45.877  94.457  1.00  0.00     0.000 C 
BRANCH   7   8
ATOM      8  C   UNL     1      -2.105  45.472  95.638  1.00  0.00     0.000 C 
BRANCH   8   9
ATOM      9  C   UNL     1      -2.265  46.331  96.905  1.00  0.00     0.000 C 
BRANCH   9  10
ATOM     10  C   UNL     1      -3.484  45.924  97.752  1.00  0.00     0.000 C 
BRANCH  10  11
ATOM     11  C   UNL     1      -4.632  46.942  97.663  1.00  0.00     0.000 C 
BRANCH  11  12
ATOM     12  C   UNL     1      -5.860  46.518  98.488  1.00  0.00     0.006 C 
BRANCH  12  13
ATOM     13  C   UNL     1      -5.618  45.212  99.255  1.00  0.00     0.053 C 
BRANCH  13  14
ATOM     14  C   UNL     1      -5.989  45.332 100.702  1.00  0.00     0.041 C 
ATOM     15  O   UNL     1      -5.988  46.459 101.266  1.00  0.00    -0.550 OA
ATOM     16  O   UNL     1      -6.310  44.196 101.437  1.00  0.00    -0.550 OA
ENDBRANCH  13  14
ENDBRANCH  12  13
ENDBRANCH  11  12
ENDBRANCH  10  11
ENDBRANCH   9  10
ENDBRANCH   8   9
ENDBRANCH   7   8
ENDBRANCH   6   7
ENDBRANCH   5   6
ENDBRANCH   4   5
ENDBRANCH   3   4
ENDBRANCH   2   3
ENDBRANCH   1   2
BRANCH   1  17
ATOM     17  C   UNL     1      -3.689  42.428  96.895  1.00  0.00     0.000 C 
BRANCH  17  18
ATOM     18  C   UNL     1      -3.120  41.546  95.776  1.00  0.00     0.000 C 
BRANCH  18  19
ATOM     19  C   UNL     1      -2.008  40.630  96.307  1.00  0.00     0.000 C 
BRANCH  19  20
ATOM     20  C   UNL     1      -2.515  39.597  97.331  1.00  0.00     0.000 C 
BRANCH  20  21
ATOM     21  C   UNL     1      -3.477  38.533  96.768  1.00  0.00     0.000 C 
BRANCH  21  22
ATOM     22  C   UNL     1      -4.897  38.642  97.348  1.00  0.00    -0.000 C 
BRANCH  22  23
ATOM     23  C   UNL     1      -4.916  39.185  98.788  1.00  0.00    -0.000 C 
BRANCH  23  24
ATOM     24  C   UNL     1      -6.274  39.728  99.269  1.00  0.00    -0.000 C 
BRANCH  24  25
ATOM     25  C   UNL     1      -7.367  39.651  98.192  1.00  0.00    -0.000 C 
BRANCH  25  26
ATOM     26  C   UNL     1      -8.438  40.729  98.419  1.00  0.00    -0.000 C 
BRANCH  26  27
ATOM     27  C   UNL     1      -7.926  41.900  99.272  1.00  0.00    -0.000 C 
BRANCH  27  28
ATOM     28  C   UNL     1      -8.888  43.098  99.267  1.00  0.00    -0.000 C 
BRANCH  28  29
ATOM     29  C   UNL     1      -8.836  43.835  97.922  1.00  0.00    -0.003 C 
ATOM     30  C   UNL     1     -10.187  43.789  97.214  1.00  0.00     0.004 C 
ENDBRANCH  28  29
ENDBRANCH  27  28
ENDBRANCH  26  27
ENDBRANCH  25  26
ENDBRANCH  24  25
ENDBRANCH  23  24
ENDBRANCH  22  23
ENDBRANCH  21  22
ENDBRANCH  20  21
ENDBRANCH  19  20
ENDBRANCH  18  19
ENDBRANCH  17  18
ENDBRANCH   1  17
TORSDOF 26
ENDMDL
MODEL 5
REMARK VINA RESULT:    -2.814     11.406     14.904
REMARK INTER + INTRA:         -12.756
REMARK INTER:                  -6.848
REMARK INTRA:                  -5.909
REMARK UNBOUND:                -5.666
REMARK SMILES CCCCCCCCCCCCCCCCCCCCCCCCCCCC(=O)[O-]
REMARK SMILES IDX 15 1 16 2 17 3 18 4 19 5 20 6 21 7 22 8 23 9 24 10 25 11
REMARK SMILES IDX 26 12 27 13 28 14 29 15 30 16 14 17 13 18 12 19 11 20 10 21
REMARK SMILES IDX 9 22 8 23 7 24 6 25 5 26 4 27 3 28 2 29 1 30
REMARK H PARENT
REMARK Flexibility Score: inf
ROOT
ATOM      1  C   UNL     1     -18.692  38.402  90.558  1.00  0.00     0.000 C 
ENDROOT
BRANCH   1   2
ATOM      2  C   UNL     1     -19.678  37.223  90.538  1.00  0.00     0.000 C 
BRANCH   2   3
ATOM      3  C   UNL     1     -19.456  36.251  91.709  1.00  0.00     0.000 C 
BRANCH   3   4
ATOM      4  C   UNL     1     -20.670  36.164  92.652  1.00  0.00     0.000 C 
BRANCH   4   5
ATOM      5  C   UNL     1     -20.541  35.144  93.803  1.00  0.00     0.000 C 
BRANCH   5   6
ATOM      6  C   UNL     1     -20.170  35.738  95.174  1.00  0.00     0.000 C 
BRANCH   6   7
ATOM      7  C   UNL     1     -20.051  37.271  95.150  1.00  0.00     0.000 C 
BRANCH   7   8
ATOM      8  C   UNL     1     -18.645  37.768  95.533  1.00  0.00     0.000 C 
BRANCH   8   9
ATOM      9  C   UNL     1     -17.519  37.344  94.573  1.00  0.00     0.000 C 
BRANCH   9  10
ATOM     10  C   UNL     1     -16.322  36.709  95.301  1.00  0.00     0.000 C 
BRANCH  10  11
ATOM     11  C   UNL     1     -15.782  35.464  94.576  1.00  0.00     0.000 C 
BRANCH  11  12
ATOM     12  C   UNL     1     -16.859  34.762  93.732  1.00  0.00     0.006 C 
BRANCH  12  13
ATOM     13  C   UNL     1     -16.486  33.309  93.411  1.00  0.00     0.053 C 
BRANCH  13  14
ATOM     14  C   UNL     1     -16.585  33.012  91.945  1.00  0.00     0.041 C 
ATOM     15  O   UNL     1     -16.593  31.820  91.538  1.00  0.00    -0.550 OA
ATOM     16  O   UNL     1     -16.639  34.054  91.025  1.00  0.00    -0.550 OA
ENDBRANCH  13  14
ENDBRANCH  12  13
ENDBRANCH  11  12
ENDBRANCH  10  11
ENDBRANCH   9  10
ENDBRANCH   8   9
ENDBRANCH   7   8
ENDBRANCH   6   7
ENDBRANCH   5   6
ENDBRANCH   4   5
ENDBRANCH   3   4
ENDBRANCH   2   3
ENDBRANCH   1   2
BRANCH   1  17
ATOM     17  C   UNL     1     -18.794  39.238  91.844  1.00  0.00     0.000 C 
BRANCH  17  18
ATOM     18  C   UNL     1     -20.225  39.749  92.054  1.00  0.00     0.000 C 
BRANCH  18  19
ATOM     19  C   UNL     1     -20.379  40.406  93.433  1.00  0.00     0.000 C 
BRANCH  19  20
ATOM     20  C   UNL     1     -19.375  41.549  93.673  1.00  0.00     0.000 C 
BRANCH  20  21
ATOM     21  C   UNL     1     -18.378  41.316  94.824  1.00  0.00     0.000 C 
BRANCH  21  22
ATOM     22  C   UNL     1     -16.939  41.086  94.334  1.00  0.00    -0.000 C 
BRANCH  22  23
ATOM     23  C   UNL     1     -16.003  40.568  95.441  1.00  0.00    -0.000 C 
BRANCH  23  24
ATOM     24  C   UNL     1     -14.502  40.604  95.104  1.00  0.00    -0.000 C 
BRANCH  24  25
ATOM     25  C   UNL     1     -14.026  39.358  94.342  1.00  0.00    -0.000 C 
BRANCH  25  26
ATOM     26  C   UNL     1     -13.163  39.749  93.133  1.00  0.00    -0.000 C 
BRANCH  26  27
ATOM     27  C   UNL     1     -13.733  39.223  91.806  1.00  0.00    -0.000 C 
BRANCH  27  28
ATOM     28  C   UNL     1     -15.188  38.748  91.936  1.00  0.00    -0.000 C 
BRANCH  28  29
ATOM     29  C   UNL     1     -15.332  37.294  91.469  1.00  0.00    -0.003 C 
ATOM     30  C   UNL     1     -13.975  36.601  91.391  1.00  0.00     0.004 C 
ENDBRANCH  28  29
ENDBRANCH  27  28
ENDBRANCH  26  27
ENDBRANCH  25  26
ENDBRANCH  24  25
ENDBRANCH  23  24
ENDBRANCH  22  23
ENDBRANCH  21  22
ENDBRANCH  20  21
ENDBRANCH  19  20
ENDBRANCH  18  19
ENDBRANCH  17  18
ENDBRANCH   1  17
TORSDOF 26
ENDMDL
MODEL 6
REMARK VINA RESULT:    -2.773     11.706     15.224
REMARK INTER + INTRA:         -12.655
REMARK INTER:                  -7.320
REMARK INTRA:                  -5.334
REMARK UNBOUND:                -5.666
REMARK SMILES CCCCCCCCCCCCCCCCCCCCCCCCCCCC(=O)[O-]
REMARK SMILES IDX 15 1 16 2 17 3 18 4 19 5 20 6 21 7 22 8 23 9 24 10 25 11
REMARK SMILES IDX 26 12 27 13 28 14 29 15 30 16 14 17 13 18 12 19 11 20 10 21
REMARK SMILES IDX 9 22 8 23 7 24 6 25 5 26 4 27 3 28 2 29 1 30
REMARK H PARENT
REMARK Flexibility Score: inf
ROOT
ATOM      1  C   UNL     1     -19.987  37.874  91.799  1.00  0.00     0.000 C 
ENDROOT
BRANCH   1   2
ATOM      2  C   UNL     1     -19.168  38.059  90.511  1.00  0.00     0.000 C 
BRANCH   2   3
ATOM      3  C   UNL     1     -19.620  37.112  89.387  1.00  0.00     0.000 C 
BRANCH   3   4
ATOM      4  C   UNL     1     -18.717  35.872  89.249  1.00  0.00     0.000 C 
BRANCH   4   5
ATOM      5  C   UNL     1     -17.272  36.047  89.760  1.00  0.00     0.000 C 
BRANCH   5   6
ATOM      6  C   UNL     1     -16.810  35.014  90.803  1.00  0.00     0.000 C 
BRANCH   6   7
ATOM      7  C   UNL     1     -17.563  35.134  92.139  1.00  0.00     0.000 C 
BRANCH   7   8
ATOM      8  C   UNL     1     -16.684  35.690  93.273  1.00  0.00     0.000 C 
BRANCH   8   9
ATOM      9  C   UNL     1     -16.790  37.209  93.497  1.00  0.00     0.000 C 
BRANCH   9  10
ATOM     10  C   UNL     1     -15.878  38.016  92.557  1.00  0.00     0.000 C 
BRANCH  10  11
ATOM     11  C   UNL     1     -15.346  39.303  93.210  1.00  0.00     0.000 C 
BRANCH  11  12
ATOM     12  C   UNL     1     -13.959  39.110  93.846  1.00  0.00     0.006 C 
BRANCH  12  13
ATOM     13  C   UNL     1     -12.872  38.849  92.794  1.00  0.00     0.053 C 
BRANCH  13  14
ATOM     14  C   UNL     1     -12.633  40.046  91.923  1.00  0.00     0.041 C 
ATOM     15  O   UNL     1     -12.082  41.075  92.397  1.00  0.00    -0.550 OA
ATOM     16  O   UNL     1     -13.044  40.035  90.595  1.00  0.00    -0.550 OA
ENDBRANCH  13  14
ENDBRANCH  12  13
ENDBRANCH  11  12
ENDBRANCH  10  11
ENDBRANCH   9  10
ENDBRANCH   8   9
ENDBRANCH   7   8
ENDBRANCH   6   7
ENDBRANCH   5   6
ENDBRANCH   4   5
ENDBRANCH   3   4
ENDBRANCH   2   3
ENDBRANCH   1   2
BRANCH   1  17
ATOM     17  C   UNL     1     -20.329  39.207  92.482  1.00  0.00     0.000 C 
BRANCH  17  18
ATOM     18  C   UNL     1     -19.074  40.070  92.660  1.00  0.00     0.000 C 
BRANCH  18  19
ATOM     19  C   UNL     1     -19.217  41.012  93.865  1.00  0.00     0.000 C 
BRANCH  19  20
ATOM     20  C   UNL     1     -17.864  41.424  94.473  1.00  0.00     0.000 C 
BRANCH  20  21
ATOM     21  C   UNL     1     -17.706  41.136  95.978  1.00  0.00     0.000 C 
BRANCH  21  22
ATOM     22  C   UNL     1     -17.509  39.642  96.285  1.00  0.00    -0.000 C 
BRANCH  22  23
ATOM     23  C   UNL     1     -18.346  39.160  97.484  1.00  0.00    -0.000 C 
BRANCH  23  24
ATOM     24  C   UNL     1     -19.540  38.255  97.131  1.00  0.00    -0.000 C 
BRANCH  24  25
ATOM     25  C   UNL     1     -19.449  37.663  95.717  1.00  0.00    -0.000 C 
BRANCH  25  26
ATOM     26  C   UNL     1     -20.691  36.818  95.393  1.00  0.00    -0.000 C 
BRANCH  26  27
ATOM     27  C   UNL     1     -20.371  35.624  94.481  1.00  0.00    -0.000 C 
BRANCH  27  28
ATOM     28  C   UNL     1     -20.474  34.278  95.214  1.00  0.00    -0.000 C 
BRANCH  28  29
ATOM     29  C   UNL     1     -19.121  33.554  95.221  1.00  0.00    -0.003 C 
ATOM     30  C   UNL     1     -18.190  34.132  96.283  1.00  0.00     0.004 C 
ENDBRANCH  28  29
ENDBRANCH  27  28
ENDBRANCH  26  27
ENDBRANCH  25  26
ENDBRANCH  24  25
ENDBRANCH  23  24
ENDBRANCH  22  23
ENDBRANCH  21  22
ENDBRANCH  20  21
ENDBRANCH  19  20
ENDBRANCH  18  19
ENDBRANCH  17  18
ENDBRANCH   1  17
TORSDOF 26
ENDMDL
MODEL 7
REMARK VINA RESULT:    -2.761     12.442     16.061
REMARK INTER + INTRA:         -12.624
REMARK INTER:                  -7.629
REMARK INTRA:                  -4.995
REMARK UNBOUND:                -5.666
REMARK SMILES CCCCCCCCCCCCCCCCCCCCCCCCCCCC(=O)[O-]
REMARK SMILES IDX 15 1 16 2 17 3 18 4 19 5 20 6 21 7 22 8 23 9 24 10 25 11
REMARK SMILES IDX 26 12 27 13 28 14 29 15 30 16 14 17 13 18 12 19 11 20 10 21
REMARK SMILES IDX 9 22 8 23 7 24 6 25 5 26 4 27 3 28 2 29 1 30
REMARK H PARENT
REMARK Flexibility Score: inf
ROOT
ATOM      1  C   UNL     1     -17.400  41.097  95.851  1.00  0.00     0.000 C 
ENDROOT
BRANCH   1   2
ATOM      2  C   UNL     1     -16.208  41.131  94.880  1.00  0.00     0.000 C 
BRANCH   2   3
ATOM      3  C   UNL     1     -15.602  39.737  94.645  1.00  0.00     0.000 C 
BRANCH   3   4
ATOM      4  C   UNL     1     -15.742  39.261  93.188  1.00  0.00     0.000 C 
BRANCH   4   5
ATOM      5  C   UNL     1     -15.635  37.736  92.977  1.00  0.00     0.000 C 
BRANCH   5   6
ATOM      6  C   UNL     1     -16.308  36.871  94.058  1.00  0.00     0.000 C 
BRANCH   6   7
ATOM      7  C   UNL     1     -17.835  36.784  93.893  1.00  0.00     0.000 C 
BRANCH   7   8
ATOM      8  C   UNL     1     -18.424  35.480  94.457  1.00  0.00     0.000 C 
BRANCH   8   9
ATOM      9  C   UNL     1     -19.767  35.049  93.840  1.00  0.00     0.000 C 
BRANCH   9  10
ATOM     10  C   UNL     1     -20.351  33.789  94.503  1.00  0.00     0.000 C 
BRANCH  10  11
ATOM     11  C   UNL     1     -19.318  32.659  94.637  1.00  0.00     0.000 C 
BRANCH  11  12
ATOM     12  C   UNL     1     -19.598  31.746  95.844  1.00  0.00     0.006 C 
BRANCH  12  13
ATOM     13  C   UNL     1     -18.327  31.057  96.356  1.00  0.00     0.053 C 
BRANCH  13  14
ATOM     14  C   UNL     1     -17.675  30.220  95.297  1.00  0.00     0.041 C 
ATOM     15  O   UNL     1     -18.083  29.049  95.075  1.00  0.00    -0.550 OA
ATOM     16  O   UNL     1     -16.599  30.722  94.574  1.00  0.00    -0.550 OA
ENDBRANCH  13  14
ENDBRANCH  12  13
ENDBRANCH  11  12
ENDBRANCH  10  11
ENDBRANCH   9  10
ENDBRANCH   8   9
ENDBRANCH   7   8
ENDBRANCH   6   7
ENDBRANCH   5   6
ENDBRANCH   4   5
ENDBRANCH   3   4
ENDBRANCH   2   3
ENDBRANCH   1   2
BRANCH   1  17
ATOM     17  C   UNL     1     -17.615  39.710  96.478  1.00  0.00     0.000 C 
BRANCH  17  18
ATOM     18  C   UNL     1     -19.043  39.211  96.227  1.00  0.00     0.000 C 
BRANCH  18  19
ATOM     19  C   UNL     1     -19.709  39.992  95.085  1.00  0.00     0.000 C 
BRANCH  19  20
ATOM     20  C   UNL     1     -20.745  39.159  94.308  1.00  0.00     0.000 C 
BRANCH  20  21
ATOM     21  C   UNL     1     -20.703  39.321  92.776  1.00  0.00     0.000 C 
BRANCH  21  22
ATOM     22  C   UNL     1     -19.303  39.678  92.250  1.00  0.00    -0.000 C 
BRANCH  22  23
ATOM     23  C   UNL     1     -18.885  38.830  91.035  1.00  0.00    -0.000 C 
BRANCH  23  24
ATOM     24  C   UNL     1     -19.661  37.513  90.853  1.00  0.00    -0.000 C 
BRANCH  24  25
ATOM     25  C   UNL     1     -19.049  36.597  89.784  1.00  0.00    -0.000 C 
BRANCH  25  26
ATOM     26  C   UNL     1     -17.537  36.432  90.001  1.00  0.00    -0.000 C 
BRANCH  26  27
ATOM     27  C   UNL     1     -16.917  35.384  89.063  1.00  0.00    -0.000 C 
BRANCH  27  28
ATOM     28  C   UNL     1     -16.358  34.171  89.822  1.00  0.00    -0.000 C 
BRANCH  28  29
ATOM     29  C   UNL     1     -16.373  34.419  91.336  1.00  0.00    -0.003 C 
ATOM     30  C   UNL     1     -16.656  33.131  92.104  1.00  0.00     0.004 C 
ENDBRANCH  28  29
ENDBRANCH  27  28
ENDBRANCH  26  27
ENDBRANCH  25  26
ENDBRANCH  24  25
ENDBRANCH  23  24
ENDBRANCH  22  23
ENDBRANCH  21  22
ENDBRANCH  20  21
ENDBRANCH  19  20
ENDBRANCH  18  19
ENDBRANCH  17  18
ENDBRANCH   1  17
TORSDOF 26
ENDMDL
MODEL 8
REMARK VINA RESULT:    -2.756     15.155     17.737
REMARK INTER + INTRA:         -12.611
REMARK INTER:                  -7.738
REMARK INTRA:                  -4.873
REMARK UNBOUND:                -5.666
REMARK SMILES CCCCCCCCCCCCCCCCCCCCCCCCCCCC(=O)[O-]
REMARK SMILES IDX 15 1 16 2 17 3 18 4 19 5 20 6 21 7 22 8 23 9 24 10 25 11
REMARK SMILES IDX 26 12 27 13 28 14 29 15 30 16 14 17 13 18 12 19 11 20 10 21
REMARK SMILES IDX 9 22 8 23 7 24 6 25 5 26 4 27 3 28 2 29 1 30
REMARK H PARENT
REMARK Flexibility Score: inf
ROOT
ATOM      1  C   UNL     1     -17.715  32.277  96.217  1.00  0.00     0.000 C 
ENDROOT
BRANCH   1   2
ATOM      2  C   UNL     1     -17.849  33.646  95.532  1.00  0.00     0.000 C 
BRANCH   2   3
ATOM      3  C   UNL     1     -16.499  34.183  95.025  1.00  0.00     0.000 C 
BRANCH   3   4
ATOM      4  C   UNL     1     -16.003  33.457  93.761  1.00  0.00     0.000 C 
BRANCH   4   5
ATOM      5  C   UNL     1     -16.960  33.509  92.551  1.00  0.00     0.000 C 
BRANCH   5   6
ATOM      6  C   UNL     1     -16.564  32.621  91.358  1.00  0.00     0.000 C 
BRANCH   6   7
ATOM      7  C   UNL     1     -16.686  33.344  90.006  1.00  0.00     0.000 C 
BRANCH   7   8
ATOM      8  C   UNL     1     -16.116  34.773  90.039  1.00  0.00     0.000 C 
BRANCH   8   9
ATOM      9  C   UNL     1     -16.903  35.809  89.215  1.00  0.00     0.000 C 
BRANCH   9  10
ATOM     10  C   UNL     1     -18.329  35.343  88.875  1.00  0.00     0.000 C 
BRANCH  10  11
ATOM     11  C   UNL     1     -19.391  36.406  89.199  1.00  0.00     0.000 C 
BRANCH  11  12
ATOM     12  C   UNL     1     -19.272  36.938  90.638  1.00  0.00     0.006 C 
BRANCH  12  13
ATOM     13  C   UNL     1     -19.113  38.464  90.679  1.00  0.00     0.053 C 
BRANCH  13  14
ATOM     14  C   UNL     1     -19.637  39.050  91.955  1.00  0.00     0.041 C 
ATOM     15  O   UNL     1     -19.097  40.073  92.452  1.00  0.00    -0.550 OA
ATOM     16  O   UNL     1     -20.706  38.449  92.611  1.00  0.00    -0.550 OA
ENDBRANCH  13  14
ENDBRANCH  12  13
ENDBRANCH  11  12
ENDBRANCH  10  11
ENDBRANCH   9  10
ENDBRANCH   8   9
ENDBRANCH   7   8
ENDBRANCH   6   7
ENDBRANCH   5   6
ENDBRANCH   4   5
ENDBRANCH   3   4
ENDBRANCH   2   3
ENDBRANCH   1   2
BRANCH   1  17
ATOM     17  C   UNL     1     -18.936  31.374  95.981  1.00  0.00     0.000 C 
BRANCH  17  18
ATOM     18  C   UNL     1     -19.074  31.015  94.496  1.00  0.00     0.000 C 
BRANCH  18  19
ATOM     19  C   UNL     1     -17.892  30.157  94.023  1.00  0.00     0.000 C 
BRANCH  19  20
ATOM     20  C   UNL     1     -18.206  28.649  94.015  1.00  0.00     0.000 C 
BRANCH  20  21
ATOM     21  C   UNL     1     -17.283  27.782  94.893  1.00  0.00     0.000 C 
BRANCH  21  22
ATOM     22  C   UNL     1     -17.419  28.092  96.393  1.00  0.00    -0.000 C 
BRANCH  22  23
ATOM     23  C   UNL     1     -16.120  28.642  97.011  1.00  0.00    -0.000 C 
BRANCH  23  24
ATOM     24  C   UNL     1     -14.947  28.815  96.030  1.00  0.00    -0.000 C 
BRANCH  24  25
ATOM     25  C   UNL     1     -14.560  30.285  95.807  1.00  0.00    -0.000 C 
BRANCH  25  26
ATOM     26  C   UNL     1     -14.170  30.535  94.343  1.00  0.00    -0.000 C 
BRANCH  26  27
ATOM     27  C   UNL     1     -14.147  29.243  93.509  1.00  0.00    -0.000 C 
BRANCH  27  28
ATOM     28  C   UNL     1     -14.479  29.491  92.030  1.00  0.00    -0.000 C 
BRANCH  28  29
ATOM     29  C   UNL     1     -15.575  28.532  91.547  1.00  0.00    -0.003 C 
ATOM     30  C   UNL     1     -16.263  29.065  90.294  1.00  0.00     0.004 C 
ENDBRANCH  28  29
ENDBRANCH  27  28
ENDBRANCH  26  27
ENDBRANCH  25  26
ENDBRANCH  24  25
ENDBRANCH  23  24
ENDBRANCH  22  23
ENDBRANCH  21  22
ENDBRANCH  20  21
ENDBRANCH  19  20
ENDBRANCH  18  19
ENDBRANCH  17  18
ENDBRANCH   1  17
TORSDOF 26
ENDMDL
MODEL 9
REMARK VINA RESULT:    -0.241     13.041     17.192
REMARK INTER + INTRA:          -6.274
REMARK INTER:                  -2.115
REMARK INTRA:                  -4.159
REMARK UNBOUND:                -5.666
REMARK SMILES CCCCCCCCCCCCCCCCCCCCCCCCCCCC(=O)[O-]
REMARK SMILES IDX 15 1 16 2 17 3 18 4 19 5 20 6 21 7 22 8 23 9 24 10 25 11
REMARK SMILES IDX 26 12 27 13 28 14 29 15 30 16 14 17 13 18 12 19 11 20 10 21
REMARK SMILES IDX 9 22 8 23 7 24 6 25 5 26 4 27 3 28 2 29 1 30
REMARK H PARENT
REMARK Flexibility Score: inf
ROOT
ATOM      1  C   UNL     1     -16.741  38.169  96.441  1.00  0.00     0.000 C 
ENDROOT
BRANCH   1   2
ATOM      2  C   UNL     1     -17.274  39.608  96.346  1.00  0.00     0.000 C 
BRANCH   2   3
ATOM      3  C   UNL     1     -16.472  40.466  95.353  1.00  0.00     0.000 C 
BRANCH   3   4
ATOM      4  C   UNL     1     -17.366  41.373  94.488  1.00  0.00     0.000 C 
BRANCH   4   5
ATOM      5  C   UNL     1     -18.880  41.086  94.575  1.00  0.00     0.000 C 
BRANCH   5   6
ATOM      6  C   UNL     1     -19.692  41.439  93.316  1.00  0.00     0.000 C 
BRANCH   6   7
ATOM      7  C   UNL     1     -20.746  40.376  92.964  1.00  0.00     0.000 C 
BRANCH   7   8
ATOM      8  C   UNL     1     -20.123  39.048  92.499  1.00  0.00     0.000 C 
BRANCH   8   9
ATOM      9  C   UNL     1     -19.351  39.119  91.169  1.00  0.00     0.000 C 
BRANCH   9  10
ATOM     10  C   UNL     1     -17.867  38.740  91.319  1.00  0.00     0.000 C 
BRANCH  10  11
ATOM     11  C   UNL     1     -17.553  38.110  92.686  1.00  0.00     0.000 C 
BRANCH  11  12
ATOM     12  C   UNL     1     -17.104  36.643  92.569  1.00  0.00     0.006 C 
BRANCH  12  13
ATOM     13  C   UNL     1     -18.118  35.788  91.797  1.00  0.00     0.053 C 
BRANCH  13  14
ATOM     14  C   UNL     1     -17.591  35.360  90.461  1.00  0.00     0.041 C 
ATOM     15  O   UNL     1     -18.221  35.647  89.409  1.00  0.00    -0.550 OA
ATOM     16  O   UNL     1     -16.417  34.618  90.380  1.00  0.00    -0.550 OA
ENDBRANCH  13  14
ENDBRANCH  12  13
ENDBRANCH  11  12
ENDBRANCH  10  11
ENDBRANCH   9  10
ENDBRANCH   8   9
ENDBRANCH   7   8
ENDBRANCH   6   7
ENDBRANCH   5   6
ENDBRANCH   4   5
ENDBRANCH   3   4
ENDBRANCH   2   3
ENDBRANCH   1   2
BRANCH   1  17
ATOM     17  C   UNL     1     -17.847  37.114  96.282  1.00  0.00     0.000 C 
BRANCH  17  18
ATOM     18  C   UNL     1     -19.176  37.769  95.884  1.00  0.00     0.000 C 
BRANCH  18  19
ATOM     19  C   UNL     1     -20.135  36.740  95.267  1.00  0.00     0.000 C 
BRANCH  19  20
ATOM     20  C   UNL     1     -19.596  35.299  95.331  1.00  0.00     0.000 C 
BRANCH  20  21
ATOM     21  C   UNL     1     -20.385  34.266  94.503  1.00  0.00     0.000 C 
BRANCH  21  22
ATOM     22  C   UNL     1     -19.781  32.854  94.575  1.00  0.00    -0.000 C 
BRANCH  22  23
ATOM     23  C   UNL     1     -18.296  32.815  94.170  1.00  0.00    -0.000 C 
BRANCH  23  24
ATOM     24  C   UNL     1     -17.808  31.478  93.585  1.00  0.00    -0.000 C 
BRANCH  24  25
ATOM     25  C   UNL     1     -18.555  30.263  94.156  1.00  0.00    -0.000 C 
BRANCH  25  26
ATOM     26  C   UNL     1     -18.014  28.955  93.559  1.00  0.00    -0.000 C 
BRANCH  26  27
ATOM     27  C   UNL     1     -16.523  29.044  93.197  1.00  0.00    -0.000 C 
BRANCH  27  28
ATOM     28  C   UNL     1     -16.252  28.698  91.724  1.00  0.00    -0.000 C 
BRANCH  28  29
ATOM     29  C   UNL     1     -15.095  27.699  91.601  1.00  0.00    -0.003 C 
ATOM     30  C   UNL     1     -14.937  26.875  92.876  1.00  0.00     0.004 C 
ENDBRANCH  28  29
ENDBRANCH  27  28
ENDBRANCH  26  27
ENDBRANCH  25  26
ENDBRANCH  24  25
ENDBRANCH  23  24
ENDBRANCH  22  23
ENDBRANCH  21  22
ENDBRANCH  20  21
ENDBRANCH  19  20
ENDBRANCH  18  19
ENDBRANCH  17  18
ENDBRANCH   1  17
TORSDOF 26
ENDMDL
