MODEL 1
REMARK VINA RESULT:    -3.328      0.000      0.000
REMARK INTER + INTRA:         -10.815
REMARK INTER:                  -7.218
REMARK INTRA:                  -3.596
REMARK UNBOUND:                -3.596
REMARK SMILES CCCCCCCCCCCCCCCCCCCCCC(=O)[O-]
REMARK SMILES IDX 12 1 11 2 10 3 9 4 8 5 7 6 6 7 5 8 4 9 3 10 2 11 1 12 13 13
REMARK SMILES IDX 14 14 15 15 16 16 17 17 18 18 19 19 20 20 21 21 22 22 23 23
REMARK SMILES IDX 24 24
REMARK H PARENT
REMARK Flexibility Score: inf
ROOT
ATOM      1  C   UNL     1     164.440 154.205 160.831  1.00  0.00     0.000 C 
ENDROOT
BRANCH   1   2
ATOM      2  C   UNL     1     163.021 154.561 160.363  1.00  0.00     0.000 C 
BRANCH   2   3
ATOM      3  C   UNL     1     162.142 154.976 161.548  1.00  0.00     0.000 C 
BRANCH   3   4
ATOM      4  C   UNL     1     161.126 153.879 161.899  1.00  0.00    -0.000 C 
BRANCH   4   5
ATOM      5  C   UNL     1     161.098 153.544 163.401  1.00  0.00    -0.000 C 
BRANCH   5   6
ATOM      6  C   UNL     1     161.602 152.134 163.762  1.00  0.00    -0.000 C 
BRANCH   6   7
ATOM      7  C   UNL     1     163.134 151.998 163.846  1.00  0.00    -0.000 C 
BRANCH   7   8
ATOM      8  C   UNL     1     163.728 151.037 162.790  1.00  0.00    -0.000 C 
BRANCH   8   9
ATOM      9  C   UNL     1     165.228 150.741 162.982  1.00  0.00    -0.000 C 
BRANCH   9  10
ATOM     10  C   UNL     1     166.098 151.969 163.326  1.00  0.00    -0.000 C 
BRANCH  10  11
ATOM     11  C   UNL     1     166.579 152.043 164.786  1.00  0.00    -0.003 C 
ATOM     12  C   UNL     1     166.339 150.750 165.564  1.00  0.00     0.004 C 
ENDBRANCH  10  11
ENDBRANCH   9  10
ENDBRANCH   8   9
ENDBRANCH   7   8
ENDBRANCH   6   7
ENDBRANCH   5   6
ENDBRANCH   4   5
ENDBRANCH   3   4
ENDBRANCH   2   3
ENDBRANCH   1   2
BRANCH   1  13
ATOM     13  C   UNL     1     165.530 154.848 159.959  1.00  0.00     0.000 C 
BRANCH  13  14
ATOM     14  C   UNL     1     166.952 154.505 160.440  1.00  0.00     0.000 C 
BRANCH  14  15
ATOM     15  C   UNL     1     167.546 155.592 161.349  1.00  0.00     0.000 C 
BRANCH  15  16
ATOM     16  C   UNL     1     167.536 155.194 162.832  1.00  0.00     0.000 C 
BRANCH  16  17
ATOM     17  C   UNL     1     167.155 156.384 163.720  1.00  0.00     0.000 C 
BRANCH  17  18
ATOM     18  C   UNL     1     166.163 155.958 164.813  1.00  0.00     0.000 C 
BRANCH  18  19
ATOM     19  C   UNL     1     164.864 155.357 164.245  1.00  0.00     0.000 C 
BRANCH  19  20
ATOM     20  C   UNL     1     163.629 155.498 165.154  1.00  0.00     0.006 C 
BRANCH  20  21
ATOM     21  C   UNL     1     162.895 156.831 164.964  1.00  0.00     0.053 C 
BRANCH  21  22
ATOM     22  C   UNL     1     162.827 157.582 166.256  1.00  0.00     0.041 C 
ATOM     23  O   UNL     1     162.653 158.830 166.257  1.00  0.00    -0.550 OA
ATOM     24  O   UNL     1     162.941 156.902 167.462  1.00  0.00    -0.550 OA
ENDBRANCH  21  22
ENDBRANCH  20  21
ENDBRANCH  19  20
ENDBRANCH  18  19
ENDBRANCH  17  18
ENDBRANCH  16  17
ENDBRANCH  15  16
ENDBRANCH  14  15
ENDBRANCH  13  14
ENDBRANCH   1  13
TORSDOF 20
ENDMDL
MODEL 2
REMARK VINA RESULT:    -3.279      3.259      6.681
REMARK INTER + INTRA:         -10.709
REMARK INTER:                  -7.016
REMARK INTRA:                  -3.692
REMARK UNBOUND:                -3.596
REMARK SMILES CCCCCCCCCCCCCCCCCCCCCC(=O)[O-]
REMARK SMILES IDX 12 1 11 2 10 3 9 4 8 5 7 6 6 7 5 8 4 9 3 10 2 11 1 12 13 13
REMARK SMILES IDX 14 14 15 15 16 16 17 17 18 18 19 19 20 20 21 21 22 22 23 23
REMARK SMILES IDX 24 24
REMARK H PARENT
REMARK Flexibility Score: inf
ROOT
ATOM      1  C   UNL     1     165.118 153.481 164.913  1.00  0.00     0.000 C 
ENDROOT
BRANCH   1   2
ATOM      2  C   UNL     1     165.591 154.831 164.354  1.00  0.00     0.000 C 
BRANCH   2   3
ATOM      3  C   UNL     1     164.829 155.991 165.006  1.00  0.00     0.000 C 
BRANCH   3   4
ATOM      4  C   UNL     1     164.120 155.537 166.291  1.00  0.00    -0.000 C 
BRANCH   4   5
ATOM      5  C   UNL     1     163.065 156.545 166.783  1.00  0.00    -0.000 C 
BRANCH   5   6
ATOM      6  C   UNL     1     162.836 157.752 165.853  1.00  0.00    -0.000 C 
BRANCH   6   7
ATOM      7  C   UNL     1     161.432 157.823 165.224  1.00  0.00    -0.000 C 
BRANCH   7   8
ATOM      8  C   UNL     1     161.269 156.927 163.974  1.00  0.00    -0.000 C 
BRANCH   8   9
ATOM      9  C   UNL     1     160.965 155.451 164.294  1.00  0.00    -0.000 C 
BRANCH   9  10
ATOM     10  C   UNL     1     161.797 154.424 163.495  1.00  0.00    -0.000 C 
BRANCH  10  11
ATOM     11  C   UNL     1     161.908 154.703 161.985  1.00  0.00    -0.003 C 
ATOM     12  C   UNL     1     163.290 154.385 161.415  1.00  0.00     0.004 C 
ENDBRANCH  10  11
ENDBRANCH   9  10
ENDBRANCH   8   9
ENDBRANCH   7   8
ENDBRANCH   6   7
ENDBRANCH   5   6
ENDBRANCH   4   5
ENDBRANCH   3   4
ENDBRANCH   2   3
ENDBRANCH   1   2
BRANCH   1  13
ATOM     13  C   UNL     1     165.047 152.386 163.838  1.00  0.00     0.000 C 
BRANCH  13  14
ATOM     14  C   UNL     1     163.837 151.452 164.023  1.00  0.00     0.000 C 
BRANCH  14  15
ATOM     15  C   UNL     1     163.432 150.746 162.720  1.00  0.00     0.000 C 
BRANCH  15  16
ATOM     16  C   UNL     1     161.951 150.340 162.702  1.00  0.00     0.000 C 
BRANCH  16  17
ATOM     17  C   UNL     1     161.223 150.856 163.950  1.00  0.00     0.000 C 
BRANCH  17  18
ATOM     18  C   UNL     1     159.701 150.845 163.742  1.00  0.00     0.000 C 
BRANCH  18  19
ATOM     19  C   UNL     1     159.124 152.244 163.454  1.00  0.00     0.000 C 
BRANCH  19  20
ATOM     20  C   UNL     1     158.404 152.386 162.100  1.00  0.00     0.006 C 
BRANCH  20  21
ATOM     21  C   UNL     1     159.341 152.194 160.901  1.00  0.00     0.053 C 
BRANCH  21  22
ATOM     22  C   UNL     1     158.938 153.088 159.772  1.00  0.00     0.041 C 
ATOM     23  O   UNL     1     157.731 153.160 159.417  1.00  0.00    -0.550 OA
ATOM     24  O   UNL     1     159.894 153.855 159.119  1.00  0.00    -0.550 OA
ENDBRANCH  21  22
ENDBRANCH  20  21
ENDBRANCH  19  20
ENDBRANCH  18  19
ENDBRANCH  17  18
ENDBRANCH  16  17
ENDBRANCH  15  16
ENDBRANCH  14  15
ENDBRANCH  13  14
ENDBRANCH   1  13
TORSDOF 20
ENDMDL
MODEL 3
REMARK VINA RESULT:    -3.275      3.080      6.356
REMARK INTER + INTRA:         -10.700
REMARK INTER:                  -8.259
REMARK INTRA:                  -2.441
REMARK UNBOUND:                -3.596
REMARK SMILES CCCCCCCCCCCCCCCCCCCCCC(=O)[O-]
REMARK SMILES IDX 12 1 11 2 10 3 9 4 8 5 7 6 6 7 5 8 4 9 3 10 2 11 1 12 13 13
REMARK SMILES IDX 14 14 15 15 16 16 17 17 18 18 19 19 20 20 21 21 22 22 23 23
REMARK SMILES IDX 24 24
REMARK H PARENT
REMARK Flexibility Score: inf
ROOT
ATOM      1  C   UNL     1     161.021 155.201 164.161  1.00  0.00     0.000 C 
ENDROOT
BRANCH   1   2
ATOM      2  C   UNL     1     161.668 154.169 163.225  1.00  0.00     0.000 C 
BRANCH   2   3
ATOM      3  C   UNL     1     162.348 154.860 162.037  1.00  0.00     0.000 C 
BRANCH   3   4
ATOM      4  C   UNL     1     161.659 154.495 160.713  1.00  0.00    -0.000 C 
BRANCH   4   5
ATOM      5  C   UNL     1     162.607 154.569 159.502  1.00  0.00    -0.000 C 
BRANCH   5   6
ATOM      6  C   UNL     1     164.065 154.932 159.840  1.00  0.00    -0.000 C 
BRANCH   6   7
ATOM      7  C   UNL     1     165.085 154.596 158.736  1.00  0.00    -0.000 C 
BRANCH   7   8
ATOM      8  C   UNL     1     164.433 154.175 157.399  1.00  0.00    -0.000 C 
BRANCH   8   9
ATOM      9  C   UNL     1     164.362 155.303 156.351  1.00  0.00    -0.000 C 
BRANCH   9  10
ATOM     10  C   UNL     1     165.547 155.351 155.362  1.00  0.00    -0.000 C 
BRANCH  10  11
ATOM     11  C   UNL     1     166.762 156.170 155.833  1.00  0.00    -0.003 C 
ATOM     12  C   UNL     1     167.113 157.321 154.891  1.00  0.00     0.004 C 
ENDBRANCH  10  11
ENDBRANCH   9  10
ENDBRANCH   8   9
ENDBRANCH   7   8
ENDBRANCH   6   7
ENDBRANCH   5   6
ENDBRANCH   4   5
ENDBRANCH   3   4
ENDBRANCH   2   3
ENDBRANCH   1   2
BRANCH   1  13
ATOM     13  C   UNL     1     161.335 156.649 163.754  1.00  0.00     0.000 C 
BRANCH  13  14
ATOM     14  C   UNL     1     160.570 157.681 164.602  1.00  0.00     0.000 C 
BRANCH  14  15
ATOM     15  C   UNL     1     161.492 158.756 165.197  1.00  0.00     0.000 C 
BRANCH  15  16
ATOM     16  C   UNL     1     162.869 158.203 165.591  1.00  0.00     0.000 C 
BRANCH  16  17
ATOM     17  C   UNL     1     162.798 157.442 166.921  1.00  0.00     0.000 C 
BRANCH  17  18
ATOM     18  C   UNL     1     163.403 156.037 166.782  1.00  0.00     0.000 C 
BRANCH  18  19
ATOM     19  C   UNL     1     164.379 155.916 165.597  1.00  0.00     0.000 C 
BRANCH  19  20
ATOM     20  C   UNL     1     164.800 154.478 165.244  1.00  0.00     0.006 C 
BRANCH  20  21
ATOM     21  C   UNL     1     165.450 154.366 163.859  1.00  0.00     0.053 C 
BRANCH  21  22
ATOM     22  C   UNL     1     165.540 152.935 163.435  1.00  0.00     0.041 C 
ATOM     23  O   UNL     1     165.686 152.024 164.294  1.00  0.00    -0.550 OA
ATOM     24  O   UNL     1     165.448 152.603 162.089  1.00  0.00    -0.550 OA
ENDBRANCH  21  22
ENDBRANCH  20  21
ENDBRANCH  19  20
ENDBRANCH  18  19
ENDBRANCH  17  18
ENDBRANCH  16  17
ENDBRANCH  15  16
ENDBRANCH  14  15
ENDBRANCH  13  14
ENDBRANCH   1  13
TORSDOF 20
ENDMDL
MODEL 4
REMARK VINA RESULT:    -3.225     10.413     13.806
REMARK INTER + INTRA:         -10.592
REMARK INTER:                  -8.613
REMARK INTRA:                  -1.979
REMARK UNBOUND:                -3.596
REMARK SMILES CCCCCCCCCCCCCCCCCCCCCC(=O)[O-]
REMARK SMILES IDX 12 1 11 2 10 3 9 4 8 5 7 6 6 7 5 8 4 9 3 10 2 11 1 12 13 13
REMARK SMILES IDX 14 14 15 15 16 16 17 17 18 18 19 19 20 20 21 21 22 22 23 23
REMARK SMILES IDX 24 24
REMARK H PARENT
REMARK Flexibility Score: inf
ROOT
ATOM      1  C   UNL     1     156.876 157.803 151.128  1.00  0.00     0.000 C 
ENDROOT
BRANCH   1   2
ATOM      2  C   UNL     1     158.210 158.386 150.638  1.00  0.00     0.000 C 
BRANCH   2   3
ATOM      3  C   UNL     1     159.154 157.272 150.168  1.00  0.00     0.000 C 
BRANCH   3   4
ATOM      4  C   UNL     1     160.530 157.390 150.839  1.00  0.00    -0.000 C 
BRANCH   4   5
ATOM      5  C   UNL     1     161.213 158.743 150.575  1.00  0.00    -0.000 C 
BRANCH   5   6
ATOM      6  C   UNL     1     162.675 158.652 150.097  1.00  0.00    -0.000 C 
BRANCH   6   7
ATOM      7  C   UNL     1     163.727 158.735 151.218  1.00  0.00    -0.000 C 
BRANCH   7   8
ATOM      8  C   UNL     1     164.416 160.116 151.317  1.00  0.00    -0.000 C 
BRANCH   8   9
ATOM      9  C   UNL     1     165.691 160.122 152.182  1.00  0.00    -0.000 C 
BRANCH   9  10
ATOM     10  C   UNL     1     165.747 159.031 153.273  1.00  0.00    -0.000 C 
BRANCH  10  11
ATOM     11  C   UNL     1     166.948 158.072 153.181  1.00  0.00    -0.003 C 
ATOM     12  C   UNL     1     166.863 156.907 154.166  1.00  0.00     0.004 C 
ENDBRANCH  10  11
ENDBRANCH   9  10
ENDBRANCH   8   9
ENDBRANCH   7   8
ENDBRANCH   6   7
ENDBRANCH   5   6
ENDBRANCH   4   5
ENDBRANCH   3   4
ENDBRANCH   2   3
ENDBRANCH   1   2
BRANCH   1  13
ATOM     13  C   UNL     1     156.199 156.909 150.078  1.00  0.00     0.000 C 
BRANCH  13  14
ATOM     14  C   UNL     1     155.465 155.710 150.706  1.00  0.00     0.000 C 
BRANCH  14  15
ATOM     15  C   UNL     1     156.106 154.364 150.333  1.00  0.00     0.000 C 
BRANCH  15  16
ATOM     16  C   UNL     1     156.983 153.794 151.457  1.00  0.00     0.000 C 
BRANCH  16  17
ATOM     17  C   UNL     1     156.756 154.551 152.771  1.00  0.00     0.000 C 
BRANCH  17  18
ATOM     18  C   UNL     1     158.088 154.814 153.490  1.00  0.00     0.000 C 
BRANCH  18  19
ATOM     19  C   UNL     1     159.315 154.544 152.600  1.00  0.00     0.000 C 
BRANCH  19  20
ATOM     20  C   UNL     1     160.492 153.847 153.307  1.00  0.00     0.006 C 
BRANCH  20  21
ATOM     21  C   UNL     1     161.045 152.654 152.518  1.00  0.00     0.053 C 
BRANCH  21  22
ATOM     22  C   UNL     1     162.068 151.920 153.324  1.00  0.00     0.041 C 
ATOM     23  O   UNL     1     163.281 151.938 152.981  1.00  0.00    -0.550 OA
ATOM     24  O   UNL     1     161.687 151.227 154.466  1.00  0.00    -0.550 OA
ENDBRANCH  21  22
ENDBRANCH  20  21
ENDBRANCH  19  20
ENDBRANCH  18  19
ENDBRANCH  17  18
ENDBRANCH  16  17
ENDBRANCH  15  16
ENDBRANCH  14  15
ENDBRANCH  13  14
ENDBRANCH   1  13
TORSDOF 20
ENDMDL
MODEL 5
REMARK VINA RESULT:    -3.225      9.685     12.881
REMARK INTER + INTRA:         -10.591
REMARK INTER:                  -6.815
REMARK INTRA:                  -3.776
REMARK UNBOUND:                -3.596
REMARK SMILES CCCCCCCCCCCCCCCCCCCCCC(=O)[O-]
REMARK SMILES IDX 12 1 11 2 10 3 9 4 8 5 7 6 6 7 5 8 4 9 3 10 2 11 1 12 13 13
REMARK SMILES IDX 14 14 15 15 16 16 17 17 18 18 19 19 20 20 21 21 22 22 23 23
REMARK SMILES IDX 24 24
REMARK H PARENT
REMARK Flexibility Score: inf
ROOT
ATOM      1  C   UNL     1     159.794 155.019 151.093  1.00  0.00     0.000 C 
ENDROOT
BRANCH   1   2
ATOM      2  C   UNL     1     160.187 156.473 151.391  1.00  0.00     0.000 C 
BRANCH   2   3
ATOM      3  C   UNL     1     159.958 157.364 150.163  1.00  0.00     0.000 C 
BRANCH   3   4
ATOM      4  C   UNL     1     159.147 158.616 150.528  1.00  0.00    -0.000 C 
BRANCH   4   5
ATOM      5  C   UNL     1     157.970 158.314 151.474  1.00  0.00    -0.000 C 
BRANCH   5   6
ATOM      6  C   UNL     1     156.644 157.967 150.771  1.00  0.00    -0.000 C 
BRANCH   6   7
ATOM      7  C   UNL     1     156.512 156.496 150.335  1.00  0.00    -0.000 C 
BRANCH   7   8
ATOM      8  C   UNL     1     155.523 155.681 151.200  1.00  0.00    -0.000 C 
BRANCH   8   9
ATOM      9  C   UNL     1     155.712 154.155 151.102  1.00  0.00    -0.000 C 
BRANCH   9  10
ATOM     10  C   UNL     1     156.515 153.673 149.875  1.00  0.00    -0.000 C 
BRANCH  10  11
ATOM     11  C   UNL     1     157.046 152.231 149.965  1.00  0.00    -0.003 C 
ATOM     12  C   UNL     1     156.436 151.436 151.119  1.00  0.00     0.004 C 
ENDBRANCH  10  11
ENDBRANCH   9  10
ENDBRANCH   8   9
ENDBRANCH   7   8
ENDBRANCH   6   7
ENDBRANCH   5   6
ENDBRANCH   4   5
ENDBRANCH   3   4
ENDBRANCH   2   3
ENDBRANCH   1   2
BRANCH   1  13
ATOM     13  C   UNL     1     159.253 154.286 152.330  1.00  0.00     0.000 C 
BRANCH  13  14
ATOM     14  C   UNL     1     158.526 155.229 153.306  1.00  0.00     0.000 C 
BRANCH  14  15
ATOM     15  C   UNL     1     157.733 154.468 154.380  1.00  0.00     0.000 C 
BRANCH  15  16
ATOM     16  C   UNL     1     157.620 152.966 154.081  1.00  0.00     0.000 C 
BRANCH  16  17
ATOM     17  C   UNL     1     158.328 152.135 155.159  1.00  0.00     0.000 C 
BRANCH  17  18
ATOM     18  C   UNL     1     159.094 153.040 156.135  1.00  0.00     0.000 C 
BRANCH  18  19
ATOM     19  C   UNL     1     160.615 152.797 156.113  1.00  0.00     0.000 C 
BRANCH  19  20
ATOM     20  C   UNL     1     161.366 153.474 154.952  1.00  0.00     0.006 C 
BRANCH  20  21
ATOM     21  C   UNL     1     161.925 154.853 155.323  1.00  0.00     0.053 C 
BRANCH  21  22
ATOM     22  C   UNL     1     162.761 154.766 156.560  1.00  0.00     0.041 C 
ATOM     23  O   UNL     1     162.394 155.344 157.618  1.00  0.00    -0.550 OA
ATOM     24  O   UNL     1     163.941 154.032 156.550  1.00  0.00    -0.550 OA
ENDBRANCH  21  22
ENDBRANCH  20  21
ENDBRANCH  19  20
ENDBRANCH  18  19
ENDBRANCH  17  18
ENDBRANCH  16  17
ENDBRANCH  15  16
ENDBRANCH  14  15
ENDBRANCH  13  14
ENDBRANCH   1  13
TORSDOF 20
ENDMDL
MODEL 6
REMARK VINA RESULT:    -3.175      3.317      5.911
REMARK INTER + INTRA:         -10.483
REMARK INTER:                  -7.214
REMARK INTRA:                  -3.269
REMARK UNBOUND:                -3.596
REMARK SMILES CCCCCCCCCCCCCCCCCCCCCC(=O)[O-]
REMARK SMILES IDX 12 1 11 2 10 3 9 4 8 5 7 6 6 7 5 8 4 9 3 10 2 11 1 12 13 13
REMARK SMILES IDX 14 14 15 15 16 16 17 17 18 18 19 19 20 20 21 21 22 22 23 23
REMARK SMILES IDX 24 24
REMARK H PARENT
REMARK Flexibility Score: inf
ROOT
ATOM      1  C   UNL     1     162.010 154.049 162.536  1.00  0.00     0.000 C 
ENDROOT
BRANCH   1   2
ATOM      2  C   UNL     1     161.961 153.257 163.851  1.00  0.00     0.000 C 
BRANCH   2   3
ATOM      3  C   UNL     1     161.894 151.749 163.579  1.00  0.00     0.000 C 
BRANCH   3   4
ATOM      4  C   UNL     1     160.461 151.219 163.736  1.00  0.00    -0.000 C 
BRANCH   4   5
ATOM      5  C   UNL     1     159.690 151.170 162.405  1.00  0.00    -0.000 C 
BRANCH   5   6
ATOM      6  C   UNL     1     158.497 152.140 162.308  1.00  0.00    -0.000 C 
BRANCH   6   7
ATOM      7  C   UNL     1     158.316 153.063 163.528  1.00  0.00    -0.000 C 
BRANCH   7   8
ATOM      8  C   UNL     1     156.850 153.178 164.003  1.00  0.00    -0.000 C 
BRANCH   8   9
ATOM      9  C   UNL     1     156.519 152.317 165.238  1.00  0.00    -0.000 C 
BRANCH   9  10
ATOM     10  C   UNL     1     156.421 150.800 164.970  1.00  0.00    -0.000 C 
BRANCH  10  11
ATOM     11  C   UNL     1     157.515 149.944 165.634  1.00  0.00    -0.003 C 
ATOM     12  C   UNL     1     157.897 148.714 164.811  1.00  0.00     0.004 C 
ENDBRANCH  10  11
ENDBRANCH   9  10
ENDBRANCH   8   9
ENDBRANCH   7   8
ENDBRANCH   6   7
ENDBRANCH   5   6
ENDBRANCH   4   5
ENDBRANCH   3   4
ENDBRANCH   2   3
ENDBRANCH   1   2
BRANCH   1  13
ATOM     13  C   UNL     1     161.917 155.567 162.754  1.00  0.00     0.000 C 
BRANCH  13  14
ATOM     14  C   UNL     1     161.107 155.936 164.010  1.00  0.00     0.000 C 
BRANCH  14  15
ATOM     15  C   UNL     1     161.389 157.366 164.495  1.00  0.00     0.000 C 
BRANCH  15  16
ATOM     16  C   UNL     1     162.073 157.402 165.869  1.00  0.00     0.000 C 
BRANCH  16  17
ATOM     17  C   UNL     1     162.395 155.985 166.361  1.00  0.00     0.000 C 
BRANCH  17  18
ATOM     18  C   UNL     1     163.899 155.826 166.630  1.00  0.00     0.000 C 
BRANCH  18  19
ATOM     19  C   UNL     1     164.720 155.612 165.344  1.00  0.00     0.000 C 
BRANCH  19  20
ATOM     20  C   UNL     1     165.118 154.152 165.061  1.00  0.00     0.006 C 
BRANCH  20  21
ATOM     21  C   UNL     1     165.586 153.928 163.618  1.00  0.00     0.053 C 
BRANCH  21  22
ATOM     22  C   UNL     1     166.877 154.639 163.367  1.00  0.00     0.041 C 
ATOM     23  O   UNL     1     166.938 155.570 162.519  1.00  0.00    -0.550 OA
ATOM     24  O   UNL     1     168.015 154.286 164.082  1.00  0.00    -0.550 OA
ENDBRANCH  21  22
ENDBRANCH  20  21
ENDBRANCH  19  20
ENDBRANCH  18  19
ENDBRANCH  17  18
ENDBRANCH  16  17
ENDBRANCH  15  16
ENDBRANCH  14  15
ENDBRANCH  13  14
ENDBRANCH   1  13
TORSDOF 20
ENDMDL
MODEL 7
REMARK VINA RESULT:    -3.135      1.714      2.445
REMARK INTER + INTRA:         -10.396
REMARK INTER:                  -7.086
REMARK INTRA:                  -3.310
REMARK UNBOUND:                -3.596
REMARK SMILES CCCCCCCCCCCCCCCCCCCCCC(=O)[O-]
REMARK SMILES IDX 12 1 11 2 10 3 9 4 8 5 7 6 6 7 5 8 4 9 3 10 2 11 1 12 13 13
REMARK SMILES IDX 14 14 15 15 16 16 17 17 18 18 19 19 20 20 21 21 22 22 23 23
REMARK SMILES IDX 24 24
REMARK H PARENT
REMARK Flexibility Score: inf
ROOT
ATOM      1  C   UNL     1     164.421 153.944 160.399  1.00  0.00     0.000 C 
ENDROOT
BRANCH   1   2
ATOM      2  C   UNL     1     163.279 154.865 160.854  1.00  0.00     0.000 C 
BRANCH   2   3
ATOM      3  C   UNL     1     161.936 154.392 160.285  1.00  0.00     0.000 C 
BRANCH   3   4
ATOM      4  C   UNL     1     161.110 153.655 161.350  1.00  0.00    -0.000 C 
BRANCH   4   5
ATOM      5  C   UNL     1     161.297 154.236 162.764  1.00  0.00    -0.000 C 
BRANCH   5   6
ATOM      6  C   UNL     1     161.274 153.198 163.902  1.00  0.00    -0.000 C 
BRANCH   6   7
ATOM      7  C   UNL     1     162.210 151.992 163.694  1.00  0.00    -0.000 C 
BRANCH   7   8
ATOM      8  C   UNL     1     161.506 150.627 163.865  1.00  0.00    -0.000 C 
BRANCH   8   9
ATOM      9  C   UNL     1     162.366 149.559 164.570  1.00  0.00    -0.000 C 
BRANCH   9  10
ATOM     10  C   UNL     1     163.793 150.013 164.945  1.00  0.00    -0.000 C 
BRANCH  10  11
ATOM     11  C   UNL     1     164.912 149.480 164.032  1.00  0.00    -0.003 C 
ATOM     12  C   UNL     1     166.112 148.936 164.806  1.00  0.00     0.004 C 
ENDBRANCH  10  11
ENDBRANCH   9  10
ENDBRANCH   8   9
ENDBRANCH   7   8
ENDBRANCH   6   7
ENDBRANCH   5   6
ENDBRANCH   4   5
ENDBRANCH   3   4
ENDBRANCH   2   3
ENDBRANCH   1   2
BRANCH   1  13
ATOM     13  C   UNL     1     164.872 152.971 161.500  1.00  0.00     0.000 C 
BRANCH  13  14
ATOM     14  C   UNL     1     165.914 153.592 162.448  1.00  0.00     0.000 C 
BRANCH  14  15
ATOM     15  C   UNL     1     165.784 153.074 163.889  1.00  0.00     0.000 C 
BRANCH  15  16
ATOM     16  C   UNL     1     164.950 154.006 164.780  1.00  0.00     0.000 C 
BRANCH  16  17
ATOM     17  C   UNL     1     165.455 155.452 164.690  1.00  0.00     0.000 C 
BRANCH  17  18
ATOM     18  C   UNL     1     164.298 156.449 164.856  1.00  0.00     0.000 C 
BRANCH  18  19
ATOM     19  C   UNL     1     163.269 156.006 165.912  1.00  0.00     0.000 C 
BRANCH  19  20
ATOM     20  C   UNL     1     161.823 156.464 165.645  1.00  0.00     0.006 C 
BRANCH  20  21
ATOM     21  C   UNL     1     161.716 157.459 164.483  1.00  0.00     0.053 C 
BRANCH  21  22
ATOM     22  C   UNL     1     160.829 158.605 164.854  1.00  0.00     0.041 C 
ATOM     23  O   UNL     1     161.326 159.678 165.293  1.00  0.00    -0.550 OA
ATOM     24  O   UNL     1     159.453 158.498 164.700  1.00  0.00    -0.550 OA
ENDBRANCH  21  22
ENDBRANCH  20  21
ENDBRANCH  19  20
ENDBRANCH  18  19
ENDBRANCH  17  18
ENDBRANCH  16  17
ENDBRANCH  15  16
ENDBRANCH  14  15
ENDBRANCH  13  14
ENDBRANCH   1  13
TORSDOF 20
ENDMDL
MODEL 8
REMARK VINA RESULT:    -3.125      2.920      6.046
REMARK INTER + INTRA:         -10.374
REMARK INTER:                  -6.972
REMARK INTRA:                  -3.403
REMARK UNBOUND:                -3.596
REMARK SMILES CCCCCCCCCCCCCCCCCCCCCC(=O)[O-]
REMARK SMILES IDX 12 1 11 2 10 3 9 4 8 5 7 6 6 7 5 8 4 9 3 10 2 11 1 12 13 13
REMARK SMILES IDX 14 14 15 15 16 16 17 17 18 18 19 19 20 20 21 21 22 22 23 23
REMARK SMILES IDX 24 24
REMARK H PARENT
REMARK Flexibility Score: inf
ROOT
ATOM      1  C   UNL     1     167.467 153.125 161.955  1.00  0.00     0.000 C 
ENDROOT
BRANCH   1   2
ATOM      2  C   UNL     1     168.103 154.044 163.008  1.00  0.00     0.000 C 
BRANCH   2   3
ATOM      3  C   UNL     1     167.133 154.303 164.167  1.00  0.00     0.000 C 
BRANCH   3   4
ATOM      4  C   UNL     1     166.908 155.807 164.379  1.00  0.00    -0.000 C 
BRANCH   4   5
ATOM      5  C   UNL     1     165.424 156.173 164.561  1.00  0.00    -0.000 C 
BRANCH   5   6
ATOM      6  C   UNL     1     164.677 155.348 165.626  1.00  0.00    -0.000 C 
BRANCH   6   7
ATOM      7  C   UNL     1     163.545 156.102 166.348  1.00  0.00    -0.000 C 
BRANCH   7   8
ATOM      8  C   UNL     1     162.138 155.781 165.794  1.00  0.00    -0.000 C 
BRANCH   8   9
ATOM      9  C   UNL     1     161.701 156.684 164.625  1.00  0.00    -0.000 C 
BRANCH   9  10
ATOM     10  C   UNL     1     162.382 158.069 164.579  1.00  0.00    -0.000 C 
BRANCH  10  11
ATOM     11  C   UNL     1     161.705 159.161 165.426  1.00  0.00    -0.003 C 
ATOM     12  C   UNL     1     162.700 160.125 166.071  1.00  0.00     0.004 C 
ENDBRANCH  10  11
ENDBRANCH   9  10
ENDBRANCH   8   9
ENDBRANCH   7   8
ENDBRANCH   6   7
ENDBRANCH   5   6
ENDBRANCH   4   5
ENDBRANCH   3   4
ENDBRANCH   2   3
ENDBRANCH   1   2
BRANCH   1  13
ATOM     13  C   UNL     1     167.225 153.837 160.615  1.00  0.00     0.000 C 
BRANCH  13  14
ATOM     14  C   UNL     1     166.161 154.944 160.716  1.00  0.00     0.000 C 
BRANCH  14  15
ATOM     15  C   UNL     1     164.980 154.717 159.760  1.00  0.00     0.000 C 
BRANCH  15  16
ATOM     16  C   UNL     1     163.638 154.594 160.496  1.00  0.00     0.000 C 
BRANCH  16  17
ATOM     17  C   UNL     1     163.851 154.394 162.002  1.00  0.00     0.000 C 
BRANCH  17  18
ATOM     18  C   UNL     1     162.607 153.774 162.655  1.00  0.00     0.000 C 
BRANCH  18  19
ATOM     19  C   UNL     1     162.941 152.596 163.589  1.00  0.00     0.000 C 
BRANCH  19  20
ATOM     20  C   UNL     1     164.436 152.238 163.677  1.00  0.00     0.006 C 
BRANCH  20  21
ATOM     21  C   UNL     1     164.777 151.384 164.904  1.00  0.00     0.053 C 
BRANCH  21  22
ATOM     22  C   UNL     1     165.549 150.169 164.500  1.00  0.00     0.041 C 
ATOM     23  O   UNL     1     166.675 150.286 163.945  1.00  0.00    -0.550 OA
ATOM     24  O   UNL     1     165.034 148.903 164.750  1.00  0.00    -0.550 OA
ENDBRANCH  21  22
ENDBRANCH  20  21
ENDBRANCH  19  20
ENDBRANCH  18  19
ENDBRANCH  17  18
ENDBRANCH  16  17
ENDBRANCH  15  16
ENDBRANCH  14  15
ENDBRANCH  13  14
ENDBRANCH   1  13
TORSDOF 20
ENDMDL
MODEL 9
REMARK VINA RESULT:    -3.097      3.203      5.831
REMARK INTER + INTRA:         -10.315
REMARK INTER:                  -6.794
REMARK INTRA:                  -3.522
REMARK UNBOUND:                -3.596
REMARK SMILES CCCCCCCCCCCCCCCCCCCCCC(=O)[O-]
REMARK SMILES IDX 12 1 11 2 10 3 9 4 8 5 7 6 6 7 5 8 4 9 3 10 2 11 1 12 13 13
REMARK SMILES IDX 14 14 15 15 16 16 17 17 18 18 19 19 20 20 21 21 22 22 23 23
REMARK SMILES IDX 24 24
REMARK H PARENT
REMARK Flexibility Score: inf
ROOT
ATOM      1  C   UNL     1     165.758 155.208 164.518  1.00  0.00     0.000 C 
ENDROOT
BRANCH   1   2
ATOM      2  C   UNL     1     164.724 155.250 165.653  1.00  0.00     0.000 C 
BRANCH   2   3
ATOM      3  C   UNL     1     163.768 156.436 165.479  1.00  0.00     0.000 C 
BRANCH   3   4
ATOM      4  C   UNL     1     162.340 156.067 165.907  1.00  0.00    -0.000 C 
BRANCH   4   5
ATOM      5  C   UNL     1     161.576 155.275 164.830  1.00  0.00    -0.000 C 
BRANCH   5   6
ATOM      6  C   UNL     1     161.637 155.879 163.414  1.00  0.00    -0.000 C 
BRANCH   6   7
ATOM      7  C   UNL     1     162.508 155.094 162.416  1.00  0.00    -0.000 C 
BRANCH   7   8
ATOM      8  C   UNL     1     161.842 154.899 161.035  1.00  0.00    -0.000 C 
BRANCH   8   9
ATOM      9  C   UNL     1     162.761 154.258 159.977  1.00  0.00    -0.000 C 
BRANCH   9  10
ATOM     10  C   UNL     1     164.268 154.545 160.161  1.00  0.00    -0.000 C 
BRANCH  10  11
ATOM     11  C   UNL     1     165.193 153.330 159.977  1.00  0.00    -0.003 C 
ATOM     12  C   UNL     1     164.440 152.048 159.623  1.00  0.00     0.004 C 
ENDBRANCH  10  11
ENDBRANCH   9  10
ENDBRANCH   8   9
ENDBRANCH   7   8
ENDBRANCH   6   7
ENDBRANCH   5   6
ENDBRANCH   4   5
ENDBRANCH   3   4
ENDBRANCH   2   3
ENDBRANCH   1   2
BRANCH   1  13
ATOM     13  C   UNL     1     165.630 153.950 163.645  1.00  0.00     0.000 C 
BRANCH  13  14
ATOM     14  C   UNL     1     164.734 152.874 164.285  1.00  0.00     0.000 C 
BRANCH  14  15
ATOM     15  C   UNL     1     164.409 151.726 163.318  1.00  0.00     0.000 C 
BRANCH  15  16
ATOM     16  C   UNL     1     163.150 150.947 163.727  1.00  0.00     0.000 C 
BRANCH  16  17
ATOM     17  C   UNL     1     161.934 151.876 163.824  1.00  0.00     0.000 C 
BRANCH  17  18
ATOM     18  C   UNL     1     160.985 151.665 162.635  1.00  0.00     0.000 C 
BRANCH  18  19
ATOM     19  C   UNL     1     159.721 152.543 162.710  1.00  0.00     0.000 C 
BRANCH  19  20
ATOM     20  C   UNL     1     158.612 152.008 163.634  1.00  0.00     0.006 C 
BRANCH  20  21
ATOM     21  C   UNL     1     157.740 153.120 164.229  1.00  0.00     0.053 C 
BRANCH  21  22
ATOM     22  C   UNL     1     156.359 152.616 164.502  1.00  0.00     0.041 C 
ATOM     23  O   UNL     1     155.418 152.874 163.704  1.00  0.00    -0.550 OA
ATOM     24  O   UNL     1     156.110 151.846 165.631  1.00  0.00    -0.550 OA
ENDBRANCH  21  22
ENDBRANCH  20  21
ENDBRANCH  19  20
ENDBRANCH  18  19
ENDBRANCH  17  18
ENDBRANCH  16  17
ENDBRANCH  15  16
ENDBRANCH  14  15
ENDBRANCH  13  14
ENDBRANCH   1  13
TORSDOF 20
ENDMDL
