MODEL 1
REMARK VINA RESULT:     9.118      0.000      0.000
REMARK INTER + INTRA:          16.565
REMARK INTER:                  17.113
REMARK INTRA:                  -0.548
REMARK UNBOUND:                -0.548
REMARK SMILES CCCCCCCCC=CCCCCCCCC(=O)[O-]
REMARK SMILES IDX 10 1 9 2 11 3 12 4 13 5 14 6 15 7 16 8 17 9 18 10 19 11
REMARK SMILES IDX 20 12 8 13 7 14 6 15 5 16 4 17 3 18 2 19 1 20
REMARK H PARENT
REMARK Flexibility Score: inf
ROOT
ATOM      1  C   UNL     1       3.463  -8.873   4.899  1.00  0.00    -0.031 C 
ATOM      2  C   UNL     1       4.415  -7.952   4.661  1.00  0.00    -0.031 C 
ENDROOT
BRANCH   1   3
ATOM      3  C   UNL     1       2.066  -8.849   4.321  1.00  0.00     0.027 C 
BRANCH   3   4
ATOM      4  C   UNL     1       1.122  -9.765   5.111  1.00  0.00     0.004 C 
BRANCH   4   5
ATOM      5  C   UNL     1      -0.143 -10.117   4.311  1.00  0.00     0.000 C 
BRANCH   5   6
ATOM      6  C   UNL     1      -1.436  -9.897   5.115  1.00  0.00     0.000 C 
BRANCH   6   7
ATOM      7  C   UNL     1      -2.713  -9.943   4.248  1.00  0.00     0.000 C 
BRANCH   7   8
ATOM      8  C   UNL     1      -3.943  -9.417   5.004  1.00  0.00     0.006 C 
BRANCH   8   9
ATOM      9  C   UNL     1      -5.231  -9.699   4.224  1.00  0.00     0.053 C 
BRANCH   9  10
ATOM     10  C   UNL     1      -6.307  -8.742   4.628  1.00  0.00     0.041 C 
ATOM     11  O   UNL     1      -6.634  -8.630   5.838  1.00  0.00    -0.550 OA
ATOM     12  O   UNL     1      -6.915  -7.937   3.672  1.00  0.00    -0.550 OA
ENDBRANCH   9  10
ENDBRANCH   8   9
ENDBRANCH   7   8
ENDBRANCH   6   7
ENDBRANCH   5   6
ENDBRANCH   4   5
ENDBRANCH   3   4
ENDBRANCH   1   3
BRANCH   2  13
ATOM     13  C   UNL     1       4.226  -6.712   3.826  1.00  0.00     0.027 C 
BRANCH  13  14
ATOM     14  C   UNL     1       4.061  -5.472   4.714  1.00  0.00     0.004 C 
BRANCH  14  15
ATOM     15  C   UNL     1       4.658  -4.229   4.038  1.00  0.00     0.000 C 
BRANCH  15  16
ATOM     16  C   UNL     1       5.173  -3.194   5.051  1.00  0.00     0.000 C 
BRANCH  16  17
ATOM     17  C   UNL     1       5.352  -1.799   4.432  1.00  0.00    -0.000 C 
BRANCH  17  18
ATOM     18  C   UNL     1       6.831  -1.385   4.431  1.00  0.00    -0.000 C 
BRANCH  18  19
ATOM     19  C   UNL     1       7.709  -2.328   5.268  1.00  0.00    -0.003 C 
ATOM     20  C   UNL     1       9.188  -1.947   5.235  1.00  0.00     0.004 C 
ENDBRANCH  18  19
ENDBRANCH  17  18
ENDBRANCH  16  17
ENDBRANCH  15  16
ENDBRANCH  14  15
ENDBRANCH  13  14
ENDBRANCH   2  13
TORSDOF 15
ENDMDL
MODEL 2
REMARK VINA RESULT:    11.571      1.387      2.252
REMARK INTER + INTRA:          21.170
REMARK INTER:                  21.668
REMARK INTRA:                  -0.498
REMARK UNBOUND:                -0.548
REMARK SMILES CCCCCCCCC=CCCCCCCCC(=O)[O-]
REMARK SMILES IDX 10 1 9 2 11 3 12 4 13 5 14 6 15 7 16 8 17 9 18 10 19 11
REMARK SMILES IDX 20 12 8 13 7 14 6 15 5 16 4 17 3 18 2 19 1 20
REMARK H PARENT
REMARK Flexibility Score: inf
ROOT
ATOM      1  C   UNL     1       1.328  -9.546   5.128  1.00  0.00    -0.031 C 
ATOM      2  C   UNL     1       2.649  -9.290   5.084  1.00  0.00    -0.031 C 
ENDROOT
BRANCH   1   3
ATOM      3  C   UNL     1       0.312  -9.059   4.120  1.00  0.00     0.027 C 
BRANCH   3   4
ATOM      4  C   UNL     1      -0.912  -9.981   4.075  1.00  0.00     0.004 C 
BRANCH   4   5
ATOM      5  C   UNL     1      -1.637 -10.044   5.429  1.00  0.00     0.000 C 
BRANCH   5   6
ATOM      6  C   UNL     1      -2.666  -8.915   5.608  1.00  0.00     0.000 C 
BRANCH   6   7
ATOM      7  C   UNL     1      -4.051  -9.245   5.011  1.00  0.00     0.000 C 
BRANCH   7   8
ATOM      8  C   UNL     1      -5.063  -9.660   6.090  1.00  0.00     0.006 C 
BRANCH   8   9
ATOM      9  C   UNL     1      -6.379 -10.125   5.462  1.00  0.00     0.053 C 
BRANCH   9  10
ATOM     10  C   UNL     1      -6.599  -9.448   4.146  1.00  0.00     0.041 C 
ATOM     11  O   UNL     1      -6.448 -10.086   3.072  1.00  0.00    -0.550 OA
ATOM     12  O   UNL     1      -7.021  -8.124   4.108  1.00  0.00    -0.550 OA
ENDBRANCH   9  10
ENDBRANCH   8   9
ENDBRANCH   7   8
ENDBRANCH   6   7
ENDBRANCH   5   6
ENDBRANCH   4   5
ENDBRANCH   3   4
ENDBRANCH   1   3
BRANCH   2  13
ATOM     13  C   UNL     1       3.324  -8.423   4.053  1.00  0.00     0.027 C 
BRANCH  13  14
ATOM     14  C   UNL     1       4.001  -7.214   4.711  1.00  0.00     0.004 C 
BRANCH  14  15
ATOM     15  C   UNL     1       4.854  -6.441   3.695  1.00  0.00     0.000 C 
BRANCH  15  16
ATOM     16  C   UNL     1       4.493  -4.948   3.631  1.00  0.00     0.000 C 
BRANCH  16  17
ATOM     17  C   UNL     1       4.613  -4.251   4.995  1.00  0.00    -0.000 C 
BRANCH  17  18
ATOM     18  C   UNL     1       4.398  -2.736   4.857  1.00  0.00    -0.000 C 
BRANCH  18  19
ATOM     19  C   UNL     1       5.582  -2.032   4.174  1.00  0.00    -0.003 C 
ATOM     20  C   UNL     1       5.262  -0.594   3.768  1.00  0.00     0.004 C 
ENDBRANCH  18  19
ENDBRANCH  17  18
ENDBRANCH  16  17
ENDBRANCH  15  16
ENDBRANCH  14  15
ENDBRANCH  13  14
ENDBRANCH   2  13
TORSDOF 15
ENDMDL
