MODEL 1
REMARK VINA RESULT:    -6.381      0.000      0.000
REMARK INTER + INTRA:         -12.009
REMARK INTER:                  -9.738
REMARK INTRA:                  -2.271
REMARK UNBOUND:                -2.271
REMARK SMILES CC(=O)CCC=C(C)CCC=C(C)CCC=C(C)C
REMARK SMILES IDX 10 1 11 2 12 3 13 4 14 5 15 6 16 7 18 8 17 9 19 10 9 11 7 12
REMARK SMILES IDX 6 13 8 14 5 15 4 16 2 17 3 18 1 19
REMARK H PARENT
REMARK Flexibility Score: inf
ROOT
ATOM      1  C   UNL     1      -8.253  35.408  23.330  1.00  0.00     0.032 C 
ENDROOT
BRANCH   1   2
ATOM      2  C   UNL     1      -7.522  35.173  22.030  1.00  0.00    -0.028 C 
ATOM      3  C   UNL     1      -7.880  34.234  21.125  1.00  0.00    -0.077 C 
ATOM      4  C   UNL     1      -7.042  34.079  19.882  1.00  0.00     0.039 C 
BRANCH   3   5
ATOM      5  C   UNL     1      -9.099  33.345  21.304  1.00  0.00     0.034 C 
BRANCH   5   6
ATOM      6  C   UNL     1      -8.729  31.854  21.305  1.00  0.00     0.032 C 
BRANCH   6   7
ATOM      7  C   UNL     1      -7.529  31.572  22.178  1.00  0.00    -0.028 C 
ATOM      8  C   UNL     1      -8.270  29.247  22.739  1.00  0.00     0.039 C 
ATOM      9  C   UNL     1      -7.324  30.420  22.852  1.00  0.00    -0.080 C 
ATOM     10  C   UNL     1      -6.101  30.307  23.725  1.00  0.00     0.039 C 
ENDBRANCH   6   7
ENDBRANCH   5   6
ENDBRANCH   3   5
ENDBRANCH   1   2
BRANCH   1  11
ATOM     11  C   UNL     1      -7.456  34.864  24.521  1.00  0.00     0.034 C 
BRANCH  11  12
ATOM     12  C   UNL     1      -8.349  34.061  25.442  1.00  0.00    -0.077 C 
ATOM     13  C   UNL     1      -9.189  33.145  24.907  1.00  0.00    -0.028 C 
ATOM     14  C   UNL     1      -8.293  34.317  26.930  1.00  0.00     0.039 C 
BRANCH  13  15
ATOM     15  C   UNL     1     -10.092  32.243  25.710  1.00  0.00     0.035 C 
BRANCH  15  16
ATOM     16  C   UNL     1      -9.527  30.820  25.761  1.00  0.00     0.079 C 
BRANCH  16  17
ATOM     17  C   UNL     1      -8.699  30.618  27.001  1.00  0.00     0.130 C 
ATOM     18  O   UNL     1      -7.481  30.594  26.920  1.00  0.00    -0.300 OA
ATOM     19  C   UNL     1      -9.360  30.423  28.332  1.00  0.00     0.087 C 
ENDBRANCH  16  17
ENDBRANCH  15  16
ENDBRANCH  13  15
ENDBRANCH  11  12
ENDBRANCH   1  11
TORSDOF 9
ENDMDL
MODEL 2
REMARK VINA RESULT:    -5.885      1.236      3.958
REMARK INTER + INTRA:         -11.252
REMARK INTER:                  -9.485
REMARK INTRA:                  -1.767
REMARK UNBOUND:                -2.271
REMARK SMILES CC(=O)CCC=C(C)CCC=C(C)CCC=C(C)C
REMARK SMILES IDX 10 1 11 2 12 3 13 4 14 5 15 6 16 7 18 8 17 9 19 10 9 11 7 12
REMARK SMILES IDX 6 13 8 14 5 15 4 16 2 17 3 18 1 19
REMARK H PARENT
REMARK Flexibility Score: inf
ROOT
ATOM      1  C   UNL     1      -9.348  31.430  21.173  1.00  0.00     0.032 C 
ENDROOT
BRANCH   1   2
ATOM      2  C   UNL     1      -8.370  32.375  20.517  1.00  0.00    -0.028 C 
ATOM      3  C   UNL     1      -8.051  33.591  21.015  1.00  0.00    -0.077 C 
ATOM      4  C   UNL     1      -7.084  34.452  20.242  1.00  0.00     0.039 C 
BRANCH   3   5
ATOM      5  C   UNL     1      -8.611  34.113  22.327  1.00  0.00     0.034 C 
BRANCH   5   6
ATOM      6  C   UNL     1      -7.606  35.012  23.064  1.00  0.00     0.032 C 
BRANCH   6   7
ATOM      7  C   UNL     1      -7.623  34.771  24.556  1.00  0.00    -0.028 C 
ATOM      8  C   UNL     1      -9.232  36.635  25.011  1.00  0.00     0.039 C 
ATOM      9  C   UNL     1      -8.322  35.509  25.444  1.00  0.00    -0.080 C 
ATOM     10  C   UNL     1      -8.196  35.177  26.909  1.00  0.00     0.039 C 
ENDBRANCH   6   7
ENDBRANCH   5   6
ENDBRANCH   3   5
ENDBRANCH   1   2
BRANCH   1  11
ATOM     11  C   UNL     1      -8.633  30.203  21.749  1.00  0.00     0.034 C 
BRANCH  11  12
ATOM     12  C   UNL     1      -7.963  30.541  23.064  1.00  0.00    -0.077 C 
ATOM     13  C   UNL     1      -8.729  30.713  24.166  1.00  0.00    -0.028 C 
ATOM     14  C   UNL     1      -6.460  30.697  23.106  1.00  0.00     0.039 C 
BRANCH  13  15
ATOM     15  C   UNL     1      -8.189  31.000  25.544  1.00  0.00     0.035 C 
BRANCH  15  16
ATOM     16  C   UNL     1      -9.334  31.173  26.547  1.00  0.00     0.079 C 
BRANCH  16  17
ATOM     17  C   UNL     1      -8.812  31.633  27.880  1.00  0.00     0.130 C 
ATOM     18  O   UNL     1      -7.711  32.158  27.952  1.00  0.00    -0.300 OA
ATOM     19  C   UNL     1      -9.622  31.431  29.125  1.00  0.00     0.087 C 
ENDBRANCH  16  17
ENDBRANCH  15  16
ENDBRANCH  13  15
ENDBRANCH  11  12
ENDBRANCH   1  11
TORSDOF 9
ENDMDL
MODEL 3
REMARK VINA RESULT:    -5.825      1.967      5.097
REMARK INTER + INTRA:         -11.160
REMARK INTER:                  -9.073
REMARK INTRA:                  -2.087
REMARK UNBOUND:                -2.271
REMARK SMILES CC(=O)CCC=C(C)CCC=C(C)CCC=C(C)C
REMARK SMILES IDX 10 1 11 2 12 3 13 4 14 5 15 6 16 7 18 8 17 9 19 10 9 11 7 12
REMARK SMILES IDX 6 13 8 14 5 15 4 16 2 17 3 18 1 19
REMARK H PARENT
REMARK Flexibility Score: inf
ROOT
ATOM      1  C   UNL     1      -7.616  33.972  27.230  1.00  0.00     0.032 C 
ENDROOT
BRANCH   1   2
ATOM      2  C   UNL     1      -8.419  33.087  28.153  1.00  0.00    -0.028 C 
ATOM      3  C   UNL     1      -9.204  32.072  27.727  1.00  0.00    -0.077 C 
ATOM      4  C   UNL     1      -9.982  31.287  28.752  1.00  0.00     0.039 C 
BRANCH   3   5
ATOM      5  C   UNL     1      -9.318  31.682  26.263  1.00  0.00     0.034 C 
BRANCH   5   6
ATOM      6  C   UNL     1      -8.265  30.638  25.862  1.00  0.00     0.032 C 
BRANCH   6   7
ATOM      7  C   UNL     1      -8.647  29.910  24.595  1.00  0.00    -0.028 C 
ATOM      8  C   UNL     1      -6.568  30.588  23.376  1.00  0.00     0.039 C 
ATOM      9  C   UNL     1      -7.912  29.904  23.462  1.00  0.00    -0.080 C 
ATOM     10  C   UNL     1      -8.452  29.172  22.260  1.00  0.00     0.039 C 
ENDBRANCH   6   7
ENDBRANCH   5   6
ENDBRANCH   3   5
ENDBRANCH   1   2
BRANCH   1  11
ATOM     11  C   UNL     1      -8.367  35.270  26.913  1.00  0.00     0.034 C 
BRANCH  11  12
ATOM     12  C   UNL     1      -8.530  35.444  25.418  1.00  0.00    -0.077 C 
ATOM     13  C   UNL     1      -7.999  34.517  24.588  1.00  0.00    -0.028 C 
ATOM     14  C   UNL     1      -9.262  36.658  24.893  1.00  0.00     0.039 C 
BRANCH  13  15
ATOM     15  C   UNL     1      -8.131  34.541  23.086  1.00  0.00     0.035 C 
BRANCH  15  16
ATOM     16  C   UNL     1      -9.016  33.387  22.604  1.00  0.00     0.079 C 
BRANCH  16  17
ATOM     17  C   UNL     1      -8.624  32.958  21.216  1.00  0.00     0.130 C 
ATOM     18  O   UNL     1      -9.350  32.202  20.588  1.00  0.00    -0.300 OA
ATOM     19  C   UNL     1      -7.339  33.432  20.609  1.00  0.00     0.087 C 
ENDBRANCH  16  17
ENDBRANCH  15  16
ENDBRANCH  13  15
ENDBRANCH  11  12
ENDBRANCH   1  11
TORSDOF 9
ENDMDL
MODEL 4
REMARK VINA RESULT:    -5.634      1.590      4.177
REMARK INTER + INTRA:         -10.869
REMARK INTER:                  -9.002
REMARK INTRA:                  -1.867
REMARK UNBOUND:                -2.271
REMARK SMILES CC(=O)CCC=C(C)CCC=C(C)CCC=C(C)C
REMARK SMILES IDX 10 1 11 2 12 3 13 4 14 5 15 6 16 7 18 8 17 9 19 10 9 11 7 12
REMARK SMILES IDX 6 13 8 14 5 15 4 16 2 17 3 18 1 19
REMARK H PARENT
REMARK Flexibility Score: inf
ROOT
ATOM      1  C   UNL     1      -7.610  33.814  27.622  1.00  0.00     0.032 C 
ENDROOT
BRANCH   1   2
ATOM      2  C   UNL     1      -8.300  34.996  26.985  1.00  0.00    -0.028 C 
ATOM      3  C   UNL     1      -8.419  35.166  25.649  1.00  0.00    -0.077 C 
ATOM      4  C   UNL     1      -9.102  36.411  25.142  1.00  0.00     0.039 C 
BRANCH   3   5
ATOM      5  C   UNL     1      -7.911  34.147  24.643  1.00  0.00     0.034 C 
BRANCH   5   6
ATOM      6  C   UNL     1      -8.250  34.545  23.199  1.00  0.00     0.032 C 
BRANCH   6   7
ATOM      7  C   UNL     1      -8.931  33.424  22.450  1.00  0.00    -0.028 C 
ATOM      8  C   UNL     1      -7.348  33.527  20.513  1.00  0.00     0.039 C 
ATOM      9  C   UNL     1      -8.557  32.976  21.232  1.00  0.00    -0.080 C 
ATOM     10  C   UNL     1      -9.370  31.882  20.590  1.00  0.00     0.039 C 
ENDBRANCH   6   7
ENDBRANCH   5   6
ENDBRANCH   3   5
ENDBRANCH   1   2
BRANCH   1  11
ATOM     11  C   UNL     1      -8.606  32.940  28.394  1.00  0.00     0.034 C 
BRANCH  11  12
ATOM     12  C   UNL     1      -8.700  31.561  27.776  1.00  0.00    -0.077 C 
ATOM     13  C   UNL     1      -8.172  31.356  26.547  1.00  0.00    -0.028 C 
ATOM     14  C   UNL     1      -9.399  30.459  28.538  1.00  0.00     0.039 C 
BRANCH  13  15
ATOM     15  C   UNL     1      -8.151  30.024  25.840  1.00  0.00     0.035 C 
BRANCH  15  16
ATOM     16  C   UNL     1      -8.837  30.127  24.474  1.00  0.00     0.079 C 
BRANCH  16  17
ATOM     17  C   UNL     1      -7.849  29.908  23.361  1.00  0.00     0.130 C 
ATOM     18  O   UNL     1      -8.126  29.151  22.444  1.00  0.00    -0.300 OA
ATOM     19  C   UNL     1      -6.517  30.596  23.382  1.00  0.00     0.087 C 
ENDBRANCH  16  17
ENDBRANCH  15  16
ENDBRANCH  13  15
ENDBRANCH  11  12
ENDBRANCH   1  11
TORSDOF 9
ENDMDL
MODEL 5
REMARK VINA RESULT:    -5.531      1.306      4.702
REMARK INTER + INTRA:         -10.712
REMARK INTER:                  -9.257
REMARK INTRA:                  -1.455
REMARK UNBOUND:                -2.271
REMARK SMILES CC(=O)CCC=C(C)CCC=C(C)CCC=C(C)C
REMARK SMILES IDX 10 1 11 2 12 3 13 4 14 5 15 6 16 7 18 8 17 9 19 10 9 11 7 12
REMARK SMILES IDX 6 13 8 14 5 15 4 16 2 17 3 18 1 19
REMARK H PARENT
REMARK Flexibility Score: inf
ROOT
ATOM      1  C   UNL     1      -6.877  34.845  23.421  1.00  0.00     0.032 C 
ENDROOT
BRANCH   1   2
ATOM      2  C   UNL     1      -7.398  35.665  24.577  1.00  0.00    -0.028 C 
ATOM      3  C   UNL     1      -8.222  35.179  25.532  1.00  0.00    -0.077 C 
ATOM      4  C   UNL     1      -8.698  36.115  26.614  1.00  0.00     0.039 C 
BRANCH   3   5
ATOM      5  C   UNL     1      -8.672  33.728  25.568  1.00  0.00     0.034 C 
BRANCH   5   6
ATOM      6  C   UNL     1      -8.791  33.198  27.004  1.00  0.00     0.032 C 
BRANCH   6   7
ATOM      7  C   UNL     1      -9.634  31.947  27.075  1.00  0.00    -0.028 C 
ATOM      8  C   UNL     1      -7.669  30.406  26.882  1.00  0.00     0.039 C 
ATOM      9  C   UNL     1      -9.149  30.689  26.991  1.00  0.00    -0.080 C 
ATOM     10  C   UNL     1     -10.125  29.540  27.026  1.00  0.00     0.039 C 
ENDBRANCH   6   7
ENDBRANCH   5   6
ENDBRANCH   3   5
ENDBRANCH   1   2
BRANCH   1  11
ATOM     11  C   UNL     1      -7.534  35.266  22.101  1.00  0.00     0.034 C 
BRANCH  11  12
ATOM     12  C   UNL     1      -7.911  34.052  21.279  1.00  0.00    -0.077 C 
ATOM     13  C   UNL     1      -8.914  33.253  21.711  1.00  0.00    -0.028 C 
ATOM     14  C   UNL     1      -7.146  33.756  20.010  1.00  0.00     0.039 C 
BRANCH  13  15
ATOM     15  C   UNL     1      -9.424  32.046  20.965  1.00  0.00     0.035 C 
BRANCH  15  16
ATOM     16  C   UNL     1      -8.651  30.789  21.378  1.00  0.00     0.079 C 
BRANCH  16  17
ATOM     17  C   UNL     1      -8.262  30.853  22.829  1.00  0.00     0.130 C 
ATOM     18  O   UNL     1      -9.126  30.818  23.691  1.00  0.00    -0.300 OA
ATOM     19  C   UNL     1      -6.822  30.984  23.224  1.00  0.00     0.087 C 
ENDBRANCH  16  17
ENDBRANCH  15  16
ENDBRANCH  13  15
ENDBRANCH  11  12
ENDBRANCH   1  11
TORSDOF 9
ENDMDL
MODEL 6
REMARK VINA RESULT:    -5.143      1.358      3.949
REMARK INTER + INTRA:         -10.120
REMARK INTER:                  -8.882
REMARK INTRA:                  -1.238
REMARK UNBOUND:                -2.271
REMARK SMILES CC(=O)CCC=C(C)CCC=C(C)CCC=C(C)C
REMARK SMILES IDX 10 1 11 2 12 3 13 4 14 5 15 6 16 7 18 8 17 9 19 10 9 11 7 12
REMARK SMILES IDX 6 13 8 14 5 15 4 16 2 17 3 18 1 19
REMARK H PARENT
REMARK Flexibility Score: inf
ROOT
ATOM      1  C   UNL     1      -6.793  31.440  22.030  1.00  0.00     0.032 C 
ENDROOT
BRANCH   1   2
ATOM      2  C   UNL     1      -8.240  31.847  21.893  1.00  0.00    -0.028 C 
ATOM      3  C   UNL     1      -8.645  33.113  21.646  1.00  0.00    -0.077 C 
ATOM      4  C   UNL     1     -10.125  33.391  21.568  1.00  0.00     0.039 C 
BRANCH   3   5
ATOM      5  C   UNL     1      -7.671  34.258  21.427  1.00  0.00     0.034 C 
BRANCH   5   6
ATOM      6  C   UNL     1      -7.565  35.168  22.660  1.00  0.00     0.032 C 
BRANCH   6   7
ATOM      7  C   UNL     1      -7.761  34.399  23.946  1.00  0.00    -0.028 C 
ATOM      8  C   UNL     1      -8.675  36.373  25.186  1.00  0.00     0.039 C 
ATOM      9  C   UNL     1      -8.228  34.932  25.095  1.00  0.00    -0.080 C 
ATOM     10  C   UNL     1      -8.319  34.047  26.312  1.00  0.00     0.039 C 
ENDBRANCH   6   7
ENDBRANCH   5   6
ENDBRANCH   3   5
ENDBRANCH   1   2
BRANCH   1  11
ATOM     11  C   UNL     1      -6.534  30.753  23.377  1.00  0.00     0.034 C 
BRANCH  11  12
ATOM     12  C   UNL     1      -7.801  30.117  23.906  1.00  0.00    -0.077 C 
ATOM     13  C   UNL     1      -8.385  30.638  25.010  1.00  0.00    -0.028 C 
ATOM     14  C   UNL     1      -8.367  28.906  23.202  1.00  0.00     0.039 C 
BRANCH  13  15
ATOM     15  C   UNL     1      -9.673  30.136  25.612  1.00  0.00     0.035 C 
BRANCH  15  16
ATOM     16  C   UNL     1      -9.390  29.182  26.777  1.00  0.00     0.079 C 
BRANCH  16  17
ATOM     17  C   UNL     1      -9.758  29.818  28.089  1.00  0.00     0.130 C 
ATOM     18  O   UNL     1     -10.125  29.118  29.020  1.00  0.00    -0.300 OA
ATOM     19  C   UNL     1      -9.699  31.306  28.255  1.00  0.00     0.087 C 
ENDBRANCH  16  17
ENDBRANCH  15  16
ENDBRANCH  13  15
ENDBRANCH  11  12
ENDBRANCH   1  11
TORSDOF 9
ENDMDL
MODEL 7
REMARK VINA RESULT:    -4.923      1.426      2.139
REMARK INTER + INTRA:          -9.784
REMARK INTER:                  -8.353
REMARK INTRA:                  -1.431
REMARK UNBOUND:                -2.271
REMARK SMILES CC(=O)CCC=C(C)CCC=C(C)CCC=C(C)C
REMARK SMILES IDX 10 1 11 2 12 3 13 4 14 5 15 6 16 7 18 8 17 9 19 10 9 11 7 12
REMARK SMILES IDX 6 13 8 14 5 15 4 16 2 17 3 18 1 19
REMARK H PARENT
REMARK Flexibility Score: inf
ROOT
ATOM      1  C   UNL     1      -7.189  34.333  22.726  1.00  0.00     0.032 C 
ENDROOT
BRANCH   1   2
ATOM      2  C   UNL     1      -7.789  33.568  21.572  1.00  0.00    -0.028 C 
ATOM      3  C   UNL     1      -8.954  32.886  21.647  1.00  0.00    -0.077 C 
ATOM      4  C   UNL     1      -9.426  32.133  20.429  1.00  0.00     0.039 C 
BRANCH   3   5
ATOM      5  C   UNL     1      -9.813  32.864  22.900  1.00  0.00     0.034 C 
BRANCH   5   6
ATOM      6  C   UNL     1      -9.484  31.664  23.802  1.00  0.00     0.032 C 
BRANCH   6   7
ATOM      7  C   UNL     1      -8.002  31.373  23.834  1.00  0.00    -0.028 C 
ATOM      8  C   UNL     1      -8.231  29.195  22.620  1.00  0.00     0.039 C 
ATOM      9  C   UNL     1      -7.429  30.257  23.336  1.00  0.00    -0.080 C 
ATOM     10  C   UNL     1      -5.939  30.085  23.490  1.00  0.00     0.039 C 
ENDBRANCH   6   7
ENDBRANCH   5   6
ENDBRANCH   3   5
ENDBRANCH   1   2
BRANCH   1  11
ATOM     11  C   UNL     1      -8.021  35.578  23.059  1.00  0.00     0.034 C 
BRANCH  11  12
ATOM     12  C   UNL     1      -8.407  35.589  24.523  1.00  0.00    -0.077 C 
ATOM     13  C   UNL     1      -7.988  34.579  25.320  1.00  0.00    -0.028 C 
ATOM     14  C   UNL     1      -9.267  36.714  25.049  1.00  0.00     0.039 C 
BRANCH  13  15
ATOM     15  C   UNL     1      -8.256  34.493  26.801  1.00  0.00     0.035 C 
BRANCH  15  16
ATOM     16  C   UNL     1      -9.236  33.356  27.108  1.00  0.00     0.079 C 
BRANCH  16  17
ATOM     17  C   UNL     1      -8.565  32.272  27.905  1.00  0.00     0.130 C 
ATOM     18  O   UNL     1      -8.617  32.295  29.125  1.00  0.00    -0.300 OA
ATOM     19  C   UNL     1      -7.812  31.176  27.213  1.00  0.00     0.087 C 
ENDBRANCH  16  17
ENDBRANCH  15  16
ENDBRANCH  13  15
ENDBRANCH  11  12
ENDBRANCH   1  11
TORSDOF 9
ENDMDL
MODEL 8
REMARK VINA RESULT:    -4.765      1.383      2.867
REMARK INTER + INTRA:          -9.543
REMARK INTER:                  -8.078
REMARK INTRA:                  -1.465
REMARK UNBOUND:                -2.271
REMARK SMILES CC(=O)CCC=C(C)CCC=C(C)CCC=C(C)C
REMARK SMILES IDX 10 1 11 2 12 3 13 4 14 5 15 6 16 7 18 8 17 9 19 10 9 11 7 12
REMARK SMILES IDX 6 13 8 14 5 15 4 16 2 17 3 18 1 19
REMARK H PARENT
REMARK Flexibility Score: inf
ROOT
ATOM      1  C   UNL     1      -7.215  34.489  21.026  1.00  0.00     0.032 C 
ENDROOT
BRANCH   1   2
ATOM      2  C   UNL     1      -8.176  33.398  20.618  1.00  0.00    -0.028 C 
ATOM      3  C   UNL     1      -8.341  32.246  21.306  1.00  0.00    -0.077 C 
ATOM      4  C   UNL     1      -9.309  31.222  20.770  1.00  0.00     0.039 C 
BRANCH   3   5
ATOM      5  C   UNL     1      -7.606  31.952  22.603  1.00  0.00     0.034 C 
BRANCH   5   6
ATOM      6  C   UNL     1      -7.456  30.443  22.850  1.00  0.00     0.032 C 
BRANCH   6   7
ATOM      7  C   UNL     1      -8.578  29.897  23.701  1.00  0.00    -0.028 C 
ATOM      8  C   UNL     1      -7.393  30.356  25.859  1.00  0.00     0.039 C 
ATOM      9  C   UNL     1      -8.552  29.823  25.049  1.00  0.00    -0.080 C 
ATOM     10  C   UNL     1      -9.731  29.204  25.756  1.00  0.00     0.039 C 
ENDBRANCH   6   7
ENDBRANCH   5   6
ENDBRANCH   3   5
ENDBRANCH   1   2
BRANCH   1  11
ATOM     11  C   UNL     1      -7.918  35.561  21.868  1.00  0.00     0.034 C 
BRANCH  11  12
ATOM     12  C   UNL     1      -7.650  35.346  23.342  1.00  0.00    -0.077 C 
ATOM     13  C   UNL     1      -8.692  35.105  24.170  1.00  0.00    -0.028 C 
ATOM     14  C   UNL     1      -6.229  35.427  23.852  1.00  0.00     0.039 C 
BRANCH  13  15
ATOM     15  C   UNL     1      -8.563  34.822  25.646  1.00  0.00     0.035 C 
BRANCH  15  16
ATOM     16  C   UNL     1      -8.983  33.383  25.959  1.00  0.00     0.079 C 
BRANCH  16  17
ATOM     17  C   UNL     1      -8.834  33.090  27.427  1.00  0.00     0.130 C 
ATOM     18  O   UNL     1      -7.982  33.675  28.078  1.00  0.00    -0.300 OA
ATOM     19  C   UNL     1      -9.708  32.069  28.091  1.00  0.00     0.087 C 
ENDBRANCH  16  17
ENDBRANCH  15  16
ENDBRANCH  13  15
ENDBRANCH  11  12
ENDBRANCH   1  11
TORSDOF 9
ENDMDL
MODEL 9
REMARK VINA RESULT:    -4.614      1.273      3.793
REMARK INTER + INTRA:          -9.312
REMARK INTER:                  -8.774
REMARK INTRA:                  -0.538
REMARK UNBOUND:                -2.271
REMARK SMILES CC(=O)CCC=C(C)CCC=C(C)CCC=C(C)C
REMARK SMILES IDX 10 1 11 2 12 3 13 4 14 5 15 6 16 7 18 8 17 9 19 10 9 11 7 12
REMARK SMILES IDX 6 13 8 14 5 15 4 16 2 17 3 18 1 19
REMARK H PARENT
REMARK Flexibility Score: inf
ROOT
ATOM      1  C   UNL     1      -7.436  32.320  24.449  1.00  0.00     0.032 C 
ENDROOT
BRANCH   1   2
ATOM      2  C   UNL     1      -8.263  33.471  24.967  1.00  0.00    -0.028 C 
ATOM      3  C   UNL     1      -8.120  34.749  24.547  1.00  0.00    -0.077 C 
ATOM      4  C   UNL     1      -8.988  35.811  25.172  1.00  0.00     0.039 C 
BRANCH   3   5
ATOM      5  C   UNL     1      -7.136  35.150  23.461  1.00  0.00     0.034 C 
BRANCH   5   6
ATOM      6  C   UNL     1      -7.839  35.442  22.127  1.00  0.00     0.032 C 
BRANCH   6   7
ATOM      7  C   UNL     1      -8.651  34.261  21.648  1.00  0.00    -0.028 C 
ATOM      8  C   UNL     1      -6.864  33.446  20.094  1.00  0.00     0.039 C 
ATOM      9  C   UNL     1      -8.240  33.375  20.715  1.00  0.00    -0.080 C 
ATOM     10  C   UNL     1      -9.186  32.277  20.303  1.00  0.00     0.039 C 
ENDBRANCH   6   7
ENDBRANCH   5   6
ENDBRANCH   3   5
ENDBRANCH   1   2
BRANCH   1  11
ATOM     11  C   UNL     1      -8.198  31.524  23.383  1.00  0.00     0.034 C 
BRANCH  11  12
ATOM     12  C   UNL     1      -8.640  30.183  23.929  1.00  0.00    -0.077 C 
ATOM     13  C   UNL     1      -9.293  30.139  25.113  1.00  0.00    -0.028 C 
ATOM     14  C   UNL     1      -8.322  28.929  23.147  1.00  0.00     0.039 C 
BRANCH  13  15
ATOM     15  C   UNL     1      -9.832  28.881  25.744  1.00  0.00     0.035 C 
BRANCH  15  16
ATOM     16  C   UNL     1      -9.913  29.031  27.267  1.00  0.00     0.079 C 
BRANCH  16  17
ATOM     17  C   UNL     1      -9.033  30.155  27.740  1.00  0.00     0.130 C 
ATOM     18  O   UNL     1      -7.830  30.112  27.532  1.00  0.00    -0.300 OA
ATOM     19  C   UNL     1      -9.618  31.316  28.486  1.00  0.00     0.087 C 
ENDBRANCH  16  17
ENDBRANCH  15  16
ENDBRANCH  13  15
ENDBRANCH  11  12
ENDBRANCH   1  11
TORSDOF 9
ENDMDL
