MODEL 1
REMARK VINA RESULT:    -3.633      0.000      0.000
REMARK INTER + INTRA:          -4.723
REMARK INTER:                  -4.482
REMARK INTRA:                  -0.241
REMARK UNBOUND:                -0.241
REMARK SMILES C=CC[C@@H](C)C(=O)CC
REMARK SMILES IDX 4 1 5 2 6 3 7 4 8 5 9 6 3 7 2 8 1 9
REMARK H PARENT
REMARK Flexibility Score: inf
ROOT
ATOM      1  C   UNL     1      -4.312   5.264   8.305  1.00  0.00     0.057 C 
ATOM      2  C   UNL     1      -3.413   5.420   7.074  1.00  0.00     0.016 C 
ENDROOT
BRANCH   1   3
ATOM      3  C   UNL     1      -4.608   3.797   8.544  1.00  0.00     0.135 C 
ATOM      4  O   UNL     1      -4.222   2.962   7.740  1.00  0.00    -0.299 OA
BRANCH   3   5
ATOM      5  C   UNL     1      -5.395   3.348   9.748  1.00  0.00     0.072 C 
ATOM      6  C   UNL     1      -6.809   3.913   9.720  1.00  0.00     0.012 C 
ENDBRANCH   3   5
ENDBRANCH   1   3
BRANCH   1   7
ATOM      7  C   UNL     1      -3.655   5.913   9.539  1.00  0.00     0.038 C 
BRANCH   7   8
ATOM      8  C   UNL     1      -2.243   6.348   9.245  1.00  0.00    -0.034 C 
ATOM      9  C   UNL     1      -1.580   7.184  10.048  1.00  0.00     0.004 C 
ENDBRANCH   7   8
ENDBRANCH   1   7
TORSDOF 4
ENDMDL
MODEL 2
REMARK VINA RESULT:    -3.490      1.240      2.039
REMARK INTER + INTRA:          -4.548
REMARK INTER:                  -4.401
REMARK INTRA:                  -0.147
REMARK UNBOUND:                -0.241
REMARK SMILES C=CC[C@@H](C)C(=O)CC
REMARK SMILES IDX 4 1 5 2 6 3 7 4 8 5 9 6 3 7 2 8 1 9
REMARK H PARENT
REMARK Flexibility Score: inf
ROOT
ATOM      1  C   UNL     1      -3.259   5.601   9.348  1.00  0.00     0.057 C 
ATOM      2  C   UNL     1      -4.301   6.440  10.095  1.00  0.00     0.016 C 
ENDROOT
BRANCH   1   3
ATOM      3  C   UNL     1      -3.887   4.972   8.121  1.00  0.00     0.135 C 
ATOM      4  O   UNL     1      -4.130   5.664   7.142  1.00  0.00    -0.299 OA
BRANCH   3   5
ATOM      5  C   UNL     1      -4.244   3.509   8.091  1.00  0.00     0.072 C 
ATOM      6  C   UNL     1      -5.423   3.215   9.012  1.00  0.00     0.012 C 
ENDBRANCH   3   5
ENDBRANCH   1   3
BRANCH   1   7
ATOM      7  C   UNL     1      -2.038   6.465   8.973  1.00  0.00     0.038 C 
BRANCH   7   8
ATOM      8  C   UNL     1      -1.607   7.335  10.125  1.00  0.00    -0.034 C 
ATOM      9  C   UNL     1      -0.556   8.155  10.035  1.00  0.00     0.004 C 
ENDBRANCH   7   8
ENDBRANCH   1   7
TORSDOF 4
ENDMDL
MODEL 3
REMARK VINA RESULT:    -3.099      1.649      4.193
REMARK INTER + INTRA:          -4.065
REMARK INTER:                  -3.907
REMARK INTRA:                  -0.158
REMARK UNBOUND:                -0.241
REMARK SMILES C=CC[C@@H](C)C(=O)CC
REMARK SMILES IDX 4 1 5 2 6 3 7 4 8 5 9 6 3 7 2 8 1 9
REMARK H PARENT
REMARK Flexibility Score: inf
ROOT
ATOM      1  C   UNL     1      -3.505   4.894   8.789  1.00  0.00     0.057 C 
ATOM      2  C   UNL     1      -3.767   4.480   7.337  1.00  0.00     0.016 C 
ENDROOT
BRANCH   1   3
ATOM      3  C   UNL     1      -2.646   6.142   8.822  1.00  0.00     0.135 C 
ATOM      4  O   UNL     1      -2.213   6.607   7.778  1.00  0.00    -0.299 OA
BRANCH   3   5
ATOM      5  C   UNL     1      -2.293   6.811  10.125  1.00  0.00     0.072 C 
ATOM      6  C   UNL     1      -1.048   7.678   9.975  1.00  0.00     0.012 C 
ENDBRANCH   3   5
ENDBRANCH   1   3
BRANCH   1   7
ATOM      7  C   UNL     1      -4.836   5.109   9.537  1.00  0.00     0.038 C 
BRANCH   7   8
ATOM      8  C   UNL     1      -5.676   3.858   9.533  1.00  0.00    -0.034 C 
ATOM      9  C   UNL     1      -6.978   3.881   9.834  1.00  0.00     0.004 C 
ENDBRANCH   7   8
ENDBRANCH   1   7
TORSDOF 4
ENDMDL
MODEL 4
REMARK VINA RESULT:    -2.932     20.050     21.704
REMARK INTER + INTRA:          -3.859
REMARK INTER:                  -3.643
REMARK INTRA:                  -0.216
REMARK UNBOUND:                -0.241
REMARK SMILES C=CC[C@@H](C)C(=O)CC
REMARK SMILES IDX 4 1 5 2 6 3 7 4 8 5 9 6 3 7 2 8 1 9
REMARK H PARENT
REMARK Flexibility Score: inf
ROOT
ATOM      1  C   UNL     1       9.087   8.652  -7.860  1.00  0.00     0.057 C 
ATOM      2  C   UNL     1      10.125   9.778  -7.926  1.00  0.00     0.016 C 
ENDROOT
BRANCH   1   3
ATOM      3  C   UNL     1       8.609   8.310  -9.257  1.00  0.00     0.135 C 
ATOM      4  O   UNL     1       9.387   7.813 -10.059  1.00  0.00    -0.299 OA
BRANCH   3   5
ATOM      5  C   UNL     1       7.193   8.593  -9.687  1.00  0.00     0.072 C 
ATOM      6  C   UNL     1       6.760   9.990  -9.257  1.00  0.00     0.012 C 
ENDBRANCH   3   5
ENDBRANCH   1   3
BRANCH   1   7
ATOM      7  C   UNL     1       9.674   7.417  -7.149  1.00  0.00     0.038 C 
BRANCH   7   8
ATOM      8  C   UNL     1       8.625   6.698  -6.342  1.00  0.00    -0.034 C 
ATOM      9  C   UNL     1       8.911   5.608  -5.624  1.00  0.00     0.004 C 
ENDBRANCH   7   8
ENDBRANCH   1   7
TORSDOF 4
ENDMDL
MODEL 5
REMARK VINA RESULT:    -2.806     20.125     21.855
REMARK INTER + INTRA:          -3.704
REMARK INTER:                  -3.597
REMARK INTRA:                  -0.107
REMARK UNBOUND:                -0.241
REMARK SMILES C=CC[C@@H](C)C(=O)CC
REMARK SMILES IDX 4 1 5 2 6 3 7 4 8 5 9 6 3 7 2 8 1 9
REMARK H PARENT
REMARK Flexibility Score: inf
ROOT
ATOM      1  C   UNL     1       8.668   8.260  -8.736  1.00  0.00     0.057 C 
ATOM      2  C   UNL     1       9.482   8.241 -10.035  1.00  0.00     0.016 C 
ENDROOT
BRANCH   1   3
ATOM      3  C   UNL     1       9.602   8.229  -7.543  1.00  0.00     0.135 C 
ATOM      4  O   UNL     1      10.125   9.264  -7.156  1.00  0.00    -0.299 OA
BRANCH   3   5
ATOM      5  C   UNL     1       9.919   6.937  -6.836  1.00  0.00     0.072 C 
ATOM      6  C   UNL     1       8.687   6.383  -6.131  1.00  0.00     0.012 C 
ENDBRANCH   3   5
ENDBRANCH   1   3
BRANCH   1   7
ATOM      7  C   UNL     1       7.746   9.495  -8.695  1.00  0.00     0.038 C 
BRANCH   7   8
ATOM      8  C   UNL     1       6.761   9.482  -9.835  1.00  0.00    -0.034 C 
ATOM      9  C   UNL     1       6.024   8.405 -10.119  1.00  0.00     0.004 C 
ENDBRANCH   7   8
ENDBRANCH   1   7
TORSDOF 4
ENDMDL
MODEL 6
REMARK VINA RESULT:    -2.557      1.470      2.371
REMARK INTER + INTRA:          -3.396
REMARK INTER:                  -3.227
REMARK INTRA:                  -0.169
REMARK UNBOUND:                -0.241
REMARK SMILES C=CC[C@@H](C)C(=O)CC
REMARK SMILES IDX 4 1 5 2 6 3 7 4 8 5 9 6 3 7 2 8 1 9
REMARK H PARENT
REMARK Flexibility Score: inf
ROOT
ATOM      1  C   UNL     1      -3.957   5.305   9.857  1.00  0.00     0.057 C 
ATOM      2  C   UNL     1      -4.491   6.727  10.055  1.00  0.00     0.016 C 
ENDROOT
BRANCH   1   3
ATOM      3  C   UNL     1      -5.113   4.330   9.754  1.00  0.00     0.135 C 
ATOM      4  O   UNL     1      -4.901   3.169   9.436  1.00  0.00    -0.299 OA
BRANCH   3   5
ATOM      5  C   UNL     1      -6.529   4.772  10.014  1.00  0.00     0.072 C 
ATOM      6  C   UNL     1      -7.465   3.574  10.122  1.00  0.00     0.012 C 
ENDBRANCH   3   5
ENDBRANCH   1   3
BRANCH   1   7
ATOM      7  C   UNL     1      -3.053   5.237   8.610  1.00  0.00     0.038 C 
BRANCH   7   8
ATOM      8  C   UNL     1      -3.851   5.403   7.343  1.00  0.00    -0.034 C 
ATOM      9  C   UNL     1      -3.457   6.220   6.362  1.00  0.00     0.004 C 
ENDBRANCH   7   8
ENDBRANCH   1   7
TORSDOF 4
ENDMDL
MODEL 7
REMARK VINA RESULT:    -2.044     22.184     22.830
REMARK INTER + INTRA:          -2.763
REMARK INTER:                  -2.594
REMARK INTRA:                  -0.169
REMARK UNBOUND:                -0.241
REMARK SMILES C=CC[C@@H](C)C(=O)CC
REMARK SMILES IDX 4 1 5 2 6 3 7 4 8 5 9 6 3 7 2 8 1 9
REMARK H PARENT
REMARK Flexibility Score: inf
ROOT
ATOM      1  C   UNL     1      -4.113  -9.124  -9.867  1.00  0.00     0.057 C 
ATOM      2  C   UNL     1      -3.576 -10.119  -8.832  1.00  0.00     0.016 C 
ENDROOT
BRANCH   1   3
ATOM      3  C   UNL     1      -5.586  -8.869  -9.620  1.00  0.00     0.135 C 
ATOM      4  O   UNL     1      -6.101  -7.841 -10.034  1.00  0.00    -0.299 OA
BRANCH   3   5
ATOM      5  C   UNL     1      -6.428  -9.851  -8.848  1.00  0.00     0.072 C 
ATOM      6  C   UNL     1      -7.879  -9.388  -8.774  1.00  0.00     0.012 C 
ENDBRANCH   3   5
ENDBRANCH   1   3
BRANCH   1   7
ATOM      7  C   UNL     1      -3.302  -7.814  -9.827  1.00  0.00     0.038 C 
BRANCH   7   8
ATOM      8  C   UNL     1      -1.929  -8.035  -9.248  1.00  0.00    -0.034 C 
ATOM      9  C   UNL     1      -0.986  -7.089  -9.284  1.00  0.00     0.004 C 
ENDBRANCH   7   8
ENDBRANCH   1   7
TORSDOF 4
ENDMDL
