MODEL 1
REMARK VINA RESULT:    -3.622      0.000      0.000
REMARK INTER + INTRA:          -4.582
REMARK INTER:                  -4.468
REMARK INTRA:                  -0.113
REMARK UNBOUND:                -0.113
REMARK SMILES CCCCCC(=O)[O-]
REMARK SMILES IDX 4 1 5 2 6 3 7 4 8 5 3 6 2 7 1 8
REMARK H PARENT
REMARK Flexibility Score: inf
ROOT
ATOM      1  C   UNL     1      13.400  20.331  -0.549  1.00  0.00     0.006 C 
ENDROOT
BRANCH   1   2
ATOM      2  C   UNL     1      13.844  19.113   0.267  1.00  0.00     0.053 C 
BRANCH   2   3
ATOM      3  C   UNL     1      12.781  18.060   0.257  1.00  0.00     0.041 C 
ATOM      4  O   UNL     1      11.846  18.111  -0.586  1.00  0.00    -0.550 OA
ATOM      5  O   UNL     1      12.847  16.997   1.148  1.00  0.00    -0.550 OA
ENDBRANCH   2   3
ENDBRANCH   1   2
BRANCH   1   6
ATOM      6  C   UNL     1      14.613  21.080  -1.121  1.00  0.00     0.000 C 
BRANCH   6   7
ATOM      7  C   UNL     1      15.898  20.822  -0.320  1.00  0.00    -0.003 C 
ATOM      8  C   UNL     1      16.725  22.089  -0.103  1.00  0.00     0.004 C 
ENDBRANCH   6   7
ENDBRANCH   1   6
TORSDOF 4
ENDMDL
MODEL 2
REMARK VINA RESULT:    -3.437      2.928      4.627
REMARK INTER + INTRA:          -4.354
REMARK INTER:                  -4.268
REMARK INTRA:                  -0.086
REMARK UNBOUND:                -0.113
REMARK SMILES CCCCCC(=O)[O-]
REMARK SMILES IDX 4 1 5 2 6 3 7 4 8 5 3 6 2 7 1 8
REMARK H PARENT
REMARK Flexibility Score: inf
ROOT
ATOM      1  C   UNL     1      14.098  19.838  -0.024  1.00  0.00     0.006 C 
ENDROOT
BRANCH   1   2
ATOM      2  C   UNL     1      15.546  20.336  -0.044  1.00  0.00     0.053 C 
BRANCH   2   3
ATOM      3  C   UNL     1      15.692  21.488  -0.987  1.00  0.00     0.041 C 
ATOM      4  O   UNL     1      16.777  22.124  -1.049  1.00  0.00    -0.550 OA
ATOM      5  O   UNL     1      14.644  21.832  -1.832  1.00  0.00    -0.550 OA
ENDBRANCH   2   3
ENDBRANCH   1   2
BRANCH   1   6
ATOM      6  C   UNL     1      13.995  18.479   0.684  1.00  0.00     0.000 C 
BRANCH   6   7
ATOM      7  C   UNL     1      12.694  17.735   0.344  1.00  0.00    -0.003 C 
ATOM      8  C   UNL     1      11.873  18.439  -0.736  1.00  0.00     0.004 C 
ENDBRANCH   6   7
ENDBRANCH   1   6
TORSDOF 4
ENDMDL
MODEL 3
REMARK VINA RESULT:    -3.015     10.769     11.611
REMARK INTER + INTRA:          -3.834
REMARK INTER:                  -3.727
REMARK INTRA:                  -0.107
REMARK UNBOUND:                -0.113
REMARK SMILES CCCCCC(=O)[O-]
REMARK SMILES IDX 4 1 5 2 6 3 7 4 8 5 3 6 2 7 1 8
REMARK H PARENT
REMARK Flexibility Score: inf
ROOT
ATOM      1  C   UNL     1      13.981  12.804   8.229  1.00  0.00     0.006 C 
ENDROOT
BRANCH   1   2
ATOM      2  C   UNL     1      14.645  13.237   9.540  1.00  0.00     0.053 C 
BRANCH   2   3
ATOM      3  C   UNL     1      14.255  12.318  10.654  1.00  0.00     0.041 C 
ATOM      4  O   UNL     1      14.836  11.210  10.795  1.00  0.00    -0.550 OA
ATOM      5  O   UNL     1      13.281  12.705  11.565  1.00  0.00    -0.550 OA
ENDBRANCH   2   3
ENDBRANCH   1   2
BRANCH   1   6
ATOM      6  C   UNL     1      14.771  13.320   7.017  1.00  0.00     0.000 C 
BRANCH   6   7
ATOM      7  C   UNL     1      16.289  13.312   7.255  1.00  0.00    -0.003 C 
ATOM      8  C   UNL     1      17.068  12.704   6.089  1.00  0.00     0.004 C 
ENDBRANCH   6   7
ENDBRANCH   1   6
TORSDOF 4
ENDMDL
MODEL 4
REMARK VINA RESULT:    -3.015      2.976      4.428
REMARK INTER + INTRA:          -3.833
REMARK INTER:                  -3.749
REMARK INTRA:                  -0.084
REMARK UNBOUND:                -0.113
REMARK SMILES CCCCCC(=O)[O-]
REMARK SMILES IDX 4 1 5 2 6 3 7 4 8 5 3 6 2 7 1 8
REMARK H PARENT
REMARK Flexibility Score: inf
ROOT
ATOM      1  C   UNL     1      14.125  19.917  -0.021  1.00  0.00     0.006 C 
ENDROOT
BRANCH   1   2
ATOM      2  C   UNL     1      14.913  21.012  -0.745  1.00  0.00     0.053 C 
BRANCH   2   3
ATOM      3  C   UNL     1      16.352  20.979  -0.338  1.00  0.00     0.041 C 
ATOM      4  O   UNL     1      17.121  21.927  -0.650  1.00  0.00    -0.550 OA
ATOM      5  O   UNL     1      16.835  19.925   0.426  1.00  0.00    -0.550 OA
ENDBRANCH   2   3
ENDBRANCH   1   2
BRANCH   1   6
ATOM      6  C   UNL     1      12.771  19.672  -0.703  1.00  0.00     0.000 C 
BRANCH   6   7
ATOM      7  C   UNL     1      12.219  18.265  -0.429  1.00  0.00    -0.003 C 
ATOM      8  C   UNL     1      12.949  17.553   0.709  1.00  0.00     0.004 C 
ENDBRANCH   6   7
ENDBRANCH   1   6
TORSDOF 4
ENDMDL
MODEL 5
REMARK VINA RESULT:    -2.921     10.385     12.039
REMARK INTER + INTRA:          -3.718
REMARK INTER:                  -3.664
REMARK INTRA:                  -0.054
REMARK UNBOUND:                -0.113
REMARK SMILES CCCCCC(=O)[O-]
REMARK SMILES IDX 4 1 5 2 6 3 7 4 8 5 3 6 2 7 1 8
REMARK H PARENT
REMARK Flexibility Score: inf
ROOT
ATOM      1  C   UNL     1      14.427  13.188   9.425  1.00  0.00     0.006 C 
ENDROOT
BRANCH   1   2
ATOM      2  C   UNL     1      14.205  13.009   7.920  1.00  0.00     0.053 C 
BRANCH   2   3
ATOM      3  C   UNL     1      15.350  13.585   7.149  1.00  0.00     0.041 C 
ATOM      4  O   UNL     1      16.044  12.848   6.399  1.00  0.00    -0.550 OA
ATOM      5  O   UNL     1      15.623  14.945   7.221  1.00  0.00    -0.550 OA
ENDBRANCH   2   3
ENDBRANCH   1   2
BRANCH   1   6
ATOM      6  C   UNL     1      13.943  11.954  10.202  1.00  0.00     0.000 C 
BRANCH   6   7
ATOM      7  C   UNL     1      14.407  11.960  11.666  1.00  0.00    -0.003 C 
ATOM      8  C   UNL     1      13.472  12.751  12.581  1.00  0.00     0.004 C 
ENDBRANCH   6   7
ENDBRANCH   1   6
TORSDOF 4
ENDMDL
MODEL 6
REMARK VINA RESULT:    -2.892     10.362     12.006
REMARK INTER + INTRA:          -3.681
REMARK INTER:                  -3.626
REMARK INTRA:                  -0.055
REMARK UNBOUND:                -0.113
REMARK SMILES CCCCCC(=O)[O-]
REMARK SMILES IDX 4 1 5 2 6 3 7 4 8 5 3 6 2 7 1 8
REMARK H PARENT
REMARK Flexibility Score: inf
ROOT
ATOM      1  C   UNL     1      14.447  13.176   9.395  1.00  0.00     0.006 C 
ENDROOT
BRANCH   1   2
ATOM      2  C   UNL     1      14.245  13.032   7.883  1.00  0.00     0.053 C 
BRANCH   2   3
ATOM      3  C   UNL     1      15.388  13.648   7.140  1.00  0.00     0.041 C 
ATOM      4  O   UNL     1      15.607  14.885   7.227  1.00  0.00    -0.550 OA
ATOM      5  O   UNL     1      16.240  12.849   6.389  1.00  0.00    -0.550 OA
ENDBRANCH   2   3
ENDBRANCH   1   2
BRANCH   1   6
ATOM      6  C   UNL     1      13.938  11.932  10.138  1.00  0.00     0.000 C 
BRANCH   6   7
ATOM      7  C   UNL     1      14.371  11.907  11.612  1.00  0.00    -0.003 C 
ATOM      8  C   UNL     1      13.482  12.772  12.505  1.00  0.00     0.004 C 
ENDBRANCH   6   7
ENDBRANCH   1   6
TORSDOF 4
ENDMDL
MODEL 7
REMARK VINA RESULT:    -2.868     10.228     11.502
REMARK INTER + INTRA:          -3.652
REMARK INTER:                  -3.539
REMARK INTRA:                  -0.113
REMARK UNBOUND:                -0.113
REMARK SMILES CCCCCC(=O)[O-]
REMARK SMILES IDX 4 1 5 2 6 3 7 4 8 5 3 6 2 7 1 8
REMARK H PARENT
REMARK Flexibility Score: inf
ROOT
ATOM      1  C   UNL     1      13.886  12.813   8.333  1.00  0.00     0.006 C 
ENDROOT
BRANCH   1   2
ATOM      2  C   UNL     1      14.460  13.268   9.679  1.00  0.00     0.053 C 
BRANCH   2   3
ATOM      3  C   UNL     1      14.123  12.283  10.753  1.00  0.00     0.041 C 
ATOM      4  O   UNL     1      14.669  11.148  10.767  1.00  0.00    -0.550 OA
ATOM      5  O   UNL     1      13.240  12.634  11.766  1.00  0.00    -0.550 OA
ENDBRANCH   2   3
ENDBRANCH   1   2
BRANCH   1   6
ATOM      6  C   UNL     1      14.808  13.223   7.176  1.00  0.00     0.000 C 
BRANCH   6   7
ATOM      7  C   UNL     1      16.010  14.056   7.646  1.00  0.00    -0.003 C 
ATOM      8  C   UNL     1      15.934  15.515   7.194  1.00  0.00     0.004 C 
ENDBRANCH   6   7
ENDBRANCH   1   6
TORSDOF 4
ENDMDL
MODEL 8
REMARK VINA RESULT:    -2.836     10.934     12.301
REMARK INTER + INTRA:          -3.613
REMARK INTER:                  -3.534
REMARK INTRA:                  -0.079
REMARK UNBOUND:                -0.113
REMARK SMILES CCCCCC(=O)[O-]
REMARK SMILES IDX 4 1 5 2 6 3 7 4 8 5 3 6 2 7 1 8
REMARK H PARENT
REMARK Flexibility Score: inf
ROOT
ATOM      1  C   UNL     1      14.571  13.013   9.545  1.00  0.00     0.006 C 
ENDROOT
BRANCH   1   2
ATOM      2  C   UNL     1      13.924  12.086  10.579  1.00  0.00     0.053 C 
BRANCH   2   3
ATOM      3  C   UNL     1      13.811  12.774  11.902  1.00  0.00     0.041 C 
ATOM      4  O   UNL     1      12.776  12.629  12.606  1.00  0.00    -0.550 OA
ATOM      5  O   UNL     1      14.868  13.537  12.383  1.00  0.00    -0.550 OA
ENDBRANCH   2   3
ENDBRANCH   1   2
BRANCH   1   6
ATOM      6  C   UNL     1      13.928  12.829   8.163  1.00  0.00     0.000 C 
BRANCH   6   7
ATOM      7  C   UNL     1      14.841  13.299   7.021  1.00  0.00    -0.003 C 
ATOM      8  C   UNL     1      15.939  14.252   7.493  1.00  0.00     0.004 C 
ENDBRANCH   6   7
ENDBRANCH   1   6
TORSDOF 4
ENDMDL
MODEL 9
REMARK VINA RESULT:    -2.662      9.415     11.009
REMARK INTER + INTRA:          -3.398
REMARK INTER:                  -3.232
REMARK INTRA:                  -0.166
REMARK UNBOUND:                -0.113
REMARK SMILES CCCCCC(=O)[O-]
REMARK SMILES IDX 4 1 5 2 6 3 7 4 8 5 3 6 2 7 1 8
REMARK H PARENT
REMARK Flexibility Score: inf
ROOT
ATOM      1  C   UNL     1      14.845  13.409   7.317  1.00  0.00     0.006 C 
ENDROOT
BRANCH   1   2
ATOM      2  C   UNL     1      16.149  13.994   7.869  1.00  0.00     0.053 C 
BRANCH   2   3
ATOM      3  C   UNL     1      16.179  15.478   7.682  1.00  0.00     0.041 C 
ATOM      4  O   UNL     1      16.819  15.983   6.722  1.00  0.00    -0.550 OA
ATOM      5  O   UNL     1      15.461  16.302   8.539  1.00  0.00    -0.550 OA
ENDBRANCH   2   3
ENDBRANCH   1   2
BRANCH   1   6
ATOM      6  C   UNL     1      13.966  12.862   8.451  1.00  0.00     0.000 C 
BRANCH   6   7
ATOM      7  C   UNL     1      14.715  12.775   9.789  1.00  0.00    -0.003 C 
ATOM      8  C   UNL     1      13.781  12.541  10.977  1.00  0.00     0.004 C 
ENDBRANCH   6   7
ENDBRANCH   1   6
TORSDOF 4
ENDMDL
