MODEL 1
REMARK VINA RESULT:    -4.550      0.000      0.000
REMARK INTER + INTRA:          -5.753
REMARK INTER:                  -5.480
REMARK INTRA:                  -0.273
REMARK UNBOUND:                -0.273
REMARK SMILES NC(=O)C[C@@H]([NH3+])C(=O)[O-]
REMARK SMILES IDX 4 1 5 2 6 3 7 7 8 8 9 9 2 10 3 11 1 12
REMARK H PARENT 6 4 6 5 6 6 1 13 1 14
REMARK Flexibility Score: inf
ROOT
ATOM      1  C   UNL     1      19.499  -0.821 -16.295  1.00  0.00     0.171 C 
ENDROOT
BRANCH   1   2
ATOM      2  C   UNL     1      19.152   0.554 -16.900  1.00  0.00     0.237 C 
BRANCH   2   3
ATOM      3  N   UNL     1      18.921   0.436 -18.345  1.00  0.00    -0.350 N 
ATOM      4  H   UNL     1      19.327  -0.456 -18.713  1.00  0.00     0.345 HD
ATOM      5  H   UNL     1      17.895   0.457 -18.544  1.00  0.00     0.345 HD
ATOM      6  H   UNL     1      19.366   1.243 -18.841  1.00  0.00     0.345 HD
ENDBRANCH   2   3
BRANCH   2   7
ATOM      7  C   UNL     1      17.944   1.153 -16.227  1.00  0.00     0.100 C 
ATOM      8  O   UNL     1      17.206   1.967 -16.843  1.00  0.00    -0.544 OA
ATOM      9  O   UNL     1      17.630   0.798 -14.922  1.00  0.00    -0.544 OA
ENDBRANCH   2   7
ENDBRANCH   1   2
BRANCH   1  10
ATOM     10  C   UNL     1      20.068  -1.752 -17.328  1.00  0.00     0.223 C 
ATOM     11  O   UNL     1      21.139  -1.452 -17.919  1.00  0.00    -0.275 OA
ATOM     12  N   UNL     1      19.385  -2.957 -17.667  1.00  0.00    -0.369 N 
ATOM     13  H   UNL     1      19.774  -3.597 -18.395  1.00  0.00     0.159 HD
ATOM     14  H   UNL     1      18.488  -3.211 -17.197  1.00  0.00     0.159 HD
ENDBRANCH   1  10
TORSDOF 4
ENDMDL
MODEL 2
REMARK VINA RESULT:    -4.541      8.151      9.203
REMARK INTER + INTRA:          -5.743
REMARK INTER:                  -5.482
REMARK INTRA:                  -0.262
REMARK UNBOUND:                -0.273
REMARK SMILES NC(=O)C[C@@H]([NH3+])C(=O)[O-]
REMARK SMILES IDX 4 1 5 2 6 3 7 7 8 8 9 9 2 10 3 11 1 12
REMARK H PARENT 6 4 6 5 6 6 1 13 1 14
REMARK Flexibility Score: inf
ROOT
ATOM      1  C   UNL     1      16.740   1.422 -24.372  1.00  0.00     0.171 C 
ENDROOT
BRANCH   1   2
ATOM      2  C   UNL     1      16.223  -0.030 -24.403  1.00  0.00     0.237 C 
BRANCH   2   3
ATOM      3  N   UNL     1      15.499  -0.292 -25.652  1.00  0.00    -0.350 N 
ATOM      4  H   UNL     1      16.109  -0.798 -26.335  1.00  0.00     0.345 HD
ATOM      5  H   UNL     1      14.648  -0.868 -25.456  1.00  0.00     0.345 HD
ATOM      6  H   UNL     1      15.188   0.613 -26.077  1.00  0.00     0.345 HD
ENDBRANCH   2   3
BRANCH   2   7
ATOM      7  C   UNL     1      17.357  -1.012 -24.243  1.00  0.00     0.100 C 
ATOM      8  O   UNL     1      18.544  -0.606 -24.135  1.00  0.00    -0.544 OA
ATOM      9  O   UNL     1      17.092  -2.374 -24.199  1.00  0.00    -0.544 OA
ENDBRANCH   2   7
ENDBRANCH   1   2
BRANCH   1  10
ATOM     10  C   UNL     1      16.248   2.209 -25.553  1.00  0.00     0.223 C 
ATOM     11  O   UNL     1      15.021   2.471 -25.664  1.00  0.00    -0.275 OA
ATOM     12  N   UNL     1      17.158   2.631 -26.568  1.00  0.00    -0.369 N 
ATOM     13  H   UNL     1      16.812   3.166 -27.396  1.00  0.00     0.159 HD
ATOM     14  H   UNL     1      18.175   2.407 -26.498  1.00  0.00     0.159 HD
ENDBRANCH   1  10
TORSDOF 4
ENDMDL
MODEL 3
REMARK VINA RESULT:    -4.426      1.441      1.995
REMARK INTER + INTRA:          -5.605
REMARK INTER:                  -5.173
REMARK INTRA:                  -0.432
REMARK UNBOUND:                -0.273
REMARK SMILES NC(=O)C[C@@H]([NH3+])C(=O)[O-]
REMARK SMILES IDX 4 1 5 2 6 3 7 7 8 8 9 9 2 10 3 11 1 12
REMARK H PARENT 6 4 6 5 6 6 1 13 1 14
REMARK Flexibility Score: inf
ROOT
ATOM      1  C   UNL     1      20.790  -1.281 -17.414  1.00  0.00     0.171 C 
ENDROOT
BRANCH   1   2
ATOM      2  C   UNL     1      19.964  -0.061 -16.958  1.00  0.00     0.237 C 
BRANCH   2   3
ATOM      3  N   UNL     1      18.930   0.259 -17.949  1.00  0.00    -0.350 N 
ATOM      4  H   UNL     1      18.030   0.509 -17.477  1.00  0.00     0.345 HD
ATOM      5  H   UNL     1      19.243   1.061 -18.543  1.00  0.00     0.345 HD
ATOM      6  H   UNL     1      18.771  -0.566 -18.573  1.00  0.00     0.345 HD
ENDBRANCH   2   3
BRANCH   2   7
ATOM      7  C   UNL     1      19.336  -0.307 -15.610  1.00  0.00     0.100 C 
ATOM      8  O   UNL     1      19.772  -1.218 -14.856  1.00  0.00    -0.544 OA
ATOM      9  O   UNL     1      18.276   0.484 -15.185  1.00  0.00    -0.544 OA
ENDBRANCH   2   7
ENDBRANCH   1   2
BRANCH   1  10
ATOM     10  C   UNL     1      19.938  -2.288 -18.133  1.00  0.00     0.223 C 
ATOM     11  O   UNL     1      19.739  -2.170 -19.370  1.00  0.00    -0.275 OA
ATOM     12  N   UNL     1      19.326  -3.358 -17.414  1.00  0.00    -0.369 N 
ATOM     13  H   UNL     1      18.723  -4.050 -17.913  1.00  0.00     0.159 HD
ATOM     14  H   UNL     1      19.469  -3.459 -16.385  1.00  0.00     0.159 HD
ENDBRANCH   1  10
TORSDOF 4
ENDMDL
MODEL 4
REMARK VINA RESULT:    -4.421      2.139      2.409
REMARK INTER + INTRA:          -5.598
REMARK INTER:                  -5.125
REMARK INTRA:                  -0.474
REMARK UNBOUND:                -0.273
REMARK SMILES NC(=O)C[C@@H]([NH3+])C(=O)[O-]
REMARK SMILES IDX 4 1 5 2 6 3 7 7 8 8 9 9 2 10 3 11 1 12
REMARK H PARENT 6 4 6 5 6 6 1 13 1 14
REMARK Flexibility Score: inf
ROOT
ATOM      1  C   UNL     1      19.717   1.573 -17.373  1.00  0.00     0.171 C 
ENDROOT
BRANCH   1   2
ATOM      2  C   UNL     1      18.431   1.862 -16.572  1.00  0.00     0.237 C 
BRANCH   2   3
ATOM      3  N   UNL     1      17.261   1.851 -17.458  1.00  0.00    -0.350 N 
ATOM      4  H   UNL     1      17.224   2.725 -18.034  1.00  0.00     0.345 HD
ATOM      5  H   UNL     1      17.303   1.021 -18.094  1.00  0.00     0.345 HD
ATOM      6  H   UNL     1      16.386   1.781 -16.888  1.00  0.00     0.345 HD
ENDBRANCH   2   3
BRANCH   2   7
ATOM      7  C   UNL     1      18.250   0.862 -15.459  1.00  0.00     0.100 C 
ATOM      8  O   UNL     1      17.207   0.872 -14.752  1.00  0.00    -0.544 OA
ATOM      9  O   UNL     1      19.232  -0.090 -15.215  1.00  0.00    -0.544 OA
ENDBRANCH   2   7
ENDBRANCH   1   2
BRANCH   1  10
ATOM     10  C   UNL     1      19.442   0.701 -18.565  1.00  0.00     0.223 C 
ATOM     11  O   UNL     1      19.186   1.227 -19.680  1.00  0.00    -0.275 OA
ATOM     12  N   UNL     1      19.436  -0.720 -18.433  1.00  0.00    -0.369 N 
ATOM     13  H   UNL     1      19.231  -1.325 -19.259  1.00  0.00     0.159 HD
ATOM     14  H   UNL     1      19.631  -1.170 -17.511  1.00  0.00     0.159 HD
ENDBRANCH   1  10
TORSDOF 4
ENDMDL
MODEL 5
REMARK VINA RESULT:    -4.210      1.880      3.907
REMARK INTER + INTRA:          -5.344
REMARK INTER:                  -4.926
REMARK INTRA:                  -0.417
REMARK UNBOUND:                -0.273
REMARK SMILES NC(=O)C[C@@H]([NH3+])C(=O)[O-]
REMARK SMILES IDX 4 1 5 2 6 3 7 7 8 8 9 9 2 10 3 11 1 12
REMARK H PARENT 6 4 6 5 6 6 1 13 1 14
REMARK Flexibility Score: inf
ROOT
ATOM      1  C   UNL     1      19.490   1.423 -15.943  1.00  0.00     0.171 C 
ENDROOT
BRANCH   1   2
ATOM      2  C   UNL     1      20.115   0.028 -16.143  1.00  0.00     0.237 C 
BRANCH   2   3
ATOM      3  N   UNL     1      19.754  -0.861 -15.032  1.00  0.00    -0.350 N 
ATOM      4  H   UNL     1      18.864  -0.547 -14.580  1.00  0.00     0.345 HD
ATOM      5  H   UNL     1      19.637  -1.839 -15.382  1.00  0.00     0.345 HD
ATOM      6  H   UNL     1      20.518  -0.861 -14.317  1.00  0.00     0.345 HD
ENDBRANCH   2   3
BRANCH   2   7
ATOM      7  C   UNL     1      19.683  -0.577 -17.455  1.00  0.00     0.100 C 
ATOM      8  O   UNL     1      19.425  -1.807 -17.538  1.00  0.00    -0.544 OA
ATOM      9  O   UNL     1      19.554   0.227 -18.580  1.00  0.00    -0.544 OA
ENDBRANCH   2   7
ENDBRANCH   1   2
BRANCH   1  10
ATOM     10  C   UNL     1      17.990   1.353 -15.888  1.00  0.00     0.223 C 
ATOM     11  O   UNL     1      17.423   0.831 -14.892  1.00  0.00    -0.275 OA
ATOM     12  N   UNL     1      17.205   1.846 -16.973  1.00  0.00    -0.369 N 
ATOM     13  H   UNL     1      16.163   1.785 -16.939  1.00  0.00     0.159 HD
ATOM     14  H   UNL     1      17.661   2.267 -17.812  1.00  0.00     0.159 HD
ENDBRANCH   1  10
TORSDOF 4
ENDMDL
MODEL 6
REMARK VINA RESULT:    -4.208      2.069      2.444
REMARK INTER + INTRA:          -5.342
REMARK INTER:                  -4.910
REMARK INTRA:                  -0.432
REMARK UNBOUND:                -0.273
REMARK SMILES NC(=O)C[C@@H]([NH3+])C(=O)[O-]
REMARK SMILES IDX 4 1 5 2 6 3 7 7 8 8 9 9 2 10 3 11 1 12
REMARK H PARENT 6 4 6 5 6 6 1 13 1 14
REMARK Flexibility Score: inf
ROOT
ATOM      1  C   UNL     1      20.222   1.318 -17.280  1.00  0.00     0.171 C 
ENDROOT
BRANCH   1   2
ATOM      2  C   UNL     1      19.126   1.851 -16.335  1.00  0.00     0.237 C 
BRANCH   2   3
ATOM      3  N   UNL     1      18.045   2.479 -17.104  1.00  0.00    -0.350 N 
ATOM      4  H   UNL     1      17.364   1.760 -17.441  1.00  0.00     0.345 HD
ATOM      5  H   UNL     1      17.543   3.177 -16.508  1.00  0.00     0.345 HD
ATOM      6  H   UNL     1      18.445   2.984 -17.929  1.00  0.00     0.345 HD
ENDBRANCH   2   3
BRANCH   2   7
ATOM      7  C   UNL     1      18.576   0.749 -15.467  1.00  0.00     0.100 C 
ATOM      8  O   UNL     1      19.257  -0.286 -15.238  1.00  0.00    -0.544 OA
ATOM      9  O   UNL     1      17.313   0.876 -14.903  1.00  0.00    -0.544 OA
ENDBRANCH   2   7
ENDBRANCH   1   2
BRANCH   1  10
ATOM     10  C   UNL     1      19.632   0.631 -18.479  1.00  0.00     0.223 C 
ATOM     11  O   UNL     1      19.286   1.309 -19.482  1.00  0.00    -0.275 OA
ATOM     12  N   UNL     1      19.429  -0.781 -18.473  1.00  0.00    -0.369 N 
ATOM     13  H   UNL     1      19.006  -1.256 -19.302  1.00  0.00     0.159 HD
ATOM     14  H   UNL     1      19.695  -1.354 -17.642  1.00  0.00     0.159 HD
ENDBRANCH   1  10
TORSDOF 4
ENDMDL
MODEL 7
REMARK VINA RESULT:    -4.177      8.043      9.009
REMARK INTER + INTRA:          -5.304
REMARK INTER:                  -5.227
REMARK INTRA:                  -0.077
REMARK UNBOUND:                -0.273
REMARK SMILES NC(=O)C[C@@H]([NH3+])C(=O)[O-]
REMARK SMILES IDX 4 1 5 2 6 3 7 7 8 8 9 9 2 10 3 11 1 12
REMARK H PARENT 6 4 6 5 6 6 1 13 1 14
REMARK Flexibility Score: inf
ROOT
ATOM      1  C   UNL     1      15.938   0.100 -25.055  1.00  0.00     0.171 C 
ENDROOT
BRANCH   1   2
ATOM      2  C   UNL     1      17.154  -0.041 -24.118  1.00  0.00     0.237 C 
BRANCH   2   3
ATOM      3  N   UNL     1      16.765   0.227 -22.728  1.00  0.00    -0.350 N 
ATOM      4  H   UNL     1      17.226  -0.451 -22.077  1.00  0.00     0.345 HD
ATOM      5  H   UNL     1      17.039   1.201 -22.463  1.00  0.00     0.345 HD
ATOM      6  H   UNL     1      15.727   0.143 -22.629  1.00  0.00     0.345 HD
ENDBRANCH   2   3
BRANCH   2   7
ATOM      7  C   UNL     1      17.770  -1.413 -24.231  1.00  0.00     0.100 C 
ATOM      8  O   UNL     1      17.052  -2.445 -24.152  1.00  0.00    -0.544 OA
ATOM      9  O   UNL     1      19.137  -1.544 -24.438  1.00  0.00    -0.544 OA
ENDBRANCH   2   7
ENDBRANCH   1   2
BRANCH   1  10
ATOM     10  C   UNL     1      16.107   1.247 -26.011  1.00  0.00     0.223 C 
ATOM     11  O   UNL     1      17.068   1.248 -26.825  1.00  0.00    -0.275 OA
ATOM     12  N   UNL     1      15.204   2.352 -25.978  1.00  0.00    -0.369 N 
ATOM     13  H   UNL     1      15.331   3.155 -26.633  1.00  0.00     0.159 HD
ATOM     14  H   UNL     1      14.413   2.372 -25.298  1.00  0.00     0.159 HD
ENDBRANCH   1  10
TORSDOF 4
ENDMDL
MODEL 8
REMARK VINA RESULT:    -4.098     15.321     16.511
REMARK INTER + INTRA:          -5.209
REMARK INTER:                  -4.778
REMARK INTRA:                  -0.431
REMARK UNBOUND:                -0.273
REMARK SMILES NC(=O)C[C@@H]([NH3+])C(=O)[O-]
REMARK SMILES IDX 4 1 5 2 6 3 7 7 8 8 9 9 2 10 3 11 1 12
REMARK H PARENT 6 4 6 5 6 6 1 13 1 14
REMARK Flexibility Score: inf
ROOT
ATOM      1  C   UNL     1      24.846 -12.916 -25.476  1.00  0.00     0.171 C 
ENDROOT
BRANCH   1   2
ATOM      2  C   UNL     1      25.384 -11.769 -24.597  1.00  0.00     0.237 C 
BRANCH   2   3
ATOM      3  N   UNL     1      26.238 -12.299 -23.527  1.00  0.00    -0.350 N 
ATOM      4  H   UNL     1      27.157 -11.799 -23.505  1.00  0.00     0.345 HD
ATOM      5  H   UNL     1      25.761 -12.186 -22.603  1.00  0.00     0.345 HD
ATOM      6  H   UNL     1      26.407 -13.319 -23.682  1.00  0.00     0.345 HD
ENDBRANCH   2   3
BRANCH   2   7
ATOM      7  C   UNL     1      26.146 -10.765 -25.422  1.00  0.00     0.100 C 
ATOM      8  O   UNL     1      26.919  -9.937 -24.870  1.00  0.00    -0.544 OA
ATOM      9  O   UNL     1      26.010 -10.757 -26.805  1.00  0.00    -0.544 OA
ENDBRANCH   2   7
ENDBRANCH   1   2
BRANCH   1  10
ATOM     10  C   UNL     1      25.845 -14.031 -25.602  1.00  0.00     0.223 C 
ATOM     11  O   UNL     1      25.760 -15.036 -24.848  1.00  0.00    -0.275 OA
ATOM     12  N   UNL     1      26.911 -13.942 -26.547  1.00  0.00    -0.369 N 
ATOM     13  H   UNL     1      27.612 -14.712 -26.624  1.00  0.00     0.159 HD
ATOM     14  H   UNL     1      27.004 -13.108 -27.168  1.00  0.00     0.159 HD
ENDBRANCH   1  10
TORSDOF 4
ENDMDL
MODEL 9
REMARK VINA RESULT:    -4.073      1.707      2.117
REMARK INTER + INTRA:          -5.179
REMARK INTER:                  -4.736
REMARK INTRA:                  -0.444
REMARK UNBOUND:                -0.273
REMARK SMILES NC(=O)C[C@@H]([NH3+])C(=O)[O-]
REMARK SMILES IDX 4 1 5 2 6 3 7 7 8 8 9 9 2 10 3 11 1 12
REMARK H PARENT 6 4 6 5 6 6 1 13 1 14
REMARK Flexibility Score: inf
ROOT
ATOM      1  C   UNL     1      20.102   0.926 -14.839  1.00  0.00     0.171 C 
ENDROOT
BRANCH   1   2
ATOM      2  C   UNL     1      19.322   1.840 -15.805  1.00  0.00     0.237 C 
BRANCH   2   3
ATOM      3  N   UNL     1      19.869   1.738 -17.164  1.00  0.00    -0.350 N 
ATOM      4  H   UNL     1      19.459   2.473 -17.785  1.00  0.00     0.345 HD
ATOM      5  H   UNL     1      20.909   1.849 -17.138  1.00  0.00     0.345 HD
ATOM      6  H   UNL     1      19.653   0.795 -17.562  1.00  0.00     0.345 HD
ENDBRANCH   2   3
BRANCH   2   7
ATOM      7  C   UNL     1      17.854   1.497 -15.809  1.00  0.00     0.100 C 
ATOM      8  O   UNL     1      17.359   0.794 -14.888  1.00  0.00    -0.544 OA
ATOM      9  O   UNL     1      17.034   1.969 -16.825  1.00  0.00    -0.544 OA
ENDBRANCH   2   7
ENDBRANCH   1   2
BRANCH   1  10
ATOM     10  C   UNL     1      20.534  -0.347 -15.509  1.00  0.00     0.223 C 
ATOM     11  O   UNL     1      21.672  -0.419 -16.043  1.00  0.00    -0.275 OA
ATOM     12  N   UNL     1      19.648  -1.464 -15.575  1.00  0.00    -0.369 N 
ATOM     13  H   UNL     1      19.945  -2.344 -16.054  1.00  0.00     0.159 HD
ATOM     14  H   UNL     1      18.695  -1.414 -15.152  1.00  0.00     0.159 HD
ENDBRANCH   1  10
TORSDOF 4
ENDMDL
