MODEL 1
REMARK VINA RESULT:    -4.218      0.000      0.000
REMARK INTER + INTRA:          -4.599
REMARK INTER:                  -4.588
REMARK INTRA:                  -0.011
REMARK UNBOUND:                -0.011
REMARK SMILES OCc1ccccc1
REMARK SMILES IDX 2 1 3 2 6 3 5 4 7 5 4 6 8 7 1 8
REMARK H PARENT 1 9
REMARK Flexibility Score: inf
ROOT
ATOM      1  C   UNL     1      30.471  -8.164 -18.086  1.00  0.00     0.191 C 
ENDROOT
BRANCH   1   2
ATOM      2  C   UNL     1      30.789  -6.932 -18.889  1.00  0.00    -0.023 A 
ATOM      3  C   UNL     1      31.433  -4.678 -20.430  1.00  0.00     0.000 A 
ATOM      4  C   UNL     1      30.377  -5.509 -20.815  1.00  0.00     0.000 A 
ATOM      5  C   UNL     1      32.175  -4.976 -19.284  1.00  0.00     0.000 A 
ATOM      6  C   UNL     1      30.057  -6.636 -20.051  1.00  0.00     0.006 A 
ATOM      7  C   UNL     1      31.859  -6.103 -18.517  1.00  0.00     0.006 A 
ENDBRANCH   1   2
BRANCH   1   8
ATOM      8  O   UNL     1      31.478  -9.123 -18.258  1.00  0.00    -0.392 OA
ATOM      9  H   UNL     1      32.235  -8.663 -18.706  1.00  0.00     0.211 HD
ENDBRANCH   1   8
TORSDOF 2
ENDMDL
MODEL 2
REMARK VINA RESULT:    -4.189     14.197     14.988
REMARK INTER + INTRA:          -4.567
REMARK INTER:                  -4.556
REMARK INTRA:                  -0.011
REMARK UNBOUND:                -0.011
REMARK SMILES OCc1ccccc1
REMARK SMILES IDX 2 1 3 2 6 3 5 4 7 5 4 6 8 7 1 8
REMARK H PARENT 1 9
REMARK Flexibility Score: inf
ROOT
ATOM      1  C   UNL     1      17.303  -7.661 -16.996  1.00  0.00     0.191 C 
ENDROOT
BRANCH   1   2
ATOM      2  C   UNL     1      17.146  -6.802 -15.772  1.00  0.00    -0.023 A 
ATOM      3  C   UNL     1      16.797  -5.250 -13.460  1.00  0.00     0.000 A 
ATOM      4  C   UNL     1      17.754  -6.269 -13.481  1.00  0.00     0.000 A 
ATOM      5  C   UNL     1      16.006  -5.012 -14.588  1.00  0.00     0.000 A 
ATOM      6  C   UNL     1      17.926  -7.046 -14.630  1.00  0.00     0.006 A 
ATOM      7  C   UNL     1      16.174  -5.789 -15.739  1.00  0.00     0.006 A 
ENDBRANCH   1   2
BRANCH   1   8
ATOM      8  O   UNL     1      16.184  -8.491 -17.149  1.00  0.00    -0.392 OA
ATOM      9  H   UNL     1      16.474  -9.255 -17.713  1.00  0.00     0.211 HD
ENDBRANCH   1   8
TORSDOF 2
ENDMDL
MODEL 3
REMARK VINA RESULT:    -4.173     20.948     21.379
REMARK INTER + INTRA:          -4.550
REMARK INTER:                  -4.533
REMARK INTRA:                  -0.017
REMARK UNBOUND:                -0.011
REMARK SMILES OCc1ccccc1
REMARK SMILES IDX 2 1 3 2 6 3 5 4 7 5 4 6 8 7 1 8
REMARK H PARENT 1 9
REMARK Flexibility Score: inf
ROOT
ATOM      1  C   UNL     1      15.852   7.366 -14.198  1.00  0.00     0.191 C 
ENDROOT
BRANCH   1   2
ATOM      2  C   UNL     1      16.914   8.422 -14.061  1.00  0.00    -0.023 A 
ATOM      3  C   UNL     1      18.839  10.449 -13.820  1.00  0.00     0.000 A 
ATOM      4  C   UNL     1      18.151  10.000 -12.688  1.00  0.00     0.000 A 
ATOM      5  C   UNL     1      18.560   9.896 -15.072  1.00  0.00     0.000 A 
ATOM      6  C   UNL     1      17.188   8.993 -12.807  1.00  0.00     0.006 A 
ATOM      7  C   UNL     1      17.596   8.890 -15.196  1.00  0.00     0.006 A 
ENDBRANCH   1   2
BRANCH   1   8
ATOM      8  O   UNL     1      15.768   6.612 -13.020  1.00  0.00    -0.392 OA
ATOM      9  H   UNL     1      15.593   5.674 -13.295  1.00  0.00     0.211 HD
ENDBRANCH   1   8
TORSDOF 2
ENDMDL
MODEL 4
REMARK VINA RESULT:    -4.141      2.122      3.262
REMARK INTER + INTRA:          -4.516
REMARK INTER:                  -4.505
REMARK INTRA:                  -0.011
REMARK UNBOUND:                -0.011
REMARK SMILES OCc1ccccc1
REMARK SMILES IDX 2 1 3 2 6 3 5 4 7 5 4 6 8 7 1 8
REMARK H PARENT 1 9
REMARK Flexibility Score: inf
ROOT
ATOM      1  C   UNL     1      31.470  -4.549 -20.525  1.00  0.00     0.191 C 
ENDROOT
BRANCH   1   2
ATOM      2  C   UNL     1      31.112  -5.786 -19.749  1.00  0.00    -0.023 A 
ATOM      3  C   UNL     1      30.397  -8.050 -18.253  1.00  0.00     0.000 A 
ATOM      4  C   UNL     1      29.664  -7.704 -19.393  1.00  0.00     0.000 A 
ATOM      5  C   UNL     1      31.479  -7.261 -17.853  1.00  0.00     0.000 A 
ATOM      6  C   UNL     1      30.016  -6.574 -20.137  1.00  0.00     0.006 A 
ATOM      7  C   UNL     1      31.834  -6.129 -18.594  1.00  0.00     0.006 A 
ENDBRANCH   1   2
BRANCH   1   8
ATOM      8  O   UNL     1      31.924  -4.898 -21.804  1.00  0.00    -0.392 OA
ATOM      9  H   UNL     1      32.355  -5.788 -21.719  1.00  0.00     0.211 HD
ENDBRANCH   1   8
TORSDOF 2
ENDMDL
MODEL 5
REMARK VINA RESULT:    -4.140     20.987     21.484
REMARK INTER + INTRA:          -4.514
REMARK INTER:                  -4.502
REMARK INTRA:                  -0.012
REMARK UNBOUND:                -0.011
REMARK SMILES OCc1ccccc1
REMARK SMILES IDX 2 1 3 2 6 3 5 4 7 5 4 6 8 7 1 8
REMARK H PARENT 1 9
REMARK Flexibility Score: inf
ROOT
ATOM      1  C   UNL     1      16.852   8.008 -16.125  1.00  0.00     0.191 C 
ENDROOT
BRANCH   1   2
ATOM      2  C   UNL     1      17.435   8.825 -15.006  1.00  0.00    -0.023 A 
ATOM      3  C   UNL     1      18.467  10.406 -12.930  1.00  0.00     0.000 A 
ATOM      4  C   UNL     1      17.492   9.442 -12.656  1.00  0.00     0.000 A 
ATOM      5  C   UNL     1      18.919  10.590 -14.240  1.00  0.00     0.000 A 
ATOM      6  C   UNL     1      16.973   8.657 -13.690  1.00  0.00     0.006 A 
ATOM      7  C   UNL     1      18.402   9.807 -15.277  1.00  0.00     0.006 A 
ENDBRANCH   1   2
BRANCH   1   8
ATOM      8  O   UNL     1      16.185   8.841 -17.034  1.00  0.00    -0.392 OA
ATOM      9  H   UNL     1      15.613   9.447 -16.494  1.00  0.00     0.211 HD
ENDBRANCH   1   8
TORSDOF 2
ENDMDL
MODEL 6
REMARK VINA RESULT:    -4.138      2.111      3.677
REMARK INTER + INTRA:          -4.512
REMARK INTER:                  -4.500
REMARK INTRA:                  -0.012
REMARK UNBOUND:                -0.011
REMARK SMILES OCc1ccccc1
REMARK SMILES IDX 2 1 3 2 6 3 5 4 7 5 4 6 8 7 1 8
REMARK H PARENT 1 9
REMARK Flexibility Score: inf
ROOT
ATOM      1  C   UNL     1      31.514  -4.549 -20.539  1.00  0.00     0.191 C 
ENDROOT
BRANCH   1   2
ATOM      2  C   UNL     1      31.105  -5.743 -19.722  1.00  0.00    -0.023 A 
ATOM      3  C   UNL     1      30.390  -8.017 -18.242  1.00  0.00     0.000 A 
ATOM      4  C   UNL     1      31.468  -7.227 -17.832  1.00  0.00     0.000 A 
ATOM      5  C   UNL     1      29.675  -7.681 -19.395  1.00  0.00     0.000 A 
ATOM      6  C   UNL     1      31.829  -6.096 -18.571  1.00  0.00     0.006 A 
ATOM      7  C   UNL     1      30.034  -6.551 -20.138  1.00  0.00     0.006 A 
ENDBRANCH   1   2
BRANCH   1   8
ATOM      8  O   UNL     1      31.872  -4.950 -21.833  1.00  0.00    -0.392 OA
ATOM      9  H   UNL     1      31.024  -5.123 -22.321  1.00  0.00     0.211 HD
ENDBRANCH   1   8
TORSDOF 2
ENDMDL
MODEL 7
REMARK VINA RESULT:    -4.103     15.627     16.502
REMARK INTER + INTRA:          -4.474
REMARK INTER:                  -4.460
REMARK INTRA:                  -0.014
REMARK UNBOUND:                -0.011
REMARK SMILES OCc1ccccc1
REMARK SMILES IDX 2 1 3 2 6 3 5 4 7 5 4 6 8 7 1 8
REMARK H PARENT 1 9
REMARK Flexibility Score: inf
ROOT
ATOM      1  C   UNL     1      31.083   8.486 -11.885  1.00  0.00     0.191 C 
ENDROOT
BRANCH   1   2
ATOM      2  C   UNL     1      31.475   8.816 -13.299  1.00  0.00    -0.023 A 
ATOM      3  C   UNL     1      32.271   9.469 -15.910  1.00  0.00     0.000 A 
ATOM      4  C   UNL     1      32.684   8.264 -15.333  1.00  0.00     0.000 A 
ATOM      5  C   UNL     1      31.470  10.353 -15.181  1.00  0.00     0.000 A 
ATOM      6  C   UNL     1      32.293   7.939 -14.031  1.00  0.00     0.006 A 
ATOM      7  C   UNL     1      31.077  10.032 -13.877  1.00  0.00     0.006 A 
ENDBRANCH   1   2
BRANCH   1   8
ATOM      8  O   UNL     1      32.212   8.104 -11.149  1.00  0.00    -0.392 OA
ATOM      9  H   UNL     1      32.449   7.187 -11.451  1.00  0.00     0.211 HD
ENDBRANCH   1   8
TORSDOF 2
ENDMDL
MODEL 8
REMARK VINA RESULT:    -4.095     15.647     16.509
REMARK INTER + INTRA:          -4.466
REMARK INTER:                  -4.452
REMARK INTRA:                  -0.013
REMARK UNBOUND:                -0.011
REMARK SMILES OCc1ccccc1
REMARK SMILES IDX 2 1 3 2 6 3 5 4 7 5 4 6 8 7 1 8
REMARK H PARENT 1 9
REMARK Flexibility Score: inf
ROOT
ATOM      1  C   UNL     1      31.013   8.485 -11.888  1.00  0.00     0.191 C 
ENDROOT
BRANCH   1   2
ATOM      2  C   UNL     1      31.463   8.852 -13.275  1.00  0.00    -0.023 A 
ATOM      3  C   UNL     1      32.239   9.499 -15.893  1.00  0.00     0.000 A 
ATOM      4  C   UNL     1      31.434  10.380 -15.164  1.00  0.00     0.000 A 
ATOM      5  C   UNL     1      32.648   8.291 -15.321  1.00  0.00     0.000 A 
ATOM      6  C   UNL     1      31.043  10.057 -13.861  1.00  0.00     0.006 A 
ATOM      7  C   UNL     1      32.257   7.963 -14.019  1.00  0.00     0.006 A 
ENDBRANCH   1   2
BRANCH   1   8
ATOM      8  O   UNL     1      32.111   8.086 -11.115  1.00  0.00    -0.392 OA
ATOM      9  H   UNL     1      32.922   8.420 -11.581  1.00  0.00     0.211 HD
ENDBRANCH   1   8
TORSDOF 2
ENDMDL
MODEL 9
REMARK VINA RESULT:    -4.090      2.131      3.432
REMARK INTER + INTRA:          -4.460
REMARK INTER:                  -4.448
REMARK INTRA:                  -0.012
REMARK UNBOUND:                -0.011
REMARK SMILES OCc1ccccc1
REMARK SMILES IDX 2 1 3 2 6 3 5 4 7 5 4 6 8 7 1 8
REMARK H PARENT 1 9
REMARK Flexibility Score: inf
ROOT
ATOM      1  C   UNL     1      29.226  -6.142 -21.382  1.00  0.00     0.191 C 
ENDROOT
BRANCH   1   2
ATOM      2  C   UNL     1      29.967  -6.569 -20.145  1.00  0.00    -0.023 A 
ATOM      3  C   UNL     1      31.398  -7.407 -17.882  1.00  0.00     0.000 A 
ATOM      4  C   UNL     1      31.760  -6.228 -18.541  1.00  0.00     0.000 A 
ATOM      5  C   UNL     1      30.331  -8.174 -18.358  1.00  0.00     0.000 A 
ATOM      6  C   UNL     1      31.051  -5.811 -19.672  1.00  0.00     0.006 A 
ATOM      7  C   UNL     1      29.620  -7.761 -19.489  1.00  0.00     0.006 A 
ENDBRANCH   1   2
BRANCH   1   8
ATOM      8  O   UNL     1      30.097  -6.118 -22.480  1.00  0.00    -0.392 OA
ATOM      9  H   UNL     1      29.530  -6.185 -23.293  1.00  0.00     0.211 HD
ENDBRANCH   1   8
TORSDOF 2
ENDMDL
