MODEL 1
REMARK VINA RESULT:    -4.625      0.000      0.000
REMARK INTER + INTRA:          -6.108
REMARK INTER:                  -5.707
REMARK INTRA:                  -0.401
REMARK UNBOUND:                -0.401
REMARK SMILES C=CC[C@@H](C)C(=O)CC
REMARK SMILES IDX 4 1 5 2 6 3 7 4 8 5 9 6 3 7 2 8 1 9
REMARK H PARENT
REMARK Flexibility Score: inf
ROOT
ATOM      1  C   UNL     1      27.856  18.527  28.749  1.00  0.00     0.057 C 
ATOM      2  C   UNL     1      28.910  17.654  29.446  1.00  0.00     0.016 C 
ENDROOT
BRANCH   1   3
ATOM      3  C   UNL     1      27.979  19.959  29.222  1.00  0.00     0.135 C 
ATOM      4  O   UNL     1      28.026  20.200  30.421  1.00  0.00    -0.299 OA
BRANCH   3   5
ATOM      5  C   UNL     1      28.042  21.102  28.243  1.00  0.00     0.072 C 
ATOM      6  C   UNL     1      26.710  21.844  28.191  1.00  0.00     0.012 C 
ENDBRANCH   3   5
ENDBRANCH   1   3
BRANCH   1   7
ATOM      7  C   UNL     1      27.990  18.467  27.214  1.00  0.00     0.038 C 
BRANCH   7   8
ATOM      8  C   UNL     1      26.668  18.237  26.531  1.00  0.00    -0.034 C 
ATOM      9  C   UNL     1      25.533  18.095  27.223  1.00  0.00     0.004 C 
ENDBRANCH   7   8
ENDBRANCH   1   7
TORSDOF 4
ENDMDL
MODEL 2
REMARK VINA RESULT:    -4.551      1.765      3.398
REMARK INTER + INTRA:          -6.016
REMARK INTER:                  -5.747
REMARK INTRA:                  -0.269
REMARK UNBOUND:                -0.401
REMARK SMILES C=CC[C@@H](C)C(=O)CC
REMARK SMILES IDX 4 1 5 2 6 3 7 4 8 5 9 6 3 7 2 8 1 9
REMARK H PARENT
REMARK Flexibility Score: inf
ROOT
ATOM      1  C   UNL     1      28.132  20.217  29.107  1.00  0.00     0.057 C 
ATOM      2  C   UNL     1      27.468  20.847  30.341  1.00  0.00     0.016 C 
ENDROOT
BRANCH   1   3
ATOM      3  C   UNL     1      27.751  18.756  29.007  1.00  0.00     0.135 C 
ATOM      4  O   UNL     1      26.597  18.447  28.741  1.00  0.00    -0.299 OA
BRANCH   3   5
ATOM      5  C   UNL     1      28.766  17.667  29.231  1.00  0.00     0.072 C 
ATOM      6  C   UNL     1      29.748  17.593  28.066  1.00  0.00     0.012 C 
ENDBRANCH   3   5
ENDBRANCH   1   3
BRANCH   1   7
ATOM      7  C   UNL     1      27.739  20.954  27.810  1.00  0.00     0.038 C 
BRANCH   7   8
ATOM      8  C   UNL     1      26.633  21.951  28.029  1.00  0.00    -0.034 C 
ATOM      9  C   UNL     1      25.543  21.974  27.256  1.00  0.00     0.004 C 
ENDBRANCH   7   8
ENDBRANCH   1   7
TORSDOF 4
ENDMDL
MODEL 3
REMARK VINA RESULT:    -4.517     12.886     13.698
REMARK INTER + INTRA:          -5.975
REMARK INTER:                  -5.497
REMARK INTRA:                  -0.478
REMARK UNBOUND:                -0.401
REMARK SMILES C=CC[C@@H](C)C(=O)CC
REMARK SMILES IDX 4 1 5 2 6 3 7 4 8 5 9 6 3 7 2 8 1 9
REMARK H PARENT
REMARK Flexibility Score: inf
ROOT
ATOM      1  C   UNL     1      33.624  19.538  16.180  1.00  0.00     0.057 C 
ATOM      2  C   UNL     1      33.898  18.097  15.726  1.00  0.00     0.016 C 
ENDROOT
BRANCH   1   3
ATOM      3  C   UNL     1      34.909  20.338  16.157  1.00  0.00     0.135 C 
ATOM      4  O   UNL     1      35.923  19.844  15.684  1.00  0.00    -0.299 OA
BRANCH   3   5
ATOM      5  C   UNL     1      34.966  21.738  16.710  1.00  0.00     0.072 C 
ATOM      6  C   UNL     1      34.724  21.735  18.216  1.00  0.00     0.012 C 
ENDBRANCH   3   5
ENDBRANCH   1   3
BRANCH   1   7
ATOM      7  C   UNL     1      32.562  20.223  15.296  1.00  0.00     0.038 C 
BRANCH   7   8
ATOM      8  C   UNL     1      31.437  20.814  16.104  1.00  0.00    -0.034 C 
ATOM      9  C   UNL     1      31.263  20.512  17.395  1.00  0.00     0.004 C 
ENDBRANCH   7   8
ENDBRANCH   1   7
TORSDOF 4
ENDMDL
MODEL 4
REMARK VINA RESULT:    -4.516     12.949     13.741
REMARK INTER + INTRA:          -5.973
REMARK INTER:                  -5.783
REMARK INTRA:                  -0.191
REMARK UNBOUND:                -0.401
REMARK SMILES C=CC[C@@H](C)C(=O)CC
REMARK SMILES IDX 4 1 5 2 6 3 7 4 8 5 9 6 3 7 2 8 1 9
REMARK H PARENT
REMARK Flexibility Score: inf
ROOT
ATOM      1  C   UNL     1      34.463  19.436  15.985  1.00  0.00     0.057 C 
ATOM      2  C   UNL     1      35.829  19.600  15.304  1.00  0.00     0.016 C 
ENDROOT
BRANCH   1   3
ATOM      3  C   UNL     1      33.949  20.784  16.440  1.00  0.00     0.135 C 
ATOM      4  O   UNL     1      32.799  21.114  16.182  1.00  0.00    -0.299 OA
BRANCH   3   5
ATOM      5  C   UNL     1      34.828  21.737  17.206  1.00  0.00     0.072 C 
ATOM      6  C   UNL     1      34.367  21.855  18.655  1.00  0.00     0.012 C 
ENDBRANCH   3   5
ENDBRANCH   1   3
BRANCH   1   7
ATOM      7  C   UNL     1      33.435  18.770  15.047  1.00  0.00     0.038 C 
BRANCH   7   8
ATOM      8  C   UNL     1      32.672  17.663  15.725  1.00  0.00    -0.034 C 
ATOM      9  C   UNL     1      31.336  17.644  15.755  1.00  0.00     0.004 C 
ENDBRANCH   7   8
ENDBRANCH   1   7
TORSDOF 4
ENDMDL
MODEL 5
REMARK VINA RESULT:    -4.506      1.686      2.649
REMARK INTER + INTRA:          -5.961
REMARK INTER:                  -5.710
REMARK INTRA:                  -0.251
REMARK UNBOUND:                -0.401
REMARK SMILES C=CC[C@@H](C)C(=O)CC
REMARK SMILES IDX 4 1 5 2 6 3 7 4 8 5 9 6 3 7 2 8 1 9
REMARK H PARENT
REMARK Flexibility Score: inf
ROOT
ATOM      1  C   UNL     1      27.266  19.831  29.259  1.00  0.00     0.057 C 
ATOM      2  C   UNL     1      28.170  20.162  30.455  1.00  0.00     0.016 C 
ENDROOT
BRANCH   1   3
ATOM      3  C   UNL     1      27.474  20.849  28.159  1.00  0.00     0.135 C 
ATOM      4  O   UNL     1      28.322  20.648  27.300  1.00  0.00    -0.299 OA
BRANCH   3   5
ATOM      5  C   UNL     1      26.656  22.112  28.099  1.00  0.00     0.072 C 
ATOM      6  C   UNL     1      25.409  21.911  27.245  1.00  0.00     0.012 C 
ENDBRANCH   3   5
ENDBRANCH   1   3
BRANCH   1   7
ATOM      7  C   UNL     1      27.531  18.411  28.719  1.00  0.00     0.038 C 
BRANCH   7   8
ATOM      8  C   UNL     1      28.775  17.797  29.305  1.00  0.00    -0.034 C 
ATOM      9  C   UNL     1      29.802  17.421  28.537  1.00  0.00     0.004 C 
ENDBRANCH   7   8
ENDBRANCH   1   7
TORSDOF 4
ENDMDL
MODEL 6
REMARK VINA RESULT:    -4.486      1.718      2.799
REMARK INTER + INTRA:          -5.936
REMARK INTER:                  -5.449
REMARK INTRA:                  -0.487
REMARK UNBOUND:                -0.401
REMARK SMILES C=CC[C@@H](C)C(=O)CC
REMARK SMILES IDX 4 1 5 2 6 3 7 4 8 5 9 6 3 7 2 8 1 9
REMARK H PARENT
REMARK Flexibility Score: inf
ROOT
ATOM      1  C   UNL     1      27.727  19.488  26.596  1.00  0.00     0.057 C 
ATOM      2  C   UNL     1      26.627  18.416  26.618  1.00  0.00     0.016 C 
ENDROOT
BRANCH   1   3
ATOM      3  C   UNL     1      27.237  20.743  27.285  1.00  0.00     0.135 C 
ATOM      4  O   UNL     1      26.279  21.351  26.829  1.00  0.00    -0.299 OA
BRANCH   3   5
ATOM      5  C   UNL     1      27.912  21.265  28.526  1.00  0.00     0.072 C 
ATOM      6  C   UNL     1      27.053  21.003  29.760  1.00  0.00     0.012 C 
ENDBRANCH   3   5
ENDBRANCH   1   3
BRANCH   1   7
ATOM      7  C   UNL     1      29.023  18.990  27.268  1.00  0.00     0.038 C 
BRANCH   7   8
ATOM      8  C   UNL     1      28.807  17.735  28.072  1.00  0.00    -0.034 C 
ATOM      9  C   UNL     1      29.019  17.699  29.391  1.00  0.00     0.004 C 
ENDBRANCH   7   8
ENDBRANCH   1   7
TORSDOF 4
ENDMDL
MODEL 7
REMARK VINA RESULT:    -4.478      1.807      3.599
REMARK INTER + INTRA:          -5.927
REMARK INTER:                  -5.466
REMARK INTRA:                  -0.461
REMARK UNBOUND:                -0.401
REMARK SMILES C=CC[C@@H](C)C(=O)CC
REMARK SMILES IDX 4 1 5 2 6 3 7 4 8 5 9 6 3 7 2 8 1 9
REMARK H PARENT
REMARK Flexibility Score: inf
ROOT
ATOM      1  C   UNL     1      27.365  19.066  27.508  1.00  0.00     0.057 C 
ATOM      2  C   UNL     1      26.398  18.150  26.746  1.00  0.00     0.016 C 
ENDROOT
BRANCH   1   3
ATOM      3  C   UNL     1      28.795  18.671  27.207  1.00  0.00     0.135 C 
ATOM      4  O   UNL     1      29.368  19.157  26.243  1.00  0.00    -0.299 OA
BRANCH   3   5
ATOM      5  C   UNL     1      29.530  17.682  28.074  1.00  0.00     0.072 C 
ATOM      6  C   UNL     1      28.943  17.653  29.481  1.00  0.00     0.012 C 
ENDBRANCH   3   5
ENDBRANCH   1   3
BRANCH   1   7
ATOM      7  C   UNL     1      27.145  20.551  27.153  1.00  0.00     0.038 C 
BRANCH   7   8
ATOM      8  C   UNL     1      27.329  21.459  28.339  1.00  0.00    -0.034 C 
ATOM      9  C   UNL     1      27.024  21.067  29.580  1.00  0.00     0.004 C 
ENDBRANCH   7   8
ENDBRANCH   1   7
TORSDOF 4
ENDMDL
MODEL 8
REMARK VINA RESULT:    -4.425     12.483     13.474
REMARK INTER + INTRA:          -5.861
REMARK INTER:                  -5.453
REMARK INTRA:                  -0.407
REMARK UNBOUND:                -0.401
REMARK SMILES C=CC[C@@H](C)C(=O)CC
REMARK SMILES IDX 4 1 5 2 6 3 7 4 8 5 9 6 3 7 2 8 1 9
REMARK H PARENT
REMARK Flexibility Score: inf
ROOT
ATOM      1  C   UNL     1      33.769  21.025  17.203  1.00  0.00     0.057 C 
ATOM      2  C   UNL     1      34.579  21.855  18.210  1.00  0.00     0.016 C 
ENDROOT
BRANCH   1   3
ATOM      3  C   UNL     1      34.660  19.984  16.560  1.00  0.00     0.135 C 
ATOM      4  O   UNL     1      35.660  20.336  15.950  1.00  0.00    -0.299 OA
BRANCH   3   5
ATOM      5  C   UNL     1      34.337  18.516  16.651  1.00  0.00     0.072 C 
ATOM      6  C   UNL     1      33.916  17.969  15.291  1.00  0.00     0.012 C 
ENDBRANCH   3   5
ENDBRANCH   1   3
BRANCH   1   7
ATOM      7  C   UNL     1      32.559  20.341  17.871  1.00  0.00     0.038 C 
BRANCH   7   8
ATOM      8  C   UNL     1      31.271  20.612  17.141  1.00  0.00    -0.034 C 
ATOM      9  C   UNL     1      31.256  21.114  15.902  1.00  0.00     0.004 C 
ENDBRANCH   7   8
ENDBRANCH   1   7
TORSDOF 4
ENDMDL
MODEL 9
REMARK VINA RESULT:    -4.313     12.678     13.697
REMARK INTER + INTRA:          -5.723
REMARK INTER:                  -5.373
REMARK INTRA:                  -0.350
REMARK UNBOUND:                -0.401
REMARK SMILES C=CC[C@@H](C)C(=O)CC
REMARK SMILES IDX 4 1 5 2 6 3 7 4 8 5 9 6 3 7 2 8 1 9
REMARK H PARENT
REMARK Flexibility Score: inf
ROOT
ATOM      1  C   UNL     1      33.582  19.037  15.747  1.00  0.00     0.057 C 
ATOM      2  C   UNL     1      34.247  17.737  15.272  1.00  0.00     0.016 C 
ENDROOT
BRANCH   1   3
ATOM      3  C   UNL     1      32.102  18.810  15.962  1.00  0.00     0.135 C 
ATOM      4  O   UNL     1      31.593  17.753  15.614  1.00  0.00    -0.299 OA
BRANCH   3   5
ATOM      5  C   UNL     1      31.234  19.865  16.596  1.00  0.00     0.072 C 
ATOM      6  C   UNL     1      31.127  21.091  15.694  1.00  0.00     0.012 C 
ENDBRANCH   3   5
ENDBRANCH   1   3
BRANCH   1   7
ATOM      7  C   UNL     1      34.227  19.566  17.045  1.00  0.00     0.038 C 
BRANCH   7   8
ATOM      8  C   UNL     1      34.873  20.913  16.858  1.00  0.00    -0.034 C 
ATOM      9  C   UNL     1      34.899  21.823  17.836  1.00  0.00     0.004 C 
ENDBRANCH   7   8
ENDBRANCH   1   7
TORSDOF 4
ENDMDL
