MODEL 1
REMARK VINA RESULT:    -4.715      0.000      0.000
REMARK INTER + INTRA:         -13.413
REMARK INTER:                 -10.779
REMARK INTRA:                  -2.634
REMARK UNBOUND:                -2.634
REMARK SMILES CCCCCCCCCCCCCCCCCCCCCCCC(=O)[O-]
REMARK SMILES IDX 13 1 14 2 15 3 16 4 17 5 18 6 19 7 20 8 21 9 22 10 23 11
REMARK SMILES IDX 24 12 25 13 26 14 12 15 11 16 10 17 9 18 8 19 7 20 6 21 5 22
REMARK SMILES IDX 4 23 3 24 2 25 1 26
REMARK H PARENT
REMARK Flexibility Score: inf
ROOT
ATOM      1  C   UNL     1     174.056 168.596 149.781  1.00  0.00     0.000 C 
ENDROOT
BRANCH   1   2
ATOM      2  C   UNL     1     174.366 167.123 149.469  1.00  0.00     0.000 C 
BRANCH   2   3
ATOM      3  C   UNL     1     174.010 166.222 150.658  1.00  0.00     0.000 C 
BRANCH   3   4
ATOM      4  C   UNL     1     175.012 165.065 150.790  1.00  0.00     0.000 C 
BRANCH   4   5
ATOM      5  C   UNL     1     174.329 163.722 151.092  1.00  0.00     0.000 C 
BRANCH   5   6
ATOM      6  C   UNL     1     175.060 162.913 152.179  1.00  0.00     0.000 C 
BRANCH   6   7
ATOM      7  C   UNL     1     175.996 161.844 151.575  1.00  0.00     0.000 C 
BRANCH   7   8
ATOM      8  C   UNL     1     175.610 161.420 150.147  1.00  0.00     0.000 C 
BRANCH   8   9
ATOM      9  C   UNL     1     175.138 159.959 150.066  1.00  0.00     0.000 C 
BRANCH   9  10
ATOM     10  C   UNL     1     173.609 159.829 150.147  1.00  0.00     0.006 C 
BRANCH  10  11
ATOM     11  C   UNL     1     173.139 159.216 151.474  1.00  0.00     0.053 C 
BRANCH  11  12
ATOM     12  C   UNL     1     172.192 158.085 151.221  1.00  0.00     0.041 C 
ATOM     13  O   UNL     1     172.071 157.159 152.066  1.00  0.00    -0.550 OA
ATOM     14  O   UNL     1     171.477 158.030 150.031  1.00  0.00    -0.550 OA
ENDBRANCH  11  12
ENDBRANCH  10  11
ENDBRANCH   9  10
ENDBRANCH   8   9
ENDBRANCH   7   8
ENDBRANCH   6   7
ENDBRANCH   5   6
ENDBRANCH   4   5
ENDBRANCH   3   4
ENDBRANCH   2   3
ENDBRANCH   1   2
BRANCH   1  15
ATOM     15  C   UNL     1     175.277 169.358 150.322  1.00  0.00     0.000 C 
BRANCH  15  16
ATOM     16  C   UNL     1     175.125 170.884 150.197  1.00  0.00     0.000 C 
BRANCH  16  17
ATOM     17  C   UNL     1     173.654 171.343 150.208  1.00  0.00     0.000 C 
BRANCH  17  18
ATOM     18  C   UNL     1     173.429 172.831 149.883  1.00  0.00    -0.000 C 
BRANCH  18  19
ATOM     19  C   UNL     1     174.435 173.757 150.587  1.00  0.00    -0.000 C 
BRANCH  19  20
ATOM     20  C   UNL     1     174.061 174.027 152.054  1.00  0.00    -0.000 C 
BRANCH  20  21
ATOM     21  C   UNL     1     175.291 174.254 152.948  1.00  0.00    -0.000 C 
BRANCH  21  22
ATOM     22  C   UNL     1     175.540 173.038 153.854  1.00  0.00    -0.000 C 
BRANCH  22  23
ATOM     23  C   UNL     1     174.340 172.075 153.914  1.00  0.00    -0.000 C 
BRANCH  23  24
ATOM     24  C   UNL     1     174.701 170.581 153.840  1.00  0.00    -0.000 C 
BRANCH  24  25
ATOM     25  C   UNL     1     173.495 169.690 153.506  1.00  0.00    -0.003 C 
ATOM     26  C   UNL     1     173.790 168.226 153.819  1.00  0.00     0.004 C 
ENDBRANCH  24  25
ENDBRANCH  23  24
ENDBRANCH  22  23
ENDBRANCH  21  22
ENDBRANCH  20  21
ENDBRANCH  19  20
ENDBRANCH  18  19
ENDBRANCH  17  18
ENDBRANCH  16  17
ENDBRANCH  15  16
ENDBRANCH   1  15
TORSDOF 22
ENDMDL
MODEL 2
REMARK VINA RESULT:    -4.624      3.517      5.467
REMARK INTER + INTRA:         -13.206
REMARK INTER:                  -8.734
REMARK INTRA:                  -4.472
REMARK UNBOUND:                -2.634
REMARK SMILES CCCCCCCCCCCCCCCCCCCCCCCC(=O)[O-]
REMARK SMILES IDX 13 1 14 2 15 3 16 4 17 5 18 6 19 7 20 8 21 9 22 10 23 11
REMARK SMILES IDX 24 12 25 13 26 14 12 15 11 16 10 17 9 18 8 19 7 20 6 21 5 22
REMARK SMILES IDX 4 23 3 24 2 25 1 26
REMARK H PARENT
REMARK Flexibility Score: inf
ROOT
ATOM      1  C   UNL     1     175.366 170.039 155.196  1.00  0.00     0.000 C 
ENDROOT
BRANCH   1   2
ATOM      2  C   UNL     1     174.142 169.451 154.476  1.00  0.00     0.000 C 
BRANCH   2   3
ATOM      3  C   UNL     1     174.546 168.281 153.570  1.00  0.00     0.000 C 
BRANCH   3   4
ATOM      4  C   UNL     1     175.383 168.773 152.379  1.00  0.00     0.000 C 
BRANCH   4   5
ATOM      5  C   UNL     1     174.720 169.940 151.631  1.00  0.00     0.000 C 
BRANCH   5   6
ATOM      6  C   UNL     1     174.436 169.617 150.153  1.00  0.00     0.000 C 
BRANCH   6   7
ATOM      7  C   UNL     1     174.568 168.108 149.854  1.00  0.00     0.000 C 
BRANCH   7   8
ATOM      8  C   UNL     1     173.473 167.564 148.921  1.00  0.00     0.000 C 
BRANCH   8   9
ATOM      9  C   UNL     1     172.302 166.923 149.683  1.00  0.00     0.000 C 
BRANCH   9  10
ATOM     10  C   UNL     1     172.708 166.435 151.083  1.00  0.00     0.006 C 
BRANCH  10  11
ATOM     11  C   UNL     1     173.261 165.002 151.071  1.00  0.00     0.053 C 
BRANCH  11  12
ATOM     12  C   UNL     1     174.406 164.876 152.026  1.00  0.00     0.041 C 
ATOM     13  O   UNL     1     175.591 164.867 151.598  1.00  0.00    -0.550 OA
ATOM     14  O   UNL     1     174.164 164.723 153.385  1.00  0.00    -0.550 OA
ENDBRANCH  11  12
ENDBRANCH  10  11
ENDBRANCH   9  10
ENDBRANCH   8   9
ENDBRANCH   7   8
ENDBRANCH   6   7
ENDBRANCH   5   6
ENDBRANCH   4   5
ENDBRANCH   3   4
ENDBRANCH   2   3
ENDBRANCH   1   2
BRANCH   1  15
ATOM     15  C   UNL     1     175.391 171.576 155.165  1.00  0.00     0.000 C 
BRANCH  15  16
ATOM     16  C   UNL     1     174.014 172.184 154.847  1.00  0.00     0.000 C 
BRANCH  16  17
ATOM     17  C   UNL     1     174.099 173.400 153.905  1.00  0.00     0.000 C 
BRANCH  17  18
ATOM     18  C   UNL     1     175.178 173.308 152.811  1.00  0.00    -0.000 C 
BRANCH  18  19
ATOM     19  C   UNL     1     174.889 174.219 151.606  1.00  0.00    -0.000 C 
BRANCH  19  20
ATOM     20  C   UNL     1     174.805 173.439 150.284  1.00  0.00    -0.000 C 
BRANCH  20  21
ATOM     21  C   UNL     1     173.357 173.209 149.822  1.00  0.00    -0.000 C 
BRANCH  21  22
ATOM     22  C   UNL     1     172.376 174.042 150.661  1.00  0.00    -0.000 C 
BRANCH  22  23
ATOM     23  C   UNL     1     171.092 173.275 151.027  1.00  0.00    -0.000 C 
BRANCH  23  24
ATOM     24  C   UNL     1     171.214 171.742 150.975  1.00  0.00    -0.000 C 
BRANCH  24  25
ATOM     25  C   UNL     1     171.419 171.111 152.360  1.00  0.00    -0.003 C 
ATOM     26  C   UNL     1     171.172 169.606 152.321  1.00  0.00     0.004 C 
ENDBRANCH  24  25
ENDBRANCH  23  24
ENDBRANCH  22  23
ENDBRANCH  21  22
ENDBRANCH  20  21
ENDBRANCH  19  20
ENDBRANCH  18  19
ENDBRANCH  17  18
ENDBRANCH  16  17
ENDBRANCH  15  16
ENDBRANCH   1  15
TORSDOF 22
ENDMDL
MODEL 3
REMARK VINA RESULT:    -4.617      0.941      2.065
REMARK INTER + INTRA:         -13.189
REMARK INTER:                 -10.192
REMARK INTRA:                  -2.997
REMARK UNBOUND:                -2.634
REMARK SMILES CCCCCCCCCCCCCCCCCCCCCCCC(=O)[O-]
REMARK SMILES IDX 13 1 14 2 15 3 16 4 17 5 18 6 19 7 20 8 21 9 22 10 23 11
REMARK SMILES IDX 24 12 25 13 26 14 12 15 11 16 10 17 9 18 8 19 7 20 6 21 5 22
REMARK SMILES IDX 4 23 3 24 2 25 1 26
REMARK H PARENT
REMARK Flexibility Score: inf
ROOT
ATOM      1  C   UNL     1     174.996 170.824 150.479  1.00  0.00     0.000 C 
ENDROOT
BRANCH   1   2
ATOM      2  C   UNL     1     175.251 169.350 150.128  1.00  0.00     0.000 C 
BRANCH   2   3
ATOM      3  C   UNL     1     173.939 168.629 149.795  1.00  0.00     0.000 C 
BRANCH   3   4
ATOM      4  C   UNL     1     174.180 167.129 149.564  1.00  0.00     0.000 C 
BRANCH   4   5
ATOM      5  C   UNL     1     174.566 166.386 150.852  1.00  0.00     0.000 C 
BRANCH   5   6
ATOM      6  C   UNL     1     174.272 164.877 150.780  1.00  0.00     0.000 C 
BRANCH   6   7
ATOM      7  C   UNL     1     175.345 164.041 151.511  1.00  0.00     0.000 C 
BRANCH   7   8
ATOM      8  C   UNL     1     175.560 162.644 150.905  1.00  0.00     0.000 C 
BRANCH   8   9
ATOM      9  C   UNL     1     174.413 161.672 151.222  1.00  0.00     0.000 C 
BRANCH   9  10
ATOM     10  C   UNL     1     173.967 160.865 149.992  1.00  0.00     0.006 C 
BRANCH  10  11
ATOM     11  C   UNL     1     174.211 159.358 150.154  1.00  0.00     0.053 C 
BRANCH  11  12
ATOM     12  C   UNL     1     172.984 158.685 150.685  1.00  0.00     0.041 C 
ATOM     13  O   UNL     1     172.999 158.148 151.824  1.00  0.00    -0.550 OA
ATOM     14  O   UNL     1     171.839 158.610 149.903  1.00  0.00    -0.550 OA
ENDBRANCH  11  12
ENDBRANCH  10  11
ENDBRANCH   9  10
ENDBRANCH   8   9
ENDBRANCH   7   8
ENDBRANCH   6   7
ENDBRANCH   5   6
ENDBRANCH   4   5
ENDBRANCH   3   4
ENDBRANCH   2   3
ENDBRANCH   1   2
BRANCH   1  15
ATOM     15  C   UNL     1     173.514 171.215 150.359  1.00  0.00     0.000 C 
BRANCH  15  16
ATOM     16  C   UNL     1     173.317 172.724 150.128  1.00  0.00     0.000 C 
BRANCH  16  17
ATOM     17  C   UNL     1     174.627 173.452 149.774  1.00  0.00     0.000 C 
BRANCH  17  18
ATOM     18  C   UNL     1     175.141 174.436 150.842  1.00  0.00    -0.000 C 
BRANCH  18  19
ATOM     19  C   UNL     1     174.514 174.199 152.226  1.00  0.00    -0.000 C 
BRANCH  19  20
ATOM     20  C   UNL     1     175.517 173.617 153.236  1.00  0.00    -0.000 C 
BRANCH  20  21
ATOM     21  C   UNL     1     174.981 172.368 153.953  1.00  0.00    -0.000 C 
BRANCH  21  22
ATOM     22  C   UNL     1     173.445 172.353 153.950  1.00  0.00    -0.000 C 
BRANCH  22  23
ATOM     23  C   UNL     1     172.856 170.930 153.956  1.00  0.00    -0.000 C 
BRANCH  23  24
ATOM     24  C   UNL     1     173.737 169.863 154.630  1.00  0.00    -0.000 C 
BRANCH  24  25
ATOM     25  C   UNL     1     174.120 168.718 153.682  1.00  0.00    -0.003 C 
ATOM     26  C   UNL     1     175.631 168.501 153.663  1.00  0.00     0.004 C 
ENDBRANCH  24  25
ENDBRANCH  23  24
ENDBRANCH  22  23
ENDBRANCH  21  22
ENDBRANCH  20  21
ENDBRANCH  19  20
ENDBRANCH  18  19
ENDBRANCH  17  18
ENDBRANCH  16  17
ENDBRANCH  15  16
ENDBRANCH   1  15
TORSDOF 22
ENDMDL
MODEL 4
REMARK VINA RESULT:    -4.609      5.699      8.134
REMARK INTER + INTRA:         -13.170
REMARK INTER:                  -8.927
REMARK INTRA:                  -4.243
REMARK UNBOUND:                -2.634
REMARK SMILES CCCCCCCCCCCCCCCCCCCCCCCC(=O)[O-]
REMARK SMILES IDX 13 1 14 2 15 3 16 4 17 5 18 6 19 7 20 8 21 9 22 10 23 11
REMARK SMILES IDX 24 12 25 13 26 14 12 15 11 16 10 17 9 18 8 19 7 20 6 21 5 22
REMARK SMILES IDX 4 23 3 24 2 25 1 26
REMARK H PARENT
REMARK Flexibility Score: inf
ROOT
ATOM      1  C   UNL     1     172.942 167.535 149.959  1.00  0.00     0.000 C 
ENDROOT
BRANCH   1   2
ATOM      2  C   UNL     1     172.746 166.369 150.942  1.00  0.00     0.000 C 
BRANCH   2   3
ATOM      3  C   UNL     1     174.089 165.718 151.296  1.00  0.00     0.000 C 
BRANCH   3   4
ATOM      4  C   UNL     1     174.617 166.244 152.640  1.00  0.00     0.000 C 
BRANCH   4   5
ATOM      5  C   UNL     1     173.520 166.906 153.489  1.00  0.00     0.000 C 
BRANCH   5   6
ATOM      6  C   UNL     1     173.871 168.349 153.894  1.00  0.00     0.000 C 
BRANCH   6   7
ATOM      7  C   UNL     1     172.616 169.168 154.265  1.00  0.00     0.000 C 
BRANCH   7   8
ATOM      8  C   UNL     1     171.988 169.911 153.074  1.00  0.00     0.000 C 
BRANCH   8   9
ATOM      9  C   UNL     1     170.929 170.940 153.502  1.00  0.00     0.000 C 
BRANCH   9  10
ATOM     10  C   UNL     1     171.238 172.354 152.985  1.00  0.00     0.006 C 
BRANCH  10  11
ATOM     11  C   UNL     1     170.356 172.752 151.793  1.00  0.00     0.053 C 
BRANCH  11  12
ATOM     12  C   UNL     1     170.034 174.213 151.847  1.00  0.00     0.041 C 
ATOM     13  O   UNL     1     168.943 174.605 152.341  1.00  0.00    -0.550 OA
ATOM     14  O   UNL     1     170.919 175.140 151.310  1.00  0.00    -0.550 OA
ENDBRANCH  11  12
ENDBRANCH  10  11
ENDBRANCH   9  10
ENDBRANCH   8   9
ENDBRANCH   7   8
ENDBRANCH   6   7
ENDBRANCH   5   6
ENDBRANCH   4   5
ENDBRANCH   3   4
ENDBRANCH   2   3
ENDBRANCH   1   2
BRANCH   1  15
ATOM     15  C   UNL     1     174.165 167.343 149.047  1.00  0.00     0.000 C 
BRANCH  15  16
ATOM     16  C   UNL     1     175.178 168.495 149.166  1.00  0.00     0.000 C 
BRANCH  16  17
ATOM     17  C   UNL     1     175.057 169.265 150.494  1.00  0.00     0.000 C 
BRANCH  17  18
ATOM     18  C   UNL     1     174.967 170.797 150.359  1.00  0.00    -0.000 C 
BRANCH  18  19
ATOM     19  C   UNL     1     173.527 171.296 150.151  1.00  0.00    -0.000 C 
BRANCH  19  20
ATOM     20  C   UNL     1     173.450 172.823 149.991  1.00  0.00    -0.000 C 
BRANCH  20  21
ATOM     21  C   UNL     1     174.832 173.471 149.808  1.00  0.00    -0.000 C 
BRANCH  21  22
ATOM     22  C   UNL     1     175.207 174.315 151.035  1.00  0.00    -0.000 C 
BRANCH  22  23
ATOM     23  C   UNL     1     174.176 174.214 152.175  1.00  0.00    -0.000 C 
BRANCH  23  24
ATOM     24  C   UNL     1     174.761 173.845 153.550  1.00  0.00    -0.000 C 
BRANCH  24  25
ATOM     25  C   UNL     1     174.989 172.336 153.717  1.00  0.00    -0.003 C 
ATOM     26  C   UNL     1     174.832 171.915 155.176  1.00  0.00     0.004 C 
ENDBRANCH  24  25
ENDBRANCH  23  24
ENDBRANCH  22  23
ENDBRANCH  21  22
ENDBRANCH  20  21
ENDBRANCH  19  20
ENDBRANCH  18  19
ENDBRANCH  17  18
ENDBRANCH  16  17
ENDBRANCH  15  16
ENDBRANCH   1  15
TORSDOF 22
ENDMDL
MODEL 5
REMARK VINA RESULT:    -4.598      4.944     10.817
REMARK INTER + INTRA:         -13.146
REMARK INTER:                 -10.642
REMARK INTRA:                  -2.504
REMARK UNBOUND:                -2.634
REMARK SMILES CCCCCCCCCCCCCCCCCCCCCCCC(=O)[O-]
REMARK SMILES IDX 13 1 14 2 15 3 16 4 17 5 18 6 19 7 20 8 21 9 22 10 23 11
REMARK SMILES IDX 24 12 25 13 26 14 12 15 11 16 10 17 9 18 8 19 7 20 6 21 5 22
REMARK SMILES IDX 4 23 3 24 2 25 1 26
REMARK H PARENT
REMARK Flexibility Score: inf
ROOT
ATOM      1  C   UNL     1     174.998 171.128 150.132  1.00  0.00     0.000 C 
ENDROOT
BRANCH   1   2
ATOM      2  C   UNL     1     173.634 171.830 150.034  1.00  0.00     0.000 C 
BRANCH   2   3
ATOM      3  C   UNL     1     173.806 173.334 149.788  1.00  0.00     0.000 C 
BRANCH   3   4
ATOM      4  C   UNL     1     175.125 173.842 150.392  1.00  0.00     0.000 C 
BRANCH   4   5
ATOM      5  C   UNL     1     174.935 174.478 151.778  1.00  0.00     0.000 C 
BRANCH   5   6
ATOM      6  C   UNL     1     175.375 173.549 152.925  1.00  0.00     0.000 C 
BRANCH   6   7
ATOM      7  C   UNL     1     174.193 172.741 153.502  1.00  0.00     0.000 C 
BRANCH   7   8
ATOM      8  C   UNL     1     172.956 173.597 153.824  1.00  0.00     0.000 C 
BRANCH   8   9
ATOM      9  C   UNL     1     171.707 173.160 153.041  1.00  0.00     0.000 C 
BRANCH   9  10
ATOM     10  C   UNL     1     171.192 174.256 152.095  1.00  0.00     0.006 C 
BRANCH  10  11
ATOM     11  C   UNL     1     170.305 173.698 150.973  1.00  0.00     0.053 C 
BRANCH  11  12
ATOM     12  C   UNL     1     168.901 174.195 151.119  1.00  0.00     0.041 C 
ATOM     13  O   UNL     1     168.141 174.252 150.117  1.00  0.00    -0.550 OA
ATOM     14  O   UNL     1     168.447 174.639 152.355  1.00  0.00    -0.550 OA
ENDBRANCH  11  12
ENDBRANCH  10  11
ENDBRANCH   9  10
ENDBRANCH   8   9
ENDBRANCH   7   8
ENDBRANCH   6   7
ENDBRANCH   5   6
ENDBRANCH   4   5
ENDBRANCH   3   4
ENDBRANCH   2   3
ENDBRANCH   1   2
BRANCH   1  15
ATOM     15  C   UNL     1     174.918 169.772 150.853  1.00  0.00     0.000 C 
BRANCH  15  16
ATOM     16  C   UNL     1     173.754 168.902 150.347  1.00  0.00     0.000 C 
BRANCH  16  17
ATOM     17  C   UNL     1     174.215 167.771 149.409  1.00  0.00     0.000 C 
BRANCH  17  18
ATOM     18  C   UNL     1     174.640 166.467 150.112  1.00  0.00    -0.000 C 
BRANCH  18  19
ATOM     19  C   UNL     1     173.451 165.690 150.700  1.00  0.00    -0.000 C 
BRANCH  19  20
ATOM     20  C   UNL     1     173.881 164.381 151.382  1.00  0.00    -0.000 C 
BRANCH  20  21
ATOM     21  C   UNL     1     175.399 164.304 151.614  1.00  0.00    -0.000 C 
BRANCH  21  22
ATOM     22  C   UNL     1     175.966 162.975 151.095  1.00  0.00    -0.000 C 
BRANCH  22  23
ATOM     23  C   UNL     1     174.891 162.061 150.478  1.00  0.00    -0.000 C 
BRANCH  23  24
ATOM     24  C   UNL     1     175.433 160.819 149.748  1.00  0.00    -0.000 C 
BRANCH  24  25
ATOM     25  C   UNL     1     174.665 159.537 150.099  1.00  0.00    -0.003 C 
ATOM     26  C   UNL     1     174.449 159.419 151.605  1.00  0.00     0.004 C 
ENDBRANCH  24  25
ENDBRANCH  23  24
ENDBRANCH  22  23
ENDBRANCH  21  22
ENDBRANCH  20  21
ENDBRANCH  19  20
ENDBRANCH  18  19
ENDBRANCH  17  18
ENDBRANCH  16  17
ENDBRANCH  15  16
ENDBRANCH   1  15
TORSDOF 22
ENDMDL
MODEL 6
REMARK VINA RESULT:    -4.595      4.389      7.704
REMARK INTER + INTRA:         -13.138
REMARK INTER:                  -8.858
REMARK INTRA:                  -4.281
REMARK UNBOUND:                -2.634
REMARK SMILES CCCCCCCCCCCCCCCCCCCCCCCC(=O)[O-]
REMARK SMILES IDX 13 1 14 2 15 3 16 4 17 5 18 6 19 7 20 8 21 9 22 10 23 11
REMARK SMILES IDX 24 12 25 13 26 14 12 15 11 16 10 17 9 18 8 19 7 20 6 21 5 22
REMARK SMILES IDX 4 23 3 24 2 25 1 26
REMARK H PARENT
REMARK Flexibility Score: inf
ROOT
ATOM      1  C   UNL     1     173.544 173.645 154.921  1.00  0.00     0.000 C 
ENDROOT
BRANCH   1   2
ATOM      2  C   UNL     1     174.572 173.538 153.783  1.00  0.00     0.000 C 
BRANCH   2   3
ATOM      3  C   UNL     1     173.976 174.030 152.457  1.00  0.00     0.000 C 
BRANCH   3   4
ATOM      4  C   UNL     1     175.083 174.305 151.427  1.00  0.00     0.000 C 
BRANCH   4   5
ATOM      5  C   UNL     1     174.899 173.500 150.131  1.00  0.00     0.000 C 
BRANCH   5   6
ATOM      6  C   UNL     1     173.536 172.787 150.062  1.00  0.00     0.000 C 
BRANCH   6   7
ATOM      7  C   UNL     1     173.685 171.251 150.027  1.00  0.00     0.000 C 
BRANCH   7   8
ATOM      8  C   UNL     1     175.088 170.757 150.420  1.00  0.00     0.000 C 
BRANCH   8   9
ATOM      9  C   UNL     1     175.401 169.353 149.879  1.00  0.00     0.000 C 
BRANCH   9  10
ATOM     10  C   UNL     1     174.144 168.476 149.757  1.00  0.00     0.006 C 
BRANCH  10  11
ATOM     11  C   UNL     1     174.419 167.002 150.086  1.00  0.00     0.053 C 
BRANCH  11  12
ATOM     12  C   UNL     1     174.215 166.746 151.547  1.00  0.00     0.041 C 
ATOM     13  O   UNL     1     175.199 166.747 152.334  1.00  0.00    -0.550 OA
ATOM     14  O   UNL     1     172.945 166.460 152.032  1.00  0.00    -0.550 OA
ENDBRANCH  11  12
ENDBRANCH  10  11
ENDBRANCH   9  10
ENDBRANCH   8   9
ENDBRANCH   7   8
ENDBRANCH   6   7
ENDBRANCH   5   6
ENDBRANCH   4   5
ENDBRANCH   3   4
ENDBRANCH   2   3
ENDBRANCH   1   2
BRANCH   1  15
ATOM     15  C   UNL     1     173.876 172.726 156.108  1.00  0.00     0.000 C 
BRANCH  15  16
ATOM     16  C   UNL     1     175.111 171.845 155.847  1.00  0.00     0.000 C 
BRANCH  16  17
ATOM     17  C   UNL     1     174.869 170.361 156.180  1.00  0.00     0.000 C 
BRANCH  17  18
ATOM     18  C   UNL     1     175.050 169.386 155.002  1.00  0.00    -0.000 C 
BRANCH  18  19
ATOM     19  C   UNL     1     174.355 169.863 153.716  1.00  0.00    -0.000 C 
BRANCH  19  20
ATOM     20  C   UNL     1     172.853 169.534 153.701  1.00  0.00    -0.000 C 
BRANCH  20  21
ATOM     21  C   UNL     1     171.983 170.749 153.341  1.00  0.00    -0.000 C 
BRANCH  21  22
ATOM     22  C   UNL     1     171.020 170.411 152.194  1.00  0.00    -0.000 C 
BRANCH  22  23
ATOM     23  C   UNL     1     170.080 171.576 151.832  1.00  0.00    -0.000 C 
BRANCH  23  24
ATOM     24  C   UNL     1     170.537 172.959 152.328  1.00  0.00    -0.000 C 
BRANCH  24  25
ATOM     25  C   UNL     1     170.346 174.064 151.279  1.00  0.00    -0.003 C 
ATOM     26  C   UNL     1     168.926 174.050 150.719  1.00  0.00     0.004 C 
ENDBRANCH  24  25
ENDBRANCH  23  24
ENDBRANCH  22  23
ENDBRANCH  21  22
ENDBRANCH  20  21
ENDBRANCH  19  20
ENDBRANCH  18  19
ENDBRANCH  17  18
ENDBRANCH  16  17
ENDBRANCH  15  16
ENDBRANCH   1  15
TORSDOF 22
ENDMDL
MODEL 7
REMARK VINA RESULT:    -4.583      6.205      9.706
REMARK INTER + INTRA:         -13.111
REMARK INTER:                  -8.758
REMARK INTRA:                  -4.352
REMARK UNBOUND:                -2.634
REMARK SMILES CCCCCCCCCCCCCCCCCCCCCCCC(=O)[O-]
REMARK SMILES IDX 13 1 14 2 15 3 16 4 17 5 18 6 19 7 20 8 21 9 22 10 23 11
REMARK SMILES IDX 24 12 25 13 26 14 12 15 11 16 10 17 9 18 8 19 7 20 6 21 5 22
REMARK SMILES IDX 4 23 3 24 2 25 1 26
REMARK H PARENT
REMARK Flexibility Score: inf
ROOT
ATOM      1  C   UNL     1     173.752 171.410 150.155  1.00  0.00     0.000 C 
ENDROOT
BRANCH   1   2
ATOM      2  C   UNL     1     173.327 172.884 150.050  1.00  0.00     0.000 C 
BRANCH   2   3
ATOM      3  C   UNL     1     174.449 173.814 150.529  1.00  0.00     0.000 C 
BRANCH   3   4
ATOM      4  C   UNL     1     174.205 174.268 151.977  1.00  0.00     0.000 C 
BRANCH   4   5
ATOM      5  C   UNL     1     175.382 173.936 152.907  1.00  0.00     0.000 C 
BRANCH   5   6
ATOM      6  C   UNL     1     175.169 172.631 153.695  1.00  0.00     0.000 C 
BRANCH   6   7
ATOM      7  C   UNL     1     173.691 172.427 154.091  1.00  0.00     0.000 C 
BRANCH   7   8
ATOM      8  C   UNL     1     173.118 171.065 153.662  1.00  0.00     0.000 C 
BRANCH   8   9
ATOM      9  C   UNL     1     171.623 171.131 153.308  1.00  0.00     0.000 C 
BRANCH   9  10
ATOM     10  C   UNL     1     171.106 172.574 153.200  1.00  0.00     0.006 C 
BRANCH  10  11
ATOM     11  C   UNL     1     170.246 172.801 151.948  1.00  0.00     0.053 C 
BRANCH  11  12
ATOM     12  C   UNL     1     169.891 174.249 151.813  1.00  0.00     0.041 C 
ATOM     13  O   UNL     1     168.821 174.688 152.311  1.00  0.00    -0.550 OA
ATOM     14  O   UNL     1     170.720 175.104 151.099  1.00  0.00    -0.550 OA
ENDBRANCH  11  12
ENDBRANCH  10  11
ENDBRANCH   9  10
ENDBRANCH   8   9
ENDBRANCH   7   8
ENDBRANCH   6   7
ENDBRANCH   5   6
ENDBRANCH   4   5
ENDBRANCH   3   4
ENDBRANCH   2   3
ENDBRANCH   1   2
BRANCH   1  15
ATOM     15  C   UNL     1     175.279 171.232 150.164  1.00  0.00     0.000 C 
BRANCH  15  16
ATOM     16  C   UNL     1     175.701 169.753 150.234  1.00  0.00     0.000 C 
BRANCH  16  17
ATOM     17  C   UNL     1     175.007 168.985 151.373  1.00  0.00     0.000 C 
BRANCH  17  18
ATOM     18  C   UNL     1     174.179 167.763 150.931  1.00  0.00    -0.000 C 
BRANCH  18  19
ATOM     19  C   UNL     1     174.598 167.222 149.554  1.00  0.00    -0.000 C 
BRANCH  19  20
ATOM     20  C   UNL     1     173.540 167.483 148.471  1.00  0.00    -0.000 C 
BRANCH  20  21
ATOM     21  C   UNL     1     172.302 168.214 149.015  1.00  0.00    -0.000 C 
BRANCH  21  22
ATOM     22  C   UNL     1     171.073 167.293 149.002  1.00  0.00    -0.000 C 
BRANCH  22  23
ATOM     23  C   UNL     1     170.584 166.920 150.413  1.00  0.00    -0.000 C 
BRANCH  23  24
ATOM     24  C   UNL     1     170.524 168.089 151.412  1.00  0.00    -0.000 C 
BRANCH  24  25
ATOM     25  C   UNL     1     169.419 169.102 151.080  1.00  0.00    -0.003 C 
ATOM     26  C   UNL     1     168.045 168.437 151.079  1.00  0.00     0.004 C 
ENDBRANCH  24  25
ENDBRANCH  23  24
ENDBRANCH  22  23
ENDBRANCH  21  22
ENDBRANCH  20  21
ENDBRANCH  19  20
ENDBRANCH  18  19
ENDBRANCH  17  18
ENDBRANCH  16  17
ENDBRANCH  15  16
ENDBRANCH   1  15
TORSDOF 22
ENDMDL
MODEL 8
REMARK VINA RESULT:    -4.542      4.584      9.903
REMARK INTER + INTRA:         -13.016
REMARK INTER:                  -9.614
REMARK INTRA:                  -3.403
REMARK UNBOUND:                -2.634
REMARK SMILES CCCCCCCCCCCCCCCCCCCCCCCC(=O)[O-]
REMARK SMILES IDX 13 1 14 2 15 3 16 4 17 5 18 6 19 7 20 8 21 9 22 10 23 11
REMARK SMILES IDX 24 12 25 13 26 14 12 15 11 16 10 17 9 18 8 19 7 20 6 21 5 22
REMARK SMILES IDX 4 23 3 24 2 25 1 26
REMARK H PARENT
REMARK Flexibility Score: inf
ROOT
ATOM      1  C   UNL     1     174.537 169.240 152.555  1.00  0.00     0.000 C 
ENDROOT
BRANCH   1   2
ATOM      2  C   UNL     1     174.450 170.226 153.731  1.00  0.00     0.000 C 
BRANCH   2   3
ATOM      3  C   UNL     1     173.219 171.131 153.599  1.00  0.00     0.000 C 
BRANCH   3   4
ATOM      4  C   UNL     1     173.558 172.579 153.989  1.00  0.00     0.000 C 
BRANCH   4   5
ATOM      5  C   UNL     1     175.062 172.794 154.215  1.00  0.00     0.000 C 
BRANCH   5   6
ATOM      6  C   UNL     1     175.690 173.743 153.178  1.00  0.00     0.000 C 
BRANCH   6   7
ATOM      7  C   UNL     1     174.648 174.271 152.169  1.00  0.00     0.000 C 
BRANCH   7   8
ATOM      8  C   UNL     1     174.949 173.888 150.710  1.00  0.00     0.000 C 
BRANCH   8   9
ATOM      9  C   UNL     1     173.694 173.463 149.932  1.00  0.00     0.000 C 
BRANCH   9  10
ATOM     10  C   UNL     1     172.396 173.955 150.594  1.00  0.00     0.006 C 
BRANCH  10  11
ATOM     11  C   UNL     1     171.384 172.823 150.819  1.00  0.00     0.053 C 
BRANCH  11  12
ATOM     12  C   UNL     1     170.039 173.385 151.158  1.00  0.00     0.041 C 
ATOM     13  O   UNL     1     169.009 172.666 151.066  1.00  0.00    -0.550 OA
ATOM     14  O   UNL     1     169.916 174.718 151.531  1.00  0.00    -0.550 OA
ENDBRANCH  11  12
ENDBRANCH  10  11
ENDBRANCH   9  10
ENDBRANCH   8   9
ENDBRANCH   7   8
ENDBRANCH   6   7
ENDBRANCH   5   6
ENDBRANCH   4   5
ENDBRANCH   3   4
ENDBRANCH   2   3
ENDBRANCH   1   2
BRANCH   1  15
ATOM     15  C   UNL     1     175.376 169.783 151.386  1.00  0.00     0.000 C 
BRANCH  15  16
ATOM     16  C   UNL     1     174.545 169.988 150.107  1.00  0.00     0.000 C 
BRANCH  16  17
ATOM     17  C   UNL     1     173.099 169.477 150.243  1.00  0.00     0.000 C 
BRANCH  17  18
ATOM     18  C   UNL     1     172.791 168.169 149.490  1.00  0.00    -0.000 C 
BRANCH  18  19
ATOM     19  C   UNL     1     174.038 167.540 148.847  1.00  0.00    -0.000 C 
BRANCH  19  20
ATOM     20  C   UNL     1     174.723 166.517 149.767  1.00  0.00    -0.000 C 
BRANCH  20  21
ATOM     21  C   UNL     1     173.733 165.797 150.696  1.00  0.00    -0.000 C 
BRANCH  21  22
ATOM     22  C   UNL     1     174.363 165.537 152.072  1.00  0.00    -0.000 C 
BRANCH  22  23
ATOM     23  C   UNL     1     175.085 164.180 152.159  1.00  0.00    -0.000 C 
BRANCH  23  24
ATOM     24  C   UNL     1     174.716 163.175 151.053  1.00  0.00    -0.000 C 
BRANCH  24  25
ATOM     25  C   UNL     1     175.810 162.125 150.810  1.00  0.00    -0.003 C 
ATOM     26  C   UNL     1     175.398 161.146 149.714  1.00  0.00     0.004 C 
ENDBRANCH  24  25
ENDBRANCH  23  24
ENDBRANCH  22  23
ENDBRANCH  21  22
ENDBRANCH  20  21
ENDBRANCH  19  20
ENDBRANCH  18  19
ENDBRANCH  17  18
ENDBRANCH  16  17
ENDBRANCH  15  16
ENDBRANCH   1  15
TORSDOF 22
ENDMDL
MODEL 9
REMARK VINA RESULT:    -4.539      1.693      3.259
REMARK INTER + INTRA:         -13.010
REMARK INTER:                 -10.300
REMARK INTRA:                  -2.710
REMARK UNBOUND:                -2.634
REMARK SMILES CCCCCCCCCCCCCCCCCCCCCCCC(=O)[O-]
REMARK SMILES IDX 13 1 14 2 15 3 16 4 17 5 18 6 19 7 20 8 21 9 22 10 23 11
REMARK SMILES IDX 24 12 25 13 26 14 12 15 11 16 10 17 9 18 8 19 7 20 6 21 5 22
REMARK SMILES IDX 4 23 3 24 2 25 1 26
REMARK H PARENT
REMARK Flexibility Score: inf
ROOT
ATOM      1  C   UNL     1     174.479 166.970 150.463  1.00  0.00     0.000 C 
ENDROOT
BRANCH   1   2
ATOM      2  C   UNL     1     174.690 165.450 150.541  1.00  0.00     0.000 C 
BRANCH   2   3
ATOM      3  C   UNL     1     173.495 164.762 151.214  1.00  0.00     0.000 C 
BRANCH   3   4
ATOM      4  C   UNL     1     173.844 163.319 151.612  1.00  0.00     0.000 C 
BRANCH   4   5
ATOM      5  C   UNL     1     175.352 163.034 151.540  1.00  0.00     0.000 C 
BRANCH   5   6
ATOM      6  C   UNL     1     175.696 161.891 150.567  1.00  0.00     0.000 C 
BRANCH   6   7
ATOM      7  C   UNL     1     174.434 161.287 149.913  1.00  0.00     0.000 C 
BRANCH   7   8
ATOM      8  C   UNL     1     174.269 159.778 150.165  1.00  0.00     0.000 C 
BRANCH   8   9
ATOM      9  C   UNL     1     174.323 159.413 151.657  1.00  0.00     0.000 C 
BRANCH   9  10
ATOM     10  C   UNL     1     173.016 159.749 152.394  1.00  0.00     0.006 C 
BRANCH  10  11
ATOM     11  C   UNL     1     172.789 158.862 153.626  1.00  0.00     0.053 C 
BRANCH  11  12
ATOM     12  C   UNL     1     171.578 158.004 153.436  1.00  0.00     0.041 C 
ATOM     13  O   UNL     1     171.678 156.881 152.875  1.00  0.00    -0.550 OA
ATOM     14  O   UNL     1     170.330 158.464 153.837  1.00  0.00    -0.550 OA
ENDBRANCH  11  12
ENDBRANCH  10  11
ENDBRANCH   9  10
ENDBRANCH   8   9
ENDBRANCH   7   8
ENDBRANCH   6   7
ENDBRANCH   5   6
ENDBRANCH   4   5
ENDBRANCH   3   4
ENDBRANCH   2   3
ENDBRANCH   1   2
BRANCH   1  15
ATOM     15  C   UNL     1     174.484 167.497 149.019  1.00  0.00     0.000 C 
BRANCH  15  16
ATOM     16  C   UNL     1     173.067 167.627 148.432  1.00  0.00     0.000 C 
BRANCH  16  17
ATOM     17  C   UNL     1     172.088 168.340 149.382  1.00  0.00     0.000 C 
BRANCH  17  18
ATOM     18  C   UNL     1     172.394 169.827 149.645  1.00  0.00    -0.000 C 
BRANCH  18  19
ATOM     19  C   UNL     1     172.668 170.129 151.128  1.00  0.00    -0.000 C 
BRANCH  19  20
ATOM     20  C   UNL     1     174.099 170.632 151.372  1.00  0.00    -0.000 C 
BRANCH  20  21
ATOM     21  C   UNL     1     174.769 171.160 150.093  1.00  0.00    -0.000 C 
BRANCH  21  22
ATOM     22  C   UNL     1     174.716 172.694 150.041  1.00  0.00    -0.000 C 
BRANCH  22  23
ATOM     23  C   UNL     1     174.597 173.342 151.433  1.00  0.00    -0.000 C 
BRANCH  23  24
ATOM     24  C   UNL     1     173.374 174.256 151.624  1.00  0.00    -0.000 C 
BRANCH  24  25
ATOM     25  C   UNL     1     172.381 174.177 150.455  1.00  0.00    -0.003 C 
ATOM     26  C   UNL     1     171.128 173.400 150.850  1.00  0.00     0.004 C 
ENDBRANCH  24  25
ENDBRANCH  23  24
ENDBRANCH  22  23
ENDBRANCH  21  22
ENDBRANCH  20  21
ENDBRANCH  19  20
ENDBRANCH  18  19
ENDBRANCH  17  18
ENDBRANCH  16  17
ENDBRANCH  15  16
ENDBRANCH   1  15
TORSDOF 22
ENDMDL
