MODEL 1
REMARK VINA RESULT:    -4.210      0.000      0.000
REMARK INTER + INTRA:          -5.169
REMARK INTER:                  -5.072
REMARK INTRA:                  -0.097
REMARK UNBOUND:                -0.097
REMARK SMILES CC[C@H](C)[C@@H]([NH3+])C(=O)[O-]
REMARK SMILES IDX 3 1 4 2 5 3 6 4 7 8 8 9 9 10 2 11 1 12
REMARK H PARENT 6 5 6 6 6 7
REMARK Flexibility Score: inf
ROOT
ATOM      1  C   UNL     1       3.802  44.606  11.194  1.00  0.00     0.050 C 
ATOM      2  C   UNL     1       2.846  43.879  12.158  1.00  0.00     0.014 C 
ENDROOT
BRANCH   1   3
ATOM      3  C   UNL     1       3.405  46.110  11.063  1.00  0.00     0.230 C 
BRANCH   3   4
ATOM      4  N   UNL     1       4.583  46.983  10.956  1.00  0.00    -0.350 N 
ATOM      5  H   UNL     1       4.376  47.954  11.277  1.00  0.00     0.345 HD
ATOM      6  H   UNL     1       5.355  46.599  11.548  1.00  0.00     0.345 HD
ATOM      7  H   UNL     1       4.919  47.012   9.966  1.00  0.00     0.345 HD
ENDBRANCH   3   4
BRANCH   3   8
ATOM      8  C   UNL     1       2.449  46.358   9.920  1.00  0.00     0.099 C 
ATOM      9  O   UNL     1       2.846  46.958   8.887  1.00  0.00    -0.544 OA
ATOM     10  O   UNL     1       1.120  45.961  10.011  1.00  0.00    -0.544 OA
ENDBRANCH   3   8
ENDBRANCH   1   3
BRANCH   1  11
ATOM     11  C   UNL     1       3.878  43.875   9.826  1.00  0.00     0.006 C 
ATOM     12  C   UNL     1       2.951  42.662   9.747  1.00  0.00     0.004 C 
ENDBRANCH   1  11
TORSDOF 4
ENDMDL
MODEL 2
REMARK VINA RESULT:    -4.201      1.620      2.332
REMARK INTER + INTRA:          -5.158
REMARK INTER:                  -5.062
REMARK INTRA:                  -0.096
REMARK UNBOUND:                -0.097
REMARK SMILES CC[C@H](C)[C@@H]([NH3+])C(=O)[O-]
REMARK SMILES IDX 3 1 4 2 5 3 6 4 7 8 8 9 9 10 2 11 1 12
REMARK H PARENT 6 5 6 6 6 7
REMARK Flexibility Score: inf
ROOT
ATOM      1  C   UNL     1       2.990  44.947  10.022  1.00  0.00     0.050 C 
ATOM      2  C   UNL     1       3.825  43.690   9.712  1.00  0.00     0.014 C 
ENDROOT
BRANCH   1   3
ATOM      3  C   UNL     1       3.896  46.069  10.619  1.00  0.00     0.230 C 
BRANCH   3   4
ATOM      4  N   UNL     1       4.931  45.526  11.511  1.00  0.00    -0.350 N 
ATOM      5  H   UNL     1       5.862  45.966  11.339  1.00  0.00     0.345 HD
ATOM      6  H   UNL     1       4.662  45.705  12.506  1.00  0.00     0.345 HD
ATOM      7  H   UNL     1       5.011  44.491  11.380  1.00  0.00     0.345 HD
ENDBRANCH   3   4
BRANCH   3   8
ATOM      8  C   UNL     1       4.514  46.942   9.553  1.00  0.00     0.099 C 
ATOM      9  O   UNL     1       5.708  47.328   9.668  1.00  0.00    -0.544 OA
ATOM     10  O   UNL     1       3.767  47.356   8.456  1.00  0.00    -0.544 OA
ENDBRANCH   3   8
ENDBRANCH   1   3
BRANCH   1  11
ATOM     11  C   UNL     1       1.774  44.603  10.923  1.00  0.00     0.006 C 
ATOM     12  C   UNL     1       2.017  43.380  11.809  1.00  0.00     0.004 C 
ENDBRANCH   1  11
TORSDOF 4
ENDMDL
MODEL 3
REMARK VINA RESULT:    -4.188      1.592      1.768
REMARK INTER + INTRA:          -5.142
REMARK INTER:                  -5.067
REMARK INTRA:                  -0.076
REMARK UNBOUND:                -0.097
REMARK SMILES CC[C@H](C)[C@@H]([NH3+])C(=O)[O-]
REMARK SMILES IDX 3 1 4 2 5 3 6 4 7 8 8 9 9 10 2 11 1 12
REMARK H PARENT 6 5 6 6 6 7
REMARK Flexibility Score: inf
ROOT
ATOM      1  C   UNL     1       3.277  43.505  11.503  1.00  0.00     0.050 C 
ATOM      2  C   UNL     1       1.770  43.231  11.662  1.00  0.00     0.014 C 
ENDROOT
BRANCH   1   3
ATOM      3  C   UNL     1       3.641  44.904  12.090  1.00  0.00     0.230 C 
BRANCH   3   4
ATOM      4  N   UNL     1       4.889  44.868  12.867  1.00  0.00    -0.350 N 
ATOM      5  H   UNL     1       4.792  44.288  13.730  1.00  0.00     0.345 HD
ATOM      6  H   UNL     1       5.652  44.459  12.280  1.00  0.00     0.345 HD
ATOM      7  H   UNL     1       5.174  45.838  13.135  1.00  0.00     0.345 HD
ENDBRANCH   3   4
BRANCH   3   8
ATOM      8  C   UNL     1       3.703  45.978  11.029  1.00  0.00     0.099 C 
ATOM      9  O   UNL     1       4.817  46.438  10.664  1.00  0.00    -0.544 OA
ATOM     10  O   UNL     1       2.537  46.490  10.472  1.00  0.00    -0.544 OA
ENDBRANCH   3   8
ENDBRANCH   1   3
BRANCH   1  11
ATOM     11  C   UNL     1       3.725  43.328  10.027  1.00  0.00     0.006 C 
ATOM     12  C   UNL     1       2.551  43.110   9.072  1.00  0.00     0.004 C 
ENDBRANCH   1  11
TORSDOF 4
ENDMDL
MODEL 4
REMARK VINA RESULT:    -4.181      2.032      2.336
REMARK INTER + INTRA:          -5.133
REMARK INTER:                  -5.047
REMARK INTRA:                  -0.086
REMARK UNBOUND:                -0.097
REMARK SMILES CC[C@H](C)[C@@H]([NH3+])C(=O)[O-]
REMARK SMILES IDX 3 1 4 2 5 3 6 4 7 8 8 9 9 10 2 11 1 12
REMARK H PARENT 6 5 6 6 6 7
REMARK Flexibility Score: inf
ROOT
ATOM      1  C   UNL     1       4.247  45.113  10.229  1.00  0.00     0.050 C 
ATOM      2  C   UNL     1       3.744  45.061  11.684  1.00  0.00     0.014 C 
ENDROOT
BRANCH   1   3
ATOM      3  C   UNL     1       3.690  46.378   9.505  1.00  0.00     0.230 C 
BRANCH   3   4
ATOM      4  N   UNL     1       2.610  47.020  10.269  1.00  0.00    -0.350 N 
ATOM      5  H   UNL     1       2.541  48.040  10.061  1.00  0.00     0.345 HD
ATOM      6  H   UNL     1       1.697  46.572  10.022  1.00  0.00     0.345 HD
ATOM      7  H   UNL     1       2.767  46.887  11.294  1.00  0.00     0.345 HD
ENDBRANCH   3   4
BRANCH   3   8
ATOM      8  C   UNL     1       4.773  47.376   9.169  1.00  0.00     0.099 C 
ATOM      9  O   UNL     1       5.869  47.347   9.789  1.00  0.00    -0.544 OA
ATOM     10  O   UNL     1       4.560  48.353   8.204  1.00  0.00    -0.544 OA
ENDBRANCH   3   8
ENDBRANCH   1   3
BRANCH   1  11
ATOM     11  C   UNL     1       3.927  43.792   9.479  1.00  0.00     0.006 C 
ATOM     12  C   UNL     1       2.916  42.917  10.221  1.00  0.00     0.004 C 
ENDBRANCH   1  11
TORSDOF 4
ENDMDL
MODEL 5
REMARK VINA RESULT:    -4.045      2.247      2.942
REMARK INTER + INTRA:          -4.969
REMARK INTER:                  -4.886
REMARK INTRA:                  -0.083
REMARK UNBOUND:                -0.097
REMARK SMILES CC[C@H](C)[C@@H]([NH3+])C(=O)[O-]
REMARK SMILES IDX 3 1 4 2 5 3 6 4 7 8 8 9 9 10 2 11 1 12
REMARK H PARENT 6 5 6 6 6 7
REMARK Flexibility Score: inf
ROOT
ATOM      1  C   UNL     1       3.901  45.433  11.211  1.00  0.00     0.050 C 
ATOM      2  C   UNL     1       4.442  44.803  12.508  1.00  0.00     0.014 C 
ENDROOT
BRANCH   1   3
ATOM      3  C   UNL     1       3.654  44.331  10.133  1.00  0.00     0.230 C 
BRANCH   3   4
ATOM      4  N   UNL     1       4.528  43.166  10.326  1.00  0.00    -0.350 N 
ATOM      5  H   UNL     1       5.064  43.226  11.219  1.00  0.00     0.345 HD
ATOM      6  H   UNL     1       3.948  42.296  10.349  1.00  0.00     0.345 HD
ATOM      7  H   UNL     1       5.199  43.083   9.528  1.00  0.00     0.345 HD
ENDBRANCH   3   4
BRANCH   3   8
ATOM      8  C   UNL     1       2.206  43.907  10.061  1.00  0.00     0.099 C 
ATOM      9  O   UNL     1       1.664  43.707   8.942  1.00  0.00    -0.544 OA
ATOM     10  O   UNL     1       1.451  43.768  11.220  1.00  0.00    -0.544 OA
ENDBRANCH   3   8
ENDBRANCH   1   3
BRANCH   1  11
ATOM     11  C   UNL     1       4.828  46.574  10.714  1.00  0.00     0.006 C 
ATOM     12  C   UNL     1       4.594  46.933   9.246  1.00  0.00     0.004 C 
ENDBRANCH   1  11
TORSDOF 4
ENDMDL
MODEL 6
REMARK VINA RESULT:    -4.010      2.131      3.443
REMARK INTER + INTRA:          -4.927
REMARK INTER:                  -4.874
REMARK INTRA:                  -0.054
REMARK UNBOUND:                -0.097
REMARK SMILES CC[C@H](C)[C@@H]([NH3+])C(=O)[O-]
REMARK SMILES IDX 3 1 4 2 5 3 6 4 7 8 8 9 9 10 2 11 1 12
REMARK H PARENT 6 5 6 6 6 7
REMARK Flexibility Score: inf
ROOT
ATOM      1  C   UNL     1       3.978  46.394  10.787  1.00  0.00     0.050 C 
ATOM      2  C   UNL     1       4.933  47.006   9.745  1.00  0.00     0.014 C 
ENDROOT
BRANCH   1   3
ATOM      3  C   UNL     1       4.469  44.974  11.210  1.00  0.00     0.230 C 
BRANCH   3   4
ATOM      4  N   UNL     1       4.395  44.777  12.664  1.00  0.00    -0.350 N 
ATOM      5  H   UNL     1       3.842  45.529  13.131  1.00  0.00     0.345 HD
ATOM      6  H   UNL     1       3.937  43.858  12.868  1.00  0.00     0.345 HD
ATOM      7  H   UNL     1       5.358  44.754  13.073  1.00  0.00     0.345 HD
ENDBRANCH   3   4
BRANCH   3   8
ATOM      8  C   UNL     1       3.738  43.870  10.483  1.00  0.00     0.099 C 
ATOM      9  O   UNL     1       2.849  43.205  11.078  1.00  0.00    -0.544 OA
ATOM     10  O   UNL     1       4.062  43.554   9.168  1.00  0.00    -0.544 OA
ENDBRANCH   3   8
ENDBRANCH   1   3
BRANCH   1  11
ATOM     11  C   UNL     1       2.512  46.404  10.276  1.00  0.00     0.006 C 
ATOM     12  C   UNL     1       2.317  47.296   9.048  1.00  0.00     0.004 C 
ENDBRANCH   1  11
TORSDOF 4
ENDMDL
MODEL 7
REMARK VINA RESULT:    -4.008      2.220      3.547
REMARK INTER + INTRA:          -4.925
REMARK INTER:                  -4.834
REMARK INTRA:                  -0.091
REMARK UNBOUND:                -0.097
REMARK SMILES CC[C@H](C)[C@@H]([NH3+])C(=O)[O-]
REMARK SMILES IDX 3 1 4 2 5 3 6 4 7 8 8 9 9 10 2 11 1 12
REMARK H PARENT 6 5 6 6 6 7
REMARK Flexibility Score: inf
ROOT
ATOM      1  C   UNL     1       4.150  46.979   9.596  1.00  0.00     0.050 C 
ATOM      2  C   UNL     1       5.631  47.369   9.427  1.00  0.00     0.014 C 
ENDROOT
BRANCH   1   3
ATOM      3  C   UNL     1       4.017  45.446   9.855  1.00  0.00     0.230 C 
BRANCH   3   4
ATOM      4  N   UNL     1       4.867  44.998  10.967  1.00  0.00    -0.350 N 
ATOM      5  H   UNL     1       5.805  44.680  10.635  1.00  0.00     0.345 HD
ATOM      6  H   UNL     1       5.008  45.789  11.637  1.00  0.00     0.345 HD
ATOM      7  H   UNL     1       4.402  44.217  11.484  1.00  0.00     0.345 HD
ENDBRANCH   3   4
BRANCH   3   8
ATOM      8  C   UNL     1       2.584  45.018  10.071  1.00  0.00     0.099 C 
ATOM      9  O   UNL     1       1.959  45.409  11.092  1.00  0.00    -0.544 OA
ATOM     10  O   UNL     1       1.956  44.167   9.170  1.00  0.00    -0.544 OA
ENDBRANCH   3   8
ENDBRANCH   1   3
BRANCH   1  11
ATOM     11  C   UNL     1       3.301  47.470   8.393  1.00  0.00     0.006 C 
ATOM     12  C   UNL     1       3.911  48.684   7.690  1.00  0.00     0.004 C 
ENDBRANCH   1  11
TORSDOF 4
ENDMDL
MODEL 8
REMARK VINA RESULT:    -3.982      1.314      2.105
REMARK INTER + INTRA:          -4.894
REMARK INTER:                  -4.772
REMARK INTRA:                  -0.122
REMARK UNBOUND:                -0.097
REMARK SMILES CC[C@H](C)[C@@H]([NH3+])C(=O)[O-]
REMARK SMILES IDX 3 1 4 2 5 3 6 4 7 8 8 9 9 10 2 11 1 12
REMARK H PARENT 6 5 6 6 6 7
REMARK Flexibility Score: inf
ROOT
ATOM      1  C   UNL     1       2.302  43.949  10.511  1.00  0.00     0.050 C 
ATOM      2  C   UNL     1       2.871  42.868   9.573  1.00  0.00     0.014 C 
ENDROOT
BRANCH   1   3
ATOM      3  C   UNL     1       2.832  45.359  10.102  1.00  0.00     0.230 C 
BRANCH   3   4
ATOM      4  N   UNL     1       3.840  45.281   9.035  1.00  0.00    -0.350 N 
ATOM      5  H   UNL     1       3.449  44.864   8.161  1.00  0.00     0.345 HD
ATOM      6  H   UNL     1       4.186  46.243   8.812  1.00  0.00     0.345 HD
ATOM      7  H   UNL     1       4.656  44.711   9.352  1.00  0.00     0.345 HD
ENDBRANCH   3   4
BRANCH   3   8
ATOM      8  C   UNL     1       1.719  46.306   9.717  1.00  0.00     0.099 C 
ATOM      9  O   UNL     1       1.992  47.465   9.306  1.00  0.00    -0.544 OA
ATOM     10  O   UNL     1       0.389  45.923   9.846  1.00  0.00    -0.544 OA
ENDBRANCH   3   8
ENDBRANCH   1   3
BRANCH   1  11
ATOM     11  C   UNL     1       2.581  43.603  11.998  1.00  0.00     0.006 C 
ATOM     12  C   UNL     1       3.828  44.298  12.547  1.00  0.00     0.004 C 
ENDBRANCH   1  11
TORSDOF 4
ENDMDL
MODEL 9
REMARK VINA RESULT:    -3.949      2.519      3.618
REMARK INTER + INTRA:          -4.854
REMARK INTER:                  -4.942
REMARK INTRA:                   0.089
REMARK UNBOUND:                -0.097
REMARK SMILES CC[C@H](C)[C@@H]([NH3+])C(=O)[O-]
REMARK SMILES IDX 3 1 4 2 5 3 6 4 7 8 8 9 9 10 2 11 1 12
REMARK H PARENT 6 5 6 6 6 7
REMARK Flexibility Score: inf
ROOT
ATOM      1  C   UNL     1       3.434  45.300   9.859  1.00  0.00     0.050 C 
ATOM      2  C   UNL     1       2.010  45.875   9.980  1.00  0.00     0.014 C 
ENDROOT
BRANCH   1   3
ATOM      3  C   UNL     1       3.479  43.839  10.406  1.00  0.00     0.230 C 
BRANCH   3   4
ATOM      4  N   UNL     1       4.809  43.233  10.251  1.00  0.00    -0.350 N 
ATOM      5  H   UNL     1       5.311  43.608   9.416  1.00  0.00     0.345 HD
ATOM      6  H   UNL     1       5.385  43.436  11.100  1.00  0.00     0.345 HD
ATOM      7  H   UNL     1       4.723  42.194  10.162  1.00  0.00     0.345 HD
ENDBRANCH   3   4
BRANCH   3   8
ATOM      8  C   UNL     1       3.012  43.743  11.840  1.00  0.00     0.099 C 
ATOM      9  O   UNL     1       1.890  43.235  12.104  1.00  0.00    -0.544 OA
ATOM     10  O   UNL     1       3.795  44.244  12.874  1.00  0.00    -0.544 OA
ENDBRANCH   3   8
ENDBRANCH   1   3
BRANCH   1  11
ATOM     11  C   UNL     1       4.474  46.234  10.533  1.00  0.00     0.006 C 
ATOM     12  C   UNL     1       5.207  47.128   9.531  1.00  0.00     0.004 C 
ENDBRANCH   1  11
TORSDOF 4
ENDMDL
