MODEL 1
REMARK VINA RESULT:    -4.072      0.000      0.000
REMARK INTER + INTRA:          -4.994
REMARK INTER:                  -4.905
REMARK INTRA:                  -0.088
REMARK UNBOUND:                -0.088
REMARK SMILES CC[C@H](C)[C@@H]([NH3+])C(=O)[O-]
REMARK SMILES IDX 3 1 4 2 5 3 6 4 7 8 8 9 9 10 2 11 1 12
REMARK H PARENT 6 5 6 6 6 7
REMARK Flexibility Score: inf
ROOT
ATOM      1  C   UNL     1      61.084  12.398  28.812  1.00  0.00     0.050 C 
ATOM      2  C   UNL     1      61.498  12.841  27.398  1.00  0.00     0.014 C 
ENDROOT
BRANCH   1   3
ATOM      3  C   UNL     1      61.554  13.437  29.880  1.00  0.00     0.230 C 
BRANCH   3   4
ATOM      4  N   UNL     1      61.167  14.807  29.519  1.00  0.00    -0.350 N 
ATOM      5  H   UNL     1      60.400  15.159  30.135  1.00  0.00     0.345 HD
ATOM      6  H   UNL     1      60.855  14.838  28.522  1.00  0.00     0.345 HD
ATOM      7  H   UNL     1      61.994  15.441  29.620  1.00  0.00     0.345 HD
ENDBRANCH   3   4
BRANCH   3   8
ATOM      8  C   UNL     1      61.085  13.099  31.278  1.00  0.00     0.099 C 
ATOM      9  O   UNL     1      59.863  13.184  31.569  1.00  0.00    -0.544 OA
ATOM     10  O   UNL     1      61.990  12.707  32.258  1.00  0.00    -0.544 OA
ENDBRANCH   3   8
ENDBRANCH   1   3
BRANCH   1  11
ATOM     11  C   UNL     1      61.559  10.942  29.088  1.00  0.00     0.006 C 
ATOM     12  C   UNL     1      62.254  10.313  27.879  1.00  0.00     0.004 C 
ENDBRANCH   1  11
TORSDOF 4
ENDMDL
MODEL 2
REMARK VINA RESULT:    -3.965     15.499     16.247
REMARK INTER + INTRA:          -4.865
REMARK INTER:                  -4.763
REMARK INTRA:                  -0.102
REMARK UNBOUND:                -0.088
REMARK SMILES CC[C@H](C)[C@@H]([NH3+])C(=O)[O-]
REMARK SMILES IDX 3 1 4 2 5 3 6 4 7 8 8 9 9 10 2 11 1 12
REMARK H PARENT 6 5 6 6 6 7
REMARK Flexibility Score: inf
ROOT
ATOM      1  C   UNL     1      67.802  26.317  35.746  1.00  0.00     0.050 C 
ATOM      2  C   UNL     1      68.358  26.377  37.180  1.00  0.00     0.014 C 
ENDROOT
BRANCH   1   3
ATOM      3  C   UNL     1      66.252  26.130  35.758  1.00  0.00     0.230 C 
BRANCH   3   4
ATOM      4  N   UNL     1      65.810  25.290  36.879  1.00  0.00    -0.350 N 
ATOM      5  H   UNL     1      66.355  25.499  37.746  1.00  0.00     0.345 HD
ATOM      6  H   UNL     1      65.920  24.280  36.633  1.00  0.00     0.345 HD
ATOM      7  H   UNL     1      64.797  25.469  37.071  1.00  0.00     0.345 HD
ENDBRANCH   3   4
BRANCH   3   8
ATOM      8  C   UNL     1      65.499  27.442  35.743  1.00  0.00     0.099 C 
ATOM      9  O   UNL     1      66.091  28.503  35.410  1.00  0.00    -0.544 OA
ATOM     10  O   UNL     1      64.158  27.499  36.106  1.00  0.00    -0.544 OA
ENDBRANCH   3   8
ENDBRANCH   1   3
BRANCH   1  11
ATOM     11  C   UNL     1      68.566  25.249  34.910  1.00  0.00     0.006 C 
ATOM     12  C   UNL     1      69.125  24.118  35.775  1.00  0.00     0.004 C 
ENDBRANCH   1  11
TORSDOF 4
ENDMDL
MODEL 3
REMARK VINA RESULT:    -3.959      2.525      4.362
REMARK INTER + INTRA:          -4.858
REMARK INTER:                  -4.834
REMARK INTRA:                  -0.024
REMARK UNBOUND:                -0.088
REMARK SMILES CC[C@H](C)[C@@H]([NH3+])C(=O)[O-]
REMARK SMILES IDX 3 1 4 2 5 3 6 4 7 8 8 9 9 10 2 11 1 12
REMARK H PARENT 6 5 6 6 6 7
REMARK Flexibility Score: inf
ROOT
ATOM      1  C   UNL     1      59.780  13.362  32.354  1.00  0.00     0.050 C 
ATOM      2  C   UNL     1      60.902  12.860  33.279  1.00  0.00     0.014 C 
ENDROOT
BRANCH   1   3
ATOM      3  C   UNL     1      60.340  14.359  31.290  1.00  0.00     0.230 C 
BRANCH   3   4
ATOM      4  N   UNL     1      61.252  15.342  31.888  1.00  0.00    -0.350 N 
ATOM      5  H   UNL     1      61.810  14.919  32.664  1.00  0.00     0.345 HD
ATOM      6  H   UNL     1      60.709  16.157  32.253  1.00  0.00     0.345 HD
ATOM      7  H   UNL     1      61.914  15.694  31.157  1.00  0.00     0.345 HD
ENDBRANCH   3   4
BRANCH   3   8
ATOM      8  C   UNL     1      60.995  13.663  30.118  1.00  0.00     0.099 C 
ATOM      9  O   UNL     1      61.633  14.335  29.265  1.00  0.00    -0.544 OA
ATOM     10  O   UNL     1      60.892  12.286  29.958  1.00  0.00    -0.544 OA
ENDBRANCH   3   8
ENDBRANCH   1   3
BRANCH   1  11
ATOM     11  C   UNL     1      58.594  13.925  33.192  1.00  0.00     0.006 C 
ATOM     12  C   UNL     1      57.257  13.826  32.455  1.00  0.00     0.004 C 
ENDBRANCH   1  11
TORSDOF 4
ENDMDL
MODEL 4
REMARK VINA RESULT:    -3.922      2.776      4.218
REMARK INTER + INTRA:          -4.812
REMARK INTER:                  -4.894
REMARK INTRA:                   0.082
REMARK UNBOUND:                -0.088
REMARK SMILES CC[C@H](C)[C@@H]([NH3+])C(=O)[O-]
REMARK SMILES IDX 3 1 4 2 5 3 6 4 7 8 8 9 9 10 2 11 1 12
REMARK H PARENT 6 5 6 6 6 7
REMARK Flexibility Score: inf
ROOT
ATOM      1  C   UNL     1      59.042  13.843  32.906  1.00  0.00     0.050 C 
ATOM      2  C   UNL     1      57.569  13.930  32.470  1.00  0.00     0.014 C 
ENDROOT
BRANCH   1   3
ATOM      3  C   UNL     1      59.985  14.413  31.798  1.00  0.00     0.230 C 
BRANCH   3   4
ATOM      4  N   UNL     1      60.720  15.597  32.260  1.00  0.00    -0.350 N 
ATOM      5  H   UNL     1      60.636  16.385  31.579  1.00  0.00     0.345 HD
ATOM      6  H   UNL     1      61.729  15.361  32.397  1.00  0.00     0.345 HD
ATOM      7  H   UNL     1      60.333  15.911  33.181  1.00  0.00     0.345 HD
ENDBRANCH   3   4
BRANCH   3   8
ATOM      8  C   UNL     1      60.936  13.376  31.242  1.00  0.00     0.099 C 
ATOM      9  O   UNL     1      60.659  12.783  30.165  1.00  0.00    -0.544 OA
ATOM     10  O   UNL     1      62.110  13.055  31.911  1.00  0.00    -0.544 OA
ENDBRANCH   3   8
ENDBRANCH   1   3
BRANCH   1  11
ATOM     11  C   UNL     1      59.393  12.396  33.358  1.00  0.00     0.006 C 
ATOM     12  C   UNL     1      58.148  11.541  33.604  1.00  0.00     0.004 C 
ENDBRANCH   1  11
TORSDOF 4
ENDMDL
MODEL 5
REMARK VINA RESULT:    -3.907      3.469      4.085
REMARK INTER + INTRA:          -4.795
REMARK INTER:                  -4.657
REMARK INTRA:                  -0.137
REMARK UNBOUND:                -0.088
REMARK SMILES CC[C@H](C)[C@@H]([NH3+])C(=O)[O-]
REMARK SMILES IDX 3 1 4 2 5 3 6 4 7 8 8 9 9 10 2 11 1 12
REMARK H PARENT 6 5 6 6 6 7
REMARK Flexibility Score: inf
ROOT
ATOM      1  C   UNL     1      60.539  13.076  31.998  1.00  0.00     0.050 C 
ATOM      2  C   UNL     1      61.229  14.115  31.097  1.00  0.00     0.014 C 
ENDROOT
BRANCH   1   3
ATOM      3  C   UNL     1      59.637  13.775  33.064  1.00  0.00     0.230 C 
BRANCH   3   4
ATOM      4  N   UNL     1      59.811  15.234  33.056  1.00  0.00    -0.350 N 
ATOM      5  H   UNL     1      59.749  15.617  32.086  1.00  0.00     0.345 HD
ATOM      6  H   UNL     1      60.737  15.485  33.472  1.00  0.00     0.345 HD
ATOM      7  H   UNL     1      59.063  15.678  33.639  1.00  0.00     0.345 HD
ENDBRANCH   3   4
BRANCH   3   8
ATOM      8  C   UNL     1      58.175  13.410  32.932  1.00  0.00     0.099 C 
ATOM      9  O   UNL     1      57.496  13.872  31.978  1.00  0.00    -0.544 OA
ATOM     10  O   UNL     1      57.562  12.578  33.862  1.00  0.00    -0.544 OA
ENDBRANCH   3   8
ENDBRANCH   1   3
BRANCH   1  11
ATOM     11  C   UNL     1      61.587  12.093  32.597  1.00  0.00     0.006 C 
ATOM     12  C   UNL     1      61.425  11.913  34.107  1.00  0.00     0.004 C 
ENDBRANCH   1  11
TORSDOF 4
ENDMDL
MODEL 6
REMARK VINA RESULT:    -3.762      2.006      2.793
REMARK INTER + INTRA:          -4.620
REMARK INTER:                  -4.619
REMARK INTRA:                  -0.002
REMARK UNBOUND:                -0.088
REMARK SMILES CC[C@H](C)[C@@H]([NH3+])C(=O)[O-]
REMARK SMILES IDX 3 1 4 2 5 3 6 4 7 8 8 9 9 10 2 11 1 12
REMARK H PARENT 6 5 6 6 6 7
REMARK Flexibility Score: inf
ROOT
ATOM      1  C   UNL     1      61.672  12.962  31.494  1.00  0.00     0.050 C 
ATOM      2  C   UNL     1      61.288  12.149  32.743  1.00  0.00     0.014 C 
ENDROOT
BRANCH   1   3
ATOM      3  C   UNL     1      60.992  14.368  31.514  1.00  0.00     0.230 C 
BRANCH   3   4
ATOM      4  N   UNL     1      60.907  14.953  30.169  1.00  0.00    -0.350 N 
ATOM      5  H   UNL     1      60.058  15.556  30.071  1.00  0.00     0.345 HD
ATOM      6  H   UNL     1      60.881  14.195  29.450  1.00  0.00     0.345 HD
ATOM      7  H   UNL     1      61.755  15.541  29.990  1.00  0.00     0.345 HD
ENDBRANCH   3   4
BRANCH   3   8
ATOM      8  C   UNL     1      59.634  14.358  32.181  1.00  0.00     0.099 C 
ATOM      9  O   UNL     1      58.665  13.778  31.623  1.00  0.00    -0.544 OA
ATOM     10  O   UNL     1      59.434  14.995  33.399  1.00  0.00    -0.544 OA
ENDBRANCH   3   8
ENDBRANCH   1   3
BRANCH   1  11
ATOM     11  C   UNL     1      61.394  12.138  30.203  1.00  0.00     0.006 C 
ATOM     12  C   UNL     1      61.648  10.642  30.395  1.00  0.00     0.004 C 
ENDBRANCH   1  11
TORSDOF 4
ENDMDL
MODEL 7
REMARK VINA RESULT:    -3.631     10.862     11.815
REMARK INTER + INTRA:          -4.462
REMARK INTER:                  -4.320
REMARK INTRA:                  -0.142
REMARK UNBOUND:                -0.088
REMARK SMILES CC[C@H](C)[C@@H]([NH3+])C(=O)[O-]
REMARK SMILES IDX 3 1 4 2 5 3 6 4 7 8 8 9 9 10 2 11 1 12
REMARK H PARENT 6 5 6 6 6 7
REMARK Flexibility Score: inf
ROOT
ATOM      1  C   UNL     1      57.431  21.970  24.093  1.00  0.00     0.050 C 
ATOM      2  C   UNL     1      56.514  20.743  24.236  1.00  0.00     0.014 C 
ENDROOT
BRANCH   1   3
ATOM      3  C   UNL     1      58.908  21.605  24.449  1.00  0.00     0.230 C 
BRANCH   3   4
ATOM      4  N   UNL     1      59.014  20.261  25.033  1.00  0.00    -0.350 N 
ATOM      5  H   UNL     1      59.762  20.223  25.761  1.00  0.00     0.345 HD
ATOM      6  H   UNL     1      59.221  19.562  24.284  1.00  0.00     0.345 HD
ATOM      7  H   UNL     1      58.103  20.001  25.477  1.00  0.00     0.345 HD
ENDBRANCH   3   4
BRANCH   3   8
ATOM      8  C   UNL     1      59.853  21.757  23.278  1.00  0.00     0.099 C 
ATOM      9  O   UNL     1      60.603  20.800  22.948  1.00  0.00    -0.544 OA
ATOM     10  O   UNL     1      59.918  22.948  22.565  1.00  0.00    -0.544 OA
ENDBRANCH   3   8
ENDBRANCH   1   3
BRANCH   1  11
ATOM     11  C   UNL     1      56.861  23.174  24.896  1.00  0.00     0.006 C 
ATOM     12  C   UNL     1      57.941  23.914  25.687  1.00  0.00     0.004 C 
ENDBRANCH   1  11
TORSDOF 4
ENDMDL
MODEL 8
REMARK VINA RESULT:    -3.589      2.301      3.163
REMARK INTER + INTRA:          -4.412
REMARK INTER:                  -4.433
REMARK INTRA:                   0.022
REMARK UNBOUND:                -0.088
REMARK SMILES CC[C@H](C)[C@@H]([NH3+])C(=O)[O-]
REMARK SMILES IDX 3 1 4 2 5 3 6 4 7 8 8 9 9 10 2 11 1 12
REMARK H PARENT 6 5 6 6 6 7
REMARK Flexibility Score: inf
ROOT
ATOM      1  C   UNL     1      61.557  12.497  31.294  1.00  0.00     0.050 C 
ATOM      2  C   UNL     1      61.683  11.030  30.843  1.00  0.00     0.014 C 
ENDROOT
BRANCH   1   3
ATOM      3  C   UNL     1      60.551  12.630  32.481  1.00  0.00     0.230 C 
BRANCH   3   4
ATOM      4  N   UNL     1      61.235  12.621  33.781  1.00  0.00    -0.350 N 
ATOM      5  H   UNL     1      61.048  11.735  34.302  1.00  0.00     0.345 HD
ATOM      6  H   UNL     1      60.920  13.436  34.356  1.00  0.00     0.345 HD
ATOM      7  H   UNL     1      62.268  12.709  33.633  1.00  0.00     0.345 HD
ENDBRANCH   3   4
BRANCH   3   8
ATOM      8  C   UNL     1      59.650  13.838  32.359  1.00  0.00     0.099 C 
ATOM      9  O   UNL     1      60.045  14.961  32.770  1.00  0.00    -0.544 OA
ATOM     10  O   UNL     1      58.378  13.726  31.808  1.00  0.00    -0.544 OA
ENDBRANCH   3   8
ENDBRANCH   1   3
BRANCH   1  11
ATOM     11  C   UNL     1      61.234  13.414  30.079  1.00  0.00     0.006 C 
ATOM     12  C   UNL     1      61.322  12.672  28.744  1.00  0.00     0.004 C 
ENDBRANCH   1  11
TORSDOF 4
ENDMDL
MODEL 9
REMARK VINA RESULT:    -3.538     10.368     11.235
REMARK INTER + INTRA:          -4.351
REMARK INTER:                  -4.262
REMARK INTRA:                  -0.088
REMARK UNBOUND:                -0.088
REMARK SMILES CC[C@H](C)[C@@H]([NH3+])C(=O)[O-]
REMARK SMILES IDX 3 1 4 2 5 3 6 4 7 8 8 9 9 10 2 11 1 12
REMARK H PARENT 6 5 6 6 6 7
REMARK Flexibility Score: inf
ROOT
ATOM      1  C   UNL     1      57.224  21.493  24.661  1.00  0.00     0.050 C 
ATOM      2  C   UNL     1      55.780  21.700  24.171  1.00  0.00     0.014 C 
ENDROOT
BRANCH   1   3
ATOM      3  C   UNL     1      58.057  22.806  24.511  1.00  0.00     0.230 C 
BRANCH   3   4
ATOM      4  N   UNL     1      57.740  23.777  25.566  1.00  0.00    -0.350 N 
ATOM      5  H   UNL     1      56.873  24.314  25.340  1.00  0.00     0.345 HD
ATOM      6  H   UNL     1      58.538  24.442  25.691  1.00  0.00     0.345 HD
ATOM      7  H   UNL     1      57.593  23.274  26.472  1.00  0.00     0.345 HD
ENDBRANCH   3   4
BRANCH   3   8
ATOM      8  C   UNL     1      59.547  22.555  24.443  1.00  0.00     0.099 C 
ATOM      9  O   UNL     1      60.154  22.674  23.346  1.00  0.00    -0.544 OA
ATOM     10  O   UNL     1      60.259  22.179  25.576  1.00  0.00    -0.544 OA
ENDBRANCH   3   8
ENDBRANCH   1   3
BRANCH   1  11
ATOM     11  C   UNL     1      57.861  20.253  23.969  1.00  0.00     0.006 C 
ATOM     12  C   UNL     1      58.210  19.142  24.962  1.00  0.00     0.004 C 
ENDBRANCH   1  11
TORSDOF 4
ENDMDL
