MODEL 1
REMARK VINA RESULT:    -3.343      0.000      0.000
REMARK INTER + INTRA:          -3.878
REMARK INTER:                  -3.832
REMARK INTRA:                  -0.046
REMARK UNBOUND:                -0.046
REMARK SMILES CC(C)[C@@H]([NH3+])C(=O)[O-]
REMARK SMILES IDX 4 1 5 2 6 6 7 7 8 8 2 9 1 10 3 11
REMARK H PARENT 5 3 5 4 5 5
REMARK Flexibility Score: inf
ROOT
ATOM      1  C   UNL     1      24.893  19.186 -15.707  1.00  0.00     0.230 C 
ENDROOT
BRANCH   1   2
ATOM      2  N   UNL     1      23.587  19.183 -16.384  1.00  0.00    -0.350 N 
ATOM      3  H   UNL     1      22.811  19.297 -15.691  1.00  0.00     0.345 HD
ATOM      4  H   UNL     1      23.541  19.964 -17.079  1.00  0.00     0.345 HD
ATOM      5  H   UNL     1      23.457  18.291 -16.914  1.00  0.00     0.345 HD
ENDBRANCH   1   2
BRANCH   1   6
ATOM      6  C   UNL     1      25.471  17.792 -15.725  1.00  0.00     0.099 C 
ATOM      7  O   UNL     1      24.891  16.852 -15.119  1.00  0.00    -0.544 OA
ATOM      8  O   UNL     1      26.647  17.538 -16.420  1.00  0.00    -0.544 OA
ENDBRANCH   1   6
BRANCH   1   9
ATOM      9  C   UNL     1      25.881  20.205 -16.353  1.00  0.00     0.047 C 
ATOM     10  C   UNL     1      25.140  21.311 -17.124  1.00  0.00     0.014 C 
ATOM     11  C   UNL     1      26.788  20.852 -15.292  1.00  0.00     0.014 C 
ENDBRANCH   1   9
TORSDOF 3
ENDMDL
MODEL 2
REMARK VINA RESULT:    -3.211      1.705      2.255
REMARK INTER + INTRA:          -3.727
REMARK INTER:                  -3.681
REMARK INTRA:                  -0.046
REMARK UNBOUND:                -0.046
REMARK SMILES CC(C)[C@@H]([NH3+])C(=O)[O-]
REMARK SMILES IDX 4 1 5 2 6 6 7 7 8 8 2 9 1 10 3 11
REMARK H PARENT 5 3 5 4 5 5
REMARK Flexibility Score: inf
ROOT
ATOM      1  C   UNL     1      25.723  18.473 -16.878  1.00  0.00     0.230 C 
ENDROOT
BRANCH   1   2
ATOM      2  N   UNL     1      27.122  18.024 -16.824  1.00  0.00    -0.350 N 
ATOM      3  H   UNL     1      27.609  18.219 -17.729  1.00  0.00     0.345 HD
ATOM      4  H   UNL     1      27.629  18.516 -16.051  1.00  0.00     0.345 HD
ATOM      5  H   UNL     1      27.165  17.000 -16.616  1.00  0.00     0.345 HD
ENDBRANCH   1   2
BRANCH   1   6
ATOM      6  C   UNL     1      24.821  17.369 -16.382  1.00  0.00     0.099 C 
ATOM      7  O   UNL     1      23.917  16.901 -17.125  1.00  0.00    -0.544 OA
ATOM      8  O   UNL     1      24.991  16.857 -15.102  1.00  0.00    -0.544 OA
ENDBRANCH   1   6
BRANCH   1   9
ATOM      9  C   UNL     1      25.500  19.781 -16.059  1.00  0.00     0.047 C 
ATOM     10  C   UNL     1      26.830  20.455 -15.683  1.00  0.00     0.014 C 
ATOM     11  C   UNL     1      24.630  20.784 -16.837  1.00  0.00     0.014 C 
ENDBRANCH   1   9
TORSDOF 3
ENDMDL
MODEL 3
REMARK VINA RESULT:    -3.040      1.332      1.859
REMARK INTER + INTRA:          -3.530
REMARK INTER:                  -3.706
REMARK INTRA:                   0.176
REMARK UNBOUND:                -0.046
REMARK SMILES CC(C)[C@@H]([NH3+])C(=O)[O-]
REMARK SMILES IDX 4 1 5 2 6 6 7 7 8 8 2 9 1 10 3 11
REMARK H PARENT 5 3 5 4 5 5
REMARK Flexibility Score: inf
ROOT
ATOM      1  C   UNL     1      24.980  19.073 -16.153  1.00  0.00     0.230 C 
ENDROOT
BRANCH   1   2
ATOM      2  N   UNL     1      23.871  19.803 -16.783  1.00  0.00    -0.350 N 
ATOM      3  H   UNL     1      22.958  19.328 -16.592  1.00  0.00     0.345 HD
ATOM      4  H   UNL     1      23.829  20.783 -16.415  1.00  0.00     0.345 HD
ATOM      5  H   UNL     1      24.023  19.869 -17.816  1.00  0.00     0.345 HD
ENDBRANCH   1   2
BRANCH   1   6
ATOM      6  C   UNL     1      24.665  17.597 -16.136  1.00  0.00     0.099 C 
ATOM      7  O   UNL     1      24.107  17.052 -17.125  1.00  0.00    -0.544 OA
ATOM      8  O   UNL     1      24.998  16.829 -15.027  1.00  0.00    -0.544 OA
ENDBRANCH   1   6
BRANCH   1   9
ATOM      9  C   UNL     1      26.338  19.342 -16.873  1.00  0.00     0.047 C 
ATOM     10  C   UNL     1      27.062  20.567 -16.290  1.00  0.00     0.014 C 
ATOM     11  C   UNL     1      27.267  18.119 -16.785  1.00  0.00     0.014 C 
ENDBRANCH   1   9
TORSDOF 3
ENDMDL
MODEL 4
REMARK VINA RESULT:    -2.892      2.330      3.289
REMARK INTER + INTRA:          -3.361
REMARK INTER:                  -3.303
REMARK INTRA:                  -0.057
REMARK UNBOUND:                -0.046
REMARK SMILES CC(C)[C@@H]([NH3+])C(=O)[O-]
REMARK SMILES IDX 4 1 5 2 6 6 7 7 8 8 2 9 1 10 3 11
REMARK H PARENT 5 3 5 4 5 5
REMARK Flexibility Score: inf
ROOT
ATOM      1  C   UNL     1      25.029  19.501 -16.647  1.00  0.00     0.230 C 
ENDROOT
BRANCH   1   2
ATOM      2  N   UNL     1      23.608  19.256 -16.357  1.00  0.00    -0.350 N 
ATOM      3  H   UNL     1      23.393  18.233 -16.402  1.00  0.00     0.345 HD
ATOM      4  H   UNL     1      23.368  19.614 -15.403  1.00  0.00     0.345 HD
ATOM      5  H   UNL     1      23.007  19.772 -17.040  1.00  0.00     0.345 HD
ENDBRANCH   1   2
BRANCH   1   6
ATOM      6  C   UNL     1      25.405  20.886 -16.179  1.00  0.00     0.099 C 
ATOM      7  O   UNL     1      24.934  21.903 -16.753  1.00  0.00    -0.544 OA
ATOM      8  O   UNL     1      26.271  21.044 -15.104  1.00  0.00    -0.544 OA
ENDBRANCH   1   6
BRANCH   1   9
ATOM      9  C   UNL     1      25.950  18.426 -15.992  1.00  0.00     0.047 C 
ATOM     10  C   UNL     1      25.174  17.145 -15.639  1.00  0.00     0.014 C 
ATOM     11  C   UNL     1      27.127  18.063 -16.915  1.00  0.00     0.014 C 
ENDBRANCH   1   9
TORSDOF 3
ENDMDL
MODEL 5
REMARK VINA RESULT:    -2.753      2.338      2.799
REMARK INTER + INTRA:          -3.201
REMARK INTER:                  -3.151
REMARK INTRA:                  -0.050
REMARK UNBOUND:                -0.046
REMARK SMILES CC(C)[C@@H]([NH3+])C(=O)[O-]
REMARK SMILES IDX 4 1 5 2 6 6 7 7 8 8 2 9 1 10 3 11
REMARK H PARENT 5 3 5 4 5 5
REMARK Flexibility Score: inf
ROOT
ATOM      1  C   UNL     1      25.835  19.387 -15.976  1.00  0.00     0.230 C 
ENDROOT
BRANCH   1   2
ATOM      2  N   UNL     1      25.884  20.655 -15.232  1.00  0.00    -0.350 N 
ATOM      3  H   UNL     1      26.868  20.892 -14.967  1.00  0.00     0.345 HD
ATOM      4  H   UNL     1      25.492  21.431 -15.816  1.00  0.00     0.345 HD
ATOM      5  H   UNL     1      25.294  20.591 -14.370  1.00  0.00     0.345 HD
ENDBRANCH   1   2
BRANCH   1   6
ATOM      6  C   UNL     1      24.474  19.227 -16.606  1.00  0.00     0.099 C 
ATOM      7  O   UNL     1      23.855  20.230 -17.054  1.00  0.00    -0.544 OA
ATOM      8  O   UNL     1      23.898  17.966 -16.704  1.00  0.00    -0.544 OA
ENDBRANCH   1   6
BRANCH   1   9
ATOM      9  C   UNL     1      26.959  19.302 -17.053  1.00  0.00     0.047 C 
ATOM     10  C   UNL     1      28.089  20.311 -16.784  1.00  0.00     0.014 C 
ATOM     11  C   UNL     1      27.556  17.885 -17.125  1.00  0.00     0.014 C 
ENDBRANCH   1   9
TORSDOF 3
ENDMDL
MODEL 6
REMARK VINA RESULT:    -2.750     22.465     23.733
REMARK INTER + INTRA:          -3.198
REMARK INTER:                  -3.142
REMARK INTRA:                  -0.057
REMARK UNBOUND:                -0.046
REMARK SMILES CC(C)[C@@H]([NH3+])C(=O)[O-]
REMARK SMILES IDX 4 1 5 2 6 6 7 7 8 8 2 9 1 10 3 11
REMARK H PARENT 5 3 5 4 5 5
REMARK Flexibility Score: inf
ROOT
ATOM      1  C   UNL     1      11.622   3.329  -6.102  1.00  0.00     0.230 C 
ENDROOT
BRANCH   1   2
ATOM      2  N   UNL     1      13.001   3.375  -5.591  1.00  0.00    -0.350 N 
ATOM      3  H   UNL     1      13.030   3.819  -4.644  1.00  0.00     0.345 HD
ATOM      4  H   UNL     1      13.393   2.406  -5.526  1.00  0.00     0.345 HD
ATOM      5  H   UNL     1      13.612   3.910  -6.250  1.00  0.00     0.345 HD
ENDBRANCH   1   2
BRANCH   1   6
ATOM      6  C   UNL     1      11.635   3.504  -7.600  1.00  0.00     0.099 C 
ATOM      7  O   UNL     1      11.099   4.514  -8.129  1.00  0.00    -0.544 OA
ATOM      8  O   UNL     1      12.247   2.551  -8.405  1.00  0.00    -0.544 OA
ENDBRANCH   1   6
BRANCH   1   9
ATOM      9  C   UNL     1      10.898   2.006  -5.704  1.00  0.00     0.047 C 
ATOM     10  C   UNL     1      10.740   1.875  -4.179  1.00  0.00     0.014 C 
ATOM     11  C   UNL     1       9.511   1.909  -6.363  1.00  0.00     0.014 C 
ENDBRANCH   1   9
TORSDOF 3
ENDMDL
MODEL 7
REMARK VINA RESULT:    -2.738     22.972     23.950
REMARK INTER + INTRA:          -3.185
REMARK INTER:                  -3.129
REMARK INTRA:                  -0.056
REMARK UNBOUND:                -0.046
REMARK SMILES CC(C)[C@@H]([NH3+])C(=O)[O-]
REMARK SMILES IDX 4 1 5 2 6 6 7 7 8 8 2 9 1 10 3 11
REMARK H PARENT 5 3 5 4 5 5
REMARK Flexibility Score: inf
ROOT
ATOM      1  C   UNL     1      11.942   2.551  -5.720  1.00  0.00     0.230 C 
ENDROOT
BRANCH   1   2
ATOM      2  N   UNL     1      13.168   3.191  -6.221  1.00  0.00    -0.350 N 
ATOM      3  H   UNL     1      13.819   2.478  -6.624  1.00  0.00     0.345 HD
ATOM      4  H   UNL     1      12.932   3.894  -6.960  1.00  0.00     0.345 HD
ATOM      5  H   UNL     1      13.647   3.708  -5.448  1.00  0.00     0.345 HD
ENDBRANCH   1   2
BRANCH   1   6
ATOM      6  C   UNL     1      11.969   2.525  -4.212  1.00  0.00     0.099 C 
ATOM      7  O   UNL     1      10.957   2.875  -3.549  1.00  0.00    -0.544 OA
ATOM      8  O   UNL     1      13.114   2.105  -3.546  1.00  0.00    -0.544 OA
ENDBRANCH   1   6
BRANCH   1   9
ATOM      9  C   UNL     1      10.658   3.269  -6.239  1.00  0.00     0.047 C 
ATOM     10  C   UNL     1      10.981   4.300  -7.334  1.00  0.00     0.014 C 
ATOM     11  C   UNL     1       9.637   2.256  -6.787  1.00  0.00     0.014 C 
ENDBRANCH   1   9
TORSDOF 3
ENDMDL
MODEL 8
REMARK VINA RESULT:    -2.711     23.413     24.280
REMARK INTER + INTRA:          -3.153
REMARK INTER:                  -3.102
REMARK INTRA:                  -0.051
REMARK UNBOUND:                -0.046
REMARK SMILES CC(C)[C@@H]([NH3+])C(=O)[O-]
REMARK SMILES IDX 4 1 5 2 6 6 7 7 8 8 2 9 1 10 3 11
REMARK H PARENT 5 3 5 4 5 5
REMARK Flexibility Score: inf
ROOT
ATOM      1  C   UNL     1      11.711   3.377  -5.119  1.00  0.00     0.230 C 
ENDROOT
BRANCH   1   2
ATOM      2  N   UNL     1      13.010   3.375  -5.809  1.00  0.00    -0.350 N 
ATOM      3  H   UNL     1      12.886   3.200  -6.832  1.00  0.00     0.345 HD
ATOM      4  H   UNL     1      13.490   4.297  -5.676  1.00  0.00     0.345 HD
ATOM      5  H   UNL     1      13.635   2.642  -5.400  1.00  0.00     0.345 HD
ENDBRANCH   1   2
BRANCH   1   6
ATOM      6  C   UNL     1      10.603   3.242  -6.134  1.00  0.00     0.099 C 
ATOM      7  O   UNL     1      10.013   2.140  -6.292  1.00  0.00    -0.544 OA
ATOM      8  O   UNL     1      10.224   4.339  -6.898  1.00  0.00    -0.544 OA
ENDBRANCH   1   6
BRANCH   1   9
ATOM      9  C   UNL     1      11.621   2.249  -4.046  1.00  0.00     0.047 C 
ATOM     10  C   UNL     1      13.005   1.875  -3.489  1.00  0.00     0.014 C 
ATOM     11  C   UNL     1      10.705   2.661  -2.880  1.00  0.00     0.014 C 
ENDBRANCH   1   9
TORSDOF 3
ENDMDL
MODEL 9
REMARK VINA RESULT:    -1.842     22.502     23.296
REMARK INTER + INTRA:          -2.157
REMARK INTER:                  -2.092
REMARK INTRA:                  -0.065
REMARK UNBOUND:                -0.046
REMARK SMILES CC(C)[C@@H]([NH3+])C(=O)[O-]
REMARK SMILES IDX 4 1 5 2 6 6 7 7 8 8 2 9 1 10 3 11
REMARK H PARENT 5 3 5 4 5 5
REMARK Flexibility Score: inf
ROOT
ATOM      1  C   UNL     1      11.145   4.118  -7.062  1.00  0.00     0.230 C 
ENDROOT
BRANCH   1   2
ATOM      2  N   UNL     1      12.172   4.116  -8.115  1.00  0.00    -0.350 N 
ATOM      3  H   UNL     1      13.079   4.485  -7.748  1.00  0.00     0.345 HD
ATOM      4  H   UNL     1      12.319   3.142  -8.472  1.00  0.00     0.345 HD
ATOM      5  H   UNL     1      11.858   4.696  -8.926  1.00  0.00     0.345 HD
ENDBRANCH   1   2
BRANCH   1   6
ATOM      6  C   UNL     1       9.779   4.228  -7.692  1.00  0.00     0.099 C 
ATOM      7  O   UNL     1       8.875   3.399  -7.406  1.00  0.00    -0.544 OA
ATOM      8  O   UNL     1       9.509   5.255  -8.588  1.00  0.00    -0.544 OA
ENDBRANCH   1   6
BRANCH   1   9
ATOM      9  C   UNL     1      11.238   2.851  -6.156  1.00  0.00     0.047 C 
ATOM     10  C   UNL     1      12.345   1.891  -6.625  1.00  0.00     0.014 C 
ATOM     11  C   UNL     1      11.491   3.233  -4.688  1.00  0.00     0.014 C 
ENDBRANCH   1   9
TORSDOF 3
ENDMDL
