MODEL 1
REMARK VINA RESULT:    -5.042      0.000      0.000
REMARK INTER + INTRA:          -5.042
REMARK INTER:                  -5.042
REMARK INTRA:                   0.000
REMARK UNBOUND:                 0.000
REMARK SMILES C=C1CCC[C@@]2(C)C=C3OC(=O)C(C)=C3C[C@@H]12
REMARK SMILES IDX 14 1 13 2 15 3 16 4 17 5 2 6 1 7 3 8 4 9 5 10 6 11 8 12 9 13
REMARK SMILES IDX 10 14 11 15 12 16 7 17
REMARK H PARENT
REMARK Flexibility Score: inf
ROOT
ATOM      1  C   UNL     1      -5.458  92.439 -19.295  1.00  0.00     0.053 C 
ATOM      2  C   UNL     1      -4.524  92.084 -18.183  1.00  0.00     0.041 C 
ATOM      3  C   UNL     1      -4.853  91.870 -16.912  1.00  0.00     0.005 C 
ATOM      4  C   UNL     1      -6.201  91.896 -16.269  1.00  0.00     0.049 C 
ATOM      5  C   UNL     1      -6.039  92.046 -14.734  1.00  0.00     0.029 C 
ATOM      6  C   UNL     1      -7.390  91.853 -14.067  1.00  0.00    -0.073 C 
ATOM      7  C   UNL     1      -8.159  92.911 -13.769  1.00  0.00     0.008 C 
ATOM      8  C   UNL     1      -7.923  90.449 -13.894  1.00  0.00     0.031 C 
ATOM      9  C   UNL     1      -6.857  89.524 -13.297  1.00  0.00     0.005 C 
ATOM     10  C   UNL     1      -5.520  89.622 -14.048  1.00  0.00     0.012 C 
ATOM     11  C   UNL     1      -4.964  91.072 -14.111  1.00  0.00    -0.004 C 
ATOM     12  C   UNL     1      -3.677  91.047 -14.930  1.00  0.00     0.027 C 
ATOM     13  C   UNL     1      -3.677  91.394 -16.213  1.00  0.00     0.131 C 
ATOM     14  O   UNL     1      -2.593  91.340 -17.078  1.00  0.00    -0.423 OA
ATOM     15  C   UNL     1      -3.101  91.757 -18.303  1.00  0.00     0.339 C 
ATOM     16  O   UNL     1      -2.420  91.823 -19.359  1.00  0.00    -0.246 OA
ATOM     17  C   UNL     1      -4.586  91.566 -12.695  1.00  0.00     0.016 C 
ENDROOT
TORSDOF 0
ENDMDL
MODEL 2
REMARK VINA RESULT:    -4.931      5.956      8.302
REMARK INTER + INTRA:          -4.931
REMARK INTER:                  -4.931
REMARK INTRA:                   0.000
REMARK UNBOUND:                 0.000
REMARK SMILES C=C1CCC[C@@]2(C)C=C3OC(=O)C(C)=C3C[C@@H]12
REMARK SMILES IDX 14 1 13 2 15 3 16 4 17 5 2 6 1 7 3 8 4 9 5 10 6 11 8 12 9 13
REMARK SMILES IDX 10 14 11 15 12 16 7 17
REMARK H PARENT
REMARK Flexibility Score: inf
ROOT
ATOM      1  C   UNL     1      -7.129  89.046 -12.241  1.00  0.00     0.053 C 
ATOM      2  C   UNL     1      -6.389  88.995 -10.943  1.00  0.00     0.041 C 
ATOM      3  C   UNL     1      -6.157  87.912 -10.206  1.00  0.00     0.005 C 
ATOM      4  C   UNL     1      -6.532  86.491 -10.475  1.00  0.00     0.049 C 
ATOM      5  C   UNL     1      -6.466  85.680  -9.154  1.00  0.00     0.029 C 
ATOM      6  C   UNL     1      -6.632  84.203  -9.465  1.00  0.00    -0.073 C 
ATOM      7  C   UNL     1      -7.839  83.622  -9.388  1.00  0.00     0.008 C 
ATOM      8  C   UNL     1      -5.452  83.438 -10.018  1.00  0.00     0.031 C 
ATOM      9  C   UNL     1      -4.186  83.706  -9.197  1.00  0.00     0.005 C 
ATOM     10  C   UNL     1      -3.943  85.209  -8.985  1.00  0.00     0.012 C 
ATOM     11  C   UNL     1      -5.148  85.931  -8.321  1.00  0.00    -0.004 C 
ATOM     12  C   UNL     1      -4.812  87.416  -8.223  1.00  0.00     0.027 C 
ATOM     13  C   UNL     1      -5.272  88.281  -9.121  1.00  0.00     0.131 C 
ATOM     14  O   UNL     1      -4.975  89.636  -9.183  1.00  0.00    -0.423 OA
ATOM     15  C   UNL     1      -5.653  90.091 -10.309  1.00  0.00     0.339 C 
ATOM     16  O   UNL     1      -5.614  91.281 -10.717  1.00  0.00    -0.246 OA
ATOM     17  C   UNL     1      -5.352  85.421  -6.875  1.00  0.00     0.016 C 
ENDROOT
TORSDOF 0
ENDMDL
MODEL 3
REMARK VINA RESULT:    -4.827      3.498      5.917
REMARK INTER + INTRA:          -4.827
REMARK INTER:                  -4.827
REMARK INTRA:                   0.000
REMARK UNBOUND:                 0.000
REMARK SMILES C=C1CCC[C@@]2(C)C=C3OC(=O)C(C)=C3C[C@@H]12
REMARK SMILES IDX 14 1 13 2 15 3 16 4 17 5 2 6 1 7 3 8 4 9 5 10 6 11 8 12 9 13
REMARK SMILES IDX 10 14 11 15 12 16 7 17
REMARK H PARENT
REMARK Flexibility Score: inf
ROOT
ATOM      1  C   UNL     1      -3.624  94.886 -10.105  1.00  0.00     0.053 C 
ATOM      2  C   UNL     1      -4.237  93.550 -10.379  1.00  0.00     0.041 C 
ATOM      3  C   UNL     1      -4.508  93.033 -11.575  1.00  0.00     0.005 C 
ATOM      4  C   UNL     1      -4.258  93.610 -12.929  1.00  0.00     0.049 C 
ATOM      5  C   UNL     1      -5.139  92.878 -13.974  1.00  0.00     0.029 C 
ATOM      6  C   UNL     1      -4.726  93.312 -15.370  1.00  0.00    -0.073 C 
ATOM      7  C   UNL     1      -5.375  94.308 -15.993  1.00  0.00     0.008 C 
ATOM      8  C   UNL     1      -3.477  92.718 -15.978  1.00  0.00     0.031 C 
ATOM      9  C   UNL     1      -3.462  91.193 -15.830  1.00  0.00     0.005 C 
ATOM     10  C   UNL     1      -3.756  90.749 -14.389  1.00  0.00     0.012 C 
ATOM     11  C   UNL     1      -5.102  91.305 -13.845  1.00  0.00    -0.004 C 
ATOM     12  C   UNL     1      -5.248  90.850 -12.396  1.00  0.00     0.027 C 
ATOM     13  C   UNL     1      -4.940  91.663 -11.390  1.00  0.00     0.131 C 
ATOM     14  O   UNL     1      -4.957  91.342 -10.040  1.00  0.00    -0.423 OA
ATOM     15  C   UNL     1      -4.519  92.496  -9.400  1.00  0.00     0.339 C 
ATOM     16  O   UNL     1      -4.376  92.596  -8.154  1.00  0.00    -0.246 OA
ATOM     17  C   UNL     1      -6.291  90.698 -14.627  1.00  0.00     0.016 C 
ENDROOT
TORSDOF 0
ENDMDL
MODEL 4
REMARK VINA RESULT:    -4.747      6.832      9.054
REMARK INTER + INTRA:          -4.747
REMARK INTER:                  -4.747
REMARK INTRA:                   0.000
REMARK UNBOUND:                 0.000
REMARK SMILES C=C1CCC[C@@]2(C)C=C3OC(=O)C(C)=C3C[C@@H]12
REMARK SMILES IDX 14 1 13 2 15 3 16 4 17 5 2 6 1 7 3 8 4 9 5 10 6 11 8 12 9 13
REMARK SMILES IDX 10 14 11 15 12 16 7 17
REMARK H PARENT
REMARK Flexibility Score: inf
ROOT
ATOM      1  C   UNL     1      -5.012  82.959  -9.975  1.00  0.00     0.053 C 
ATOM      2  C   UNL     1      -4.231  84.047  -9.309  1.00  0.00     0.041 C 
ATOM      3  C   UNL     1      -4.561  85.334  -9.247  1.00  0.00     0.005 C 
ATOM      4  C   UNL     1      -5.775  86.023  -9.779  1.00  0.00     0.049 C 
ATOM      5  C   UNL     1      -5.505  87.547  -9.875  1.00  0.00     0.029 C 
ATOM      6  C   UNL     1      -6.802  88.266 -10.206  1.00  0.00    -0.073 C 
ATOM      7  C   UNL     1      -7.109  88.563 -11.478  1.00  0.00     0.008 C 
ATOM      8  C   UNL     1      -7.809  88.494  -9.103  1.00  0.00     0.031 C 
ATOM      9  C   UNL     1      -7.140  89.077  -7.855  1.00  0.00     0.005 C 
ATOM     10  C   UNL     1      -5.894  88.277  -7.440  1.00  0.00     0.012 C 
ATOM     11  C   UNL     1      -4.843  88.157  -8.578  1.00  0.00    -0.004 C 
ATOM     12  C   UNL     1      -3.693  87.294  -8.067  1.00  0.00     0.027 C 
ATOM     13  C   UNL     1      -3.618  86.003  -8.375  1.00  0.00     0.131 C 
ATOM     14  O   UNL     1      -2.669  85.103  -7.912  1.00  0.00    -0.423 OA
ATOM     15  C   UNL     1      -3.037  83.886  -8.475  1.00  0.00     0.339 C 
ATOM     16  O   UNL     1      -2.426  82.806  -8.272  1.00  0.00    -0.246 OA
ATOM     17  C   UNL     1      -4.249  89.546  -8.911  1.00  0.00     0.016 C 
ENDROOT
TORSDOF 0
ENDMDL
MODEL 5
REMARK VINA RESULT:    -4.710     11.185     13.478
REMARK INTER + INTRA:          -4.710
REMARK INTER:                  -4.710
REMARK INTRA:                   0.000
REMARK UNBOUND:                 0.000
REMARK SMILES C=C1CCC[C@@]2(C)C=C3OC(=O)C(C)=C3C[C@@H]12
REMARK SMILES IDX 14 1 13 2 15 3 16 4 17 5 2 6 1 7 3 8 4 9 5 10 6 11 8 12 9 13
REMARK SMILES IDX 10 14 11 15 12 16 7 17
REMARK H PARENT
REMARK Flexibility Score: inf
ROOT
ATOM      1  C   UNL     1     -13.339  87.652 -10.637  1.00  0.00     0.053 C 
ATOM      2  C   UNL     1     -14.062  86.715  -9.724  1.00  0.00     0.041 C 
ATOM      3  C   UNL     1     -13.774  85.432  -9.517  1.00  0.00     0.005 C 
ATOM      4  C   UNL     1     -12.671  84.608 -10.095  1.00  0.00     0.049 C 
ATOM      5  C   UNL     1     -13.009  83.103  -9.931  1.00  0.00     0.029 C 
ATOM      6  C   UNL     1     -11.797  82.273 -10.318  1.00  0.00    -0.073 C 
ATOM      7  C   UNL     1     -11.676  81.783 -11.562  1.00  0.00     0.008 C 
ATOM      8  C   UNL     1     -10.657  82.146  -9.334  1.00  0.00     0.031 C 
ATOM      9  C   UNL     1     -11.172  81.782  -7.937  1.00  0.00     0.005 C 
ATOM     10  C   UNL     1     -12.318  82.701  -7.486  1.00  0.00     0.012 C 
ATOM     11  C   UNL     1     -13.509  82.720  -8.484  1.00  0.00    -0.004 C 
ATOM     12  C   UNL     1     -14.547  83.709  -7.961  1.00  0.00     0.027 C 
ATOM     13  C   UNL     1     -14.614  84.946  -8.442  1.00  0.00     0.131 C 
ATOM     14  O   UNL     1     -15.457  85.955  -7.997  1.00  0.00    -0.423 OA
ATOM     15  C   UNL     1     -15.124  87.058  -8.775  1.00  0.00     0.339 C 
ATOM     16  O   UNL     1     -15.662  88.189  -8.654  1.00  0.00    -0.246 OA
ATOM     17  C   UNL     1     -14.195  81.334  -8.530  1.00  0.00     0.016 C 
ENDROOT
TORSDOF 0
ENDMDL
MODEL 6
REMARK VINA RESULT:    -4.621      3.339      5.291
REMARK INTER + INTRA:          -4.621
REMARK INTER:                  -4.621
REMARK INTRA:                   0.000
REMARK UNBOUND:                 0.000
REMARK SMILES C=C1CCC[C@@]2(C)C=C3OC(=O)C(C)=C3C[C@@H]12
REMARK SMILES IDX 14 1 13 2 15 3 16 4 17 5 2 6 1 7 3 8 4 9 5 10 6 11 8 12 9 13
REMARK SMILES IDX 10 14 11 15 12 16 7 17
REMARK H PARENT
REMARK Flexibility Score: inf
ROOT
ATOM      1  C   UNL     1      -4.731  93.576  -9.135  1.00  0.00     0.053 C 
ATOM      2  C   UNL     1      -4.466  93.347 -10.589  1.00  0.00     0.041 C 
ATOM      3  C   UNL     1      -5.012  92.406 -11.355  1.00  0.00     0.005 C 
ATOM      4  C   UNL     1      -6.026  91.370 -10.997  1.00  0.00     0.049 C 
ATOM      5  C   UNL     1      -6.007  90.239 -12.057  1.00  0.00     0.029 C 
ATOM      6  C   UNL     1      -7.179  89.304 -11.814  1.00  0.00    -0.073 C 
ATOM      7  C   UNL     1      -7.021  88.188 -11.085  1.00  0.00     0.008 C 
ATOM      8  C   UNL     1      -8.556  89.732 -12.266  1.00  0.00     0.031 C 
ATOM      9  C   UNL     1      -8.530  90.245 -13.709  1.00  0.00     0.005 C 
ATOM     10  C   UNL     1      -7.422  91.287 -13.931  1.00  0.00     0.012 C 
ATOM     11  C   UNL     1      -6.011  90.764 -13.546  1.00  0.00    -0.004 C 
ATOM     12  C   UNL     1      -5.015  91.903 -13.749  1.00  0.00     0.027 C 
ATOM     13  C   UNL     1      -4.606  92.644 -12.725  1.00  0.00     0.131 C 
ATOM     14  O   UNL     1      -3.768  93.749 -12.793  1.00  0.00    -0.423 OA
ATOM     15  C   UNL     1      -3.677  94.200 -11.481  1.00  0.00     0.339 C 
ATOM     16  O   UNL     1      -3.014  95.211 -11.133  1.00  0.00    -0.246 OA
ATOM     17  C   UNL     1      -5.583  89.619 -14.494  1.00  0.00     0.016 C 
ENDROOT
TORSDOF 0
ENDMDL
MODEL 7
REMARK VINA RESULT:    -4.615      1.635      2.002
REMARK INTER + INTRA:          -4.615
REMARK INTER:                  -4.615
REMARK INTRA:                   0.000
REMARK UNBOUND:                 0.000
REMARK SMILES C=C1CCC[C@@]2(C)C=C3OC(=O)C(C)=C3C[C@@H]12
REMARK SMILES IDX 14 1 13 2 15 3 16 4 17 5 2 6 1 7 3 8 4 9 5 10 6 11 8 12 9 13
REMARK SMILES IDX 10 14 11 15 12 16 7 17
REMARK H PARENT
REMARK Flexibility Score: inf
ROOT
ATOM      1  C   UNL     1      -7.917  94.203 -18.414  1.00  0.00     0.053 C 
ATOM      2  C   UNL     1      -6.683  93.388 -18.196  1.00  0.00     0.041 C 
ATOM      3  C   UNL     1      -6.351  92.734 -17.086  1.00  0.00     0.005 C 
ATOM      4  C   UNL     1      -7.106  92.611 -15.804  1.00  0.00     0.049 C 
ATOM      5  C   UNL     1      -6.141  92.159 -14.677  1.00  0.00     0.029 C 
ATOM      6  C   UNL     1      -6.946  91.825 -13.432  1.00  0.00    -0.073 C 
ATOM      7  C   UNL     1      -7.127  92.744 -12.471  1.00  0.00     0.008 C 
ATOM      8  C   UNL     1      -7.673  90.501 -13.369  1.00  0.00     0.031 C 
ATOM      9  C   UNL     1      -6.753  89.346 -13.777  1.00  0.00     0.005 C 
ATOM     10  C   UNL     1      -6.028  89.625 -15.104  1.00  0.00     0.012 C 
ATOM     11  C   UNL     1      -5.214  90.948 -15.084  1.00  0.00    -0.004 C 
ATOM     12  C   UNL     1      -4.598  91.143 -16.466  1.00  0.00     0.027 C 
ATOM     13  C   UNL     1      -5.166  91.948 -17.359  1.00  0.00     0.131 C 
ATOM     14  O   UNL     1      -4.747  92.148 -18.667  1.00  0.00    -0.423 OA
ATOM     15  C   UNL     1      -5.679  93.031 -19.202  1.00  0.00     0.339 C 
ATOM     16  O   UNL     1      -5.653  93.442 -20.390  1.00  0.00    -0.246 OA
ATOM     17  C   UNL     1      -4.040  90.843 -14.081  1.00  0.00     0.016 C 
ENDROOT
TORSDOF 0
ENDMDL
MODEL 8
REMARK VINA RESULT:    -4.523      4.061      6.540
REMARK INTER + INTRA:          -4.523
REMARK INTER:                  -4.523
REMARK INTRA:                   0.000
REMARK UNBOUND:                 0.000
REMARK SMILES C=C1CCC[C@@]2(C)C=C3OC(=O)C(C)=C3C[C@@H]12
REMARK SMILES IDX 14 1 13 2 15 3 16 4 17 5 2 6 1 7 3 8 4 9 5 10 6 11 8 12 9 13
REMARK SMILES IDX 10 14 11 15 12 16 7 17
REMARK H PARENT
REMARK Flexibility Score: inf
ROOT
ATOM      1  C   UNL     1      -7.416  86.891 -10.557  1.00  0.00     0.053 C 
ATOM      2  C   UNL     1      -6.571  88.077 -10.220  1.00  0.00     0.041 C 
ATOM      3  C   UNL     1      -6.225  89.063 -11.044  1.00  0.00     0.005 C 
ATOM      4  C   UNL     1      -6.596  89.267 -12.477  1.00  0.00     0.049 C 
ATOM      5  C   UNL     1      -5.609  90.271 -13.128  1.00  0.00     0.029 C 
ATOM      6  C   UNL     1      -6.114  90.643 -14.512  1.00  0.00    -0.073 C 
ATOM      7  C   UNL     1      -5.669  89.991 -15.597  1.00  0.00     0.008 C 
ATOM      8  C   UNL     1      -7.240  91.643 -14.631  1.00  0.00     0.031 C 
ATOM      9  C   UNL     1      -6.971  92.883 -13.772  1.00  0.00     0.005 C 
ATOM     10  C   UNL     1      -6.580  92.515 -12.332  1.00  0.00     0.012 C 
ATOM     11  C   UNL     1      -5.353  91.564 -12.260  1.00  0.00    -0.004 C 
ATOM     12  C   UNL     1      -5.106  91.224 -10.793  1.00  0.00     0.027 C 
ATOM     13  C   UNL     1      -5.546  90.083 -10.273  1.00  0.00     0.131 C 
ATOM     14  O   UNL     1      -5.451  89.696  -8.943  1.00  0.00    -0.423 OA
ATOM     15  C   UNL     1      -6.086  88.461  -8.892  1.00  0.00     0.339 C 
ATOM     16  O   UNL     1      -6.228  87.788  -7.838  1.00  0.00    -0.246 OA
ATOM     17  C   UNL     1      -4.084  92.283 -12.774  1.00  0.00     0.016 C 
ENDROOT
TORSDOF 0
ENDMDL
MODEL 9
REMARK VINA RESULT:    -4.498      5.905      8.432
REMARK INTER + INTRA:          -4.498
REMARK INTER:                  -4.498
REMARK INTRA:                   0.000
REMARK UNBOUND:                 0.000
REMARK SMILES C=C1CCC[C@@]2(C)C=C3OC(=O)C(C)=C3C[C@@H]12
REMARK SMILES IDX 14 1 13 2 15 3 16 4 17 5 2 6 1 7 3 8 4 9 5 10 6 11 8 12 9 13
REMARK SMILES IDX 10 14 11 15 12 16 7 17
REMARK H PARENT
REMARK Flexibility Score: inf
ROOT
ATOM      1  C   UNL     1      -2.066  86.719  -7.634  1.00  0.00     0.053 C 
ATOM      2  C   UNL     1      -3.325  86.296  -8.321  1.00  0.00     0.041 C 
ATOM      3  C   UNL     1      -4.287  87.096  -8.774  1.00  0.00     0.005 C 
ATOM      4  C   UNL     1      -4.362  88.587  -8.749  1.00  0.00     0.049 C 
ATOM      5  C   UNL     1      -5.832  89.035  -8.958  1.00  0.00     0.029 C 
ATOM      6  C   UNL     1      -5.874  90.541  -9.151  1.00  0.00    -0.073 C 
ATOM      7  C   UNL     1      -6.110  91.354  -8.110  1.00  0.00     0.008 C 
ATOM      8  C   UNL     1      -5.488  91.114 -10.495  1.00  0.00     0.031 C 
ATOM      9  C   UNL     1      -6.197  90.375 -11.635  1.00  0.00     0.005 C 
ATOM     10  C   UNL     1      -6.052  88.850 -11.514  1.00  0.00     0.012 C 
ATOM     11  C   UNL     1      -6.556  88.298 -10.152  1.00  0.00    -0.004 C 
ATOM     12  C   UNL     1      -6.301  86.793 -10.130  1.00  0.00     0.027 C 
ATOM     13  C   UNL     1      -5.237  86.290  -9.512  1.00  0.00     0.131 C 
ATOM     14  O   UNL     1      -4.858  84.955  -9.487  1.00  0.00    -0.423 OA
ATOM     15  C   UNL     1      -3.672  84.942  -8.760  1.00  0.00     0.339 C 
ATOM     16  O   UNL     1      -3.000  83.903  -8.535  1.00  0.00    -0.246 OA
ATOM     17  C   UNL     1      -8.085  88.495 -10.024  1.00  0.00     0.016 C 
ENDROOT
TORSDOF 0
ENDMDL
