MODEL 1
REMARK VINA RESULT:    -5.952      0.000      0.000
REMARK INTER + INTRA:          -7.852
REMARK INTER:                  -7.344
REMARK INTRA:                  -0.508
REMARK UNBOUND:                -0.508
REMARK SMILES CC(C)=CCC[C@H](C)c1ccc(C)cc1
REMARK SMILES IDX 6 1 7 2 8 3 9 4 13 5 12 6 11 7 14 8 10 9 15 10 5 11 4 12
REMARK SMILES IDX 2 13 1 14 3 15
REMARK H PARENT
REMARK Flexibility Score: inf
ROOT
ATOM      1  C   UNL     1       3.783   0.382  -2.984  1.00  0.00     0.012 C 
ENDROOT
BRANCH   1   2
ATOM      2  C   UNL     1       4.838  -0.677  -2.582  1.00  0.00     0.016 C 
ATOM      3  C   UNL     1       5.903  -0.901  -3.667  1.00  0.00     0.013 C 
BRANCH   2   4
ATOM      4  C   UNL     1       4.159  -1.990  -2.234  1.00  0.00    -0.045 A 
ATOM      5  C   UNL     1       2.192  -5.706  -1.242  1.00  0.00     0.044 C 
ATOM      6  C   UNL     1       2.886  -4.428  -1.612  1.00  0.00    -0.051 A 
ATOM      7  C   UNL     1       4.199  -4.188  -1.184  1.00  0.00     0.004 A 
ATOM      8  C   UNL     1       2.203  -3.436  -2.331  1.00  0.00     0.004 A 
ATOM      9  C   UNL     1       4.833  -2.982  -1.498  1.00  0.00     0.004 A 
ATOM     10  C   UNL     1       2.836  -2.230  -2.645  1.00  0.00     0.004 A 
ENDBRANCH   2   4
ENDBRANCH   1   2
BRANCH   1  11
ATOM     11  C   UNL     1       4.128   1.144  -4.278  1.00  0.00     0.028 C 
BRANCH  11  12
ATOM     12  C   UNL     1       4.800   2.471  -4.012  1.00  0.00    -0.028 C 
ATOM     13  C   UNL     1       4.117   3.631  -3.894  1.00  0.00    -0.080 C 
ATOM     14  C   UNL     1       2.616   3.682  -4.023  1.00  0.00     0.039 C 
ATOM     15  C   UNL     1       4.855   4.919  -3.634  1.00  0.00     0.039 C 
ENDBRANCH  11  12
ENDBRANCH   1  11
TORSDOF 4
ENDMDL
MODEL 2
REMARK VINA RESULT:    -5.898      1.215      1.606
REMARK INTER + INTRA:          -7.786
REMARK INTER:                  -7.083
REMARK INTRA:                  -0.703
REMARK UNBOUND:                -0.508
REMARK SMILES CC(C)=CCC[C@H](C)c1ccc(C)cc1
REMARK SMILES IDX 6 1 7 2 8 3 9 4 13 5 12 6 11 7 14 8 10 9 15 10 5 11 4 12
REMARK SMILES IDX 2 13 1 14 3 15
REMARK H PARENT
REMARK Flexibility Score: inf
ROOT
ATOM      1  C   UNL     1       3.398   1.459  -3.149  1.00  0.00     0.012 C 
ENDROOT
BRANCH   1   2
ATOM      2  C   UNL     1       4.390   0.332  -3.529  1.00  0.00     0.016 C 
ATOM      3  C   UNL     1       4.559   0.173  -5.047  1.00  0.00     0.013 C 
BRANCH   2   4
ATOM      4  C   UNL     1       3.954  -0.983  -2.907  1.00  0.00    -0.045 A 
ATOM      5  C   UNL     1       2.681  -4.711  -1.134  1.00  0.00     0.044 C 
ATOM      6  C   UNL     1       3.131  -3.431  -1.776  1.00  0.00    -0.051 A 
ATOM      7  C   UNL     1       4.453  -2.991  -1.622  1.00  0.00     0.004 A 
ATOM      8  C   UNL     1       2.216  -2.633  -2.477  1.00  0.00     0.004 A 
ATOM      9  C   UNL     1       4.864  -1.781  -2.188  1.00  0.00     0.004 A 
ATOM     10  C   UNL     1       2.626  -1.422  -3.043  1.00  0.00     0.004 A 
ENDBRANCH   2   4
ENDBRANCH   1   2
BRANCH   1  11
ATOM     11  C   UNL     1       3.372   2.628  -4.152  1.00  0.00     0.028 C 
BRANCH  11  12
ATOM     12  C   UNL     1       4.463   3.642  -3.893  1.00  0.00    -0.028 C 
ATOM     13  C   UNL     1       5.274   4.115  -4.864  1.00  0.00    -0.080 C 
ATOM     14  C   UNL     1       5.145   3.657  -6.295  1.00  0.00     0.039 C 
ATOM     15  C   UNL     1       6.345   5.122  -4.531  1.00  0.00     0.039 C 
ENDBRANCH  11  12
ENDBRANCH   1  11
TORSDOF 4
ENDMDL
MODEL 3
REMARK VINA RESULT:    -5.731      1.644      6.735
REMARK INTER + INTRA:          -7.579
REMARK INTER:                  -6.882
REMARK INTRA:                  -0.698
REMARK UNBOUND:                -0.508
REMARK SMILES CC(C)=CCC[C@H](C)c1ccc(C)cc1
REMARK SMILES IDX 6 1 7 2 8 3 9 4 13 5 12 6 11 7 14 8 10 9 15 10 5 11 4 12
REMARK SMILES IDX 2 13 1 14 3 15
REMARK H PARENT
REMARK Flexibility Score: inf
ROOT
ATOM      1  C   UNL     1       5.660  -0.782  -3.042  1.00  0.00     0.012 C 
ENDROOT
BRANCH   1   2
ATOM      2  C   UNL     1       4.356   0.049  -2.968  1.00  0.00     0.016 C 
ATOM      3  C   UNL     1       3.091  -0.816  -3.068  1.00  0.00     0.013 C 
BRANCH   2   4
ATOM      4  C   UNL     1       4.351   1.117  -4.048  1.00  0.00    -0.045 A 
ATOM      5  C   UNL     1       4.305   4.166  -7.107  1.00  0.00     0.044 C 
ATOM      6  C   UNL     1       4.348   3.118  -6.034  1.00  0.00    -0.051 A 
ATOM      7  C   UNL     1       4.952   1.877  -6.283  1.00  0.00     0.004 A 
ATOM      8  C   UNL     1       3.725   3.346  -4.799  1.00  0.00     0.004 A 
ATOM      9  C   UNL     1       4.960   0.887  -5.296  1.00  0.00     0.004 A 
ATOM     10  C   UNL     1       3.733   2.356  -3.812  1.00  0.00     0.004 A 
ENDBRANCH   2   4
ENDBRANCH   1   2
BRANCH   1  11
ATOM     11  C   UNL     1       5.489  -2.248  -2.599  1.00  0.00     0.028 C 
BRANCH  11  12
ATOM     12  C   UNL     1       5.834  -2.461  -1.143  1.00  0.00    -0.028 C 
ATOM     13  C   UNL     1       5.042  -3.150  -0.293  1.00  0.00    -0.080 C 
ATOM     14  C   UNL     1       3.741  -3.763  -0.744  1.00  0.00     0.039 C 
ATOM     15  C   UNL     1       5.448  -3.318   1.149  1.00  0.00     0.039 C 
ENDBRANCH  11  12
ENDBRANCH   1  11
TORSDOF 4
ENDMDL
MODEL 4
REMARK VINA RESULT:    -5.655      2.477      4.704
REMARK INTER + INTRA:          -7.485
REMARK INTER:                  -6.371
REMARK INTRA:                  -1.114
REMARK UNBOUND:                -0.508
REMARK SMILES CC(C)=CCC[C@H](C)c1ccc(C)cc1
REMARK SMILES IDX 6 1 7 2 8 3 9 4 13 5 12 6 11 7 14 8 10 9 15 10 5 11 4 12
REMARK SMILES IDX 2 13 1 14 3 15
REMARK H PARENT
REMARK Flexibility Score: inf
ROOT
ATOM      1  C   UNL     1       5.133   3.845  -5.070  1.00  0.00     0.012 C 
ENDROOT
BRANCH   1   2
ATOM      2  C   UNL     1       3.887   2.954  -4.839  1.00  0.00     0.016 C 
ATOM      3  C   UNL     1       2.808   3.646  -3.992  1.00  0.00     0.013 C 
BRANCH   2   4
ATOM      4  C   UNL     1       4.294   1.637  -4.201  1.00  0.00    -0.045 A 
ATOM      5  C   UNL     1       5.434  -2.098  -2.355  1.00  0.00     0.044 C 
ATOM      6  C   UNL     1       5.023  -0.816  -3.019  1.00  0.00    -0.051 A 
ATOM      7  C   UNL     1       5.855  -0.219  -3.976  1.00  0.00     0.004 A 
ATOM      8  C   UNL     1       3.838  -0.172  -2.637  1.00  0.00     0.004 A 
ATOM      9  C   UNL     1       5.491   0.994  -4.568  1.00  0.00     0.004 A 
ATOM     10  C   UNL     1       3.473   1.042  -3.228  1.00  0.00     0.004 A 
ENDBRANCH   2   4
ENDBRANCH   1   2
BRANCH   1  11
ATOM     11  C   UNL     1       5.382   4.192  -6.551  1.00  0.00     0.028 C 
BRANCH  11  12
ATOM     12  C   UNL     1       4.521   3.381  -7.492  1.00  0.00    -0.028 C 
ATOM     13  C   UNL     1       4.988   2.321  -8.187  1.00  0.00    -0.080 C 
ATOM     14  C   UNL     1       6.420   1.868  -8.070  1.00  0.00     0.039 C 
ATOM     15  C   UNL     1       4.072   1.562  -9.113  1.00  0.00     0.039 C 
ENDBRANCH  11  12
ENDBRANCH   1  11
TORSDOF 4
ENDMDL
MODEL 5
REMARK VINA RESULT:    -5.646      1.434      6.173
REMARK INTER + INTRA:          -7.474
REMARK INTER:                  -6.614
REMARK INTRA:                  -0.861
REMARK UNBOUND:                -0.508
REMARK SMILES CC(C)=CCC[C@H](C)c1ccc(C)cc1
REMARK SMILES IDX 6 1 7 2 8 3 9 4 13 5 12 6 11 7 14 8 10 9 15 10 5 11 4 12
REMARK SMILES IDX 2 13 1 14 3 15
REMARK H PARENT
REMARK Flexibility Score: inf
ROOT
ATOM      1  C   UNL     1       6.853  -1.777  -2.406  1.00  0.00     0.012 C 
ENDROOT
BRANCH   1   2
ATOM      2  C   UNL     1       6.152  -1.621  -3.778  1.00  0.00     0.016 C 
ATOM      3  C   UNL     1       7.135  -1.653  -4.958  1.00  0.00     0.013 C 
BRANCH   2   4
ATOM      4  C   UNL     1       5.335  -0.341  -3.809  1.00  0.00    -0.045 A 
ATOM      5  C   UNL     1       2.981   3.280  -3.891  1.00  0.00     0.044 C 
ATOM      6  C   UNL     1       3.813   2.032  -3.837  1.00  0.00    -0.051 A 
ATOM      7  C   UNL     1       5.035   1.969  -4.521  1.00  0.00     0.004 A 
ATOM      8  C   UNL     1       3.343   0.898  -3.159  1.00  0.00     0.004 A 
ATOM      9  C   UNL     1       5.794   0.795  -4.501  1.00  0.00     0.004 A 
ATOM     10  C   UNL     1       4.101  -0.276  -3.139  1.00  0.00     0.004 A 
ENDBRANCH   2   4
ENDBRANCH   1   2
BRANCH   1  11
ATOM     11  C   UNL     1       6.670  -3.168  -1.770  1.00  0.00     0.028 C 
BRANCH  11  12
ATOM     12  C   UNL     1       5.227  -3.617  -1.756  1.00  0.00    -0.028 C 
ATOM     13  C   UNL     1       4.475  -3.642  -0.633  1.00  0.00    -0.080 C 
ATOM     14  C   UNL     1       5.032  -3.218   0.701  1.00  0.00     0.039 C 
ATOM     15  C   UNL     1       3.043  -4.108  -0.694  1.00  0.00     0.039 C 
ENDBRANCH  11  12
ENDBRANCH   1  11
TORSDOF 4
ENDMDL
MODEL 6
REMARK VINA RESULT:    -5.637      2.447      4.743
REMARK INTER + INTRA:          -7.463
REMARK INTER:                  -6.361
REMARK INTRA:                  -1.102
REMARK UNBOUND:                -0.508
REMARK SMILES CC(C)=CCC[C@H](C)c1ccc(C)cc1
REMARK SMILES IDX 6 1 7 2 8 3 9 4 13 5 12 6 11 7 14 8 10 9 15 10 5 11 4 12
REMARK SMILES IDX 2 13 1 14 3 15
REMARK H PARENT
REMARK Flexibility Score: inf
ROOT
ATOM      1  C   UNL     1       5.119   3.861  -4.964  1.00  0.00     0.012 C 
ENDROOT
BRANCH   1   2
ATOM      2  C   UNL     1       3.868   2.964  -4.798  1.00  0.00     0.016 C 
ATOM      3  C   UNL     1       2.749   3.643  -3.995  1.00  0.00     0.013 C 
BRANCH   2   4
ATOM      4  C   UNL     1       4.251   1.642  -4.155  1.00  0.00    -0.045 A 
ATOM      5  C   UNL     1       5.360  -2.125  -2.355  1.00  0.00     0.044 C 
ATOM      6  C   UNL     1       4.988  -0.801  -2.957  1.00  0.00    -0.051 A 
ATOM      7  C   UNL     1       3.768  -0.194  -2.629  1.00  0.00     0.004 A 
ATOM      8  C   UNL     1       5.828  -0.195  -3.903  1.00  0.00     0.004 A 
ATOM      9  C   UNL     1       3.406   1.021  -3.217  1.00  0.00     0.004 A 
ATOM     10  C   UNL     1       5.466   1.020  -4.492  1.00  0.00     0.004 A 
ENDBRANCH   2   4
ENDBRANCH   1   2
BRANCH   1  11
ATOM     11  C   UNL     1       5.460   4.188  -6.430  1.00  0.00     0.028 C 
BRANCH  11  12
ATOM     12  C   UNL     1       4.584   3.445  -7.412  1.00  0.00    -0.028 C 
ATOM     13  C   UNL     1       5.021   2.393  -8.139  1.00  0.00    -0.080 C 
ATOM     14  C   UNL     1       6.434   1.882  -8.019  1.00  0.00     0.039 C 
ATOM     15  C   UNL     1       4.091   1.702  -9.103  1.00  0.00     0.039 C 
ENDBRANCH  11  12
ENDBRANCH   1  11
TORSDOF 4
ENDMDL
MODEL 7
REMARK VINA RESULT:    -5.426      1.438      6.121
REMARK INTER + INTRA:          -7.202
REMARK INTER:                  -6.380
REMARK INTRA:                  -0.823
REMARK UNBOUND:                -0.508
REMARK SMILES CC(C)=CCC[C@H](C)c1ccc(C)cc1
REMARK SMILES IDX 6 1 7 2 8 3 9 4 13 5 12 6 11 7 14 8 10 9 15 10 5 11 4 12
REMARK SMILES IDX 2 13 1 14 3 15
REMARK H PARENT
REMARK Flexibility Score: inf
ROOT
ATOM      1  C   UNL     1       7.279  -1.369  -3.207  1.00  0.00     0.012 C 
ENDROOT
BRANCH   1   2
ATOM      2  C   UNL     1       6.198  -1.379  -4.316  1.00  0.00     0.016 C 
ATOM      3  C   UNL     1       6.792  -1.508  -5.727  1.00  0.00     0.013 C 
BRANCH   2   4
ATOM      4  C   UNL     1       5.336  -0.132  -4.220  1.00  0.00    -0.045 A 
ATOM      5  C   UNL     1       2.911   3.433  -3.959  1.00  0.00     0.044 C 
ATOM      6  C   UNL     1       3.733   2.183  -4.070  1.00  0.00    -0.051 A 
ATOM      7  C   UNL     1       3.502   1.106  -3.202  1.00  0.00     0.004 A 
ATOM      8  C   UNL     1       4.782   2.107  -4.997  1.00  0.00     0.004 A 
ATOM      9  C   UNL     1       4.292  -0.044  -3.280  1.00  0.00     0.004 A 
ATOM     10  C   UNL     1       5.573   0.957  -5.076  1.00  0.00     0.004 A 
ENDBRANCH   2   4
ENDBRANCH   1   2
BRANCH   1  11
ATOM     11  C   UNL     1       7.037  -2.408  -2.095  1.00  0.00     0.028 C 
BRANCH  11  12
ATOM     12  C   UNL     1       5.675  -3.056  -2.189  1.00  0.00    -0.028 C 
ATOM     13  C   UNL     1       4.898  -3.296  -1.109  1.00  0.00    -0.080 C 
ATOM     14  C   UNL     1       5.346  -2.930   0.283  1.00  0.00     0.039 C 
ATOM     15  C   UNL     1       3.551  -3.950  -1.277  1.00  0.00     0.039 C 
ENDBRANCH  11  12
ENDBRANCH   1  11
TORSDOF 4
ENDMDL
MODEL 8
REMARK VINA RESULT:    -5.314      3.068      5.884
REMARK INTER + INTRA:          -7.064
REMARK INTER:                  -5.938
REMARK INTRA:                  -1.126
REMARK UNBOUND:                -0.508
REMARK SMILES CC(C)=CCC[C@H](C)c1ccc(C)cc1
REMARK SMILES IDX 6 1 7 2 8 3 9 4 13 5 12 6 11 7 14 8 10 9 15 10 5 11 4 12
REMARK SMILES IDX 2 13 1 14 3 15
REMARK H PARENT
REMARK Flexibility Score: inf
ROOT
ATOM      1  C   UNL     1       6.884   4.233  -6.228  1.00  0.00     0.012 C 
ENDROOT
BRANCH   1   2
ATOM      2  C   UNL     1       5.793   4.718  -5.242  1.00  0.00     0.016 C 
ATOM      3  C   UNL     1       6.352   5.613  -4.126  1.00  0.00     0.013 C 
BRANCH   2   4
ATOM      4  C   UNL     1       5.058   3.530  -4.647  1.00  0.00    -0.045 A 
ATOM      5  C   UNL     1       2.989   0.129  -2.970  1.00  0.00     0.044 C 
ATOM      6  C   UNL     1       3.715   1.319  -3.524  1.00  0.00    -0.051 A 
ATOM      7  C   UNL     1       3.034   2.527  -3.735  1.00  0.00     0.004 A 
ATOM      8  C   UNL     1       5.062   1.214  -3.898  1.00  0.00     0.004 A 
ATOM      9  C   UNL     1       3.701   3.625  -4.285  1.00  0.00     0.004 A 
ATOM     10  C   UNL     1       5.730   2.312  -4.448  1.00  0.00     0.004 A 
ENDBRANCH   2   4
ENDBRANCH   1   2
BRANCH   1  11
ATOM     11  C   UNL     1       6.558   4.520  -7.706  1.00  0.00     0.028 C 
BRANCH  11  12
ATOM     12  C   UNL     1       5.196   5.149  -7.892  1.00  0.00    -0.028 C 
ATOM     13  C   UNL     1       4.108   4.446  -8.274  1.00  0.00    -0.080 C 
ATOM     14  C   UNL     1       4.178   2.966  -8.549  1.00  0.00     0.039 C 
ATOM     15  C   UNL     1       2.781   5.141  -8.444  1.00  0.00     0.039 C 
ENDBRANCH  11  12
ENDBRANCH   1  11
TORSDOF 4
ENDMDL
MODEL 9
REMARK VINA RESULT:    -5.226      3.535      7.265
REMARK INTER + INTRA:          -6.956
REMARK INTER:                  -5.416
REMARK INTRA:                  -1.540
REMARK UNBOUND:                -0.508
REMARK SMILES CC(C)=CCC[C@H](C)c1ccc(C)cc1
REMARK SMILES IDX 6 1 7 2 8 3 9 4 13 5 12 6 11 7 14 8 10 9 15 10 5 11 4 12
REMARK SMILES IDX 2 13 1 14 3 15
REMARK H PARENT
REMARK Flexibility Score: inf
ROOT
ATOM      1  C   UNL     1       4.458   1.750  -3.297  1.00  0.00     0.012 C 
ENDROOT
BRANCH   1   2
ATOM      2  C   UNL     1       4.203   3.166  -3.869  1.00  0.00     0.016 C 
ATOM      3  C   UNL     1       2.710   3.470  -4.067  1.00  0.00     0.013 C 
BRANCH   2   4
ATOM      4  C   UNL     1       4.955   3.348  -5.176  1.00  0.00    -0.045 A 
ATOM      5  C   UNL     1       7.124   3.877  -8.874  1.00  0.00     0.044 C 
ATOM      6  C   UNL     1       6.367   3.663  -7.596  1.00  0.00    -0.051 A 
ATOM      7  C   UNL     1       4.974   3.817  -7.566  1.00  0.00     0.004 A 
ATOM      8  C   UNL     1       7.054   3.374  -6.409  1.00  0.00     0.004 A 
ATOM      9  C   UNL     1       4.273   3.654  -6.368  1.00  0.00     0.004 A 
ATOM     10  C   UNL     1       6.354   3.211  -5.210  1.00  0.00     0.004 A 
ENDBRANCH   2   4
ENDBRANCH   1   2
BRANCH   1  11
ATOM     11  C   UNL     1       4.075   0.611  -4.262  1.00  0.00     0.028 C 
BRANCH  11  12
ATOM     12  C   UNL     1       5.253  -0.259  -4.634  1.00  0.00    -0.028 C 
ATOM     13  C   UNL     1       5.622  -0.492  -5.913  1.00  0.00    -0.080 C 
ATOM     14  C   UNL     1       4.871   0.108  -7.074  1.00  0.00     0.039 C 
ATOM     15  C   UNL     1       6.806  -1.376  -6.209  1.00  0.00     0.039 C 
ENDBRANCH  11  12
ENDBRANCH   1  11
TORSDOF 4
ENDMDL
