MODEL 1
REMARK VINA RESULT:    -6.835      0.000      0.000
REMARK INTER + INTRA:          -8.301
REMARK INTER:                  -8.034
REMARK INTRA:                  -0.267
REMARK UNBOUND:                -0.267
REMARK SMILES O=c1cc(-c2ccc(O)c(O)c2)oc2cc(O)cc(O)c12
REMARK SMILES IDX 4 1 3 2 2 3 1 4 21 5 19 6 18 7 16 8 15 9 14 10 13 11 5 12
REMARK SMILES IDX 6 13 7 14 8 15 12 16 10 17 9 18 11 20 20 22 17 24
REMARK H PARENT 9 19 11 21 20 23 17 25
REMARK Flexibility Score: inf
ROOT
ATOM      1  C   UNL     1     180.365 178.129 175.406  1.00  0.00     0.138 A 
ATOM      2  C   UNL     1     179.437 177.128 175.086  1.00  0.00     0.100 A 
ATOM      3  C   UNL     1     179.704 176.251 174.034  1.00  0.00     0.197 A 
ATOM      4  O   UNL     1     178.825 175.404 173.729  1.00  0.00    -0.289 OA
ATOM      5  C   UNL     1     180.922 176.357 173.321  1.00  0.00     0.107 A 
ATOM      6  C   UNL     1     181.319 175.493 172.257  1.00  0.00     0.134 A 
ATOM      7  C   UNL     1     182.495 175.766 171.548  1.00  0.00     0.093 A 
ATOM      8  C   UNL     1     183.317 176.836 171.901  1.00  0.00     0.123 A 
ATOM      9  C   UNL     1     182.966 177.656 172.974  1.00  0.00     0.094 A 
ATOM     10  C   UNL     1     181.782 177.430 173.679  1.00  0.00     0.146 A 
ATOM     11  O   UNL     1     181.475 178.243 174.685  1.00  0.00    -0.456 OA
ENDROOT
BRANCH   1  12
ATOM     12  C   UNL     1     180.132 179.088 176.515  1.00  0.00     0.021 A 
ATOM     13  C   UNL     1     179.287 180.192 176.309  1.00  0.00     0.016 A 
ATOM     14  C   UNL     1     179.057 181.113 177.334  1.00  0.00     0.051 A 
ATOM     15  C   UNL     1     179.674 180.954 178.578  1.00  0.00     0.157 A 
ATOM     16  C   UNL     1     180.762 178.940 177.767  1.00  0.00     0.062 A 
ATOM     17  C   UNL     1     180.533 179.866 178.796  1.00  0.00     0.158 A 
BRANCH  15  18
ATOM     18  O   UNL     1     179.424 181.888 179.583  1.00  0.00    -0.504 OA
ATOM     19  H   UNL     1     180.156 182.474 179.967  1.00  0.00     0.293 HD
ENDBRANCH  15  18
BRANCH  17  20
ATOM     20  O   UNL     1     181.160 179.708 180.031  1.00  0.00    -0.504 OA
ATOM     21  H   UNL     1     180.750 179.144 180.767  1.00  0.00     0.293 HD
ENDBRANCH  17  20
ENDBRANCH   1  12
BRANCH   6  22
ATOM     22  O   UNL     1     180.614 174.347 171.878  1.00  0.00    -0.507 OA
ATOM     23  H   UNL     1     179.636 174.325 171.634  1.00  0.00     0.293 HD
ENDBRANCH   6  22
BRANCH   8  24
ATOM     24  O   UNL     1     184.488 177.069 171.182  1.00  0.00    -0.508 OA
ATOM     25  H   UNL     1     185.079 177.870 171.376  1.00  0.00     0.293 HD
ENDBRANCH   8  24
TORSDOF 5
ENDMDL
MODEL 2
REMARK VINA RESULT:    -6.825      4.734      6.974
REMARK INTER + INTRA:          -8.289
REMARK INTER:                  -8.023
REMARK INTRA:                  -0.266
REMARK UNBOUND:                -0.267
REMARK SMILES O=c1cc(-c2ccc(O)c(O)c2)oc2cc(O)cc(O)c12
REMARK SMILES IDX 4 1 3 2 2 3 1 4 21 5 19 6 18 7 16 8 15 9 14 10 13 11 5 12
REMARK SMILES IDX 6 13 7 14 8 15 12 16 10 17 9 18 11 20 20 22 17 24
REMARK H PARENT 9 19 11 21 20 23 17 25
REMARK Flexibility Score: inf
ROOT
ATOM      1  C   UNL     1     180.375 182.595 175.421  1.00  0.00     0.138 A 
ATOM      2  C   UNL     1     181.286 183.615 175.114  1.00  0.00     0.100 A 
ATOM      3  C   UNL     1     181.010 184.494 174.066  1.00  0.00     0.197 A 
ATOM      4  O   UNL     1     181.875 185.360 173.773  1.00  0.00    -0.289 OA
ATOM      5  C   UNL     1     179.800 184.368 173.342  1.00  0.00     0.107 A 
ATOM      6  C   UNL     1     179.394 185.231 172.281  1.00  0.00     0.134 A 
ATOM      7  C   UNL     1     178.229 184.940 171.561  1.00  0.00     0.093 A 
ATOM      8  C   UNL     1     177.425 183.853 171.902  1.00  0.00     0.123 A 
ATOM      9  C   UNL     1     177.784 183.032 172.972  1.00  0.00     0.094 A 
ATOM     10  C   UNL     1     178.958 183.277 173.688  1.00  0.00     0.146 A 
ATOM     11  O   UNL     1     179.273 182.464 174.691  1.00  0.00    -0.456 OA
ENDROOT
BRANCH   1  12
ATOM     12  C   UNL     1     180.619 181.633 176.526  1.00  0.00     0.021 A 
ATOM     13  C   UNL     1     181.460 180.528 176.309  1.00  0.00     0.016 A 
ATOM     14  C   UNL     1     181.699 179.605 177.330  1.00  0.00     0.051 A 
ATOM     15  C   UNL     1     181.095 179.763 178.581  1.00  0.00     0.157 A 
ATOM     16  C   UNL     1     180.003 181.781 177.785  1.00  0.00     0.062 A 
ATOM     17  C   UNL     1     180.241 180.852 178.810  1.00  0.00     0.158 A 
BRANCH  15  18
ATOM     18  O   UNL     1     181.355 178.827 179.581  1.00  0.00    -0.504 OA
ATOM     19  H   UNL     1     180.615 178.296 180.026  1.00  0.00     0.293 HD
ENDBRANCH  15  18
BRANCH  17  20
ATOM     20  O   UNL     1     179.627 181.009 180.052  1.00  0.00    -0.504 OA
ATOM     21  H   UNL     1     178.972 181.762 180.230  1.00  0.00     0.293 HD
ENDBRANCH  17  20
ENDBRANCH   1  12
BRANCH   6  22
ATOM     22  O   UNL     1     180.080 186.394 171.914  1.00  0.00    -0.507 OA
ATOM     23  H   UNL     1     180.607 186.976 172.546  1.00  0.00     0.293 HD
ENDBRANCH   6  22
BRANCH   8  24
ATOM     24  O   UNL     1     176.264 183.601 171.173  1.00  0.00    -0.508 OA
ATOM     25  H   UNL     1     176.277 183.029 170.336  1.00  0.00     0.293 HD
ENDBRANCH   8  24
TORSDOF 5
ENDMDL
MODEL 3
REMARK VINA RESULT:    -6.591      1.105      2.760
REMARK INTER + INTRA:          -8.013
REMARK INTER:                  -7.751
REMARK INTRA:                  -0.263
REMARK UNBOUND:                -0.267
REMARK SMILES O=c1cc(-c2ccc(O)c(O)c2)oc2cc(O)cc(O)c12
REMARK SMILES IDX 4 1 3 2 2 3 1 4 21 5 19 6 18 7 16 8 15 9 14 10 13 11 5 12
REMARK SMILES IDX 6 13 7 14 8 15 12 16 10 17 9 18 11 20 20 22 17 24
REMARK H PARENT 9 19 11 21 20 23 17 25
REMARK Flexibility Score: inf
ROOT
ATOM      1  C   UNL     1     181.553 179.054 175.430  1.00  0.00     0.138 A 
ATOM      2  C   UNL     1     182.797 179.497 174.959  1.00  0.00     0.100 A 
ATOM      3  C   UNL     1     183.416 178.821 173.907  1.00  0.00     0.197 A 
ATOM      4  O   UNL     1     184.560 179.203 173.547  1.00  0.00    -0.289 OA
ATOM      5  C   UNL     1     182.771 177.716 173.303  1.00  0.00     0.107 A 
ATOM      6  C   UNL     1     183.288 176.976 172.198  1.00  0.00     0.134 A 
ATOM      7  C   UNL     1     182.616 175.829 171.759  1.00  0.00     0.093 A 
ATOM      8  C   UNL     1     181.415 175.429 172.345  1.00  0.00     0.123 A 
ATOM      9  C   UNL     1     180.872 176.175 173.392  1.00  0.00     0.094 A 
ATOM     10  C   UNL     1     181.536 177.305 173.875  1.00  0.00     0.146 A 
ATOM     11  O   UNL     1     180.994 177.980 174.883  1.00  0.00    -0.456 OA
ENDROOT
BRANCH   1  12
ATOM     12  C   UNL     1     180.849 179.736 176.546  1.00  0.00     0.021 A 
ATOM     13  C   UNL     1     179.874 180.706 176.258  1.00  0.00     0.016 A 
ATOM     14  C   UNL     1     179.203 181.367 177.290  1.00  0.00     0.051 A 
ATOM     15  C   UNL     1     179.500 181.079 178.625  1.00  0.00     0.157 A 
ATOM     16  C   UNL     1     181.154 179.458 177.893  1.00  0.00     0.062 A 
ATOM     17  C   UNL     1     180.482 180.123 178.929  1.00  0.00     0.158 A 
BRANCH  15  18
ATOM     18  O   UNL     1     178.812 181.753 179.633  1.00  0.00    -0.504 OA
ATOM     19  H   UNL     1     179.111 181.724 180.601  1.00  0.00     0.293 HD
ENDBRANCH  15  18
BRANCH  17  20
ATOM     20  O   UNL     1     180.790 179.840 180.260  1.00  0.00    -0.504 OA
ATOM     21  H   UNL     1     181.669 180.129 180.675  1.00  0.00     0.293 HD
ENDBRANCH  17  20
ENDBRANCH   1  12
BRANCH   6  22
ATOM     22  O   UNL     1     184.435 177.337 171.485  1.00  0.00    -0.507 OA
ATOM     23  H   UNL     1     184.471 177.491 170.490  1.00  0.00     0.293 HD
ENDBRANCH   6  22
BRANCH   8  24
ATOM     24  O   UNL     1     180.765 174.290 171.873  1.00  0.00    -0.508 OA
ATOM     25  H   UNL     1     180.169 173.733 172.474  1.00  0.00     0.293 HD
ENDBRANCH   8  24
TORSDOF 5
ENDMDL
MODEL 4
REMARK VINA RESULT:    -6.587      4.491      6.227
REMARK INTER + INTRA:          -8.009
REMARK INTER:                  -7.746
REMARK INTRA:                  -0.263
REMARK UNBOUND:                -0.267
REMARK SMILES O=c1cc(-c2ccc(O)c(O)c2)oc2cc(O)cc(O)c12
REMARK SMILES IDX 4 1 3 2 2 3 1 4 21 5 19 6 18 7 16 8 15 9 14 10 13 11 5 12
REMARK SMILES IDX 6 13 7 14 8 15 12 16 10 17 9 18 11 20 20 22 17 24
REMARK H PARENT 9 19 11 21 20 23 17 25
REMARK Flexibility Score: inf
ROOT
ATOM      1  C   UNL     1     179.150 181.637 175.432  1.00  0.00     0.138 A 
ATOM      2  C   UNL     1     177.903 181.200 174.964  1.00  0.00     0.100 A 
ATOM      3  C   UNL     1     177.285 181.876 173.911  1.00  0.00     0.197 A 
ATOM      4  O   UNL     1     176.139 181.499 173.555  1.00  0.00    -0.289 OA
ATOM      5  C   UNL     1     177.936 182.977 173.304  1.00  0.00     0.107 A 
ATOM      6  C   UNL     1     177.420 183.717 172.199  1.00  0.00     0.134 A 
ATOM      7  C   UNL     1     178.097 184.860 171.756  1.00  0.00     0.093 A 
ATOM      8  C   UNL     1     179.301 185.255 172.340  1.00  0.00     0.123 A 
ATOM      9  C   UNL     1     179.842 184.508 173.387  1.00  0.00     0.094 A 
ATOM     10  C   UNL     1     179.173 183.383 173.873  1.00  0.00     0.146 A 
ATOM     11  O   UNL     1     179.714 182.707 174.882  1.00  0.00    -0.456 OA
ENDROOT
BRANCH   1  12
ATOM     12  C   UNL     1     179.853 180.954 176.548  1.00  0.00     0.021 A 
ATOM     13  C   UNL     1     180.805 179.962 176.261  1.00  0.00     0.016 A 
ATOM     14  C   UNL     1     181.475 179.299 177.294  1.00  0.00     0.051 A 
ATOM     15  C   UNL     1     181.198 179.608 178.628  1.00  0.00     0.157 A 
ATOM     16  C   UNL     1     179.568 181.253 177.895  1.00  0.00     0.062 A 
ATOM     17  C   UNL     1     180.238 180.586 178.932  1.00  0.00     0.158 A 
BRANCH  15  18
ATOM     18  O   UNL     1     181.883 178.932 179.636  1.00  0.00    -0.504 OA
ATOM     19  H   UNL     1     182.798 179.225 179.956  1.00  0.00     0.293 HD
ENDBRANCH  15  18
BRANCH  17  20
ATOM     20  O   UNL     1     179.950 180.891 180.262  1.00  0.00    -0.504 OA
ATOM     21  H   UNL     1     179.128 180.521 180.726  1.00  0.00     0.293 HD
ENDBRANCH  17  20
ENDBRANCH   1  12
BRANCH   6  22
ATOM     22  O   UNL     1     176.270 183.360 171.488  1.00  0.00    -0.507 OA
ATOM     23  H   UNL     1     176.140 182.486 171.004  1.00  0.00     0.293 HD
ENDBRANCH   6  22
BRANCH   8  24
ATOM     24  O   UNL     1     179.956 186.389 171.864  1.00  0.00    -0.508 OA
ATOM     25  H   UNL     1     179.920 187.270 172.363  1.00  0.00     0.293 HD
ENDBRANCH   8  24
TORSDOF 5
ENDMDL
MODEL 5
REMARK VINA RESULT:    -6.371      2.247      3.644
REMARK INTER + INTRA:          -7.755
REMARK INTER:                  -7.451
REMARK INTRA:                  -0.304
REMARK UNBOUND:                -0.267
REMARK SMILES O=c1cc(-c2ccc(O)c(O)c2)oc2cc(O)cc(O)c12
REMARK SMILES IDX 4 1 3 2 2 3 1 4 21 5 19 6 18 7 16 8 15 9 14 10 13 11 5 12
REMARK SMILES IDX 6 13 7 14 8 15 12 16 10 17 9 18 11 20 20 22 17 24
REMARK H PARENT 9 19 11 21 20 23 17 25
REMARK Flexibility Score: inf
ROOT
ATOM      1  C   UNL     1     180.222 179.181 174.558  1.00  0.00     0.138 A 
ATOM      2  C   UNL     1     181.573 179.552 174.601  1.00  0.00     0.100 A 
ATOM      3  C   UNL     1     182.532 178.735 174.001  1.00  0.00     0.197 A 
ATOM      4  O   UNL     1     183.743 179.061 174.109  1.00  0.00    -0.289 OA
ATOM      5  C   UNL     1     182.131 177.556 173.328  1.00  0.00     0.107 A 
ATOM      6  C   UNL     1     183.015 176.667 172.647  1.00  0.00     0.134 A 
ATOM      7  C   UNL     1     182.518 175.471 172.116  1.00  0.00     0.093 A 
ATOM      8  C   UNL     1     181.161 175.159 172.190  1.00  0.00     0.123 A 
ATOM      9  C   UNL     1     180.278 176.045 172.808  1.00  0.00     0.094 A 
ATOM     10  C   UNL     1     180.748 177.231 173.377  1.00  0.00     0.146 A 
ATOM     11  O   UNL     1     179.877 178.042 173.969  1.00  0.00    -0.456 OA
ENDROOT
BRANCH   1  12
ATOM     12  C   UNL     1     179.161 180.014 175.179  1.00  0.00     0.021 A 
ATOM     13  C   UNL     1     179.454 180.763 176.332  1.00  0.00     0.016 A 
ATOM     14  C   UNL     1     178.471 181.549 176.938  1.00  0.00     0.051 A 
ATOM     15  C   UNL     1     177.178 181.593 176.412  1.00  0.00     0.157 A 
ATOM     16  C   UNL     1     177.852 180.053 174.660  1.00  0.00     0.062 A 
ATOM     17  C   UNL     1     176.864 180.840 175.270  1.00  0.00     0.158 A 
BRANCH  15  18
ATOM     18  O   UNL     1     176.218 182.388 177.039  1.00  0.00    -0.504 OA
ATOM     19  H   UNL     1     175.597 182.022 177.749  1.00  0.00     0.293 HD
ENDBRANCH  15  18
BRANCH  17  20
ATOM     20  O   UNL     1     175.572 180.872 174.747  1.00  0.00    -0.504 OA
ATOM     21  H   UNL     1     175.100 181.748 174.551  1.00  0.00     0.293 HD
ENDBRANCH  17  20
ENDBRANCH   1  12
BRANCH   6  22
ATOM     22  O   UNL     1     184.374 176.924 172.442  1.00  0.00    -0.507 OA
ATOM     23  H   UNL     1     185.053 176.237 172.151  1.00  0.00     0.293 HD
ENDBRANCH   6  22
BRANCH   8  24
ATOM     24  O   UNL     1     180.698 173.965 171.638  1.00  0.00    -0.508 OA
ATOM     25  H   UNL     1     180.844 173.742 170.660  1.00  0.00     0.293 HD
ENDBRANCH   8  24
TORSDOF 5
ENDMDL
MODEL 6
REMARK VINA RESULT:    -6.345      4.597      6.603
REMARK INTER + INTRA:          -7.725
REMARK INTER:                  -7.460
REMARK INTRA:                  -0.265
REMARK UNBOUND:                -0.267
REMARK SMILES O=c1cc(-c2ccc(O)c(O)c2)oc2cc(O)cc(O)c12
REMARK SMILES IDX 4 1 3 2 2 3 1 4 21 5 19 6 18 7 16 8 15 9 14 10 13 11 5 12
REMARK SMILES IDX 6 13 7 14 8 15 12 16 10 17 9 18 11 20 20 22 17 24
REMARK H PARENT 9 19 11 21 20 23 17 25
REMARK Flexibility Score: inf
ROOT
ATOM      1  C   UNL     1     178.556 181.700 174.899  1.00  0.00     0.138 A 
ATOM      2  C   UNL     1     179.098 182.902 174.425  1.00  0.00     0.100 A 
ATOM      3  C   UNL     1     178.552 183.505 173.290  1.00  0.00     0.197 A 
ATOM      4  O   UNL     1     179.099 184.550 172.852  1.00  0.00    -0.289 OA
ATOM      5  C   UNL     1     177.438 182.914 172.647  1.00  0.00     0.107 A 
ATOM      6  C   UNL     1     176.775 183.460 171.508  1.00  0.00     0.134 A 
ATOM      7  C   UNL     1     175.756 182.728 170.886  1.00  0.00     0.093 A 
ATOM      8  C   UNL     1     175.337 181.500 171.397  1.00  0.00     0.123 A 
ATOM      9  C   UNL     1     175.942 180.981 172.542  1.00  0.00     0.094 A 
ATOM     10  C   UNL     1     176.985 181.671 173.165  1.00  0.00     0.146 A 
ATOM     11  O   UNL     1     177.545 181.137 174.245  1.00  0.00    -0.456 OA
ENDROOT
BRANCH   1  12
ATOM     12  C   UNL     1     179.096 181.017 176.102  1.00  0.00     0.021 A 
ATOM     13  C   UNL     1     179.688 179.749 175.970  1.00  0.00     0.016 A 
ATOM     14  C   UNL     1     180.197 179.082 177.088  1.00  0.00     0.051 A 
ATOM     15  C   UNL     1     180.116 179.664 178.356  1.00  0.00     0.157 A 
ATOM     16  C   UNL     1     179.005 181.593 177.384  1.00  0.00     0.062 A 
ATOM     17  C   UNL     1     179.514 180.923 178.507  1.00  0.00     0.158 A 
BRANCH  15  18
ATOM     18  O   UNL     1     180.635 178.976 179.452  1.00  0.00    -0.504 OA
ATOM     19  H   UNL     1     181.449 179.304 179.957  1.00  0.00     0.293 HD
ENDBRANCH  15  18
BRANCH  17  20
ATOM     20  O   UNL     1     179.421 181.504 179.771  1.00  0.00    -0.504 OA
ATOM     21  H   UNL     1     178.814 182.297 179.948  1.00  0.00     0.293 HD
ENDBRANCH  17  20
ENDBRANCH   1  12
BRANCH   6  22
ATOM     22  O   UNL     1     177.058 184.718 170.967  1.00  0.00    -0.507 OA
ATOM     23  H   UNL     1     177.918 184.966 170.504  1.00  0.00     0.293 HD
ENDBRANCH   6  22
BRANCH   8  24
ATOM     24  O   UNL     1     174.309 180.805 170.761  1.00  0.00    -0.508 OA
ATOM     25  H   UNL     1     173.399 181.225 170.611  1.00  0.00     0.293 HD
ENDBRANCH   8  24
TORSDOF 5
ENDMDL
MODEL 7
REMARK VINA RESULT:    -6.308      1.779      2.384
REMARK INTER + INTRA:          -7.681
REMARK INTER:                  -7.418
REMARK INTRA:                  -0.264
REMARK UNBOUND:                -0.267
REMARK SMILES O=c1cc(-c2ccc(O)c(O)c2)oc2cc(O)cc(O)c12
REMARK SMILES IDX 4 1 3 2 2 3 1 4 21 5 19 6 18 7 16 8 15 9 14 10 13 11 5 12
REMARK SMILES IDX 6 13 7 14 8 15 12 16 10 17 9 18 11 20 20 22 17 24
REMARK H PARENT 9 19 11 21 20 23 17 25
REMARK Flexibility Score: inf
ROOT
ATOM      1  C   UNL     1     182.108 179.080 174.936  1.00  0.00     0.138 A 
ATOM      2  C   UNL     1     181.532 177.899 174.446  1.00  0.00     0.100 A 
ATOM      3  C   UNL     1     182.084 177.276 173.326  1.00  0.00     0.197 A 
ATOM      4  O   UNL     1     181.508 176.254 172.871  1.00  0.00    -0.289 OA
ATOM      5  C   UNL     1     183.237 177.822 172.714  1.00  0.00     0.107 A 
ATOM      6  C   UNL     1     183.909 177.251 171.592  1.00  0.00     0.134 A 
ATOM      7  C   UNL     1     184.973 177.942 170.999  1.00  0.00     0.093 A 
ATOM      8  C   UNL     1     185.426 179.153 171.523  1.00  0.00     0.123 A 
ATOM      9  C   UNL     1     184.810 179.695 172.651  1.00  0.00     0.094 A 
ATOM     10  C   UNL     1     183.725 179.046 173.245  1.00  0.00     0.146 A 
ATOM     11  O   UNL     1     183.157 179.602 174.310  1.00  0.00    -0.456 OA
ENDROOT
BRANCH   1  12
ATOM     12  C   UNL     1     181.562 179.783 176.125  1.00  0.00     0.021 A 
ATOM     13  C   UNL     1     180.984 181.055 175.971  1.00  0.00     0.016 A 
ATOM     14  C   UNL     1     180.470 181.741 177.075  1.00  0.00     0.051 A 
ATOM     15  C   UNL     1     180.534 181.175 178.351  1.00  0.00     0.157 A 
ATOM     16  C   UNL     1     181.635 179.223 177.416  1.00  0.00     0.062 A 
ATOM     17  C   UNL     1     181.122 179.912 178.524  1.00  0.00     0.158 A 
BRANCH  15  18
ATOM     18  O   UNL     1     180.011 181.882 179.433  1.00  0.00    -0.504 OA
ATOM     19  H   UNL     1     179.462 181.432 180.155  1.00  0.00     0.293 HD
ENDBRANCH  15  18
BRANCH  17  20
ATOM     20  O   UNL     1     181.198 179.347 179.797  1.00  0.00    -0.504 OA
ATOM     21  H   UNL     1     180.929 178.384 179.967  1.00  0.00     0.293 HD
ENDBRANCH  17  20
ENDBRANCH   1  12
BRANCH   6  22
ATOM     22  O   UNL     1     183.592 176.005 171.043  1.00  0.00    -0.507 OA
ATOM     23  H   UNL     1     183.333 175.848 170.081  1.00  0.00     0.293 HD
ENDBRANCH   6  22
BRANCH   8  24
ATOM     24  O   UNL     1     186.497 179.806 170.915  1.00  0.00    -0.508 OA
ATOM     25  H   UNL     1     186.537 179.939 169.912  1.00  0.00     0.293 HD
ENDBRANCH   8  24
TORSDOF 5
ENDMDL
MODEL 8
REMARK VINA RESULT:    -6.283      4.640      6.988
REMARK INTER + INTRA:          -7.652
REMARK INTER:                  -7.375
REMARK INTRA:                  -0.276
REMARK UNBOUND:                -0.267
REMARK SMILES O=c1cc(-c2ccc(O)c(O)c2)oc2cc(O)cc(O)c12
REMARK SMILES IDX 4 1 3 2 2 3 1 4 21 5 19 6 18 7 16 8 15 9 14 10 13 11 5 12
REMARK SMILES IDX 6 13 7 14 8 15 12 16 10 17 9 18 11 20 20 22 17 24
REMARK H PARENT 9 19 11 21 20 23 17 25
REMARK Flexibility Score: inf
ROOT
ATOM      1  C   UNL     1     180.304 182.466 174.348  1.00  0.00     0.138 A 
ATOM      2  C   UNL     1     181.578 182.021 173.965  1.00  0.00     0.100 A 
ATOM      3  C   UNL     1     182.251 181.092 174.760  1.00  0.00     0.197 A 
ATOM      4  O   UNL     1     183.418 180.759 174.425  1.00  0.00    -0.289 OA
ATOM      5  C   UNL     1     181.632 180.584 175.926  1.00  0.00     0.107 A 
ATOM      6  C   UNL     1     182.206 179.604 176.791  1.00  0.00     0.134 A 
ATOM      7  C   UNL     1     181.550 179.262 177.980  1.00  0.00     0.093 A 
ATOM      8  C   UNL     1     180.314 179.819 178.306  1.00  0.00     0.123 A 
ATOM      9  C   UNL     1     179.717 180.738 177.442  1.00  0.00     0.094 A 
ATOM     10  C   UNL     1     180.363 181.126 176.266  1.00  0.00     0.146 A 
ATOM     11  O   UNL     1     179.769 182.015 175.477  1.00  0.00    -0.456 OA
ENDROOT
BRANCH   1  12
ATOM     12  C   UNL     1     179.543 183.452 173.540  1.00  0.00     0.021 A 
ATOM     13  C   UNL     1     178.184 183.220 173.267  1.00  0.00     0.016 A 
ATOM     14  C   UNL     1     177.448 184.129 172.503  1.00  0.00     0.051 A 
ATOM     15  C   UNL     1     178.056 185.278 171.990  1.00  0.00     0.157 A 
ATOM     16  C   UNL     1     180.155 184.605 173.009  1.00  0.00     0.062 A 
ATOM     17  C   UNL     1     179.416 185.516 172.240  1.00  0.00     0.158 A 
BRANCH  15  18
ATOM     18  O   UNL     1     177.295 186.167 171.232  1.00  0.00    -0.504 OA
ATOM     19  H   UNL     1     176.977 185.942 170.297  1.00  0.00     0.293 HD
ENDBRANCH  15  18
BRANCH  17  20
ATOM     20  O   UNL     1     180.032 186.655 171.722  1.00  0.00    -0.504 OA
ATOM     21  H   UNL     1     180.014 186.864 170.729  1.00  0.00     0.293 HD
ENDBRANCH  17  20
ENDBRANCH   1  12
BRANCH   6  22
ATOM     22  O   UNL     1     183.396 178.923 176.517  1.00  0.00    -0.507 OA
ATOM     23  H   UNL     1     184.316 179.334 176.548  1.00  0.00     0.293 HD
ENDBRANCH   6  22
BRANCH   8  24
ATOM     24  O   UNL     1     179.682 179.444 179.490  1.00  0.00    -0.508 OA
ATOM     25  H   UNL     1     180.180 179.423 180.373  1.00  0.00     0.293 HD
ENDBRANCH   8  24
TORSDOF 5
ENDMDL
MODEL 9
REMARK VINA RESULT:    -6.203      1.794      7.002
REMARK INTER + INTRA:          -7.557
REMARK INTER:                  -7.280
REMARK INTRA:                  -0.277
REMARK UNBOUND:                -0.267
REMARK SMILES O=c1cc(-c2ccc(O)c(O)c2)oc2cc(O)cc(O)c12
REMARK SMILES IDX 4 1 3 2 2 3 1 4 21 5 19 6 18 7 16 8 15 9 14 10 13 11 5 12
REMARK SMILES IDX 6 13 7 14 8 15 12 16 10 17 9 18 11 20 20 22 17 24
REMARK H PARENT 9 19 11 21 20 23 17 25
REMARK Flexibility Score: inf
ROOT
ATOM      1  C   UNL     1     180.262 178.223 174.207  1.00  0.00     0.138 A 
ATOM      2  C   UNL     1     178.996 178.643 173.774  1.00  0.00     0.100 A 
ATOM      3  C   UNL     1     178.290 179.587 174.520  1.00  0.00     0.197 A 
ATOM      4  O   UNL     1     177.130 179.897 174.141  1.00  0.00    -0.289 OA
ATOM      5  C   UNL     1     178.868 180.136 175.689  1.00  0.00     0.107 A 
ATOM      6  C   UNL     1     178.258 181.134 176.506  1.00  0.00     0.134 A 
ATOM      7  C   UNL     1     178.875 181.518 177.703  1.00  0.00     0.093 A 
ATOM      8  C   UNL     1     180.106 180.984 178.083  1.00  0.00     0.123 A 
ATOM      9  C   UNL     1     180.738 180.047 177.265  1.00  0.00     0.094 A 
ATOM     10  C   UNL     1     180.132 179.618 176.082  1.00  0.00     0.146 A 
ATOM     11  O   UNL     1     180.759 178.713 175.338  1.00  0.00    -0.456 OA
ENDROOT
BRANCH   1  12
ATOM     12  C   UNL     1     181.057 177.222 173.451  1.00  0.00     0.021 A 
ATOM     13  C   UNL     1     182.425 177.453 173.226  1.00  0.00     0.016 A 
ATOM     14  C   UNL     1     183.193 176.531 172.512  1.00  0.00     0.051 A 
ATOM     15  C   UNL     1     182.609 175.368 172.002  1.00  0.00     0.157 A 
ATOM     16  C   UNL     1     180.470 176.055 172.924  1.00  0.00     0.062 A 
ATOM     17  C   UNL     1     181.241 175.130 172.205  1.00  0.00     0.158 A 
BRANCH  15  18
ATOM     18  O   UNL     1     183.402 174.465 171.294  1.00  0.00    -0.504 OA
ATOM     19  H   UNL     1     183.154 173.487 171.203  1.00  0.00     0.293 HD
ENDBRANCH  15  18
BRANCH  17  20
ATOM     20  O   UNL     1     180.650 173.977 171.689  1.00  0.00    -0.504 OA
ATOM     21  H   UNL     1     179.659 173.793 171.799  1.00  0.00     0.293 HD
ENDBRANCH  17  20
ENDBRANCH   1  12
BRANCH   6  22
ATOM     22  O   UNL     1     177.070 181.794 176.177  1.00  0.00    -0.507 OA
ATOM     23  H   UNL     1     177.002 182.579 175.549  1.00  0.00     0.293 HD
ENDBRANCH   6  22
BRANCH   8  24
ATOM     24  O   UNL     1     180.698 181.400 179.274  1.00  0.00    -0.508 OA
ATOM     25  H   UNL     1     180.683 182.372 179.562  1.00  0.00     0.293 HD
ENDBRANCH   8  24
TORSDOF 5
ENDMDL
