MODEL 1
REMARK VINA RESULT:     2.874      0.000      0.000
REMARK INTER + INTRA:           2.874
REMARK INTER:                   2.874
REMARK INTRA:                   0.000
REMARK UNBOUND:                 0.000
REMARK SMILES CC1=CC[C@@]23C[C@@H]1C(C)(C)[C@H]2CC[C@@H]3C
REMARK SMILES IDX 15 1 14 2 13 3 12 4 11 5 5 6 4 7 3 8 2 9 7 10 6 11 8 12 9 13
REMARK SMILES IDX 10 14 1 15
REMARK H PARENT
REMARK Flexibility Score: inf
ROOT
ATOM      1  C   UNL     1       4.059   8.248  10.875  1.00  0.00     0.008 C 
ATOM      2  C   UNL     1       4.334   7.894  12.346  1.00  0.00    -0.007 C 
ATOM      3  C   UNL     1       3.728   6.512  12.752  1.00  0.00     0.004 C 
ATOM      4  C   UNL     1       4.906   5.531  12.989  1.00  0.00     0.005 C 
ATOM      5  C   UNL     1       6.061   6.272  12.352  1.00  0.00     0.002 C 
ATOM      6  C   UNL     1       5.832   7.736  12.692  1.00  0.00    -0.020 C 
ATOM      7  C   UNL     1       6.038   8.125  14.217  1.00  0.00     0.035 C 
ATOM      8  C   UNL     1       7.485   8.282  14.651  1.00  0.00    -0.027 C 
ATOM      9  C   UNL     1       8.496   8.015  13.804  1.00  0.00    -0.074 C 
ATOM     10  C   UNL     1       8.153   7.484  12.425  1.00  0.00     0.021 C 
ATOM     11  C   UNL     1       6.978   8.354  11.891  1.00  0.00     0.016 C 
ATOM     12  C   UNL     1       7.576   6.011  12.509  1.00  0.00    -0.025 C 
ATOM     13  C   UNL     1       7.903   5.222  13.803  1.00  0.00     0.012 C 
ATOM     14  C   UNL     1       8.120   5.188  11.315  1.00  0.00     0.012 C 
ATOM     15  C   UNL     1       9.922   8.217  14.230  1.00  0.00     0.039 C 
ENDROOT
TORSDOF 0
ENDMDL
MODEL 2
REMARK VINA RESULT:     3.285      1.090      3.966
REMARK INTER + INTRA:           3.285
REMARK INTER:                   3.285
REMARK INTRA:                   0.000
REMARK UNBOUND:                 0.000
REMARK SMILES CC1=CC[C@@]23C[C@@H]1C(C)(C)[C@H]2CC[C@@H]3C
REMARK SMILES IDX 15 1 14 2 13 3 12 4 11 5 5 6 4 7 3 8 2 9 7 10 6 11 8 12 9 13
REMARK SMILES IDX 10 14 1 15
REMARK H PARENT
REMARK Flexibility Score: inf
ROOT
ATOM      1  C   UNL     1       9.585   8.587  13.589  1.00  0.00     0.008 C 
ATOM      2  C   UNL     1       8.638   8.313  12.409  1.00  0.00    -0.007 C 
ATOM      3  C   UNL     1       9.107   7.106  11.533  1.00  0.00     0.004 C 
ATOM      4  C   UNL     1       8.098   5.948  11.746  1.00  0.00     0.005 C 
ATOM      5  C   UNL     1       7.356   6.405  12.983  1.00  0.00     0.002 C 
ATOM      6  C   UNL     1       7.205   7.910  12.824  1.00  0.00    -0.020 C 
ATOM      7  C   UNL     1       6.202   8.381  11.687  1.00  0.00     0.035 C 
ATOM      8  C   UNL     1       4.731   8.304  12.054  1.00  0.00    -0.027 C 
ATOM      9  C   UNL     1       4.336   7.784  13.231  1.00  0.00    -0.074 C 
ATOM     10  C   UNL     1       5.397   7.211  14.152  1.00  0.00     0.021 C 
ATOM     11  C   UNL     1       6.568   8.236  14.176  1.00  0.00     0.016 C 
ATOM     12  C   UNL     1       6.017   5.882  13.550  1.00  0.00    -0.025 C 
ATOM     13  C   UNL     1       5.168   5.160  12.474  1.00  0.00     0.012 C 
ATOM     14  C   UNL     1       6.262   4.875  14.701  1.00  0.00     0.012 C 
ATOM     15  C   UNL     1       2.881   7.753  13.602  1.00  0.00     0.039 C 
ENDROOT
TORSDOF 0
ENDMDL
