MODEL 1
REMARK VINA RESULT:    -2.770      0.000      0.000
REMARK INTER + INTRA:          -3.131
REMARK INTER:                  -4.065
REMARK INTRA:                   0.935
REMARK UNBOUND:                 0.935
REMARK SMILES C=C1C=C[C@H](C(C)C)CCC(C)=CCC1
REMARK SMILES IDX 3 1 4 2 5 3 9 4 10 5 11 6 12 7 13 8 6 10 7 11 8 12 2 13 1 14
REMARK SMILES IDX 15 15 14 16
REMARK H PARENT
REMARK Flexibility Score: 70.00
ROOT
ATOM      1  C   UNL     1       7.103   8.250  11.375  1.00  0.00    -0.001 C 
ATOM      2  C   UNL     1       5.870   8.538  10.920  1.00  0.00    -0.023 C 
ENDROOT
BRANCH   2   3
ATOM      3  C   UNL     1       4.534   8.350  11.637  1.00  0.00     0.014 C 
BRANCH   3   4
ATOM      4  C   UNL     1       4.688   7.942  13.124  1.00  0.00     0.012 C 
BRANCH   4   5
ATOM      5  C   UNL     1       3.914   6.664  13.501  1.00  0.00     0.031 C 
BRANCH   5   6
ATOM      6  C   UNL     1       4.369   5.503  12.643  1.00  0.00    -0.077 C 
ATOM      7  C   UNL     1       3.380   4.887  11.687  1.00  0.00     0.039 C 
ATOM      8  C   UNL     1       5.596   4.939  12.744  1.00  0.00    -0.028 CG0
ATOM      9  G   UNL     1       6.724   5.412  13.635  1.00  0.00     0.000 G0
ENDBRANCH   5   6
ENDBRANCH   4   5
ENDBRANCH   3   4
BRANCH   3  10
ATOM     10  C   UNL     1       3.571   9.569  11.460  1.00  0.00    -0.010 C 
ATOM     11  C   UNL     1       4.328  10.829  11.000  1.00  0.00     0.008 C 
ATOM     12  C   UNL     1       2.802   9.901  12.754  1.00  0.00     0.008 C 
ENDBRANCH   3  10
ENDBRANCH   2   3
BRANCH   1  13
ATOM     13  C   UNL     1       7.427   7.697  12.704  1.00  0.00    -0.055 C 
ATOM     14  C   UNL     1       7.739   8.534  13.699  1.00  0.00     0.012 C 
BRANCH  13  15
ATOM     15  C   UNL     1       7.778   6.232  12.843  1.00  0.00     0.039 C 
BRANCH  15  16
ATOM     16  C   UNL     1       6.744   5.395  13.620  1.00  0.00     0.032 CG0
ATOM     17  G   UNL     1       5.578   4.957  12.760  1.00  0.00     0.000 G0
ENDBRANCH  15  16
ENDBRANCH  13  15
ENDBRANCH   1  13
TORSDOF 1
ENDMDL
MODEL 2
REMARK VINA RESULT:    -2.375      1.092      2.971
REMARK INTER + INTRA:          -2.551
REMARK INTER:                  -2.947
REMARK INTRA:                   0.395
REMARK UNBOUND:                 0.935
REMARK SMILES C=C1C=C[C@H](C(C)C)CCC(C)=CCC1
REMARK SMILES IDX 3 1 4 2 5 3 9 4 10 5 11 6 12 7 13 8 6 10 7 11 8 12 2 13 1 14
REMARK SMILES IDX 15 15 14 16
REMARK H PARENT
REMARK Flexibility Score: 70.00
ROOT
ATOM      1  C   UNL     1       4.347   6.687  11.245  1.00  0.00    -0.001 C 
ATOM      2  C   UNL     1       4.496   7.993  10.959  1.00  0.00    -0.023 C 
ENDROOT
BRANCH   2   3
ATOM      3  C   UNL     1       4.593   9.166  11.933  1.00  0.00     0.014 C 
BRANCH   3   4
ATOM      4  C   UNL     1       6.008   9.342  12.541  1.00  0.00     0.012 C 
BRANCH   4   5
ATOM      5  C   UNL     1       7.009   8.250  12.111  1.00  0.00     0.031 C 
BRANCH   5   6
ATOM      6  C   UNL     1       7.538   7.516  13.325  1.00  0.00    -0.077 C 
ATOM      7  C   UNL     1       8.309   8.299  14.356  1.00  0.00     0.039 C 
ATOM      8  C   UNL     1       7.420   6.178  13.494  1.00  0.00    -0.028 CG0
ATOM      9  G   UNL     1       6.682   5.225  12.580  1.00  0.00     0.000 G0
ENDBRANCH   5   6
ENDBRANCH   4   5
ENDBRANCH   3   4
BRANCH   3  10
ATOM     10  C   UNL     1       4.041  10.502  11.337  1.00  0.00    -0.010 C 
ATOM     11  C   UNL     1       4.157  11.663  12.341  1.00  0.00     0.008 C 
ATOM     12  C   UNL     1       2.571  10.380  10.891  1.00  0.00     0.008 C 
ENDBRANCH   3  10
ENDBRANCH   2   3
BRANCH   1  13
ATOM     13  C   UNL     1       4.265   6.102  12.597  1.00  0.00    -0.055 C 
ATOM     14  C   UNL     1       3.608   6.764  13.555  1.00  0.00     0.012 C 
BRANCH  13  15
ATOM     15  C   UNL     1       5.215   4.993  12.994  1.00  0.00     0.039 C 
BRANCH  15  16
ATOM     16  C   UNL     1       6.681   5.224  12.580  1.00  0.00     0.032 CG0
ATOM     17  G   UNL     1       7.408   6.175  13.506  1.00  0.00     0.000 G0
ENDBRANCH  15  16
ENDBRANCH  13  15
ENDBRANCH   1  13
TORSDOF 1
ENDMDL
MODEL 3
REMARK VINA RESULT:    -2.338      3.803      6.379
REMARK INTER + INTRA:          -2.497
REMARK INTER:                  -2.757
REMARK INTRA:                   0.260
REMARK UNBOUND:                 0.935
REMARK SMILES C=C1C=C[C@H](C(C)C)CCC(C)=CCC1
REMARK SMILES IDX 3 1 4 2 5 3 9 4 10 5 11 6 12 7 13 8 6 10 7 11 8 12 2 13 1 14
REMARK SMILES IDX 15 15 14 16
REMARK H PARENT
REMARK Flexibility Score: 70.00
ROOT
ATOM      1  C   UNL     1       4.484  12.285  10.878  1.00  0.00    -0.001 C 
ATOM      2  C   UNL     1       4.630  10.947  10.875  1.00  0.00    -0.023 C 
ENDROOT
BRANCH   2   3
ATOM      3  C   UNL     1       4.442   9.977  12.040  1.00  0.00     0.014 C 
BRANCH   3   4
ATOM      4  C   UNL     1       2.956   9.761  12.425  1.00  0.00     0.012 C 
BRANCH   4   5
ATOM      5  C   UNL     1       1.959  10.298  11.378  1.00  0.00     0.031 C 
BRANCH   5   6
ATOM      6  C   UNL     1       0.901  11.148  12.047  1.00  0.00    -0.077 C 
ATOM      7  C   UNL     1      -0.125  10.465  12.914  1.00  0.00     0.039 C 
ATOM      8  C   UNL     1       0.783  12.482  11.847  1.00  0.00    -0.028 CG0
ATOM      9  G   UNL     1       1.712  13.346  11.021  1.00  0.00     0.000 G0
ENDBRANCH   5   6
ENDBRANCH   4   5
ENDBRANCH   3   4
BRANCH   3  10
ATOM     10  C   UNL     1       5.197   8.623  11.834  1.00  0.00    -0.010 C 
ATOM     11  C   UNL     1       4.506   7.468  12.582  1.00  0.00     0.008 C 
ATOM     12  C   UNL     1       6.667   8.698  12.291  1.00  0.00     0.008 C 
ENDBRANCH   3  10
ENDBRANCH   2   3
BRANCH   1  13
ATOM     13  C   UNL     1       4.081  13.109  12.034  1.00  0.00    -0.055 C 
ATOM     14  C   UNL     1       4.613  12.852  13.233  1.00  0.00     0.012 C 
BRANCH  13  15
ATOM     15  C   UNL     1       2.828  13.953  11.954  1.00  0.00     0.039 C 
BRANCH  15  16
ATOM     16  C   UNL     1       1.719  13.373  11.056  1.00  0.00     0.032 CG0
ATOM     17  G   UNL     1       0.755  12.487  11.814  1.00  0.00     0.000 G0
ENDBRANCH  15  16
ENDBRANCH  13  15
ENDBRANCH   1  13
TORSDOF 1
ENDMDL
MODEL 4
REMARK VINA RESULT:    -2.312      1.373      4.115
REMARK INTER + INTRA:          -2.459
REMARK INTER:                  -2.104
REMARK INTRA:                  -0.355
REMARK UNBOUND:                 0.935
REMARK SMILES C=C1C=C[C@H](C(C)C)CCC(C)=CCC1
REMARK SMILES IDX 3 1 4 2 5 3 9 4 10 5 11 6 12 7 13 8 6 10 7 11 8 12 2 13 1 14
REMARK SMILES IDX 15 15 14 16
REMARK H PARENT
REMARK Flexibility Score: 70.00
ROOT
ATOM      1  C   UNL     1       7.181   5.384  12.362  1.00  0.00    -0.001 C 
ATOM      2  C   UNL     1       7.969   6.390  11.944  1.00  0.00    -0.023 C 
ENDROOT
BRANCH   2   3
ATOM      3  C   UNL     1       8.130   7.779  12.560  1.00  0.00     0.014 C 
BRANCH   3   4
ATOM      4  C   UNL     1       6.809   8.590  12.597  1.00  0.00     0.012 C 
BRANCH   4   5
ATOM      5  C   UNL     1       6.011   8.537  11.279  1.00  0.00     0.031 C 
BRANCH   5   6
ATOM      6  C   UNL     1       4.525   8.533  11.564  1.00  0.00    -0.077 C 
ATOM      7  C   UNL     1       3.790   9.849  11.564  1.00  0.00     0.039 C 
ATOM      8  C   UNL     1       3.834   7.415  11.895  1.00  0.00    -0.028 CG0
ATOM      9  G   UNL     1       4.387   6.008  11.943  1.00  0.00     0.000 G0
ENDBRANCH   5   6
ENDBRANCH   4   5
ENDBRANCH   3   4
BRANCH   3  10
ATOM     10  C   UNL     1       8.839   7.749  13.954  1.00  0.00    -0.010 C 
ATOM     11  C   UNL     1       8.080   8.593  14.995  1.00  0.00     0.008 C 
ATOM     12  C   UNL     1      10.295   8.248  13.880  1.00  0.00     0.008 C 
ENDBRANCH   3  10
ENDBRANCH   2   3
BRANCH   1  13
ATOM     13  C   UNL     1       6.301   5.408  13.547  1.00  0.00    -0.055 C 
ATOM     14  C   UNL     1       6.765   4.944  14.711  1.00  0.00     0.012 C 
BRANCH  13  15
ATOM     15  C   UNL     1       4.808   5.585  13.370  1.00  0.00     0.039 C 
BRANCH  15  16
ATOM     16  C   UNL     1       4.375   6.005  11.953  1.00  0.00     0.032 CG0
ATOM     17  G   UNL     1       3.832   7.416  11.900  1.00  0.00     0.000 G0
ENDBRANCH  15  16
ENDBRANCH  13  15
ENDBRANCH   1  13
TORSDOF 1
ENDMDL
MODEL 5
REMARK VINA RESULT:    -1.082      3.075      5.698
REMARK INTER + INTRA:          -0.653
REMARK INTER:                  -2.085
REMARK INTRA:                   1.432
REMARK UNBOUND:                 0.935
REMARK SMILES C=C1C=C[C@H](C(C)C)CCC(C)=CCC1
REMARK SMILES IDX 3 1 4 2 5 3 9 4 10 5 11 6 12 7 13 8 6 10 7 11 8 12 2 13 1 14
REMARK SMILES IDX 15 15 14 16
REMARK H PARENT
REMARK Flexibility Score: 70.00
ROOT
ATOM      1  C   UNL     1       2.623  12.510  14.105  1.00  0.00    -0.001 C 
ATOM      2  C   UNL     1       3.663  13.104  13.492  1.00  0.00    -0.023 C 
ENDROOT
BRANCH   2   3
ATOM      3  C   UNL     1       4.023  13.076  12.008  1.00  0.00     0.014 C 
BRANCH   3   4
ATOM      4  C   UNL     1       3.599  11.763  11.300  1.00  0.00     0.012 C 
BRANCH   4   5
ATOM      5  C   UNL     1       4.785  10.864  10.897  1.00  0.00     0.031 C 
BRANCH   5   6
ATOM      6  C   UNL     1       4.656   9.503  11.546  1.00  0.00    -0.077 C 
ATOM      7  C   UNL     1       5.885   8.636  11.645  1.00  0.00     0.039 C 
ATOM      8  C   UNL     1       3.477   8.991  11.973  1.00  0.00    -0.028 CG0
ATOM      9  G   UNL     1       2.141   9.702  11.964  1.00  0.00     0.000 G0
ENDBRANCH   5   6
ENDBRANCH   4   5
ENDBRANCH   3   4
BRANCH   3  10
ATOM     10  C   UNL     1       3.530  14.343  11.236  1.00  0.00    -0.010 C 
ATOM     11  C   UNL     1       3.777  15.631  12.044  1.00  0.00     0.008 C 
ATOM     12  C   UNL     1       2.033  14.265  10.878  1.00  0.00     0.008 C 
ENDBRANCH   3  10
ENDBRANCH   2   3
BRANCH   1  13
ATOM     13  C   UNL     1       1.577  11.704  13.447  1.00  0.00    -0.055 C 
ATOM     14  C   UNL     1       0.370  12.241  13.248  1.00  0.00     0.012 C 
BRANCH  13  15
ATOM     15  C   UNL     1       1.734  10.201  13.355  1.00  0.00     0.039 C 
BRANCH  15  16
ATOM     16  C   UNL     1       2.136   9.683  11.961  1.00  0.00     0.032 CG0
ATOM     17  G   UNL     1       3.471   8.970  11.964  1.00  0.00     0.000 G0
ENDBRANCH  15  16
ENDBRANCH  13  15
ENDBRANCH   1  13
TORSDOF 1
ENDMDL
