MODEL 1
REMARK VINA RESULT:    -4.547      0.000      0.000
REMARK INTER + INTRA:          -5.151
REMARK INTER:                  -4.946
REMARK INTRA:                  -0.205
REMARK UNBOUND:                -0.205
REMARK SMILES O=C([O-])c1ccccc1O
REMARK SMILES IDX 4 1 9 2 5 3 8 4 6 5 7 6 2 7 1 8 3 9 10 10
REMARK H PARENT 10 11
REMARK Flexibility Score: inf
ROOT
ATOM      1  C   UNL     1     157.231 138.478 160.782  1.00  0.00     0.039 A 
ATOM      2  C   UNL     1     157.535 138.947 159.482  1.00  0.00     0.124 A 
ATOM      3  C   UNL     1     156.770 137.156 160.936  1.00  0.00     0.014 A 
ATOM      4  C   UNL     1     157.375 138.096 158.377  1.00  0.00     0.047 A 
ATOM      5  C   UNL     1     156.615 136.321 159.828  1.00  0.00     0.001 A 
ATOM      6  C   UNL     1     156.918 136.790 158.550  1.00  0.00     0.004 A 
ENDROOT
BRANCH   1   7
ATOM      7  C   UNL     1     157.385 139.344 161.980  1.00  0.00     0.075 C 
ATOM      8  O   UNL     1     157.503 138.831 163.125  1.00  0.00    -0.545 OA
ATOM      9  O   UNL     1     157.404 140.729 161.868  1.00  0.00    -0.545 OA
ENDBRANCH   1   7
BRANCH   2  10
ATOM     10  O   UNL     1     157.994 140.249 159.281  1.00  0.00    -0.507 OA
ATOM     11  H   UNL     1     157.411 141.056 159.474  1.00  0.00     0.293 HD
ENDBRANCH   2  10
TORSDOF 2
ENDMDL
MODEL 2
REMARK VINA RESULT:    -4.507     19.615     20.911
REMARK INTER + INTRA:          -5.107
REMARK INTER:                  -4.951
REMARK INTRA:                  -0.155
REMARK UNBOUND:                -0.205
REMARK SMILES O=C([O-])c1ccccc1O
REMARK SMILES IDX 4 1 9 2 5 3 8 4 6 5 7 6 2 7 1 8 3 9 10 10
REMARK H PARENT 10 11
REMARK Flexibility Score: inf
ROOT
ATOM      1  C   UNL     1     146.331 146.590 144.348  1.00  0.00     0.039 A 
ATOM      2  C   UNL     1     147.574 146.554 145.023  1.00  0.00     0.124 A 
ATOM      3  C   UNL     1     146.117 145.706 143.272  1.00  0.00     0.014 A 
ATOM      4  C   UNL     1     148.565 145.647 144.616  1.00  0.00     0.047 A 
ATOM      5  C   UNL     1     147.112 144.809 142.876  1.00  0.00     0.001 A 
ATOM      6  C   UNL     1     148.334 144.779 143.549  1.00  0.00     0.004 A 
ENDROOT
BRANCH   1   7
ATOM      7  C   UNL     1     145.253 147.533 144.745  1.00  0.00     0.075 C 
ATOM      8  O   UNL     1     144.558 147.309 145.772  1.00  0.00    -0.545 OA
ATOM      9  O   UNL     1     144.988 148.676 144.000  1.00  0.00    -0.545 OA
ENDBRANCH   1   7
BRANCH   2  10
ATOM     10  O   UNL     1     147.830 147.410 146.094  1.00  0.00    -0.507 OA
ATOM     11  H   UNL     1     147.096 147.964 146.521  1.00  0.00     0.293 HD
ENDBRANCH   2  10
TORSDOF 2
ENDMDL
MODEL 3
REMARK VINA RESULT:    -4.483     11.242     12.656
REMARK INTER + INTRA:          -5.081
REMARK INTER:                  -4.866
REMARK INTRA:                  -0.215
REMARK UNBOUND:                -0.205
REMARK SMILES O=C([O-])c1ccccc1O
REMARK SMILES IDX 4 1 9 2 5 3 8 4 6 5 7 6 2 7 1 8 3 9 10 10
REMARK H PARENT 10 11
REMARK Flexibility Score: inf
ROOT
ATOM      1  C   UNL     1     153.016 141.662 149.128  1.00  0.00     0.039 A 
ATOM      2  C   UNL     1     153.448 142.425 150.239  1.00  0.00     0.124 A 
ATOM      3  C   UNL     1     151.823 140.921 149.236  1.00  0.00     0.014 A 
ATOM      4  C   UNL     1     152.689 142.432 151.420  1.00  0.00     0.047 A 
ATOM      5  C   UNL     1     151.078 140.937 150.417  1.00  0.00     0.001 A 
ATOM      6  C   UNL     1     151.510 141.692 151.507  1.00  0.00     0.004 A 
ENDROOT
BRANCH   1   7
ATOM      7  C   UNL     1     153.788 141.626 147.858  1.00  0.00     0.075 C 
ATOM      8  O   UNL     1     153.217 141.329 146.775  1.00  0.00    -0.545 OA
ATOM      9  O   UNL     1     155.147 141.917 147.835  1.00  0.00    -0.545 OA
ENDBRANCH   1   7
BRANCH   2  10
ATOM     10  O   UNL     1     154.623 143.174 150.178  1.00  0.00    -0.507 OA
ATOM     11  H   UNL     1     155.523 142.775 150.420  1.00  0.00     0.293 HD
ENDBRANCH   2  10
TORSDOF 2
ENDMDL
MODEL 4
REMARK VINA RESULT:    -4.457      2.310      3.566
REMARK INTER + INTRA:          -5.053
REMARK INTER:                  -4.806
REMARK INTRA:                  -0.247
REMARK UNBOUND:                -0.205
REMARK SMILES O=C([O-])c1ccccc1O
REMARK SMILES IDX 4 1 9 2 5 3 8 4 6 5 7 6 2 7 1 8 3 9 10 10
REMARK H PARENT 10 11
REMARK Flexibility Score: inf
ROOT
ATOM      1  C   UNL     1     157.218 137.479 159.955  1.00  0.00     0.039 A 
ATOM      2  C   UNL     1     157.699 138.730 159.500  1.00  0.00     0.124 A 
ATOM      3  C   UNL     1     156.866 137.339 161.312  1.00  0.00     0.014 A 
ATOM      4  C   UNL     1     157.816 139.802 160.399  1.00  0.00     0.047 A 
ATOM      5  C   UNL     1     156.988 138.414 162.195  1.00  0.00     0.001 A 
ATOM      6  C   UNL     1     157.462 139.644 161.739  1.00  0.00     0.004 A 
ENDROOT
BRANCH   1   7
ATOM      7  C   UNL     1     157.078 136.317 159.039  1.00  0.00     0.075 C 
ATOM      8  O   UNL     1     158.067 135.908 158.374  1.00  0.00    -0.545 OA
ATOM      9  O   UNL     1     155.862 135.659 158.894  1.00  0.00    -0.545 OA
ENDBRANCH   1   7
BRANCH   2  10
ATOM     10  O   UNL     1     158.060 138.915 158.166  1.00  0.00    -0.507 OA
ATOM     11  H   UNL     1     157.474 138.588 157.405  1.00  0.00     0.293 HD
ENDBRANCH   2  10
TORSDOF 2
ENDMDL
MODEL 5
REMARK VINA RESULT:    -4.447     11.535     12.660
REMARK INTER + INTRA:          -5.042
REMARK INTER:                  -4.832
REMARK INTRA:                  -0.210
REMARK UNBOUND:                -0.205
REMARK SMILES O=C([O-])c1ccccc1O
REMARK SMILES IDX 4 1 9 2 5 3 8 4 6 5 7 6 2 7 1 8 3 9 10 10
REMARK H PARENT 10 11
REMARK Flexibility Score: inf
ROOT
ATOM      1  C   UNL     1     153.214 141.915 149.466  1.00  0.00     0.039 A 
ATOM      2  C   UNL     1     152.415 141.318 148.461  1.00  0.00     0.124 A 
ATOM      3  C   UNL     1     152.695 142.021 150.771  1.00  0.00     0.014 A 
ATOM      4  C   UNL     1     151.131 140.846 148.777  1.00  0.00     0.047 A 
ATOM      5  C   UNL     1     151.416 141.548 151.072  1.00  0.00     0.001 A 
ATOM      6  C   UNL     1     150.636 140.960 150.076  1.00  0.00     0.004 A 
ENDROOT
BRANCH   1   7
ATOM      7  C   UNL     1     154.578 142.428 149.176  1.00  0.00     0.075 C 
ATOM      8  O   UNL     1     155.105 143.292 149.927  1.00  0.00    -0.545 OA
ATOM      9  O   UNL     1     155.299 141.972 148.078  1.00  0.00    -0.545 OA
ENDBRANCH   1   7
BRANCH   2  10
ATOM     10  O   UNL     1     152.886 141.191 147.155  1.00  0.00    -0.507 OA
ATOM     11  H   UNL     1     153.747 140.697 146.944  1.00  0.00     0.293 HD
ENDBRANCH   2  10
TORSDOF 2
ENDMDL
MODEL 6
REMARK VINA RESULT:    -4.272      2.715      4.236
REMARK INTER + INTRA:          -4.852
REMARK INTER:                  -4.602
REMARK INTRA:                  -0.250
REMARK UNBOUND:                -0.205
REMARK SMILES O=C([O-])c1ccccc1O
REMARK SMILES IDX 4 1 9 2 5 3 8 4 6 5 7 6 2 7 1 8 3 9 10 10
REMARK H PARENT 10 11
REMARK Flexibility Score: inf
ROOT
ATOM      1  C   UNL     1     157.061 137.095 159.306  1.00  0.00     0.039 A 
ATOM      2  C   UNL     1     157.214 137.210 160.708  1.00  0.00     0.124 A 
ATOM      3  C   UNL     1     157.279 138.232 158.504  1.00  0.00     0.014 A 
ATOM      4  C   UNL     1     157.578 138.443 161.273  1.00  0.00     0.047 A 
ATOM      5  C   UNL     1     157.639 139.453 159.079  1.00  0.00     0.001 A 
ATOM      6  C   UNL     1     157.789 139.558 160.462  1.00  0.00     0.004 A 
ENDROOT
BRANCH   1   7
ATOM      7  C   UNL     1     156.678 135.810 158.665  1.00  0.00     0.075 C 
ATOM      8  O   UNL     1     157.374 135.334 157.728  1.00  0.00    -0.545 OA
ATOM      9  O   UNL     1     155.554 135.107 159.081  1.00  0.00    -0.545 OA
ENDBRANCH   1   7
BRANCH   2  10
ATOM     10  O   UNL     1     157.010 136.111 161.542  1.00  0.00    -0.507 OA
ATOM     11  H   UNL     1     157.576 135.957 162.369  1.00  0.00     0.293 HD
ENDBRANCH   2  10
TORSDOF 2
ENDMDL
MODEL 7
REMARK VINA RESULT:    -4.142     20.221     21.406
REMARK INTER + INTRA:          -4.710
REMARK INTER:                  -4.479
REMARK INTRA:                  -0.231
REMARK UNBOUND:                -0.205
REMARK SMILES O=C([O-])c1ccccc1O
REMARK SMILES IDX 4 1 9 2 5 3 8 4 6 5 7 6 2 7 1 8 3 9 10 10
REMARK H PARENT 10 11
REMARK Flexibility Score: inf
ROOT
ATOM      1  C   UNL     1     145.996 146.939 144.617  1.00  0.00     0.039 A 
ATOM      2  C   UNL     1     146.449 147.611 143.456  1.00  0.00     0.124 A 
ATOM      3  C   UNL     1     146.798 145.920 145.167  1.00  0.00     0.014 A 
ATOM      4  C   UNL     1     147.678 147.256 142.877  1.00  0.00     0.047 A 
ATOM      5  C   UNL     1     148.018 145.576 144.580  1.00  0.00     0.001 A 
ATOM      6  C   UNL     1     148.457 146.244 143.437  1.00  0.00     0.004 A 
ENDROOT
BRANCH   1   7
ATOM      7  C   UNL     1     144.703 147.283 145.263  1.00  0.00     0.075 C 
ATOM      8  O   UNL     1     144.053 146.404 145.890  1.00  0.00    -0.545 OA
ATOM      9  O   UNL     1     144.183 148.569 145.191  1.00  0.00    -0.545 OA
ENDBRANCH   1   7
BRANCH   2  10
ATOM     10  O   UNL     1     145.689 148.627 142.876  1.00  0.00    -0.507 OA
ATOM     11  H   UNL     1     146.092 149.530 142.650  1.00  0.00     0.293 HD
ENDBRANCH   2  10
TORSDOF 2
ENDMDL
MODEL 8
REMARK VINA RESULT:    -3.793      2.131      4.055
REMARK INTER + INTRA:          -4.330
REMARK INTER:                  -4.097
REMARK INTRA:                  -0.233
REMARK UNBOUND:                -0.205
REMARK SMILES O=C([O-])c1ccccc1O
REMARK SMILES IDX 4 1 9 2 5 3 8 4 6 5 7 6 2 7 1 8 3 9 10 10
REMARK H PARENT 10 11
REMARK Flexibility Score: inf
ROOT
ATOM      1  C   UNL     1     157.523 138.029 160.638  1.00  0.00     0.039 A 
ATOM      2  C   UNL     1     157.665 137.793 162.026  1.00  0.00     0.124 A 
ATOM      3  C   UNL     1     157.688 139.341 160.151  1.00  0.00     0.014 A 
ATOM      4  C   UNL     1     157.965 138.859 162.889  1.00  0.00     0.047 A 
ATOM      5  C   UNL     1     157.986 140.392 161.021  1.00  0.00     0.001 A 
ATOM      6  C   UNL     1     158.125 140.151 162.388  1.00  0.00     0.004 A 
ENDROOT
BRANCH   1   7
ATOM      7  C   UNL     1     157.206 136.930 159.688  1.00  0.00     0.075 C 
ATOM      8  O   UNL     1     156.441 135.991 160.035  1.00  0.00    -0.545 OA
ATOM      9  O   UNL     1     157.740 136.913 158.406  1.00  0.00    -0.545 OA
ENDBRANCH   1   7
BRANCH   2  10
ATOM     10  O   UNL     1     157.510 136.511 162.553  1.00  0.00    -0.507 OA
ATOM     11  H   UNL     1     157.002 136.346 163.415  1.00  0.00     0.293 HD
ENDBRANCH   2  10
TORSDOF 2
ENDMDL
MODEL 9
REMARK VINA RESULT:    -3.695      2.458      3.274
REMARK INTER + INTRA:          -4.224
REMARK INTER:                  -4.005
REMARK INTRA:                  -0.219
REMARK UNBOUND:                -0.205
REMARK SMILES O=C([O-])c1ccccc1O
REMARK SMILES IDX 4 1 9 2 5 3 8 4 6 5 7 6 2 7 1 8 3 9 10 10
REMARK H PARENT 10 11
REMARK Flexibility Score: inf
ROOT
ATOM      1  C   UNL     1     157.378 137.168 160.346  1.00  0.00     0.039 A 
ATOM      2  C   UNL     1     157.175 137.135 158.945  1.00  0.00     0.124 A 
ATOM      3  C   UNL     1     157.717 138.394 160.953  1.00  0.00     0.014 A 
ATOM      4  C   UNL     1     157.311 138.311 158.191  1.00  0.00     0.047 A 
ATOM      5  C   UNL     1     157.850 139.556 160.190  1.00  0.00     0.001 A 
ATOM      6  C   UNL     1     157.647 139.515 158.811  1.00  0.00     0.004 A 
ENDROOT
BRANCH   1   7
ATOM      7  C   UNL     1     157.244 135.948 161.183  1.00  0.00     0.075 C 
ATOM      8  O   UNL     1     157.856 135.860 162.280  1.00  0.00    -0.545 OA
ATOM      9  O   UNL     1     156.446 134.884 160.779  1.00  0.00    -0.545 OA
ENDBRANCH   1   7
BRANCH   2  10
ATOM     10  O   UNL     1     156.838 135.946 158.300  1.00  0.00    -0.507 OA
ATOM     11  H   UNL     1     157.353 135.613 157.493  1.00  0.00     0.293 HD
ENDBRANCH   2  10
TORSDOF 2
ENDMDL
