MODEL 1
REMARK VINA RESULT:    -3.404      0.000      0.000
REMARK INTER + INTRA:          -4.478
REMARK INTER:                  -4.400
REMARK INTRA:                  -0.079
REMARK UNBOUND:                -0.079
REMARK SMILES C=CC(=O)CCCCC
REMARK SMILES IDX 6 1 7 2 8 3 9 4 5 5 3 6 4 7 2 8 1 9
REMARK H PARENT
REMARK Flexibility Score: inf
ROOT
ATOM      1  C   UNL     1      28.399  31.673  23.821  1.00  0.00     0.008 C 
ENDROOT
BRANCH   1   2
ATOM      2  C   UNL     1      29.125  32.349  22.645  1.00  0.00     0.000 C 
BRANCH   2   3
ATOM      3  C   UNL     1      28.712  33.818  22.464  1.00  0.00    -0.003 C 
ATOM      4  C   UNL     1      28.826  34.289  21.015  1.00  0.00     0.004 C 
ENDBRANCH   2   3
ENDBRANCH   1   2
BRANCH   1   5
ATOM      5  C   UNL     1      28.773  30.187  23.954  1.00  0.00     0.080 C 
BRANCH   5   6
ATOM      6  C   UNL     1      28.329  29.562  25.258  1.00  0.00     0.155 C 
ATOM      7  O   UNL     1      28.825  29.964  26.346  1.00  0.00    -0.295 OA
BRANCH   6   8
ATOM      8  C   UNL     1      27.367  28.443  25.307  1.00  0.00     0.039 C 
ATOM      9  C   UNL     1      27.687  27.209  25.694  1.00  0.00     0.012 C 
ENDBRANCH   6   8
ENDBRANCH   5   6
ENDBRANCH   1   5
TORSDOF 5
ENDMDL
MODEL 2
REMARK VINA RESULT:    -3.334      2.354      6.024
REMARK INTER + INTRA:          -4.387
REMARK INTER:                  -4.228
REMARK INTRA:                  -0.159
REMARK UNBOUND:                -0.079
REMARK SMILES C=CC(=O)CCCCC
REMARK SMILES IDX 6 1 7 2 8 3 9 4 5 5 3 6 4 7 2 8 1 9
REMARK H PARENT
REMARK Flexibility Score: inf
ROOT
ATOM      1  C   UNL     1      27.668  27.128  25.748  1.00  0.00     0.008 C 
ENDROOT
BRANCH   1   2
ATOM      2  C   UNL     1      28.020  25.632  25.654  1.00  0.00     0.000 C 
BRANCH   2   3
ATOM      3  C   UNL     1      26.778  24.731  25.714  1.00  0.00    -0.003 C 
ATOM      4  C   UNL     1      26.475  24.053  24.378  1.00  0.00     0.004 C 
ENDBRANCH   2   3
ENDBRANCH   1   2
BRANCH   1   5
ATOM      5  C   UNL     1      28.923  28.017  25.771  1.00  0.00     0.080 C 
BRANCH   5   6
ATOM      6  C   UNL     1      28.630  29.490  25.595  1.00  0.00     0.155 C 
ATOM      7  O   UNL     1      28.780  30.280  26.566  1.00  0.00    -0.295 OA
BRANCH   6   8
ATOM      8  C   UNL     1      28.111  30.042  24.327  1.00  0.00     0.039 C 
ATOM      9  C   UNL     1      28.782  30.008  23.176  1.00  0.00     0.012 C 
ENDBRANCH   6   8
ENDBRANCH   5   6
ENDBRANCH   1   5
TORSDOF 5
ENDMDL
MODEL 3
REMARK VINA RESULT:    -3.150      3.826      5.279
REMARK INTER + INTRA:          -4.150
REMARK INTER:                  -4.008
REMARK INTRA:                  -0.142
REMARK UNBOUND:                -0.079
REMARK SMILES C=CC(=O)CCCCC
REMARK SMILES IDX 6 1 7 2 8 3 9 4 5 5 3 6 4 7 2 8 1 9
REMARK H PARENT
REMARK Flexibility Score: inf
ROOT
ATOM      1  C   UNL     1      27.698  27.251  25.722  1.00  0.00     0.008 C 
ENDROOT
BRANCH   1   2
ATOM      2  C   UNL     1      28.747  28.230  25.164  1.00  0.00     0.000 C 
BRANCH   2   3
ATOM      3  C   UNL     1      28.471  29.684  25.573  1.00  0.00    -0.003 C 
ATOM      4  C   UNL     1      29.061  30.036  26.938  1.00  0.00     0.004 C 
ENDBRANCH   2   3
ENDBRANCH   1   2
BRANCH   1   5
ATOM      5  C   UNL     1      28.248  25.820  25.840  1.00  0.00     0.080 C 
BRANCH   5   6
ATOM      6  C   UNL     1      27.190  24.748  25.697  1.00  0.00     0.155 C 
ATOM      7  O   UNL     1      26.288  24.637  26.571  1.00  0.00    -0.295 OA
BRANCH   6   8
ATOM      8  C   UNL     1      27.204  23.772  24.589  1.00  0.00     0.039 C 
ATOM      9  C   UNL     1      26.207  23.631  23.716  1.00  0.00     0.012 C 
ENDBRANCH   6   8
ENDBRANCH   5   6
ENDBRANCH   1   5
TORSDOF 5
ENDMDL
MODEL 4
REMARK VINA RESULT:    -3.129      3.411      6.235
REMARK INTER + INTRA:          -4.122
REMARK INTER:                  -3.942
REMARK INTRA:                  -0.180
REMARK UNBOUND:                -0.079
REMARK SMILES C=CC(=O)CCCCC
REMARK SMILES IDX 6 1 7 2 8 3 9 4 5 5 3 6 4 7 2 8 1 9
REMARK H PARENT
REMARK Flexibility Score: inf
ROOT
ATOM      1  C   UNL     1      27.605  26.691  25.711  1.00  0.00     0.008 C 
ENDROOT
BRANCH   1   2
ATOM      2  C   UNL     1      28.165  25.260  25.806  1.00  0.00     0.000 C 
BRANCH   2   3
ATOM      3  C   UNL     1      27.064  24.192  25.729  1.00  0.00    -0.003 C 
ATOM      4  C   UNL     1      26.507  24.020  24.317  1.00  0.00     0.004 C 
ENDBRANCH   2   3
ENDBRANCH   1   2
BRANCH   1   5
ATOM      5  C   UNL     1      28.652  27.687  25.184  1.00  0.00     0.080 C 
BRANCH   5   6
ATOM      6  C   UNL     1      28.177  29.123  25.177  1.00  0.00     0.155 C 
ATOM      7  O   UNL     1      27.296  29.488  24.353  1.00  0.00    -0.295 OA
BRANCH   6   8
ATOM      8  C   UNL     1      28.754  30.145  26.074  1.00  0.00     0.039 C 
ATOM      9  C   UNL     1      29.055  29.922  27.353  1.00  0.00     0.012 C 
ENDBRANCH   6   8
ENDBRANCH   5   6
ENDBRANCH   1   5
TORSDOF 5
ENDMDL
MODEL 5
REMARK VINA RESULT:    -3.057      1.774      2.450
REMARK INTER + INTRA:          -4.030
REMARK INTER:                  -3.794
REMARK INTRA:                  -0.236
REMARK UNBOUND:                -0.079
REMARK SMILES C=CC(=O)CCCCC
REMARK SMILES IDX 6 1 7 2 8 3 9 4 5 5 3 6 4 7 2 8 1 9
REMARK H PARENT
REMARK Flexibility Score: inf
ROOT
ATOM      1  C   UNL     1      27.435  29.944  23.822  1.00  0.00     0.008 C 
ENDROOT
BRANCH   1   2
ATOM      2  C   UNL     1      28.652  30.862  24.042  1.00  0.00     0.000 C 
BRANCH   2   3
ATOM      3  C   UNL     1      28.459  32.253  23.422  1.00  0.00    -0.003 C 
ATOM      4  C   UNL     1      29.125  33.361  24.238  1.00  0.00     0.004 C 
ENDBRANCH   2   3
ENDBRANCH   1   2
BRANCH   1   5
ATOM      5  C   UNL     1      27.227  28.970  24.993  1.00  0.00     0.080 C 
BRANCH   5   6
ATOM      6  C   UNL     1      28.507  28.343  25.499  1.00  0.00     0.155 C 
ATOM      7  O   UNL     1      29.054  27.416  24.842  1.00  0.00    -0.295 OA
BRANCH   6   8
ATOM      8  C   UNL     1      29.123  28.740  26.781  1.00  0.00     0.039 C 
ATOM      9  C   UNL     1      28.566  29.598  27.635  1.00  0.00     0.012 C 
ENDBRANCH   6   8
ENDBRANCH   5   6
ENDBRANCH   1   5
TORSDOF 5
ENDMDL
MODEL 6
REMARK VINA RESULT:    -3.025     14.248     15.549
REMARK INTER + INTRA:          -3.988
REMARK INTER:                  -3.718
REMARK INTRA:                  -0.270
REMARK UNBOUND:                -0.079
REMARK SMILES C=CC(=O)CCCCC
REMARK SMILES IDX 6 1 7 2 8 3 9 4 5 5 3 6 4 7 2 8 1 9
REMARK H PARENT
REMARK Flexibility Score: inf
ROOT
ATOM      1  C   UNL     1      13.311  30.380  30.231  1.00  0.00     0.008 C 
ENDROOT
BRANCH   1   2
ATOM      2  C   UNL     1      12.063  30.670  29.376  1.00  0.00     0.000 C 
BRANCH   2   3
ATOM      3  C   UNL     1      12.401  31.417  28.077  1.00  0.00    -0.003 C 
ATOM      4  C   UNL     1      11.366  32.485  27.725  1.00  0.00     0.004 C 
ENDBRANCH   2   3
ENDBRANCH   1   2
BRANCH   1   5
ATOM      5  C   UNL     1      14.541  30.058  29.367  1.00  0.00     0.080 C 
BRANCH   5   6
ATOM      6  C   UNL     1      15.827  30.660  29.889  1.00  0.00     0.155 C 
ATOM      7  O   UNL     1      16.730  29.909  30.348  1.00  0.00    -0.295 OA
BRANCH   6   8
ATOM      8  C   UNL     1      16.048  32.120  29.937  1.00  0.00     0.039 C 
ATOM      9  C   UNL     1      16.860  32.716  30.810  1.00  0.00     0.012 C 
ENDBRANCH   6   8
ENDBRANCH   5   6
ENDBRANCH   1   5
TORSDOF 5
ENDMDL
MODEL 7
REMARK VINA RESULT:    -2.927      4.027      5.295
REMARK INTER + INTRA:          -3.861
REMARK INTER:                  -3.672
REMARK INTRA:                  -0.189
REMARK UNBOUND:                -0.079
REMARK SMILES C=CC(=O)CCCCC
REMARK SMILES IDX 6 1 7 2 8 3 9 4 5 5 3 6 4 7 2 8 1 9
REMARK H PARENT
REMARK Flexibility Score: inf
ROOT
ATOM      1  C   UNL     1      28.305  27.185  25.756  1.00  0.00     0.008 C 
ENDROOT
BRANCH   1   2
ATOM      2  C   UNL     1      29.061  28.366  25.119  1.00  0.00     0.000 C 
BRANCH   2   3
ATOM      3  C   UNL     1      28.710  29.710  25.773  1.00  0.00    -0.003 C 
ATOM      4  C   UNL     1      28.811  29.670  27.297  1.00  0.00     0.004 C 
ENDBRANCH   2   3
ENDBRANCH   1   2
BRANCH   1   5
ATOM      5  C   UNL     1      28.978  25.837  25.451  1.00  0.00     0.080 C 
BRANCH   5   6
ATOM      6  C   UNL     1      28.012  24.674  25.393  1.00  0.00     0.155 C 
ATOM      7  O   UNL     1      28.310  23.644  24.728  1.00  0.00    -0.295 OA
BRANCH   6   8
ATOM      8  C   UNL     1      26.689  24.717  26.046  1.00  0.00     0.039 C 
ATOM      9  C   UNL     1      26.287  23.835  26.961  1.00  0.00     0.012 C 
ENDBRANCH   6   8
ENDBRANCH   5   6
ENDBRANCH   1   5
TORSDOF 5
ENDMDL
MODEL 8
REMARK VINA RESULT:    -2.863      1.980      3.210
REMARK INTER + INTRA:          -3.778
REMARK INTER:                  -3.656
REMARK INTRA:                  -0.122
REMARK UNBOUND:                -0.079
REMARK SMILES C=CC(=O)CCCCC
REMARK SMILES IDX 6 1 7 2 8 3 9 4 5 5 3 6 4 7 2 8 1 9
REMARK H PARENT
REMARK Flexibility Score: inf
ROOT
ATOM      1  C   UNL     1      28.480  29.213  25.763  1.00  0.00     0.008 C 
ENDROOT
BRANCH   1   2
ATOM      2  C   UNL     1      28.020  29.908  24.468  1.00  0.00     0.000 C 
BRANCH   2   3
ATOM      3  C   UNL     1      29.119  30.784  23.849  1.00  0.00    -0.003 C 
ATOM      4  C   UNL     1      28.849  32.279  24.020  1.00  0.00     0.004 C 
ENDBRANCH   2   3
ENDBRANCH   1   2
BRANCH   1   5
ATOM      5  C   UNL     1      27.463  28.166  26.249  1.00  0.00     0.080 C 
BRANCH   5   6
ATOM      6  C   UNL     1      27.914  26.737  26.040  1.00  0.00     0.155 C 
ATOM      7  O   UNL     1      29.125  26.431  26.210  1.00  0.00    -0.295 OA
BRANCH   6   8
ATOM      8  C   UNL     1      26.989  25.680  25.584  1.00  0.00     0.039 C 
ATOM      9  C   UNL     1      27.390  24.500  25.113  1.00  0.00     0.012 C 
ENDBRANCH   6   8
ENDBRANCH   5   6
ENDBRANCH   1   5
TORSDOF 5
ENDMDL
MODEL 9
REMARK VINA RESULT:    -2.806      4.480      7.876
REMARK INTER + INTRA:          -3.705
REMARK INTER:                  -3.465
REMARK INTRA:                  -0.240
REMARK UNBOUND:                -0.079
REMARK SMILES C=CC(=O)CCCCC
REMARK SMILES IDX 6 1 7 2 8 3 9 4 5 5 3 6 4 7 2 8 1 9
REMARK H PARENT
REMARK Flexibility Score: inf
ROOT
ATOM      1  C   UNL     1      27.157  23.665  25.936  1.00  0.00     0.008 C 
ENDROOT
BRANCH   1   2
ATOM      2  C   UNL     1      26.366  23.402  27.231  1.00  0.00     0.000 C 
BRANCH   2   3
ATOM      3  C   UNL     1      25.001  24.106  27.240  1.00  0.00    -0.003 C 
ATOM      4  C   UNL     1      23.849  23.165  26.886  1.00  0.00     0.004 C 
ENDBRANCH   2   3
ENDBRANCH   1   2
BRANCH   1   5
ATOM      5  C   UNL     1      26.894  25.072  25.374  1.00  0.00     0.080 C 
BRANCH   5   6
ATOM      6  C   UNL     1      27.894  26.108  25.835  1.00  0.00     0.155 C 
ATOM      7  O   UNL     1      28.960  25.743  26.401  1.00  0.00    -0.295 OA
BRANCH   6   8
ATOM      8  C   UNL     1      27.644  27.557  25.698  1.00  0.00     0.039 C 
ATOM      9  C   UNL     1      28.359  28.493  26.323  1.00  0.00     0.012 C 
ENDBRANCH   6   8
ENDBRANCH   5   6
ENDBRANCH   1   5
TORSDOF 5
ENDMDL
