MODEL 1
REMARK VINA RESULT:    -3.350      0.000      0.000
REMARK INTER + INTRA:          -4.040
REMARK INTER:                  -3.938
REMARK INTRA:                  -0.103
REMARK UNBOUND:                -0.103
REMARK SMILES CCCCC(=O)[O-]
REMARK SMILES IDX 4 1 5 2 6 3 7 4 3 5 2 6 1 7
REMARK H PARENT
REMARK Flexibility Score: inf
ROOT
ATOM      1  C   UNL     1      59.019  11.198  89.076  1.00  0.00     0.053 C 
ENDROOT
BRANCH   1   2
ATOM      2  C   UNL     1      59.143  10.204  90.188  1.00  0.00     0.041 C 
ATOM      3  O   UNL     1      58.218   9.377  90.405  1.00  0.00    -0.550 OA
ATOM      4  O   UNL     1      60.301  10.159  90.955  1.00  0.00    -0.550 OA
ENDBRANCH   1   2
BRANCH   1   5
ATOM      5  C   UNL     1      58.143  12.380  89.512  1.00  0.00     0.006 C 
BRANCH   5   6
ATOM      6  C   UNL     1      56.691  12.244  89.030  1.00  0.00    -0.003 C 
ATOM      7  C   UNL     1      56.562  11.388  87.771  1.00  0.00     0.004 C 
ENDBRANCH   5   6
ENDBRANCH   1   5
TORSDOF 3
ENDMDL
MODEL 2
REMARK VINA RESULT:    -3.262      1.455      1.745
REMARK INTER + INTRA:          -3.937
REMARK INTER:                  -3.897
REMARK INTRA:                  -0.040
REMARK UNBOUND:                -0.103
REMARK SMILES CCCCC(=O)[O-]
REMARK SMILES IDX 4 1 5 2 6 3 7 4 3 5 2 6 1 7
REMARK H PARENT
REMARK Flexibility Score: inf
ROOT
ATOM      1  C   UNL     1      59.350  10.234  90.201  1.00  0.00     0.053 C 
ENDROOT
BRANCH   1   2
ATOM      2  C   UNL     1      60.237  10.847  91.238  1.00  0.00     0.041 C 
ATOM      3  O   UNL     1      59.885  11.900  91.833  1.00  0.00    -0.550 OA
ATOM      4  O   UNL     1      61.433  10.229  91.583  1.00  0.00    -0.550 OA
ENDBRANCH   1   2
BRANCH   1   5
ATOM      5  C   UNL     1      59.051  11.248  89.088  1.00  0.00     0.006 C 
BRANCH   5   6
ATOM      6  C   UNL     1      57.616  11.792  89.158  1.00  0.00    -0.003 C 
ATOM      7  C   UNL     1      56.757  11.350  87.974  1.00  0.00     0.004 C 
ENDBRANCH   5   6
ENDBRANCH   1   5
TORSDOF 3
ENDMDL
MODEL 3
REMARK VINA RESULT:    -3.238     11.960     12.755
REMARK INTER + INTRA:          -3.908
REMARK INTER:                  -3.839
REMARK INTRA:                  -0.069
REMARK UNBOUND:                -0.103
REMARK SMILES CCCCC(=O)[O-]
REMARK SMILES IDX 4 1 5 2 6 3 7 4 3 5 2 6 1 7
REMARK H PARENT
REMARK Flexibility Score: inf
ROOT
ATOM      1  C   UNL     1      47.050  14.959  95.488  1.00  0.00     0.053 C 
ENDROOT
BRANCH   1   2
ATOM      2  C   UNL     1      48.514  15.033  95.184  1.00  0.00     0.041 C 
ATOM      3  O   UNL     1      48.906  15.288  94.015  1.00  0.00    -0.550 OA
ATOM      4  O   UNL     1      49.445  14.867  96.202  1.00  0.00    -0.550 OA
ENDBRANCH   1   2
BRANCH   1   5
ATOM      5  C   UNL     1      46.672  13.545  95.949  1.00  0.00     0.006 C 
BRANCH   5   6
ATOM      6  C   UNL     1      46.582  12.550  94.783  1.00  0.00    -0.003 C 
ATOM      7  C   UNL     1      45.981  11.208  95.195  1.00  0.00     0.004 C 
ENDBRANCH   5   6
ENDBRANCH   1   5
TORSDOF 3
ENDMDL
MODEL 4
REMARK VINA RESULT:    -3.170      1.752      2.077
REMARK INTER + INTRA:          -3.828
REMARK INTER:                  -3.744
REMARK INTRA:                  -0.085
REMARK UNBOUND:                -0.103
REMARK SMILES CCCCC(=O)[O-]
REMARK SMILES IDX 4 1 5 2 6 3 7 4 3 5 2 6 1 7
REMARK H PARENT
REMARK Flexibility Score: inf
ROOT
ATOM      1  C   UNL     1      58.120  10.148  89.979  1.00  0.00     0.053 C 
ENDROOT
BRANCH   1   2
ATOM      2  C   UNL     1      57.120  10.456  91.049  1.00  0.00     0.041 C 
ATOM      3  O   UNL     1      56.159   9.671  91.262  1.00  0.00    -0.550 OA
ATOM      4  O   UNL     1      57.277  11.585  91.843  1.00  0.00    -0.550 OA
ENDBRANCH   1   2
BRANCH   1   5
ATOM      5  C   UNL     1      58.157  11.279  88.942  1.00  0.00     0.006 C 
BRANCH   5   6
ATOM      6  C   UNL     1      56.823  11.437  88.197  1.00  0.00    -0.003 C 
ATOM      7  C   UNL     1      56.093  12.730  88.558  1.00  0.00     0.004 C 
ENDBRANCH   5   6
ENDBRANCH   1   5
TORSDOF 3
ENDMDL
MODEL 5
REMARK VINA RESULT:    -3.155     12.401     13.110
REMARK INTER + INTRA:          -3.811
REMARK INTER:                  -3.771
REMARK INTRA:                  -0.040
REMARK UNBOUND:                -0.103
REMARK SMILES CCCCC(=O)[O-]
REMARK SMILES IDX 4 1 5 2 6 3 7 4 3 5 2 6 1 7
REMARK H PARENT
REMARK Flexibility Score: inf
ROOT
ATOM      1  C   UNL     1      46.609  13.457  95.900  1.00  0.00     0.053 C 
ENDROOT
BRANCH   1   2
ATOM      2  C   UNL     1      46.260  12.509  94.796  1.00  0.00     0.041 C 
ATOM      3  O   UNL     1      46.279  12.896  93.598  1.00  0.00    -0.550 OA
ATOM      4  O   UNL     1      45.959  11.184  95.087  1.00  0.00    -0.550 OA
ENDBRANCH   1   2
BRANCH   1   5
ATOM      5  C   UNL     1      47.426  14.636  95.353  1.00  0.00     0.006 C 
BRANCH   5   6
ATOM      6  C   UNL     1      48.868  14.648  95.882  1.00  0.00    -0.003 C 
ATOM      7  C   UNL     1      49.309  16.030  96.364  1.00  0.00     0.004 C 
ENDBRANCH   5   6
ENDBRANCH   1   5
TORSDOF 3
ENDMDL
MODEL 6
REMARK VINA RESULT:    -3.111      2.456      3.595
REMARK INTER + INTRA:          -3.759
REMARK INTER:                  -3.688
REMARK INTRA:                  -0.071
REMARK UNBOUND:                -0.103
REMARK SMILES CCCCC(=O)[O-]
REMARK SMILES IDX 4 1 5 2 6 3 7 4 3 5 2 6 1 7
REMARK H PARENT
REMARK Flexibility Score: inf
ROOT
ATOM      1  C   UNL     1      57.266  11.523  88.746  1.00  0.00     0.053 C 
ENDROOT
BRANCH   1   2
ATOM      2  C   UNL     1      56.957  12.749  89.547  1.00  0.00     0.041 C 
ATOM      3  O   UNL     1      55.921  12.795  90.262  1.00  0.00    -0.550 OA
ATOM      4  O   UNL     1      57.838  13.824  89.540  1.00  0.00    -0.550 OA
ENDBRANCH   1   2
BRANCH   1   5
ATOM      5  C   UNL     1      58.742  11.137  88.909  1.00  0.00     0.006 C 
BRANCH   5   6
ATOM      6  C   UNL     1      58.988  10.268  90.151  1.00  0.00    -0.003 C 
ATOM      7  C   UNL     1      60.420  10.375  90.674  1.00  0.00     0.004 C 
ENDBRANCH   5   6
ENDBRANCH   1   5
TORSDOF 3
ENDMDL
MODEL 7
REMARK VINA RESULT:    -3.062     16.076     16.686
REMARK INTER + INTRA:          -3.701
REMARK INTER:                  -3.681
REMARK INTRA:                  -0.021
REMARK UNBOUND:                -0.103
REMARK SMILES CCCCC(=O)[O-]
REMARK SMILES IDX 4 1 5 2 6 3 7 4 3 5 2 6 1 7
REMARK H PARENT
REMARK Flexibility Score: inf
ROOT
ATOM      1  C   UNL     1      50.724   5.441 104.067  1.00  0.00     0.053 C 
ENDROOT
BRANCH   1   2
ATOM      2  C   UNL     1      50.947   4.031 104.518  1.00  0.00     0.041 C 
ATOM      3  O   UNL     1      49.968   3.302 104.826  1.00  0.00    -0.550 OA
ATOM      4  O   UNL     1      52.234   3.508 104.551  1.00  0.00    -0.550 OA
ENDBRANCH   1   2
BRANCH   1   5
ATOM      5  C   UNL     1      51.163   5.610 102.607  1.00  0.00     0.006 C 
BRANCH   5   6
ATOM      6  C   UNL     1      51.575   7.053 102.280  1.00  0.00    -0.003 C 
ATOM      7  C   UNL     1      51.647   7.322 100.777  1.00  0.00     0.004 C 
ENDBRANCH   5   6
ENDBRANCH   1   5
TORSDOF 3
ENDMDL
MODEL 8
REMARK VINA RESULT:    -3.044      2.515      3.343
REMARK INTER + INTRA:          -3.680
REMARK INTER:                  -3.572
REMARK INTRA:                  -0.108
REMARK UNBOUND:                -0.103
REMARK SMILES CCCCC(=O)[O-]
REMARK SMILES IDX 4 1 5 2 6 3 7 4 3 5 2 6 1 7
REMARK H PARENT
REMARK Flexibility Score: inf
ROOT
ATOM      1  C   UNL     1      57.830  12.367  89.371  1.00  0.00     0.053 C 
ENDROOT
BRANCH   1   2
ATOM      2  C   UNL     1      58.407  13.502  90.159  1.00  0.00     0.041 C 
ATOM      3  O   UNL     1      58.578  13.388  91.401  1.00  0.00    -0.550 OA
ATOM      4  O   UNL     1      58.801  14.667  89.512  1.00  0.00    -0.550 OA
ENDBRANCH   1   2
BRANCH   1   5
ATOM      5  C   UNL     1      58.883  11.272  89.162  1.00  0.00     0.006 C 
BRANCH   5   6
ATOM      6  C   UNL     1      58.669  10.065  90.087  1.00  0.00    -0.003 C 
ATOM      7  C   UNL     1      57.227   9.945  90.579  1.00  0.00     0.004 C 
ENDBRANCH   5   6
ENDBRANCH   1   5
TORSDOF 3
ENDMDL
MODEL 9
REMARK VINA RESULT:    -3.035     12.191     12.710
REMARK INTER + INTRA:          -3.670
REMARK INTER:                  -3.652
REMARK INTRA:                  -0.017
REMARK UNBOUND:                -0.103
REMARK SMILES CCCCC(=O)[O-]
REMARK SMILES IDX 4 1 5 2 6 3 7 4 3 5 2 6 1 7
REMARK H PARENT
REMARK Flexibility Score: inf
ROOT
ATOM      1  C   UNL     1      49.225  15.019  96.223  1.00  0.00     0.053 C 
ENDROOT
BRANCH   1   2
ATOM      2  C   UNL     1      48.010  14.607  95.452  1.00  0.00     0.041 C 
ATOM      3  O   UNL     1      47.934  14.839  94.217  1.00  0.00    -0.550 OA
ATOM      4  O   UNL     1      46.981  13.923  96.089  1.00  0.00    -0.550 OA
ENDBRANCH   1   2
BRANCH   1   5
ATOM      5  C   UNL     1      49.537  16.500  95.975  1.00  0.00     0.006 C 
BRANCH   5   6
ATOM      6  C   UNL     1      50.241  17.161  97.170  1.00  0.00    -0.003 C 
ATOM      7  C   UNL     1      50.858  18.514  96.818  1.00  0.00     0.004 C 
ENDBRANCH   5   6
ENDBRANCH   1   5
TORSDOF 3
ENDMDL
