MODEL 1
REMARK VINA RESULT:    -7.107      0.000      0.000
REMARK INTER + INTRA:          -8.884
REMARK INTER:                  -8.561
REMARK INTRA:                  -0.323
REMARK UNBOUND:                -0.323
REMARK SMILES O=c1c(O)c(-c2ccc(O)c(O)c2)oc2cc(O)cc(O)c12
REMARK SMILES IDX 5 1 3 2 2 3 1 4 22 5 20 6 19 7 17 8 16 9 15 10 14 11 6 12
REMARK SMILES IDX 7 13 8 14 9 15 13 16 11 17 10 18 12 20 4 22 21 24 18 26
REMARK H PARENT 10 19 12 21 4 23 21 25 18 27
REMARK Flexibility Score: inf
ROOT
ATOM      1  C   UNL     1      -2.041  -4.765  -4.417  1.00  0.00     0.180 A 
ATOM      2  C   UNL     1      -3.265  -5.442  -4.558  1.00  0.00     0.208 A 
ATOM      3  C   UNL     1      -4.434  -4.695  -4.774  1.00  0.00     0.238 A 
ATOM      4  O   UNL     1      -5.519  -5.309  -4.955  1.00  0.00    -0.285 OA
ATOM      5  C   UNL     1      -4.368  -3.282  -4.829  1.00  0.00     0.111 A 
ATOM      6  C   UNL     1      -5.496  -2.424  -5.003  1.00  0.00     0.134 A 
ATOM      7  C   UNL     1      -5.298  -1.048  -5.174  1.00  0.00     0.093 A 
ATOM      8  C   UNL     1      -4.021  -0.492  -5.112  1.00  0.00     0.123 A 
ATOM      9  C   UNL     1      -2.917  -1.314  -4.883  1.00  0.00     0.094 A 
ATOM     10  C   UNL     1      -3.079  -2.694  -4.745  1.00  0.00     0.146 A 
ATOM     11  O   UNL     1      -2.002  -3.443  -4.539  1.00  0.00    -0.452 OA
ENDROOT
BRANCH   1  12
ATOM     12  C   UNL     1      -0.770  -5.480  -4.163  1.00  0.00     0.025 A 
ATOM     13  C   UNL     1       0.049  -5.916  -5.220  1.00  0.00     0.016 A 
ATOM     14  C   UNL     1       1.232  -6.611  -4.956  1.00  0.00     0.051 A 
ATOM     15  C   UNL     1       1.607  -6.893  -3.636  1.00  0.00     0.157 A 
ATOM     16  C   UNL     1      -0.399  -5.783  -2.842  1.00  0.00     0.062 A 
ATOM     17  C   UNL     1       0.788  -6.480  -2.577  1.00  0.00     0.158 A 
BRANCH  15  18
ATOM     18  O   UNL     1       2.788  -7.584  -3.369  1.00  0.00    -0.504 OA
ATOM     19  H   UNL     1       3.265  -8.114  -4.087  1.00  0.00     0.293 HD
ENDBRANCH  15  18
BRANCH  17  20
ATOM     20  O   UNL     1       1.160  -6.767  -1.264  1.00  0.00    -0.504 OA
ATOM     21  H   UNL     1       0.882  -7.629  -0.812  1.00  0.00     0.293 HD
ENDBRANCH  17  20
ENDBRANCH   1  12
BRANCH   2  22
ATOM     22  O   UNL     1      -3.304  -6.837  -4.522  1.00  0.00    -0.502 OA
ATOM     23  H   UNL     1      -4.144  -7.353  -4.286  1.00  0.00     0.293 HD
ENDBRANCH   2  22
BRANCH   6  24
ATOM     24  O   UNL     1      -6.823  -2.866  -4.987  1.00  0.00    -0.507 OA
ATOM     25  H   UNL     1      -7.231  -3.480  -5.675  1.00  0.00     0.293 HD
ENDBRANCH   6  24
BRANCH   8  26
ATOM     26  O   UNL     1      -3.862   0.883  -5.271  1.00  0.00    -0.508 OA
ATOM     27  H   UNL     1      -3.140   1.267  -5.869  1.00  0.00     0.293 HD
ENDBRANCH   8  26
TORSDOF 6
ENDMDL
MODEL 2
REMARK VINA RESULT:    -6.939      1.544      7.157
REMARK INTER + INTRA:          -8.682
REMARK INTER:                  -8.399
REMARK INTRA:                  -0.284
REMARK UNBOUND:                -0.323
REMARK SMILES O=c1c(O)c(-c2ccc(O)c(O)c2)oc2cc(O)cc(O)c12
REMARK SMILES IDX 5 1 3 2 2 3 1 4 22 5 20 6 19 7 17 8 16 9 15 10 14 11 6 12
REMARK SMILES IDX 7 13 8 14 9 15 13 16 11 17 10 18 12 20 4 22 21 24 18 26
REMARK H PARENT 10 19 12 21 4 23 21 25 18 27
REMARK Flexibility Score: inf
ROOT
ATOM      1  C   UNL     1      -1.830  -4.677  -4.433  1.00  0.00     0.180 A 
ATOM      2  C   UNL     1      -0.799  -4.718  -5.388  1.00  0.00     0.208 A 
ATOM      3  C   UNL     1       0.330  -5.514  -5.137  1.00  0.00     0.238 A 
ATOM      4  O   UNL     1       1.225  -5.590  -6.019  1.00  0.00    -0.285 OA
ATOM      5  C   UNL     1       0.422  -6.246  -3.928  1.00  0.00     0.111 A 
ATOM      6  C   UNL     1       1.538  -7.052  -3.552  1.00  0.00     0.134 A 
ATOM      7  C   UNL     1       1.465  -7.836  -2.393  1.00  0.00     0.093 A 
ATOM      8  C   UNL     1       0.344  -7.792  -1.564  1.00  0.00     0.123 A 
ATOM      9  C   UNL     1      -0.728  -6.961  -1.890  1.00  0.00     0.094 A 
ATOM     10  C   UNL     1      -0.699  -6.196  -3.059  1.00  0.00     0.146 A 
ATOM     11  O   UNL     1      -1.744  -5.426  -3.339  1.00  0.00    -0.452 OA
ENDROOT
BRANCH   1  12
ATOM     12  C   UNL     1      -3.040  -3.843  -4.615  1.00  0.00     0.025 A 
ATOM     13  C   UNL     1      -4.252  -4.399  -5.061  1.00  0.00     0.016 A 
ATOM     14  C   UNL     1      -5.374  -3.586  -5.249  1.00  0.00     0.051 A 
ATOM     15  C   UNL     1      -5.297  -2.209  -5.007  1.00  0.00     0.157 A 
ATOM     16  C   UNL     1      -2.963  -2.458  -4.394  1.00  0.00     0.062 A 
ATOM     17  C   UNL     1      -4.089  -1.642  -4.582  1.00  0.00     0.158 A 
BRANCH  15  18
ATOM     18  O   UNL     1      -6.415  -1.396  -5.191  1.00  0.00    -0.504 OA
ATOM     19  H   UNL     1      -6.595  -0.599  -4.593  1.00  0.00     0.293 HD
ENDBRANCH  15  18
BRANCH  17  20
ATOM     20  O   UNL     1      -4.013  -0.270  -4.349  1.00  0.00    -0.504 OA
ATOM     21  H   UNL     1      -4.831   0.270  -4.095  1.00  0.00     0.293 HD
ENDBRANCH  17  20
ENDBRANCH   1  12
BRANCH   2  22
ATOM     22  O   UNL     1      -0.919  -4.006  -6.583  1.00  0.00    -0.502 OA
ATOM     23  H   UNL     1      -1.787  -3.960  -7.105  1.00  0.00     0.293 HD
ENDBRANCH   2  22
BRANCH   6  24
ATOM     24  O   UNL     1       2.742  -7.099  -4.261  1.00  0.00    -0.507 OA
ATOM     25  H   UNL     1       3.254  -7.942  -4.467  1.00  0.00     0.293 HD
ENDBRANCH   6  24
BRANCH   8  26
ATOM     26  O   UNL     1       0.312  -8.573  -0.411  1.00  0.00    -0.508 OA
ATOM     27  H   UNL     1      -0.519  -8.634   0.164  1.00  0.00     0.293 HD
ENDBRANCH   8  26
TORSDOF 6
ENDMDL
MODEL 3
REMARK VINA RESULT:    -6.845      1.850      6.536
REMARK INTER + INTRA:          -8.569
REMARK INTER:                  -8.286
REMARK INTRA:                  -0.283
REMARK UNBOUND:                -0.323
REMARK SMILES O=c1c(O)c(-c2ccc(O)c(O)c2)oc2cc(O)cc(O)c12
REMARK SMILES IDX 5 1 3 2 2 3 1 4 22 5 20 6 19 7 17 8 16 9 15 10 14 11 6 12
REMARK SMILES IDX 7 13 8 14 9 15 13 16 11 17 10 18 12 20 4 22 21 24 18 26
REMARK H PARENT 10 19 12 21 4 23 21 25 18 27
REMARK Flexibility Score: inf
ROOT
ATOM      1  C   UNL     1      -2.893  -3.954  -5.051  1.00  0.00     0.180 A 
ATOM      2  C   UNL     1      -3.428  -4.955  -5.881  1.00  0.00     0.208 A 
ATOM      3  C   UNL     1      -3.068  -6.293  -5.651  1.00  0.00     0.238 A 
ATOM      4  O   UNL     1      -3.592  -7.190  -6.362  1.00  0.00    -0.285 OA
ATOM      5  C   UNL     1      -2.167  -6.611  -4.608  1.00  0.00     0.111 A 
ATOM      6  C   UNL     1      -1.701  -7.928  -4.312  1.00  0.00     0.134 A 
ATOM      7  C   UNL     1      -0.913  -8.143  -3.174  1.00  0.00     0.093 A 
ATOM      8  C   UNL     1      -0.520  -7.082  -2.361  1.00  0.00     0.123 A 
ATOM      9  C   UNL     1      -0.918  -5.782  -2.674  1.00  0.00     0.094 A 
ATOM     10  C   UNL     1      -1.735  -5.541  -3.781  1.00  0.00     0.146 A 
ATOM     11  O   UNL     1      -2.102  -4.291  -4.039  1.00  0.00    -0.452 OA
ENDROOT
BRANCH   1  12
ATOM     12  C   UNL     1      -3.206  -2.520  -5.246  1.00  0.00     0.025 A 
ATOM     13  C   UNL     1      -2.624  -1.779  -6.289  1.00  0.00     0.016 A 
ATOM     14  C   UNL     1      -2.915  -0.420  -6.439  1.00  0.00     0.051 A 
ATOM     15  C   UNL     1      -3.780   0.220  -5.541  1.00  0.00     0.157 A 
ATOM     16  C   UNL     1      -4.057  -1.868  -4.337  1.00  0.00     0.062 A 
ATOM     17  C   UNL     1      -4.350  -0.505  -4.487  1.00  0.00     0.158 A 
BRANCH  15  18
ATOM     18  O   UNL     1      -4.075   1.574  -5.689  1.00  0.00    -0.504 OA
ATOM     19  H   UNL     1      -4.923   1.976  -5.308  1.00  0.00     0.293 HD
ENDBRANCH  15  18
BRANCH  17  20
ATOM     20  O   UNL     1      -5.205   0.136  -3.591  1.00  0.00    -0.504 OA
ATOM     21  H   UNL     1      -4.972   0.229  -2.611  1.00  0.00     0.293 HD
ENDBRANCH  17  20
ENDBRANCH   1  12
BRANCH   2  22
ATOM     22  O   UNL     1      -4.333  -4.622  -6.891  1.00  0.00    -0.502 OA
ATOM     23  H   UNL     1      -5.225  -5.090  -6.999  1.00  0.00     0.293 HD
ENDBRANCH   2  22
BRANCH   6  24
ATOM     24  O   UNL     1      -1.961  -9.045  -5.111  1.00  0.00    -0.507 OA
ATOM     25  H   UNL     1      -2.227  -9.006  -6.083  1.00  0.00     0.293 HD
ENDBRANCH   6  24
BRANCH   8  26
ATOM     26  O   UNL     1       0.279  -7.330  -1.246  1.00  0.00    -0.508 OA
ATOM     27  H   UNL     1       0.348  -8.256  -0.840  1.00  0.00     0.293 HD
ENDBRANCH   8  26
TORSDOF 6
ENDMDL
MODEL 4
REMARK VINA RESULT:    -6.776      3.092      7.517
REMARK INTER + INTRA:          -8.485
REMARK INTER:                  -8.256
REMARK INTRA:                  -0.230
REMARK UNBOUND:                -0.323
REMARK SMILES O=c1c(O)c(-c2ccc(O)c(O)c2)oc2cc(O)cc(O)c12
REMARK SMILES IDX 5 1 3 2 2 3 1 4 22 5 20 6 19 7 17 8 16 9 15 10 14 11 6 12
REMARK SMILES IDX 7 13 8 14 9 15 13 16 11 17 10 18 12 20 4 22 21 24 18 26
REMARK H PARENT 10 19 12 21 4 23 21 25 18 27
REMARK Flexibility Score: inf
ROOT
ATOM      1  C   UNL     1      -4.774  -1.945  -4.818  1.00  0.00     0.180 A 
ATOM      2  C   UNL     1      -3.468  -2.361  -4.501  1.00  0.00     0.208 A 
ATOM      3  C   UNL     1      -3.176  -3.734  -4.489  1.00  0.00     0.238 A 
ATOM      4  O   UNL     1      -1.993  -4.098  -4.258  1.00  0.00    -0.285 OA
ATOM      5  C   UNL     1      -4.194  -4.674  -4.777  1.00  0.00     0.111 A 
ATOM      6  C   UNL     1      -4.019  -6.091  -4.754  1.00  0.00     0.134 A 
ATOM      7  C   UNL     1      -5.061  -6.923  -5.184  1.00  0.00     0.093 A 
ATOM      8  C   UNL     1      -6.290  -6.393  -5.573  1.00  0.00     0.123 A 
ATOM      9  C   UNL     1      -6.493  -5.013  -5.542  1.00  0.00     0.094 A 
ATOM     10  C   UNL     1      -5.460  -4.156  -5.153  1.00  0.00     0.146 A 
ATOM     11  O   UNL     1      -5.690  -2.848  -5.148  1.00  0.00    -0.452 OA
ENDROOT
BRANCH   1  12
ATOM     12  C   UNL     1      -5.165  -0.517  -4.827  1.00  0.00     0.025 A 
ATOM     13  C   UNL     1      -6.020   0.013  -3.845  1.00  0.00     0.016 A 
ATOM     14  C   UNL     1      -6.396   1.359  -3.888  1.00  0.00     0.051 A 
ATOM     15  C   UNL     1      -5.933   2.189  -4.918  1.00  0.00     0.157 A 
ATOM     16  C   UNL     1      -4.721   0.315  -5.868  1.00  0.00     0.062 A 
ATOM     17  C   UNL     1      -5.097   1.665  -5.912  1.00  0.00     0.158 A 
BRANCH  15  18
ATOM     18  O   UNL     1      -6.303   3.532  -4.962  1.00  0.00    -0.504 OA
ATOM     19  H   UNL     1      -6.035   4.180  -4.231  1.00  0.00     0.293 HD
ENDBRANCH  15  18
BRANCH  17  20
ATOM     20  O   UNL     1      -4.644   2.491  -6.939  1.00  0.00    -0.504 OA
ATOM     21  H   UNL     1      -5.190   3.280  -7.264  1.00  0.00     0.293 HD
ENDBRANCH  17  20
ENDBRANCH   1  12
BRANCH   2  22
ATOM     22  O   UNL     1      -2.473  -1.416  -4.241  1.00  0.00    -0.502 OA
ATOM     23  H   UNL     1      -2.663  -0.421  -4.204  1.00  0.00     0.293 HD
ENDBRANCH   2  22
BRANCH   6  24
ATOM     24  O   UNL     1      -2.861  -6.727  -4.296  1.00  0.00    -0.507 OA
ATOM     25  H   UNL     1      -2.214  -6.332  -3.632  1.00  0.00     0.293 HD
ENDBRANCH   6  24
BRANCH   8  26
ATOM     26  O   UNL     1      -7.310  -7.251  -5.980  1.00  0.00    -0.508 OA
ATOM     27  H   UNL     1      -8.118  -6.911  -6.487  1.00  0.00     0.293 HD
ENDBRANCH   8  26
TORSDOF 6
ENDMDL
MODEL 5
REMARK VINA RESULT:    -6.602      3.110      7.520
REMARK INTER + INTRA:          -8.276
REMARK INTER:                  -8.187
REMARK INTRA:                  -0.089
REMARK UNBOUND:                -0.323
REMARK SMILES O=c1c(O)c(-c2ccc(O)c(O)c2)oc2cc(O)cc(O)c12
REMARK SMILES IDX 5 1 3 2 2 3 1 4 22 5 20 6 19 7 17 8 16 9 15 10 14 11 6 12
REMARK SMILES IDX 7 13 8 14 9 15 13 16 11 17 10 18 12 20 4 22 21 24 18 26
REMARK H PARENT 10 19 12 21 4 23 21 25 18 27
REMARK Flexibility Score: inf
ROOT
ATOM      1  C   UNL     1      -4.774  -1.846  -4.936  1.00  0.00     0.180 A 
ATOM      2  C   UNL     1      -3.499  -2.223  -4.480  1.00  0.00     0.208 A 
ATOM      3  C   UNL     1      -3.201  -3.589  -4.345  1.00  0.00     0.238 A 
ATOM      4  O   UNL     1      -2.041  -3.922  -3.988  1.00  0.00    -0.285 OA
ATOM      5  C   UNL     1      -4.186  -4.558  -4.650  1.00  0.00     0.111 A 
ATOM      6  C   UNL     1      -4.006  -5.968  -4.510  1.00  0.00     0.134 A 
ATOM      7  C   UNL     1      -5.003  -6.840  -4.967  1.00  0.00     0.093 A 
ATOM      8  C   UNL     1      -6.197  -6.353  -5.496  1.00  0.00     0.123 A 
ATOM      9  C   UNL     1      -6.409  -4.977  -5.582  1.00  0.00     0.094 A 
ATOM     10  C   UNL     1      -5.418  -4.083  -5.169  1.00  0.00     0.146 A 
ATOM     11  O   UNL     1      -5.654  -2.781  -5.277  1.00  0.00    -0.452 OA
ENDROOT
BRANCH   1  12
ATOM     12  C   UNL     1      -5.171  -0.427  -5.081  1.00  0.00     0.025 A 
ATOM     13  C   UNL     1      -4.458   0.450  -5.917  1.00  0.00     0.016 A 
ATOM     14  C   UNL     1      -4.836   1.792  -6.019  1.00  0.00     0.051 A 
ATOM     15  C   UNL     1      -5.921   2.279  -5.279  1.00  0.00     0.157 A 
ATOM     16  C   UNL     1      -6.245   0.072  -4.325  1.00  0.00     0.062 A 
ATOM     17  C   UNL     1      -6.625   1.417  -4.427  1.00  0.00     0.158 A 
BRANCH  15  18
ATOM     18  O   UNL     1      -6.303   3.616  -5.380  1.00  0.00    -0.504 OA
ATOM     19  H   UNL     1      -5.678   4.318  -5.759  1.00  0.00     0.293 HD
ENDBRANCH  15  18
BRANCH  17  20
ATOM     20  O   UNL     1      -7.700   1.906  -3.686  1.00  0.00    -0.504 OA
ATOM     21  H   UNL     1      -7.644   2.016  -2.681  1.00  0.00     0.293 HD
ENDBRANCH  17  20
ENDBRANCH   1  12
BRANCH   2  22
ATOM     22  O   UNL     1      -2.535  -1.251  -4.204  1.00  0.00    -0.502 OA
ATOM     23  H   UNL     1      -2.481  -0.377  -4.715  1.00  0.00     0.293 HD
ENDBRANCH   2  22
BRANCH   6  24
ATOM     24  O   UNL     1      -2.889  -6.557  -3.911  1.00  0.00    -0.507 OA
ATOM     25  H   UNL     1      -2.583  -6.377  -2.967  1.00  0.00     0.293 HD
ENDBRANCH   6  24
BRANCH   8  26
ATOM     26  O   UNL     1      -7.174  -7.250  -5.926  1.00  0.00    -0.508 OA
ATOM     27  H   UNL     1      -6.938  -8.193  -6.210  1.00  0.00     0.293 HD
ENDBRANCH   8  26
TORSDOF 6
ENDMDL
MODEL 6
REMARK VINA RESULT:    -6.494      1.631      6.676
REMARK INTER + INTRA:          -8.145
REMARK INTER:                  -7.860
REMARK INTRA:                  -0.286
REMARK UNBOUND:                -0.323
REMARK SMILES O=c1c(O)c(-c2ccc(O)c(O)c2)oc2cc(O)cc(O)c12
REMARK SMILES IDX 5 1 3 2 2 3 1 4 22 5 20 6 19 7 17 8 16 9 15 10 14 11 6 12
REMARK SMILES IDX 7 13 8 14 9 15 13 16 11 17 10 18 12 20 4 22 21 24 18 26
REMARK H PARENT 10 19 12 21 4 23 21 25 18 27
REMARK Flexibility Score: inf
ROOT
ATOM      1  C   UNL     1      -3.349  -3.535  -4.918  1.00  0.00     0.180 A 
ATOM      2  C   UNL     1      -4.011  -4.534  -5.653  1.00  0.00     0.208 A 
ATOM      3  C   UNL     1      -3.601  -5.869  -5.509  1.00  0.00     0.238 A 
ATOM      4  O   UNL     1      -4.233  -6.765  -6.128  1.00  0.00    -0.285 OA
ATOM      5  C   UNL     1      -2.525  -6.187  -4.647  1.00  0.00     0.111 A 
ATOM      6  C   UNL     1      -1.999  -7.500  -4.457  1.00  0.00     0.134 A 
ATOM      7  C   UNL     1      -1.019  -7.717  -3.480  1.00  0.00     0.093 A 
ATOM      8  C   UNL     1      -0.499  -6.660  -2.735  1.00  0.00     0.123 A 
ATOM      9  C   UNL     1      -0.962  -5.363  -2.955  1.00  0.00     0.094 A 
ATOM     10  C   UNL     1      -1.966  -5.120  -3.896  1.00  0.00     0.146 A 
ATOM     11  O   UNL     1      -2.387  -3.873  -4.068  1.00  0.00    -0.452 OA
ENDROOT
BRANCH   1  12
ATOM     12  C   UNL     1      -3.708  -2.103  -5.034  1.00  0.00     0.025 A 
ATOM     13  C   UNL     1      -4.836  -1.576  -4.382  1.00  0.00     0.016 A 
ATOM     14  C   UNL     1      -5.169  -0.226  -4.526  1.00  0.00     0.051 A 
ATOM     15  C   UNL     1      -4.389   0.612  -5.334  1.00  0.00     0.157 A 
ATOM     16  C   UNL     1      -2.941  -1.263  -5.859  1.00  0.00     0.062 A 
ATOM     17  C   UNL     1      -3.274   0.092  -6.004  1.00  0.00     0.158 A 
BRANCH  15  18
ATOM     18  O   UNL     1      -4.716   1.959  -5.478  1.00  0.00    -0.504 OA
ATOM     19  H   UNL     1      -4.193   2.568  -6.094  1.00  0.00     0.293 HD
ENDBRANCH  15  18
BRANCH  17  20
ATOM     20  O   UNL     1      -2.504   0.926  -6.812  1.00  0.00    -0.504 OA
ATOM     21  H   UNL     1      -2.809   1.194  -7.739  1.00  0.00     0.293 HD
ENDBRANCH  17  20
ENDBRANCH   1  12
BRANCH   2  22
ATOM     22  O   UNL     1      -5.085  -4.201  -6.482  1.00  0.00    -0.502 OA
ATOM     23  H   UNL     1      -6.002  -3.969  -6.119  1.00  0.00     0.293 HD
ENDBRANCH   2  22
BRANCH   6  24
ATOM     24  O   UNL     1      -2.384  -8.612  -5.213  1.00  0.00    -0.507 OA
ATOM     25  H   UNL     1      -3.164  -8.630  -5.850  1.00  0.00     0.293 HD
ENDBRANCH   6  24
BRANCH   8  26
ATOM     26  O   UNL     1       0.487  -6.910  -1.783  1.00  0.00    -0.508 OA
ATOM     27  H   UNL     1       0.843  -6.175  -1.183  1.00  0.00     0.293 HD
ENDBRANCH   8  26
TORSDOF 6
ENDMDL
MODEL 7
REMARK VINA RESULT:    -6.475      1.959      6.738
REMARK INTER + INTRA:          -8.123
REMARK INTER:                  -8.274
REMARK INTRA:                   0.151
REMARK UNBOUND:                -0.323
REMARK SMILES O=c1c(O)c(-c2ccc(O)c(O)c2)oc2cc(O)cc(O)c12
REMARK SMILES IDX 5 1 3 2 2 3 1 4 22 5 20 6 19 7 17 8 16 9 15 10 14 11 6 12
REMARK SMILES IDX 7 13 8 14 9 15 13 16 11 17 10 18 12 20 4 22 21 24 18 26
REMARK H PARENT 10 19 12 21 4 23 21 25 18 27
REMARK Flexibility Score: inf
ROOT
ATOM      1  C   UNL     1      -3.074  -2.836  -5.279  1.00  0.00     0.180 A 
ATOM      2  C   UNL     1      -3.854  -3.882  -4.756  1.00  0.00     0.208 A 
ATOM      3  C   UNL     1      -3.292  -5.166  -4.656  1.00  0.00     0.238 A 
ATOM      4  O   UNL     1      -3.976  -6.086  -4.137  1.00  0.00    -0.285 OA
ATOM      5  C   UNL     1      -1.966  -5.391  -5.096  1.00  0.00     0.111 A 
ATOM      6  C   UNL     1      -1.311  -6.659  -5.080  1.00  0.00     0.134 A 
ATOM      7  C   UNL     1       0.047  -6.740  -5.417  1.00  0.00     0.093 A 
ATOM      8  C   UNL     1       0.754  -5.612  -5.831  1.00  0.00     0.123 A 
ATOM      9  C   UNL     1       0.108  -4.378  -5.909  1.00  0.00     0.094 A 
ATOM     10  C   UNL     1      -1.236  -4.259  -5.544  1.00  0.00     0.146 A 
ATOM     11  O   UNL     1      -1.811  -3.065  -5.622  1.00  0.00    -0.452 OA
ENDROOT
BRANCH   1  12
ATOM     12  C   UNL     1      -3.603  -1.462  -5.438  1.00  0.00     0.025 A 
ATOM     13  C   UNL     1      -3.315  -0.695  -6.580  1.00  0.00     0.016 A 
ATOM     14  C   UNL     1      -3.806   0.609  -6.697  1.00  0.00     0.051 A 
ATOM     15  C   UNL     1      -4.579   1.167  -5.671  1.00  0.00     0.157 A 
ATOM     16  C   UNL     1      -4.362  -0.890  -4.404  1.00  0.00     0.062 A 
ATOM     17  C   UNL     1      -4.855   0.417  -4.520  1.00  0.00     0.158 A 
BRANCH  15  18
ATOM     18  O   UNL     1      -5.072   2.466  -5.785  1.00  0.00    -0.504 OA
ATOM     19  H   UNL     1      -5.966   2.656  -6.222  1.00  0.00     0.293 HD
ENDBRANCH  15  18
BRANCH  17  20
ATOM     20  O   UNL     1      -5.618   0.978  -3.498  1.00  0.00    -0.504 OA
ATOM     21  H   UNL     1      -5.186   1.412  -2.691  1.00  0.00     0.293 HD
ENDBRANCH  17  20
ENDBRANCH   1  12
BRANCH   2  22
ATOM     22  O   UNL     1      -5.153  -3.634  -4.307  1.00  0.00    -0.502 OA
ATOM     23  H   UNL     1      -5.551  -4.104  -3.503  1.00  0.00     0.293 HD
ENDBRANCH   2  22
BRANCH   6  24
ATOM     24  O   UNL     1      -1.949  -7.863  -4.769  1.00  0.00    -0.507 OA
ATOM     25  H   UNL     1      -2.466  -8.036  -3.922  1.00  0.00     0.293 HD
ENDBRANCH   6  24
BRANCH   8  26
ATOM     26  O   UNL     1       2.099  -5.732  -6.174  1.00  0.00    -0.508 OA
ATOM     27  H   UNL     1       2.750  -6.244  -5.592  1.00  0.00     0.293 HD
ENDBRANCH   8  26
TORSDOF 6
ENDMDL
MODEL 8
REMARK VINA RESULT:    -6.462      4.333      7.169
REMARK INTER + INTRA:          -8.107
REMARK INTER:                  -7.892
REMARK INTRA:                  -0.215
REMARK UNBOUND:                -0.323
REMARK SMILES O=c1c(O)c(-c2ccc(O)c(O)c2)oc2cc(O)cc(O)c12
REMARK SMILES IDX 5 1 3 2 2 3 1 4 22 5 20 6 19 7 17 8 16 9 15 10 14 11 6 12
REMARK SMILES IDX 7 13 8 14 9 15 13 16 11 17 10 18 12 20 4 22 21 24 18 26
REMARK H PARENT 10 19 12 21 4 23 21 25 18 27
REMARK Flexibility Score: inf
ROOT
ATOM      1  C   UNL     1      -6.402   0.836  -5.225  1.00  0.00     0.180 A 
ATOM      2  C   UNL     1      -7.683   0.268  -5.350  1.00  0.00     0.208 A 
ATOM      3  C   UNL     1      -8.810   1.077  -5.133  1.00  0.00     0.238 A 
ATOM      4  O   UNL     1      -9.953   0.578  -5.300  1.00  0.00    -0.285 OA
ATOM      5  C   UNL     1      -8.643   2.437  -4.778  1.00  0.00     0.111 A 
ATOM      6  C   UNL     1      -9.714   3.338  -4.495  1.00  0.00     0.134 A 
ATOM      7  C   UNL     1      -9.437   4.695  -4.282  1.00  0.00     0.093 A 
ATOM      8  C   UNL     1      -8.127   5.170  -4.277  1.00  0.00     0.123 A 
ATOM      9  C   UNL     1      -7.068   4.287  -4.493  1.00  0.00     0.094 A 
ATOM     10  C   UNL     1      -7.315   2.935  -4.744  1.00  0.00     0.146 A 
ATOM     11  O   UNL     1      -6.280   2.130  -4.955  1.00  0.00    -0.452 OA
ENDROOT
BRANCH   1  12
ATOM     12  C   UNL     1      -5.167   0.041  -5.415  1.00  0.00     0.025 A 
ATOM     13  C   UNL     1      -4.352   0.215  -6.547  1.00  0.00     0.016 A 
ATOM     14  C   UNL     1      -3.203  -0.564  -6.716  1.00  0.00     0.051 A 
ATOM     15  C   UNL     1      -2.861  -1.534  -5.765  1.00  0.00     0.157 A 
ATOM     16  C   UNL     1      -4.830  -0.947  -4.475  1.00  0.00     0.062 A 
ATOM     17  C   UNL     1      -3.678  -1.728  -4.644  1.00  0.00     0.158 A 
BRANCH  15  18
ATOM     18  O   UNL     1      -1.715  -2.310  -5.929  1.00  0.00    -0.504 OA
ATOM     19  H   UNL     1      -1.237  -2.367  -6.820  1.00  0.00     0.293 HD
ENDBRANCH  15  18
BRANCH  17  20
ATOM     20  O   UNL     1      -3.338  -2.699  -3.703  1.00  0.00    -0.504 OA
ATOM     21  H   UNL     1      -2.384  -2.819  -3.386  1.00  0.00     0.293 HD
ENDBRANCH  17  20
ENDBRANCH   1  12
BRANCH   2  22
ATOM     22  O   UNL     1      -7.825  -1.071  -5.723  1.00  0.00    -0.502 OA
ATOM     23  H   UNL     1      -7.051  -1.725  -5.710  1.00  0.00     0.293 HD
ENDBRANCH   2  22
BRANCH   6  24
ATOM     24  O   UNL     1     -11.052   2.949  -4.386  1.00  0.00    -0.507 OA
ATOM     25  H   UNL     1     -11.733   3.397  -3.792  1.00  0.00     0.293 HD
ENDBRANCH   6  24
BRANCH   8  26
ATOM     26  O   UNL     1      -7.888   6.523  -4.046  1.00  0.00    -0.508 OA
ATOM     27  H   UNL     1      -6.946   6.892  -3.991  1.00  0.00     0.293 HD
ENDBRANCH   8  26
TORSDOF 6
ENDMDL
MODEL 9
REMARK VINA RESULT:    -6.276      1.524      2.199
REMARK INTER + INTRA:          -7.883
REMARK INTER:                  -7.586
REMARK INTRA:                  -0.297
REMARK UNBOUND:                -0.323
REMARK SMILES O=c1c(O)c(-c2ccc(O)c(O)c2)oc2cc(O)cc(O)c12
REMARK SMILES IDX 5 1 3 2 2 3 1 4 22 5 20 6 19 7 17 8 16 9 15 10 14 11 6 12
REMARK SMILES IDX 7 13 8 14 9 15 13 16 11 17 10 18 12 20 4 22 21 24 18 26
REMARK H PARENT 10 19 12 21 4 23 21 25 18 27
REMARK Flexibility Score: inf
ROOT
ATOM      1  C   UNL     1      -3.494  -3.238  -4.966  1.00  0.00     0.180 A 
ATOM      2  C   UNL     1      -4.706  -3.893  -5.245  1.00  0.00     0.208 A 
ATOM      3  C   UNL     1      -5.884  -3.135  -5.338  1.00  0.00     0.238 A 
ATOM      4  O   UNL     1      -6.957  -3.719  -5.642  1.00  0.00    -0.285 OA
ATOM      5  C   UNL     1      -5.838  -1.735  -5.134  1.00  0.00     0.111 A 
ATOM      6  C   UNL     1      -6.976  -0.874  -5.165  1.00  0.00     0.134 A 
ATOM      7  C   UNL     1      -6.796   0.513  -5.080  1.00  0.00     0.093 A 
ATOM      8  C   UNL     1      -5.529   1.064  -4.900  1.00  0.00     0.123 A 
ATOM      9  C   UNL     1      -4.415   0.229  -4.809  1.00  0.00     0.094 A 
ATOM     10  C   UNL     1      -4.559  -1.156  -4.927  1.00  0.00     0.146 A 
ATOM     11  O   UNL     1      -3.473  -1.916  -4.845  1.00  0.00    -0.452 OA
ENDROOT
BRANCH   1  12
ATOM     12  C   UNL     1      -2.215  -3.973  -4.828  1.00  0.00     0.025 A 
ATOM     13  C   UNL     1      -1.307  -4.067  -5.897  1.00  0.00     0.016 A 
ATOM     14  C   UNL     1      -0.117  -4.787  -5.751  1.00  0.00     0.051 A 
ATOM     15  C   UNL     1       0.175  -5.431  -4.543  1.00  0.00     0.157 A 
ATOM     16  C   UNL     1      -1.926  -4.638  -3.625  1.00  0.00     0.062 A 
ATOM     17  C   UNL     1      -0.733  -5.359  -3.478  1.00  0.00     0.158 A 
BRANCH  15  18
ATOM     18  O   UNL     1       1.361  -6.147  -4.393  1.00  0.00    -0.504 OA
ATOM     19  H   UNL     1       1.361  -7.151  -4.258  1.00  0.00     0.293 HD
ENDBRANCH  15  18
BRANCH  17  20
ATOM     20  O   UNL     1      -0.443  -6.007  -2.279  1.00  0.00    -0.504 OA
ATOM     21  H   UNL     1       0.361  -5.752  -1.719  1.00  0.00     0.293 HD
ENDBRANCH  17  20
ENDBRANCH   1  12
BRANCH   2  22
ATOM     22  O   UNL     1      -4.725  -5.273  -5.464  1.00  0.00    -0.502 OA
ATOM     23  H   UNL     1      -4.599  -5.945  -4.717  1.00  0.00     0.293 HD
ENDBRANCH   2  22
BRANCH   6  24
ATOM     24  O   UNL     1      -8.296  -1.327  -5.249  1.00  0.00    -0.507 OA
ATOM     25  H   UNL     1      -9.059  -0.978  -4.691  1.00  0.00     0.293 HD
ENDBRANCH   6  24
BRANCH   8  26
ATOM     26  O   UNL     1      -5.388   2.447  -4.804  1.00  0.00    -0.508 OA
ATOM     27  H   UNL     1      -5.623   2.945  -3.953  1.00  0.00     0.293 HD
ENDBRANCH   8  26
TORSDOF 6
ENDMDL
