MODEL 1
REMARK VINA RESULT:    -4.725      0.000      0.000
REMARK INTER + INTRA:          -5.363
REMARK INTER:                  -5.277
REMARK INTRA:                  -0.086
REMARK UNBOUND:                -0.086
REMARK SMILES CCc1ccc(O)cc1O
REMARK SMILES IDX 3 1 9 2 8 3 6 4 5 5 4 6 2 7 1 8 10 9 7 11
REMARK H PARENT 10 10 7 12
REMARK Flexibility Score: inf
ROOT
ATOM      1  C   UNL     1     116.622  51.283  -2.674  1.00  0.00    -0.006 A 
ATOM      2  C   UNL     1     117.401  51.356  -3.848  1.00  0.00     0.122 A 
ATOM      3  C   UNL     1     118.146  52.513  -4.120  1.00  0.00     0.092 A 
ATOM      4  C   UNL     1     118.115  53.599  -3.240  1.00  0.00     0.119 A 
ATOM      5  C   UNL     1     117.331  53.534  -2.083  1.00  0.00     0.047 A 
ATOM      6  C   UNL     1     116.586  52.385  -1.803  1.00  0.00     0.011 A 
ENDROOT
BRANCH   1   7
ATOM      7  C   UNL     1     115.787  50.065  -2.372  1.00  0.00     0.036 C 
ATOM      8  C   UNL     1     114.814  50.345  -1.232  1.00  0.00     0.009 C 
ENDBRANCH   1   7
BRANCH   2   9
ATOM      9  O   UNL     1     117.428  50.284  -4.739  1.00  0.00    -0.508 OA
ATOM     10  H   UNL     1     118.297  49.944  -5.133  1.00  0.00     0.293 HD
ENDBRANCH   2   9
BRANCH   4  11
ATOM     11  O   UNL     1     118.862  54.739  -3.529  1.00  0.00    -0.508 OA
ATOM     12  H   UNL     1     119.674  54.700  -4.134  1.00  0.00     0.293 HD
ENDBRANCH   4  11
TORSDOF 3
ENDMDL
MODEL 2
REMARK VINA RESULT:    -4.617      1.556      2.133
REMARK INTER + INTRA:          -5.243
REMARK INTER:                  -5.141
REMARK INTRA:                  -0.102
REMARK UNBOUND:                -0.086
REMARK SMILES CCc1ccc(O)cc1O
REMARK SMILES IDX 3 1 9 2 8 3 6 4 5 5 4 6 2 7 1 8 10 9 7 11
REMARK H PARENT 10 10 7 12
REMARK Flexibility Score: inf
ROOT
ATOM      1  C   UNL     1     116.746  52.294  -2.083  1.00  0.00    -0.006 A 
ATOM      2  C   UNL     1     116.795  51.184  -2.952  1.00  0.00     0.122 A 
ATOM      3  C   UNL     1     117.563  51.247  -4.123  1.00  0.00     0.092 A 
ATOM      4  C   UNL     1     118.274  52.408  -4.442  1.00  0.00     0.119 A 
ATOM      5  C   UNL     1     118.215  53.515  -3.588  1.00  0.00     0.047 A 
ATOM      6  C   UNL     1     117.452  53.460  -2.419  1.00  0.00     0.011 A 
ENDROOT
BRANCH   1   7
ATOM      7  C   UNL     1     115.903  52.264  -0.834  1.00  0.00     0.036 C 
ATOM      8  C   UNL     1     116.778  52.120   0.406  1.00  0.00     0.009 C 
ENDBRANCH   1   7
BRANCH   2   9
ATOM      9  O   UNL     1     116.078  50.025  -2.651  1.00  0.00    -0.508 OA
ATOM     10  H   UNL     1     115.644  49.467  -3.376  1.00  0.00     0.293 HD
ENDBRANCH   2   9
BRANCH   4  11
ATOM     11  O   UNL     1     119.032  52.451  -5.610  1.00  0.00    -0.508 OA
ATOM     12  H   UNL     1     119.578  51.655  -5.916  1.00  0.00     0.293 HD
ENDBRANCH   4  11
TORSDOF 3
ENDMDL
MODEL 3
REMARK VINA RESULT:    -4.610      1.836      3.840
REMARK INTER + INTRA:          -5.234
REMARK INTER:                  -5.172
REMARK INTRA:                  -0.062
REMARK UNBOUND:                -0.086
REMARK SMILES CCc1ccc(O)cc1O
REMARK SMILES IDX 3 1 9 2 8 3 6 4 5 5 4 6 2 7 1 8 10 9 7 11
REMARK H PARENT 10 10 7 12
REMARK Flexibility Score: inf
ROOT
ATOM      1  C   UNL     1     118.021  52.079  -3.747  1.00  0.00    -0.006 A 
ATOM      2  C   UNL     1     118.003  53.198  -2.888  1.00  0.00     0.122 A 
ATOM      3  C   UNL     1     117.100  53.240  -1.816  1.00  0.00     0.092 A 
ATOM      4  C   UNL     1     116.211  52.184  -1.597  1.00  0.00     0.119 A 
ATOM      5  C   UNL     1     116.218  51.080  -2.457  1.00  0.00     0.047 A 
ATOM      6  C   UNL     1     117.114  51.030  -3.528  1.00  0.00     0.011 A 
ENDROOT
BRANCH   1   7
ATOM      7  C   UNL     1     118.959  52.022  -4.926  1.00  0.00     0.036 C 
ATOM      8  C   UNL     1     118.383  52.787  -6.113  1.00  0.00     0.009 C 
ENDBRANCH   1   7
BRANCH   2   9
ATOM      9  O   UNL     1     118.877  54.263  -3.106  1.00  0.00    -0.508 OA
ATOM     10  H   UNL     1     118.584  55.097  -3.602  1.00  0.00     0.293 HD
ENDBRANCH   2   9
BRANCH   4  11
ATOM     11  O   UNL     1     115.322  52.245  -0.526  1.00  0.00    -0.508 OA
ATOM     12  H   UNL     1     115.173  53.104  -0.010  1.00  0.00     0.293 HD
ENDBRANCH   4  11
TORSDOF 3
ENDMDL
MODEL 4
REMARK VINA RESULT:    -4.511      1.832      3.440
REMARK INTER + INTRA:          -5.124
REMARK INTER:                  -5.031
REMARK INTRA:                  -0.093
REMARK UNBOUND:                -0.086
REMARK SMILES CCc1ccc(O)cc1O
REMARK SMILES IDX 3 1 9 2 8 3 6 4 5 5 4 6 2 7 1 8 10 9 7 11
REMARK H PARENT 10 10 7 12
REMARK Flexibility Score: inf
ROOT
ATOM      1  C   UNL     1     117.911  52.237  -3.884  1.00  0.00    -0.006 A 
ATOM      2  C   UNL     1     117.179  51.089  -3.517  1.00  0.00     0.122 A 
ATOM      3  C   UNL     1     116.364  51.116  -2.376  1.00  0.00     0.092 A 
ATOM      4  C   UNL     1     116.280  52.272  -1.593  1.00  0.00     0.119 A 
ATOM      5  C   UNL     1     117.017  53.407  -1.948  1.00  0.00     0.047 A 
ATOM      6  C   UNL     1     117.831  53.388  -3.084  1.00  0.00     0.011 A 
ENDROOT
BRANCH   1   7
ATOM      7  C   UNL     1     118.818  52.225  -5.088  1.00  0.00     0.036 C 
ATOM      8  C   UNL     1     118.397  53.291  -6.094  1.00  0.00     0.009 C 
ENDBRANCH   1   7
BRANCH   2   9
ATOM      9  O   UNL     1     117.266  49.926  -4.283  1.00  0.00    -0.508 OA
ATOM     10  H   UNL     1     118.122  49.387  -4.332  1.00  0.00     0.293 HD
ENDBRANCH   2   9
BRANCH   4  11
ATOM     11  O   UNL     1     115.465  52.279  -0.463  1.00  0.00    -0.508 OA
ATOM     12  H   UNL     1     114.782  51.548  -0.298  1.00  0.00     0.293 HD
ENDBRANCH   4  11
TORSDOF 3
ENDMDL
MODEL 5
REMARK VINA RESULT:    -4.437      1.797      3.786
REMARK INTER + INTRA:          -5.042
REMARK INTER:                  -4.957
REMARK INTRA:                  -0.085
REMARK UNBOUND:                -0.086
REMARK SMILES CCc1ccc(O)cc1O
REMARK SMILES IDX 3 1 9 2 8 3 6 4 5 5 4 6 2 7 1 8 10 9 7 11
REMARK H PARENT 10 10 7 12
REMARK Flexibility Score: inf
ROOT
ATOM      1  C   UNL     1     117.183  51.894  -2.822  1.00  0.00    -0.006 A 
ATOM      2  C   UNL     1     116.733  50.611  -3.196  1.00  0.00     0.122 A 
ATOM      3  C   UNL     1     115.722  49.982  -2.456  1.00  0.00     0.092 A 
ATOM      4  C   UNL     1     115.162  50.614  -1.342  1.00  0.00     0.119 A 
ATOM      5  C   UNL     1     115.618  51.881  -0.960  1.00  0.00     0.047 A 
ATOM      6  C   UNL     1     116.625  52.515  -1.693  1.00  0.00     0.011 A 
ENDROOT
BRANCH   1   7
ATOM      7  C   UNL     1     118.290  52.579  -3.581  1.00  0.00     0.036 C 
ATOM      8  C   UNL     1     118.445  54.026  -3.125  1.00  0.00     0.009 C 
ENDBRANCH   1   7
BRANCH   2   9
ATOM      9  O   UNL     1     117.294  49.964  -4.298  1.00  0.00    -0.508 OA
ATOM     10  H   UNL     1     117.729  50.483  -5.052  1.00  0.00     0.293 HD
ENDBRANCH   2   9
BRANCH   4  11
ATOM     11  O   UNL     1     114.159  49.973  -0.619  1.00  0.00    -0.508 OA
ATOM     12  H   UNL     1     113.922  49.003  -0.788  1.00  0.00     0.293 HD
ENDBRANCH   4  11
TORSDOF 3
ENDMDL
MODEL 6
REMARK VINA RESULT:    -4.268      1.181      3.033
REMARK INTER + INTRA:          -4.853
REMARK INTER:                  -4.768
REMARK INTRA:                  -0.085
REMARK UNBOUND:                -0.086
REMARK SMILES CCc1ccc(O)cc1O
REMARK SMILES IDX 3 1 9 2 8 3 6 4 5 5 4 6 2 7 1 8 10 9 7 11
REMARK H PARENT 10 10 7 12
REMARK Flexibility Score: inf
ROOT
ATOM      1  C   UNL     1     117.140  52.192  -2.639  1.00  0.00    -0.006 A 
ATOM      2  C   UNL     1     118.113  52.786  -3.469  1.00  0.00     0.122 A 
ATOM      3  C   UNL     1     118.538  52.125  -4.631  1.00  0.00     0.092 A 
ATOM      4  C   UNL     1     118.010  50.875  -4.967  1.00  0.00     0.119 A 
ATOM      5  C   UNL     1     117.055  50.278  -4.137  1.00  0.00     0.047 A 
ATOM      6  C   UNL     1     116.626  50.930  -2.978  1.00  0.00     0.011 A 
ENDROOT
BRANCH   1   7
ATOM      7  C   UNL     1     116.688  52.866  -1.369  1.00  0.00     0.036 C 
ATOM      8  C   UNL     1     115.507  52.124  -0.753  1.00  0.00     0.009 C 
ENDBRANCH   1   7
BRANCH   2   9
ATOM      9  O   UNL     1     118.656  54.027  -3.135  1.00  0.00    -0.508 OA
ATOM     10  H   UNL     1     118.369  54.876  -3.608  1.00  0.00     0.293 HD
ENDBRANCH   2   9
BRANCH   4  11
ATOM     11  O   UNL     1     118.445  50.234  -6.125  1.00  0.00    -0.508 OA
ATOM     12  H   UNL     1     118.048  50.452  -7.031  1.00  0.00     0.293 HD
ENDBRANCH   4  11
TORSDOF 3
ENDMDL
MODEL 7
REMARK VINA RESULT:    -3.796      2.168      2.619
REMARK INTER + INTRA:          -4.326
REMARK INTER:                  -4.224
REMARK INTRA:                  -0.103
REMARK UNBOUND:                -0.086
REMARK SMILES CCc1ccc(O)cc1O
REMARK SMILES IDX 3 1 9 2 8 3 6 4 5 5 4 6 2 7 1 8 10 9 7 11
REMARK H PARENT 10 10 7 12
REMARK Flexibility Score: inf
ROOT
ATOM      1  C   UNL     1     117.688  52.073  -1.047  1.00  0.00    -0.006 A 
ATOM      2  C   UNL     1     118.523  51.273  -1.853  1.00  0.00     0.122 A 
ATOM      3  C   UNL     1     118.788  51.652  -3.177  1.00  0.00     0.092 A 
ATOM      4  C   UNL     1     118.221  52.815  -3.707  1.00  0.00     0.119 A 
ATOM      5  C   UNL     1     117.380  53.603  -2.913  1.00  0.00     0.047 A 
ATOM      6  C   UNL     1     117.111  53.232  -1.593  1.00  0.00     0.011 A 
ENDROOT
BRANCH   1   7
ATOM      7  C   UNL     1     117.361  51.672   0.369  1.00  0.00     0.036 C 
ATOM      8  C   UNL     1     118.160  52.505   1.365  1.00  0.00     0.009 C 
ENDBRANCH   1   7
BRANCH   2   9
ATOM      9  O   UNL     1     119.083  50.103  -1.339  1.00  0.00    -0.508 OA
ATOM     10  H   UNL     1     118.602  49.547  -0.642  1.00  0.00     0.293 HD
ENDBRANCH   2   9
BRANCH   4  11
ATOM     11  O   UNL     1     118.496  53.175  -5.024  1.00  0.00    -0.508 OA
ATOM     12  H   UNL     1     118.069  52.692  -5.805  1.00  0.00     0.293 HD
ENDBRANCH   4  11
TORSDOF 3
ENDMDL
MODEL 8
REMARK VINA RESULT:    -3.743      2.581      3.532
REMARK INTER + INTRA:          -4.266
REMARK INTER:                  -4.190
REMARK INTRA:                  -0.076
REMARK UNBOUND:                -0.086
REMARK SMILES CCc1ccc(O)cc1O
REMARK SMILES IDX 3 1 9 2 8 3 6 4 5 5 4 6 2 7 1 8 10 9 7 11
REMARK H PARENT 10 10 7 12
REMARK Flexibility Score: inf
ROOT
ATOM      1  C   UNL     1     117.419  51.350  -2.486  1.00  0.00    -0.006 A 
ATOM      2  C   UNL     1     118.512  51.130  -1.622  1.00  0.00     0.122 A 
ATOM      3  C   UNL     1     118.401  51.449  -0.261  1.00  0.00     0.092 A 
ATOM      4  C   UNL     1     117.217  51.994   0.244  1.00  0.00     0.119 A 
ATOM      5  C   UNL     1     116.137  52.226  -0.614  1.00  0.00     0.047 A 
ATOM      6  C   UNL     1     116.238  51.910  -1.972  1.00  0.00     0.011 A 
ENDROOT
BRANCH   1   7
ATOM      7  C   UNL     1     117.521  51.044  -3.959  1.00  0.00     0.036 C 
ATOM      8  C   UNL     1     118.155  52.210  -4.710  1.00  0.00     0.009 C 
ENDBRANCH   1   7
BRANCH   2   9
ATOM      9  O   UNL     1     119.703  50.599  -2.119  1.00  0.00    -0.508 OA
ATOM     10  H   UNL     1     120.600  51.018  -1.904  1.00  0.00     0.293 HD
ENDBRANCH   2   9
BRANCH   4  11
ATOM     11  O   UNL     1     117.127  52.305   1.599  1.00  0.00    -0.508 OA
ATOM     12  H   UNL     1     117.783  52.937   2.042  1.00  0.00     0.293 HD
ENDBRANCH   4  11
TORSDOF 3
ENDMDL
MODEL 9
REMARK VINA RESULT:    -3.700      2.650      3.786
REMARK INTER + INTRA:          -4.218
REMARK INTER:                  -4.130
REMARK INTRA:                  -0.088
REMARK UNBOUND:                -0.086
REMARK SMILES CCc1ccc(O)cc1O
REMARK SMILES IDX 3 1 9 2 8 3 6 4 5 5 4 6 2 7 1 8 10 9 7 11
REMARK H PARENT 10 10 7 12
REMARK Flexibility Score: inf
ROOT
ATOM      1  C   UNL     1     117.303  51.707  -0.202  1.00  0.00    -0.006 A 
ATOM      2  C   UNL     1     116.139  51.785  -0.995  1.00  0.00     0.122 A 
ATOM      3  C   UNL     1     116.188  51.405  -2.345  1.00  0.00     0.092 A 
ATOM      4  C   UNL     1     117.385  50.960  -2.912  1.00  0.00     0.119 A 
ATOM      5  C   UNL     1     118.544  50.896  -2.130  1.00  0.00     0.047 A 
ATOM      6  C   UNL     1     118.504  51.271  -0.785  1.00  0.00     0.011 A 
ENDROOT
BRANCH   1   7
ATOM      7  C   UNL     1     117.287  52.138   1.242  1.00  0.00     0.036 C 
ATOM      8  C   UNL     1     118.588  52.841   1.612  1.00  0.00     0.009 C 
ENDBRANCH   1   7
BRANCH   2   9
ATOM      9  O   UNL     1     114.943  52.242  -0.443  1.00  0.00    -0.508 OA
ATOM     10  H   UNL     1     114.882  52.528   0.527  1.00  0.00     0.293 HD
ENDBRANCH   2   9
BRANCH   4  11
ATOM     11  O   UNL     1     117.412  50.587  -4.255  1.00  0.00    -0.508 OA
ATOM     12  H   UNL     1     117.913  49.763  -4.565  1.00  0.00     0.293 HD
ENDBRANCH   4  11
TORSDOF 3
ENDMDL
