MODEL 1
REMARK VINA RESULT:    -7.714      0.000      0.000
REMARK INTER + INTRA:         -12.351
REMARK INTER:                 -11.321
REMARK INTRA:                  -1.030
REMARK UNBOUND:                -1.030
REMARK SMILES O=c1c(OC[C@@H]2O[C@H](O)[C@@H](O)[C@@H](O)[C@@H]2O)c(-c2ccc(O)c(O)c2)oc2cc(O)cc(O)c12
REMARK SMILES IDX 4 1 3 2 16 3 25 4 2 5 26 6 1 7 33 8 27 9 31 10 28 11 30 12
REMARK SMILES IDX 17 13 18 14 19 15 20 16 24 17 22 18 21 19 23 21 32 23 29 25
REMARK SMILES IDX 5 27 6 28 14 29 7 30 12 31 8 32 10 33 15 34 13 36 9 38 11 40
REMARK H PARENT 21 20 23 22 32 24 29 26 15 35 13 37 9 39 11 41
REMARK Flexibility Score: inf
ROOT
ATOM      1  O   UNL     1      -0.197 -19.983  27.714  1.00  0.00    -0.483 OA
ENDROOT
BRANCH   1   2
ATOM      2  C   UNL     1      -0.367 -21.221  28.363  1.00  0.00     0.211 A 
ATOM      3  C   UNL     1       0.184 -22.369  27.769  1.00  0.00     0.180 A 
ATOM      4  O   UNL     1      -0.042 -23.566  28.295  1.00  0.00    -0.452 OA
ATOM      5  C   UNL     1      -1.082 -21.366  29.571  1.00  0.00     0.239 A 
ATOM      6  C   UNL     1      -0.733 -23.754  29.412  1.00  0.00     0.146 A 
ATOM      7  O   UNL     1      -1.568 -20.347  30.124  1.00  0.00    -0.285 OA
ATOM      8  C   UNL     1      -1.255 -22.653  30.139  1.00  0.00     0.111 A 
ATOM      9  C   UNL     1      -0.936 -25.062  29.857  1.00  0.00     0.094 A 
ATOM     10  C   UNL     1      -1.945 -22.914  31.363  1.00  0.00     0.134 A 
ATOM     11  C   UNL     1      -1.661 -25.309  31.019  1.00  0.00     0.123 A 
ATOM     12  C   UNL     1      -2.163 -24.238  31.764  1.00  0.00     0.093 A 
BRANCH   3  13
ATOM     13  C   UNL     1       0.982 -22.293  26.528  1.00  0.00     0.025 A 
ATOM     14  C   UNL     1       2.382 -22.169  26.571  1.00  0.00     0.016 A 
ATOM     15  C   UNL     1       3.120 -22.101  25.386  1.00  0.00     0.051 A 
ATOM     16  C   UNL     1       2.473 -22.167  24.145  1.00  0.00     0.157 A 
ATOM     17  C   UNL     1       0.340 -22.382  25.283  1.00  0.00     0.062 A 
ATOM     18  C   UNL     1       1.077 -22.311  24.094  1.00  0.00     0.158 A 
BRANCH  16  19
ATOM     19  O   UNL     1       3.212 -22.093  22.966  1.00  0.00    -0.504 OA
ATOM     20  H   UNL     1       3.804 -21.297  22.758  1.00  0.00     0.293 HD
ENDBRANCH  16  19
BRANCH  18  21
ATOM     21  O   UNL     1       0.404 -22.386  22.875  1.00  0.00    -0.504 OA
ATOM     22  H   UNL     1      -0.051 -21.582  22.462  1.00  0.00     0.293 HD
ENDBRANCH  18  21
ENDBRANCH   3  13
BRANCH  10  23
ATOM     23  O   UNL     1      -2.412 -21.920  32.228  1.00  0.00    -0.507 OA
ATOM     24  H   UNL     1      -2.258 -21.901  33.224  1.00  0.00     0.293 HD
ENDBRANCH  10  23
BRANCH  11  25
ATOM     25  O   UNL     1      -1.870 -26.623  31.434  1.00  0.00    -0.508 OA
ATOM     26  H   UNL     1      -1.893 -26.871  32.416  1.00  0.00     0.293 HD
ENDBRANCH  11  25
ENDBRANCH   1   2
BRANCH   1  27
ATOM     27  C   UNL     1      -0.834 -19.566  26.504  1.00  0.00     0.265 C 
BRANCH  27  28
ATOM     28  C   UNL     1       0.140 -18.769  25.602  1.00  0.00     0.190 C 
ATOM     29  C   UNL     1      -0.421 -18.450  24.195  1.00  0.00     0.178 C 
ATOM     30  O   UNL     1       0.688 -17.626  26.256  1.00  0.00    -0.340 OA
ATOM     31  C   UNL     1      -1.396 -17.259  24.245  1.00  0.00     0.179 C 
ATOM     32  C   UNL     1      -0.205 -16.522  26.360  1.00  0.00     0.279 C 
ATOM     33  C   UNL     1      -0.768 -16.072  24.996  1.00  0.00     0.201 C 
BRANCH  29  34
ATOM     34  O   UNL     1      -1.062 -19.582  23.663  1.00  0.00    -0.387 OA
ATOM     35  H   UNL     1      -1.713 -19.894  24.345  1.00  0.00     0.211 HD
ENDBRANCH  29  34
BRANCH  31  36
ATOM     36  O   UNL     1      -1.815 -16.878  22.957  1.00  0.00    -0.387 OA
ATOM     37  H   UNL     1      -2.769 -17.135  22.856  1.00  0.00     0.211 HD
ENDBRANCH  31  36
BRANCH  32  38
ATOM     38  O   UNL     1      -1.249 -16.791  27.259  1.00  0.00    -0.366 OA
ATOM     39  H   UNL     1      -1.650 -17.652  26.974  1.00  0.00     0.213 HD
ENDBRANCH  32  38
BRANCH  33  40
ATOM     40  O   UNL     1       0.221 -15.431  24.226  1.00  0.00    -0.385 OA
ATOM     41  H   UNL     1       1.084 -15.898  24.376  1.00  0.00     0.211 HD
ENDBRANCH  33  40
ENDBRANCH  27  28
ENDBRANCH   1  27
TORSDOF 12
ENDMDL
MODEL 2
REMARK VINA RESULT:    -7.561      5.903      9.846
REMARK INTER + INTRA:         -12.126
REMARK INTER:                 -10.991
REMARK INTRA:                  -1.136
REMARK UNBOUND:                -1.030
REMARK SMILES O=c1c(OC[C@@H]2O[C@H](O)[C@@H](O)[C@@H](O)[C@@H]2O)c(-c2ccc(O)c(O)c2)oc2cc(O)cc(O)c12
REMARK SMILES IDX 4 1 3 2 16 3 25 4 2 5 26 6 1 7 33 8 27 9 31 10 28 11 30 12
REMARK SMILES IDX 17 13 18 14 19 15 20 16 24 17 22 18 21 19 23 21 32 23 29 25
REMARK SMILES IDX 5 27 6 28 14 29 7 30 12 31 8 32 10 33 15 34 13 36 9 38 11 40
REMARK H PARENT 21 20 23 22 32 24 29 26 15 35 13 37 9 39 11 41
REMARK Flexibility Score: inf
ROOT
ATOM      1  O   UNL     1      -2.927 -15.720  29.542  1.00  0.00    -0.483 OA
ENDROOT
BRANCH   1   2
ATOM      2  C   UNL     1      -2.830 -14.527  30.283  1.00  0.00     0.211 A 
ATOM      3  C   UNL     1      -3.919 -13.639  30.267  1.00  0.00     0.180 A 
ATOM      4  O   UNL     1      -3.827 -12.460  30.867  1.00  0.00    -0.452 OA
ATOM      5  C   UNL     1      -1.684 -14.171  31.025  1.00  0.00     0.239 A 
ATOM      6  C   UNL     1      -2.760 -12.070  31.550  1.00  0.00     0.146 A 
ATOM      7  O   UNL     1      -0.707 -14.960  31.063  1.00  0.00    -0.285 OA
ATOM      8  C   UNL     1      -1.640 -12.928  31.705  1.00  0.00     0.111 A 
ATOM      9  C   UNL     1      -2.761 -10.793  32.116  1.00  0.00     0.094 A 
ATOM     10  C   UNL     1      -0.541 -12.474  32.497  1.00  0.00     0.134 A 
ATOM     11  C   UNL     1      -1.660 -10.337  32.835  1.00  0.00     0.123 A 
ATOM     12  C   UNL     1      -0.557 -11.174  33.020  1.00  0.00     0.093 A 
BRANCH   3  13
ATOM     13  C   UNL     1      -5.171 -13.960  29.549  1.00  0.00     0.025 A 
ATOM     14  C   UNL     1      -5.256 -13.847  28.151  1.00  0.00     0.016 A 
ATOM     15  C   UNL     1      -6.446 -14.158  27.489  1.00  0.00     0.051 A 
ATOM     16  C   UNL     1      -7.564 -14.594  28.213  1.00  0.00     0.157 A 
ATOM     17  C   UNL     1      -6.285 -14.419  30.268  1.00  0.00     0.062 A 
ATOM     18  C   UNL     1      -7.482 -14.727  29.609  1.00  0.00     0.158 A 
BRANCH  16  19
ATOM     19  O   UNL     1      -8.753 -14.897  27.551  1.00  0.00    -0.504 OA
ATOM     20  H   UNL     1      -9.131 -14.288  26.833  1.00  0.00     0.293 HD
ENDBRANCH  16  19
BRANCH  18  21
ATOM     21  O   UNL     1      -8.574 -15.165  30.357  1.00  0.00    -0.504 OA
ATOM     22  H   UNL     1      -8.465 -15.577  31.276  1.00  0.00     0.293 HD
ENDBRANCH  18  21
ENDBRANCH   3  13
BRANCH  10  23
ATOM     23  O   UNL     1       0.571 -13.258  32.818  1.00  0.00    -0.507 OA
ATOM     24  H   UNL     1       1.510 -13.091  32.490  1.00  0.00     0.293 HD
ENDBRANCH  10  23
BRANCH  11  25
ATOM     25  O   UNL     1      -1.673  -9.051  33.372  1.00  0.00    -0.508 OA
ATOM     26  H   UNL     1      -0.820  -8.515  33.485  1.00  0.00     0.293 HD
ENDBRANCH  11  25
ENDBRANCH   1   2
BRANCH   1  27
ATOM     27  C   UNL     1      -2.477 -15.923  28.201  1.00  0.00     0.265 C 
BRANCH  27  28
ATOM     28  C   UNL     1      -1.261 -16.881  28.155  1.00  0.00     0.190 C 
ATOM     29  C   UNL     1      -1.640 -18.381  28.118  1.00  0.00     0.178 C 
ATOM     30  O   UNL     1      -0.311 -16.520  27.153  1.00  0.00    -0.340 OA
ATOM     31  C   UNL     1      -2.067 -18.809  26.702  1.00  0.00     0.179 C 
ATOM     32  C   UNL     1      -0.698 -16.861  25.826  1.00  0.00     0.279 C 
ATOM     33  C   UNL     1      -1.028 -18.358  25.660  1.00  0.00     0.201 C 
BRANCH  29  34
ATOM     34  O   UNL     1      -2.671 -18.641  29.036  1.00  0.00    -0.387 OA
ATOM     35  H   UNL     1      -2.241 -18.825  29.912  1.00  0.00     0.211 HD
ENDBRANCH  29  34
BRANCH  31  36
ATOM     36  O   UNL     1      -2.292 -20.196  26.625  1.00  0.00    -0.387 OA
ATOM     37  H   UNL     1      -2.196 -20.470  25.676  1.00  0.00     0.211 HD
ENDBRANCH  31  36
BRANCH  32  38
ATOM     38  O   UNL     1      -1.770 -16.069  25.386  1.00  0.00    -0.366 OA
ATOM     39  H   UNL     1      -1.387 -15.187  25.143  1.00  0.00     0.213 HD
ENDBRANCH  32  38
BRANCH  33  40
ATOM     40  O   UNL     1       0.140 -19.144  25.714  1.00  0.00    -0.385 OA
ATOM     41  H   UNL     1      -0.079 -19.996  26.174  1.00  0.00     0.211 HD
ENDBRANCH  33  40
ENDBRANCH  27  28
ENDBRANCH   1  27
TORSDOF 12
ENDMDL
MODEL 3
REMARK VINA RESULT:    -7.482      4.576      8.604
REMARK INTER + INTRA:         -12.011
REMARK INTER:                 -11.116
REMARK INTRA:                  -0.896
REMARK UNBOUND:                -1.030
REMARK SMILES O=c1c(OC[C@@H]2O[C@H](O)[C@@H](O)[C@@H](O)[C@@H]2O)c(-c2ccc(O)c(O)c2)oc2cc(O)cc(O)c12
REMARK SMILES IDX 4 1 3 2 16 3 25 4 2 5 26 6 1 7 33 8 27 9 31 10 28 11 30 12
REMARK SMILES IDX 17 13 18 14 19 15 20 16 24 17 22 18 21 19 23 21 32 23 29 25
REMARK SMILES IDX 5 27 6 28 14 29 7 30 12 31 8 32 10 33 15 34 13 36 9 38 11 40
REMARK H PARENT 21 20 23 22 32 24 29 26 15 35 13 37 9 39 11 41
REMARK Flexibility Score: inf
ROOT
ATOM      1  O   UNL     1      -1.709 -14.596  28.263  1.00  0.00    -0.483 OA
ENDROOT
BRANCH   1   2
ATOM      2  C   UNL     1      -1.384 -15.540  27.270  1.00  0.00     0.211 A 
ATOM      3  C   UNL     1      -0.717 -15.095  26.117  1.00  0.00     0.180 A 
ATOM      4  O   UNL     1      -0.484 -15.935  25.115  1.00  0.00    -0.452 OA
ATOM      5  C   UNL     1      -1.713 -16.909  27.371  1.00  0.00     0.239 A 
ATOM      6  C   UNL     1      -0.802 -17.221  25.153  1.00  0.00     0.146 A 
ATOM      7  O   UNL     1      -2.296 -17.327  28.403  1.00  0.00    -0.285 OA
ATOM      8  C   UNL     1      -1.397 -17.792  26.308  1.00  0.00     0.111 A 
ATOM      9  C   UNL     1      -0.539 -18.005  24.027  1.00  0.00     0.094 A 
ATOM     10  C   UNL     1      -1.668 -19.194  26.309  1.00  0.00     0.134 A 
ATOM     11  C   UNL     1      -0.862 -19.359  24.017  1.00  0.00     0.123 A 
ATOM     12  C   UNL     1      -1.426 -19.946  25.152  1.00  0.00     0.093 A 
BRANCH   3  13
ATOM     13  C   UNL     1      -0.300 -13.687  25.956  1.00  0.00     0.025 A 
ATOM     14  C   UNL     1       1.058 -13.339  25.848  1.00  0.00     0.016 A 
ATOM     15  C   UNL     1       1.433 -12.002  25.695  1.00  0.00     0.051 A 
ATOM     16  C   UNL     1       0.458 -10.996  25.636  1.00  0.00     0.157 A 
ATOM     17  C   UNL     1      -1.273 -12.680  25.875  1.00  0.00     0.062 A 
ATOM     18  C   UNL     1      -0.901 -11.338  25.724  1.00  0.00     0.158 A 
BRANCH  16  19
ATOM     19  O   UNL     1       0.836  -9.663  25.489  1.00  0.00    -0.504 OA
ATOM     20  H   UNL     1       0.424  -9.069  24.779  1.00  0.00     0.293 HD
ENDBRANCH  16  19
BRANCH  18  21
ATOM     21  O   UNL     1      -1.895 -10.362  25.663  1.00  0.00    -0.504 OA
ATOM     22  H   UNL     1      -2.765 -10.449  26.174  1.00  0.00     0.293 HD
ENDBRANCH  18  21
ENDBRANCH   3  13
BRANCH  10  23
ATOM     23  O   UNL     1      -2.149 -19.899  27.417  1.00  0.00    -0.507 OA
ATOM     24  H   UNL     1      -2.136 -20.903  27.514  1.00  0.00     0.293 HD
ENDBRANCH  10  23
BRANCH  11  25
ATOM     25  O   UNL     1      -0.611 -20.118  22.875  1.00  0.00    -0.508 OA
ATOM     26  H   UNL     1      -0.065 -19.750  22.104  1.00  0.00     0.293 HD
ENDBRANCH  11  25
ENDBRANCH   1   2
BRANCH   1  27
ATOM     27  C   UNL     1      -3.025 -14.190  28.646  1.00  0.00     0.265 C 
BRANCH  27  28
ATOM     28  C   UNL     1      -2.991 -13.284  29.901  1.00  0.00     0.190 C 
ATOM     29  C   UNL     1      -3.574 -11.868  29.674  1.00  0.00     0.178 C 
ATOM     30  O   UNL     1      -3.520 -13.925  31.060  1.00  0.00    -0.340 OA
ATOM     31  C   UNL     1      -5.113 -11.893  29.698  1.00  0.00     0.179 C 
ATOM     32  C   UNL     1      -4.941 -14.006  31.091  1.00  0.00     0.279 C 
ATOM     33  C   UNL     1      -5.626 -12.632  30.947  1.00  0.00     0.201 C 
BRANCH  29  34
ATOM     34  O   UNL     1      -3.116 -11.348  28.451  1.00  0.00    -0.387 OA
ATOM     35  H   UNL     1      -3.893 -10.915  28.010  1.00  0.00     0.211 HD
ENDBRANCH  29  34
BRANCH  31  36
ATOM     36  O   UNL     1      -5.655 -10.597  29.620  1.00  0.00    -0.387 OA
ATOM     37  H   UNL     1      -5.654 -10.321  28.666  1.00  0.00     0.211 HD
ENDBRANCH  31  36
BRANCH  32  38
ATOM     38  O   UNL     1      -5.424 -14.901  30.124  1.00  0.00    -0.366 OA
ATOM     39  H   UNL     1      -4.628 -15.324  29.710  1.00  0.00     0.213 HD
ENDBRANCH  32  38
BRANCH  33  40
ATOM     40  O   UNL     1      -5.465 -11.860  32.113  1.00  0.00    -0.385 OA
ATOM     41  H   UNL     1      -4.874 -12.357  32.737  1.00  0.00     0.211 HD
ENDBRANCH  33  40
ENDBRANCH  27  28
ENDBRANCH   1  27
TORSDOF 12
ENDMDL
MODEL 4
REMARK VINA RESULT:    -7.460      5.704      8.304
REMARK INTER + INTRA:         -11.978
REMARK INTER:                 -10.846
REMARK INTRA:                  -1.132
REMARK UNBOUND:                -1.030
REMARK SMILES O=c1c(OC[C@@H]2O[C@H](O)[C@@H](O)[C@@H](O)[C@@H]2O)c(-c2ccc(O)c(O)c2)oc2cc(O)cc(O)c12
REMARK SMILES IDX 4 1 3 2 16 3 25 4 2 5 26 6 1 7 33 8 27 9 31 10 28 11 30 12
REMARK SMILES IDX 17 13 18 14 19 15 20 16 24 17 22 18 21 19 23 21 32 23 29 25
REMARK SMILES IDX 5 27 6 28 14 29 7 30 12 31 8 32 10 33 15 34 13 36 9 38 11 40
REMARK H PARENT 21 20 23 22 32 24 29 26 15 35 13 37 9 39 11 41
REMARK Flexibility Score: inf
ROOT
ATOM      1  O   UNL     1      -2.620 -13.555  28.571  1.00  0.00    -0.483 OA
ENDROOT
BRANCH   1   2
ATOM      2  C   UNL     1      -1.772 -13.989  29.608  1.00  0.00     0.211 A 
ATOM      3  C   UNL     1      -1.054 -15.183  29.428  1.00  0.00     0.180 A 
ATOM      4  O   UNL     1      -0.325 -15.678  30.421  1.00  0.00    -0.452 OA
ATOM      5  C   UNL     1      -1.625 -13.292  30.826  1.00  0.00     0.239 A 
ATOM      6  C   UNL     1      -0.181 -15.074  31.592  1.00  0.00     0.146 A 
ATOM      7  O   UNL     1      -2.248 -12.214  30.997  1.00  0.00    -0.285 OA
ATOM      8  C   UNL     1      -0.791 -13.818  31.844  1.00  0.00     0.111 A 
ATOM      9  C   UNL     1       0.586 -15.703  32.576  1.00  0.00     0.094 A 
ATOM     10  C   UNL     1      -0.556 -13.191  33.106  1.00  0.00     0.134 A 
ATOM     11  C   UNL     1       0.758 -15.112  33.824  1.00  0.00     0.123 A 
ATOM     12  C   UNL     1       0.187 -13.864  34.085  1.00  0.00     0.093 A 
BRANCH   3  13
ATOM     13  C   UNL     1      -1.121 -15.947  28.165  1.00  0.00     0.025 A 
ATOM     14  C   UNL     1      -0.429 -15.518  27.019  1.00  0.00     0.016 A 
ATOM     15  C   UNL     1      -0.503 -16.255  25.835  1.00  0.00     0.051 A 
ATOM     16  C   UNL     1      -1.259 -17.434  25.781  1.00  0.00     0.157 A 
ATOM     17  C   UNL     1      -1.859 -17.140  28.114  1.00  0.00     0.062 A 
ATOM     18  C   UNL     1      -1.938 -17.878  26.927  1.00  0.00     0.158 A 
BRANCH  16  19
ATOM     19  O   UNL     1      -1.335 -18.163  24.595  1.00  0.00    -0.504 OA
ATOM     20  H   UNL     1      -1.157 -19.160  24.572  1.00  0.00     0.293 HD
ENDBRANCH  16  19
BRANCH  18  21
ATOM     21  O   UNL     1      -2.693 -19.050  26.908  1.00  0.00    -0.504 OA
ATOM     22  H   UNL     1      -3.134 -19.392  26.062  1.00  0.00     0.293 HD
ENDBRANCH  18  21
ENDBRANCH   3  13
BRANCH  10  23
ATOM     23  O   UNL     1      -1.006 -11.910  33.441  1.00  0.00    -0.507 OA
ATOM     24  H   UNL     1      -1.826 -11.711  33.993  1.00  0.00     0.293 HD
ENDBRANCH  10  23
BRANCH  11  25
ATOM     25  O   UNL     1       1.510 -15.767  34.798  1.00  0.00    -0.508 OA
ATOM     26  H   UNL     1       2.346 -15.350  35.191  1.00  0.00     0.293 HD
ENDBRANCH  11  25
ENDBRANCH   1   2
BRANCH   1  27
ATOM     27  C   UNL     1      -3.918 -14.071  28.267  1.00  0.00     0.265 C 
BRANCH  27  28
ATOM     28  C   UNL     1      -5.032 -13.170  28.854  1.00  0.00     0.190 C 
ATOM     29  C   UNL     1      -6.443 -13.457  28.284  1.00  0.00     0.178 C 
ATOM     30  O   UNL     1      -5.006 -13.119  30.280  1.00  0.00    -0.340 OA
ATOM     31  C   UNL     1      -7.062 -14.703  28.943  1.00  0.00     0.179 C 
ATOM     32  C   UNL     1      -5.531 -14.278  30.920  1.00  0.00     0.279 C 
ATOM     33  C   UNL     1      -6.969 -14.613  30.476  1.00  0.00     0.201 C 
BRANCH  29  34
ATOM     34  O   UNL     1      -6.374 -13.627  26.891  1.00  0.00    -0.387 OA
ATOM     35  H   UNL     1      -7.150 -14.187  26.628  1.00  0.00     0.211 HD
ENDBRANCH  29  34
BRANCH  31  36
ATOM     36  O   UNL     1      -8.392 -14.903  28.528  1.00  0.00    -0.387 OA
ATOM     37  H   UNL     1      -8.784 -15.621  29.089  1.00  0.00     0.211 HD
ENDBRANCH  31  36
BRANCH  32  38
ATOM     38  O   UNL     1      -4.689 -15.387  30.740  1.00  0.00    -0.366 OA
ATOM     39  H   UNL     1      -4.800 -15.673  29.797  1.00  0.00     0.213 HD
ENDBRANCH  32  38
BRANCH  33  40
ATOM     40  O   UNL     1      -7.890 -13.685  31.001  1.00  0.00    -0.385 OA
ATOM     41  H   UNL     1      -8.279 -13.171  30.246  1.00  0.00     0.211 HD
ENDBRANCH  33  40
ENDBRANCH  27  28
ENDBRANCH   1  27
TORSDOF 12
ENDMDL
MODEL 5
REMARK VINA RESULT:    -7.295      3.231      7.453
REMARK INTER + INTRA:         -11.736
REMARK INTER:                 -10.913
REMARK INTRA:                  -0.824
REMARK UNBOUND:                -1.030
REMARK SMILES O=c1c(OC[C@@H]2O[C@H](O)[C@@H](O)[C@@H](O)[C@@H]2O)c(-c2ccc(O)c(O)c2)oc2cc(O)cc(O)c12
REMARK SMILES IDX 4 1 3 2 16 3 25 4 2 5 26 6 1 7 33 8 27 9 31 10 28 11 30 12
REMARK SMILES IDX 17 13 18 14 19 15 20 16 24 17 22 18 21 19 23 21 32 23 29 25
REMARK SMILES IDX 5 27 6 28 14 29 7 30 12 31 8 32 10 33 15 34 13 36 9 38 11 40
REMARK H PARENT 21 20 23 22 32 24 29 26 15 35 13 37 9 39 11 41
REMARK Flexibility Score: inf
ROOT
ATOM      1  O   UNL     1      -0.020 -17.614  28.806  1.00  0.00    -0.483 OA
ENDROOT
BRANCH   1   2
ATOM      2  C   UNL     1      -1.164 -16.811  28.635  1.00  0.00     0.211 A 
ATOM      3  C   UNL     1      -1.843 -16.868  27.406  1.00  0.00     0.180 A 
ATOM      4  O   UNL     1      -2.863 -16.053  27.170  1.00  0.00    -0.452 OA
ATOM      5  C   UNL     1      -1.649 -15.938  29.631  1.00  0.00     0.239 A 
ATOM      6  C   UNL     1      -3.335 -15.195  28.064  1.00  0.00     0.146 A 
ATOM      7  O   UNL     1      -1.063 -15.886  30.742  1.00  0.00    -0.285 OA
ATOM      8  C   UNL     1      -2.779 -15.123  29.368  1.00  0.00     0.111 A 
ATOM      9  C   UNL     1      -4.394 -14.362  27.695  1.00  0.00     0.094 A 
ATOM     10  C   UNL     1      -3.363 -14.217  30.305  1.00  0.00     0.134 A 
ATOM     11  C   UNL     1      -4.917 -13.441  28.597  1.00  0.00     0.123 A 
ATOM     12  C   UNL     1      -4.400 -13.370  29.894  1.00  0.00     0.093 A 
BRANCH   3  13
ATOM     13  C   UNL     1      -1.423 -17.789  26.329  1.00  0.00     0.025 A 
ATOM     14  C   UNL     1      -0.632 -17.339  25.257  1.00  0.00     0.016 A 
ATOM     15  C   UNL     1      -0.242 -18.225  24.250  1.00  0.00     0.051 A 
ATOM     16  C   UNL     1      -0.627 -19.572  24.304  1.00  0.00     0.157 A 
ATOM     17  C   UNL     1      -1.786 -19.142  26.392  1.00  0.00     0.062 A 
ATOM     18  C   UNL     1      -1.400 -20.032  25.382  1.00  0.00     0.158 A 
BRANCH  16  19
ATOM     19  O   UNL     1      -0.241 -20.451  23.294  1.00  0.00    -0.504 OA
ATOM     20  H   UNL     1       0.662 -20.376  22.840  1.00  0.00     0.293 HD
ENDBRANCH  16  19
BRANCH  18  21
ATOM     21  O   UNL     1      -1.794 -21.367  25.469  1.00  0.00    -0.504 OA
ATOM     22  H   UNL     1      -1.479 -22.064  24.806  1.00  0.00     0.293 HD
ENDBRANCH  18  21
ENDBRANCH   3  13
BRANCH  10  23
ATOM     23  O   UNL     1      -2.984 -14.125  31.648  1.00  0.00    -0.507 OA
ATOM     24  H   UNL     1      -2.139 -14.514  32.038  1.00  0.00     0.293 HD
ENDBRANCH  10  23
BRANCH  11  25
ATOM     25  O   UNL     1      -5.959 -12.605  28.201  1.00  0.00    -0.508 OA
ATOM     26  H   UNL     1      -6.785 -12.480  28.775  1.00  0.00     0.293 HD
ENDBRANCH  11  25
ENDBRANCH   1   2
BRANCH   1  27
ATOM     27  C   UNL     1      -0.002 -19.026  29.026  1.00  0.00     0.265 C 
BRANCH  27  28
ATOM     28  C   UNL     1      -0.256 -19.367  30.514  1.00  0.00     0.190 C 
ATOM     29  C   UNL     1      -1.515 -20.235  30.758  1.00  0.00     0.178 C 
ATOM     30  O   UNL     1       0.905 -19.871  31.172  1.00  0.00    -0.340 OA
ATOM     31  C   UNL     1      -1.237 -21.714  30.436  1.00  0.00     0.179 C 
ATOM     32  C   UNL     1       1.216 -21.225  30.859  1.00  0.00     0.279 C 
ATOM     33  C   UNL     1       0.047 -22.192  31.137  1.00  0.00     0.201 C 
BRANCH  29  34
ATOM     34  O   UNL     1      -2.585 -19.761  29.980  1.00  0.00    -0.387 OA
ATOM     35  H   UNL     1      -2.520 -20.206  29.095  1.00  0.00     0.211 HD
ENDBRANCH  29  34
BRANCH  31  36
ATOM     36  O   UNL     1      -2.331 -22.533  30.772  1.00  0.00    -0.387 OA
ATOM     37  H   UNL     1      -2.432 -22.520  31.760  1.00  0.00     0.211 HD
ENDBRANCH  31  36
BRANCH  32  38
ATOM     38  O   UNL     1       1.659 -21.356  29.534  1.00  0.00    -0.366 OA
ATOM     39  H   UNL     1       1.067 -22.027  29.105  1.00  0.00     0.213 HD
ENDBRANCH  32  38
BRANCH  33  40
ATOM     40  O   UNL     1      -0.148 -22.368  32.521  1.00  0.00    -0.385 OA
ATOM     41  H   UNL     1      -0.812 -23.093  32.652  1.00  0.00     0.211 HD
ENDBRANCH  33  40
ENDBRANCH  27  28
ENDBRANCH   1  27
TORSDOF 12
ENDMDL
MODEL 6
REMARK VINA RESULT:    -7.262      1.994      7.109
REMARK INTER + INTRA:         -11.688
REMARK INTER:                 -10.270
REMARK INTRA:                  -1.418
REMARK UNBOUND:                -1.030
REMARK SMILES O=c1c(OC[C@@H]2O[C@H](O)[C@@H](O)[C@@H](O)[C@@H]2O)c(-c2ccc(O)c(O)c2)oc2cc(O)cc(O)c12
REMARK SMILES IDX 4 1 3 2 16 3 25 4 2 5 26 6 1 7 33 8 27 9 31 10 28 11 30 12
REMARK SMILES IDX 17 13 18 14 19 15 20 16 24 17 22 18 21 19 23 21 32 23 29 25
REMARK SMILES IDX 5 27 6 28 14 29 7 30 12 31 8 32 10 33 15 34 13 36 9 38 11 40
REMARK H PARENT 21 20 23 22 32 24 29 26 15 35 13 37 9 39 11 41
REMARK Flexibility Score: inf
ROOT
ATOM      1  O   UNL     1      -0.590 -20.027  27.662  1.00  0.00    -0.483 OA
ENDROOT
BRANCH   1   2
ATOM      2  C   UNL     1      -0.849 -18.750  27.126  1.00  0.00     0.211 A 
ATOM      3  C   UNL     1      -0.228 -18.394  25.917  1.00  0.00     0.180 A 
ATOM      4  O   UNL     1      -0.365 -17.166  25.433  1.00  0.00    -0.452 OA
ATOM      5  C   UNL     1      -1.686 -17.805  27.756  1.00  0.00     0.239 A 
ATOM      6  C   UNL     1      -1.117 -16.236  26.006  1.00  0.00     0.146 A 
ATOM      7  O   UNL     1      -2.262 -18.113  28.830  1.00  0.00    -0.285 OA
ATOM      8  C   UNL     1      -1.859 -16.521  27.181  1.00  0.00     0.111 A 
ATOM      9  C   UNL     1      -1.162 -14.967  25.425  1.00  0.00     0.094 A 
ATOM     10  C   UNL     1      -2.693 -15.494  27.722  1.00  0.00     0.134 A 
ATOM     11  C   UNL     1      -1.931 -13.956  25.995  1.00  0.00     0.123 A 
ATOM     12  C   UNL     1      -2.688 -14.221  27.138  1.00  0.00     0.093 A 
BRANCH   3  13
ATOM     13  C   UNL     1       0.628 -19.344  25.175  1.00  0.00     0.025 A 
ATOM     14  C   UNL     1       2.029 -19.293  25.279  1.00  0.00     0.016 A 
ATOM     15  C   UNL     1       2.821 -20.201  24.573  1.00  0.00     0.051 A 
ATOM     16  C   UNL     1       2.227 -21.177  23.762  1.00  0.00     0.157 A 
ATOM     17  C   UNL     1       0.036 -20.337  24.381  1.00  0.00     0.062 A 
ATOM     18  C   UNL     1       0.828 -21.247  23.668  1.00  0.00     0.158 A 
BRANCH  16  19
ATOM     19  O   UNL     1       3.021 -22.077  23.054  1.00  0.00    -0.504 OA
ATOM     20  H   UNL     1       4.001 -22.210  23.276  1.00  0.00     0.293 HD
ENDBRANCH  16  19
BRANCH  18  21
ATOM     21  O   UNL     1       0.205 -22.210  22.876  1.00  0.00    -0.504 OA
ATOM     22  H   UNL     1      -0.767 -22.134  22.601  1.00  0.00     0.293 HD
ENDBRANCH  18  21
ENDBRANCH   3  13
BRANCH  10  23
ATOM     23  O   UNL     1      -3.555 -15.676  28.808  1.00  0.00    -0.507 OA
ATOM     24  H   UNL     1      -3.578 -15.094  29.631  1.00  0.00     0.293 HD
ENDBRANCH  10  23
BRANCH  11  25
ATOM     25  O   UNL     1      -1.945 -12.690  25.411  1.00  0.00    -0.508 OA
ATOM     26  H   UNL     1      -2.439 -11.916  25.839  1.00  0.00     0.293 HD
ENDBRANCH  11  25
ENDBRANCH   1   2
BRANCH   1  27
ATOM     27  C   UNL     1       0.305 -20.329  28.735  1.00  0.00     0.265 C 
BRANCH  27  28
ATOM     28  C   UNL     1       0.408 -21.856  28.968  1.00  0.00     0.190 C 
ATOM     29  C   UNL     1       1.007 -22.247  30.341  1.00  0.00     0.178 C 
ATOM     30  O   UNL     1      -0.808 -22.542  28.674  1.00  0.00    -0.340 OA
ATOM     31  C   UNL     1      -0.043 -22.117  31.459  1.00  0.00     0.179 C 
ATOM     32  C   UNL     1      -1.817 -22.403  29.668  1.00  0.00     0.279 C 
ATOM     33  C   UNL     1      -1.346 -22.839  31.071  1.00  0.00     0.201 C 
BRANCH  29  34
ATOM     34  O   UNL     1       2.123 -21.443  30.626  1.00  0.00    -0.387 OA
ATOM     35  H   UNL     1       1.803 -20.504  30.661  1.00  0.00     0.211 HD
ENDBRANCH  29  34
BRANCH  31  36
ATOM     36  O   UNL     1       0.449 -22.589  32.690  1.00  0.00    -0.387 OA
ATOM     37  H   UNL     1      -0.324 -22.897  33.232  1.00  0.00     0.211 HD
ENDBRANCH  31  36
BRANCH  32  38
ATOM     38  O   UNL     1      -2.325 -21.095  29.704  1.00  0.00    -0.366 OA
ATOM     39  H   UNL     1      -3.259 -21.166  30.029  1.00  0.00     0.213 HD
ENDBRANCH  32  38
BRANCH  33  40
ATOM     40  O   UNL     1      -1.209 -24.239  31.147  1.00  0.00    -0.385 OA
ATOM     41  H   UNL     1      -2.008 -24.605  31.607  1.00  0.00     0.211 HD
ENDBRANCH  33  40
ENDBRANCH  27  28
ENDBRANCH   1  27
TORSDOF 12
ENDMDL
MODEL 7
REMARK VINA RESULT:    -7.227      2.067      7.101
REMARK INTER + INTRA:         -11.637
REMARK INTER:                 -10.488
REMARK INTRA:                  -1.149
REMARK UNBOUND:                -1.030
REMARK SMILES O=c1c(OC[C@@H]2O[C@H](O)[C@@H](O)[C@@H](O)[C@@H]2O)c(-c2ccc(O)c(O)c2)oc2cc(O)cc(O)c12
REMARK SMILES IDX 4 1 3 2 16 3 25 4 2 5 26 6 1 7 33 8 27 9 31 10 28 11 30 12
REMARK SMILES IDX 17 13 18 14 19 15 20 16 24 17 22 18 21 19 23 21 32 23 29 25
REMARK SMILES IDX 5 27 6 28 14 29 7 30 12 31 8 32 10 33 15 34 13 36 9 38 11 40
REMARK H PARENT 21 20 23 22 32 24 29 26 15 35 13 37 9 39 11 41
REMARK Flexibility Score: inf
ROOT
ATOM      1  O   UNL     1      -0.859 -20.163  27.799  1.00  0.00    -0.483 OA
ENDROOT
BRANCH   1   2
ATOM      2  C   UNL     1      -1.086 -18.875  27.278  1.00  0.00     0.211 A 
ATOM      3  C   UNL     1      -0.541 -18.556  26.023  1.00  0.00     0.180 A 
ATOM      4  O   UNL     1      -0.646 -17.322  25.545  1.00  0.00    -0.452 OA
ATOM      5  C   UNL     1      -1.818 -17.883  27.965  1.00  0.00     0.239 A 
ATOM      6  C   UNL     1      -1.298 -16.351  26.168  1.00  0.00     0.146 A 
ATOM      7  O   UNL     1      -2.326 -18.157  29.082  1.00  0.00    -0.285 OA
ATOM      8  C   UNL     1      -1.963 -16.592  27.399  1.00  0.00     0.111 A 
ATOM      9  C   UNL     1      -1.317 -15.081  25.586  1.00  0.00     0.094 A 
ATOM     10  C   UNL     1      -2.693 -15.520  27.996  1.00  0.00     0.134 A 
ATOM     11  C   UNL     1      -1.981 -14.028  26.207  1.00  0.00     0.123 A 
ATOM     12  C   UNL     1      -2.662 -14.249  27.407  1.00  0.00     0.093 A 
BRANCH   3  13
ATOM     13  C   UNL     1       0.200 -19.553  25.223  1.00  0.00     0.025 A 
ATOM     14  C   UNL     1      -0.412 -20.745  24.799  1.00  0.00     0.016 A 
ATOM     15  C   UNL     1       0.304 -21.674  24.041  1.00  0.00     0.051 A 
ATOM     16  C   UNL     1       1.637 -21.422  23.688  1.00  0.00     0.157 A 
ATOM     17  C   UNL     1       1.527 -19.294  24.848  1.00  0.00     0.062 A 
ATOM     18  C   UNL     1       2.250 -20.225  24.091  1.00  0.00     0.158 A 
BRANCH  16  19
ATOM     19  O   UNL     1       2.350 -22.355  22.937  1.00  0.00    -0.504 OA
ATOM     20  H   UNL     1       2.683 -22.143  22.003  1.00  0.00     0.293 HD
ENDBRANCH  16  19
BRANCH  18  21
ATOM     21  O   UNL     1       3.572 -19.941  23.751  1.00  0.00    -0.504 OA
ATOM     22  H   UNL     1       4.054 -20.435  23.010  1.00  0.00     0.293 HD
ENDBRANCH  18  21
ENDBRANCH   3  13
BRANCH  10  23
ATOM     23  O   UNL     1      -3.478 -15.651  29.146  1.00  0.00    -0.507 OA
ATOM     24  H   UNL     1      -4.486 -15.620  29.164  1.00  0.00     0.293 HD
ENDBRANCH  10  23
BRANCH  11  25
ATOM     25  O   UNL     1      -1.969 -12.764  25.620  1.00  0.00    -0.508 OA
ATOM     26  H   UNL     1      -1.240 -12.488  24.973  1.00  0.00     0.293 HD
ENDBRANCH  11  25
ENDBRANCH   1   2
BRANCH   1  27
ATOM     27  C   UNL     1       0.246 -20.565  28.611  1.00  0.00     0.265 C 
BRANCH  27  28
ATOM     28  C   UNL     1      -0.095 -20.461  30.118  1.00  0.00     0.190 C 
ATOM     29  C   UNL     1      -1.332 -21.289  30.544  1.00  0.00     0.178 C 
ATOM     30  O   UNL     1       1.038 -20.677  30.957  1.00  0.00    -0.340 OA
ATOM     31  C   UNL     1      -0.973 -22.778  30.699  1.00  0.00     0.179 C 
ATOM     32  C   UNL     1       1.424 -22.042  31.083  1.00  0.00     0.279 C 
ATOM     33  C   UNL     1       0.278 -22.949  31.578  1.00  0.00     0.201 C 
BRANCH  29  34
ATOM     34  O   UNL     1      -2.364 -21.132  29.604  1.00  0.00    -0.387 OA
ATOM     35  H   UNL     1      -1.965 -21.281  28.707  1.00  0.00     0.211 HD
ENDBRANCH  29  34
BRANCH  31  36
ATOM     36  O   UNL     1      -2.054 -23.521  31.208  1.00  0.00    -0.387 OA
ATOM     37  H   UNL     1      -2.863 -23.285  30.684  1.00  0.00     0.211 HD
ENDBRANCH  31  36
BRANCH  32  38
ATOM     38  O   UNL     1       1.960 -22.536  29.884  1.00  0.00    -0.366 OA
ATOM     39  H   UNL     1       2.715 -23.127  30.137  1.00  0.00     0.213 HD
ENDBRANCH  32  38
BRANCH  33  40
ATOM     40  O   UNL     1      -0.003 -22.715  32.938  1.00  0.00    -0.385 OA
ATOM     41  H   UNL     1      -0.479 -23.507  33.298  1.00  0.00     0.211 HD
ENDBRANCH  33  40
ENDBRANCH  27  28
ENDBRANCH   1  27
TORSDOF 12
ENDMDL
MODEL 8
REMARK VINA RESULT:    -7.164      1.711      2.710
REMARK INTER + INTRA:         -11.545
REMARK INTER:                 -10.156
REMARK INTRA:                  -1.389
REMARK UNBOUND:                -1.030
REMARK SMILES O=c1c(OC[C@@H]2O[C@H](O)[C@@H](O)[C@@H](O)[C@@H]2O)c(-c2ccc(O)c(O)c2)oc2cc(O)cc(O)c12
REMARK SMILES IDX 4 1 3 2 16 3 25 4 2 5 26 6 1 7 33 8 27 9 31 10 28 11 30 12
REMARK SMILES IDX 17 13 18 14 19 15 20 16 24 17 22 18 21 19 23 21 32 23 29 25
REMARK SMILES IDX 5 27 6 28 14 29 7 30 12 31 8 32 10 33 15 34 13 36 9 38 11 40
REMARK H PARENT 21 20 23 22 32 24 29 26 15 35 13 37 9 39 11 41
REMARK Flexibility Score: inf
ROOT
ATOM      1  O   UNL     1      -0.506 -20.243  28.437  1.00  0.00    -0.483 OA
ENDROOT
BRANCH   1   2
ATOM      2  C   UNL     1      -0.590 -21.563  28.921  1.00  0.00     0.211 A 
ATOM      3  C   UNL     1       0.050 -22.583  28.197  1.00  0.00     0.180 A 
ATOM      4  O   UNL     1      -0.092 -23.851  28.563  1.00  0.00    -0.452 OA
ATOM      5  C   UNL     1      -1.304 -21.913  30.087  1.00  0.00     0.239 A 
ATOM      6  C   UNL     1      -0.777 -24.229  29.634  1.00  0.00     0.146 A 
ATOM      7  O   UNL     1      -1.869 -21.010  30.755  1.00  0.00    -0.285 OA
ATOM      8  C   UNL     1      -1.386 -23.270  30.485  1.00  0.00     0.111 A 
ATOM      9  C   UNL     1      -0.887 -25.594  29.906  1.00  0.00     0.094 A 
ATOM     10  C   UNL     1      -2.066 -23.735  31.652  1.00  0.00     0.134 A 
ATOM     11  C   UNL     1      -1.602 -26.039  31.013  1.00  0.00     0.123 A 
ATOM     12  C   UNL     1      -2.190 -25.112  31.878  1.00  0.00     0.093 A 
BRANCH   3  13
ATOM     13  C   UNL     1       0.852 -22.292  26.990  1.00  0.00     0.025 A 
ATOM     14  C   UNL     1       2.207 -21.931  27.089  1.00  0.00     0.016 A 
ATOM     15  C   UNL     1       2.950 -21.662  25.937  1.00  0.00     0.051 A 
ATOM     16  C   UNL     1       2.354 -21.760  24.672  1.00  0.00     0.157 A 
ATOM     17  C   UNL     1       0.265 -22.411  25.722  1.00  0.00     0.062 A 
ATOM     18  C   UNL     1       1.006 -22.139  24.565  1.00  0.00     0.158 A 
BRANCH  16  19
ATOM     19  O   UNL     1       3.097 -21.485  23.525  1.00  0.00    -0.504 OA
ATOM     20  H   UNL     1       3.697 -20.670  23.463  1.00  0.00     0.293 HD
ENDBRANCH  16  19
BRANCH  18  21
ATOM     21  O   UNL     1       0.386 -22.251  23.321  1.00  0.00    -0.504 OA
ATOM     22  H   UNL     1      -0.616 -22.154  23.210  1.00  0.00     0.293 HD
ENDBRANCH  18  21
ENDBRANCH   3  13
BRANCH  10  23
ATOM     23  O   UNL     1      -2.614 -22.895  32.627  1.00  0.00    -0.507 OA
ATOM     24  H   UNL     1      -3.598 -22.710  32.744  1.00  0.00     0.293 HD
ENDBRANCH  10  23
BRANCH  11  25
ATOM     25  O   UNL     1      -1.717 -27.407  31.255  1.00  0.00    -0.508 OA
ATOM     26  H   UNL     1      -2.450 -27.781  31.847  1.00  0.00     0.293 HD
ENDBRANCH  11  25
ENDBRANCH   1   2
BRANCH   1  27
ATOM     27  C   UNL     1      -1.256 -19.689  27.354  1.00  0.00     0.265 C 
BRANCH  27  28
ATOM     28  C   UNL     1      -1.500 -18.174  27.557  1.00  0.00     0.190 C 
ATOM     29  C   UNL     1      -1.764 -17.768  29.028  1.00  0.00     0.178 C 
ATOM     30  O   UNL     1      -0.510 -17.365  26.925  1.00  0.00    -0.340 OA
ATOM     31  C   UNL     1      -0.450 -17.692  29.825  1.00  0.00     0.179 C 
ATOM     32  C   UNL     1       0.735 -17.312  27.615  1.00  0.00     0.279 C 
ATOM     33  C   UNL     1       0.594 -16.844  29.077  1.00  0.00     0.201 C 
BRANCH  29  34
ATOM     34  O   UNL     1      -2.646 -18.682  29.629  1.00  0.00    -0.387 OA
ATOM     35  H   UNL     1      -3.365 -18.868  28.970  1.00  0.00     0.211 HD
ENDBRANCH  29  34
BRANCH  31  36
ATOM     36  O   UNL     1      -0.661 -17.203  31.127  1.00  0.00    -0.387 OA
ATOM     37  H   UNL     1      -0.692 -17.979  31.746  1.00  0.00     0.211 HD
ENDBRANCH  31  36
BRANCH  32  38
ATOM     38  O   UNL     1       1.407 -18.543  27.554  1.00  0.00    -0.366 OA
ATOM     39  H   UNL     1       1.300 -18.965  28.446  1.00  0.00     0.213 HD
ENDBRANCH  32  38
BRANCH  33  40
ATOM     40  O   UNL     1       0.293 -15.470  29.143  1.00  0.00    -0.385 OA
ATOM     41  H   UNL     1       0.756 -15.013  28.393  1.00  0.00     0.211 HD
ENDBRANCH  33  40
ENDBRANCH  27  28
ENDBRANCH   1  27
TORSDOF 12
ENDMDL
MODEL 9
REMARK VINA RESULT:    -7.147      1.812      7.001
REMARK INTER + INTRA:         -11.519
REMARK INTER:                 -10.145
REMARK INTRA:                  -1.374
REMARK UNBOUND:                -1.030
REMARK SMILES O=c1c(OC[C@@H]2O[C@H](O)[C@@H](O)[C@@H](O)[C@@H]2O)c(-c2ccc(O)c(O)c2)oc2cc(O)cc(O)c12
REMARK SMILES IDX 4 1 3 2 16 3 25 4 2 5 26 6 1 7 33 8 27 9 31 10 28 11 30 12
REMARK SMILES IDX 17 13 18 14 19 15 20 16 24 17 22 18 21 19 23 21 32 23 29 25
REMARK SMILES IDX 5 27 6 28 14 29 7 30 12 31 8 32 10 33 15 34 13 36 9 38 11 40
REMARK H PARENT 21 20 23 22 32 24 29 26 15 35 13 37 9 39 11 41
REMARK Flexibility Score: inf
ROOT
ATOM      1  O   UNL     1       0.245 -20.577  26.030  1.00  0.00    -0.483 OA
ENDROOT
BRANCH   1   2
ATOM      2  C   UNL     1      -0.372 -19.366  26.401  1.00  0.00     0.211 A 
ATOM      3  C   UNL     1      -0.938 -19.270  27.683  1.00  0.00     0.180 A 
ATOM      4  O   UNL     1      -1.617 -18.184  28.032  1.00  0.00    -0.452 OA
ATOM      5  C   UNL     1      -0.465 -18.253  25.539  1.00  0.00     0.239 A 
ATOM      6  C   UNL     1      -1.756 -17.126  27.245  1.00  0.00     0.146 A 
ATOM      7  O   UNL     1       0.051 -18.317  24.394  1.00  0.00    -0.285 OA
ATOM      8  C   UNL     1      -1.145 -17.085  25.964  1.00  0.00     0.111 A 
ATOM      9  C   UNL     1      -2.519 -16.050  27.704  1.00  0.00     0.094 A 
ATOM     10  C   UNL     1      -1.286 -15.897  25.183  1.00  0.00     0.134 A 
ATOM     11  C   UNL     1      -2.700 -14.921  26.910  1.00  0.00     0.123 A 
ATOM     12  C   UNL     1      -2.087 -14.850  25.656  1.00  0.00     0.093 A 
BRANCH   3  13
ATOM     13  C   UNL     1      -0.845 -20.376  28.658  1.00  0.00     0.025 A 
ATOM     14  C   UNL     1       0.175 -20.408  29.625  1.00  0.00     0.016 A 
ATOM     15  C   UNL     1       0.246 -21.461  30.540  1.00  0.00     0.051 A 
ATOM     16  C   UNL     1      -0.705 -22.490  30.510  1.00  0.00     0.157 A 
ATOM     17  C   UNL     1      -1.808 -21.396  28.645  1.00  0.00     0.062 A 
ATOM     18  C   UNL     1      -1.738 -22.455  29.559  1.00  0.00     0.158 A 
BRANCH  16  19
ATOM     19  O   UNL     1      -0.627 -23.542  31.421  1.00  0.00    -0.504 OA
ATOM     20  H   UNL     1      -1.422 -23.815  31.986  1.00  0.00     0.293 HD
ENDBRANCH  16  19
BRANCH  18  21
ATOM     21  O   UNL     1      -2.703 -23.460  29.506  1.00  0.00    -0.504 OA
ATOM     22  H   UNL     1      -3.195 -23.689  28.651  1.00  0.00     0.293 HD
ENDBRANCH  18  21
ENDBRANCH   3  13
BRANCH  10  23
ATOM     23  O   UNL     1      -0.648 -15.684  23.957  1.00  0.00    -0.507 OA
ATOM     24  H   UNL     1       0.169 -15.107  23.823  1.00  0.00     0.293 HD
ENDBRANCH  10  23
BRANCH  11  25
ATOM     25  O   UNL     1      -3.483 -13.868  27.379  1.00  0.00    -0.508 OA
ATOM     26  H   UNL     1      -3.605 -13.699  28.371  1.00  0.00     0.293 HD
ENDBRANCH  11  25
ENDBRANCH   1   2
BRANCH   1  27
ATOM     27  C   UNL     1      -0.405 -21.723  25.476  1.00  0.00     0.265 C 
BRANCH  27  28
ATOM     28  C   UNL     1       0.555 -22.530  24.568  1.00  0.00     0.190 C 
ATOM     29  C   UNL     1       1.477 -21.653  23.687  1.00  0.00     0.178 C 
ATOM     30  O   UNL     1       1.262 -23.546  25.277  1.00  0.00    -0.340 OA
ATOM     31  C   UNL     1       2.662 -21.104  24.502  1.00  0.00     0.179 C 
ATOM     32  C   UNL     1       2.337 -23.065  26.077  1.00  0.00     0.279 C 
ATOM     33  C   UNL     1       3.361 -22.235  25.277  1.00  0.00     0.201 C 
BRANCH  29  34
ATOM     34  O   UNL     1       0.743 -20.595  23.124  1.00  0.00    -0.387 OA
ATOM     35  H   UNL     1       0.773 -19.844  23.773  1.00  0.00     0.211 HD
ENDBRANCH  29  34
BRANCH  31  36
ATOM     36  O   UNL     1       3.576 -20.411  23.687  1.00  0.00    -0.387 OA
ATOM     37  H   UNL     1       4.493 -20.681  23.954  1.00  0.00     0.211 HD
ENDBRANCH  31  36
BRANCH  32  38
ATOM     38  O   UNL     1       1.867 -22.336  27.181  1.00  0.00    -0.366 OA
ATOM     39  H   UNL     1       2.617 -21.757  27.474  1.00  0.00     0.213 HD
ENDBRANCH  32  38
BRANCH  33  40
ATOM     40  O   UNL     1       4.125 -23.057  24.425  1.00  0.00    -0.385 OA
ATOM     41  H   UNL     1       4.407 -23.859  24.937  1.00  0.00     0.211 HD
ENDBRANCH  33  40
ENDBRANCH  27  28
ENDBRANCH   1  27
TORSDOF 12
ENDMDL
