MODEL 1
REMARK VINA RESULT:    -3.588      0.000      0.000
REMARK INTER + INTRA:          -4.256
REMARK INTER:                  -4.217
REMARK INTRA:                  -0.039
REMARK UNBOUND:                -0.039
REMARK SMILES CCCCC(=O)[O-]
REMARK SMILES IDX 4 1 5 2 6 3 7 4 3 5 2 6 1 7
REMARK H PARENT
REMARK Flexibility Score: inf
ROOT
ATOM      1  C   UNL     1     181.972 182.105 191.132  1.00  0.00     0.053 C 
ENDROOT
BRANCH   1   2
ATOM      2  C   UNL     1     183.307 182.690 191.480  1.00  0.00     0.041 C 
ATOM      3  O   UNL     1     184.286 182.540 190.704  1.00  0.00    -0.550 OA
ATOM      4  O   UNL     1     183.475 183.374 192.677  1.00  0.00    -0.550 OA
ENDBRANCH   1   2
BRANCH   1   5
ATOM      5  C   UNL     1     181.270 181.502 192.359  1.00  0.00     0.006 C 
BRANCH   5   6
ATOM      6  C   UNL     1     179.733 181.551 192.292  1.00  0.00    -0.003 C 
ATOM      7  C   UNL     1     179.212 182.034 190.938  1.00  0.00     0.004 C 
ENDBRANCH   5   6
ENDBRANCH   1   5
TORSDOF 3
ENDMDL
MODEL 2
REMARK VINA RESULT:    -3.573      2.320      3.819
REMARK INTER + INTRA:          -4.238
REMARK INTER:                  -4.198
REMARK INTRA:                  -0.040
REMARK UNBOUND:                -0.039
REMARK SMILES CCCCC(=O)[O-]
REMARK SMILES IDX 4 1 5 2 6 3 7 4 3 5 2 6 1 7
REMARK H PARENT
REMARK Flexibility Score: inf
ROOT
ATOM      1  C   UNL     1     182.296 182.248 191.156  1.00  0.00     0.053 C 
ENDROOT
BRANCH   1   2
ATOM      2  C   UNL     1     180.980 181.686 191.601  1.00  0.00     0.041 C 
ATOM      3  O   UNL     1     179.988 181.710 190.827  1.00  0.00    -0.550 OA
ATOM      4  O   UNL     1     180.844 181.163 192.880  1.00  0.00    -0.550 OA
ENDBRANCH   1   2
BRANCH   1   5
ATOM      5  C   UNL     1     183.084 182.860 192.325  1.00  0.00     0.006 C 
BRANCH   5   6
ATOM      6  C   UNL     1     184.613 182.777 192.165  1.00  0.00    -0.003 C 
ATOM      7  C   UNL     1     185.039 182.236 190.800  1.00  0.00     0.004 C 
ENDBRANCH   5   6
ENDBRANCH   1   5
TORSDOF 3
ENDMDL
MODEL 3
REMARK VINA RESULT:    -3.462      2.642      4.038
REMARK INTER + INTRA:          -4.108
REMARK INTER:                  -4.067
REMARK INTRA:                  -0.040
REMARK UNBOUND:                -0.039
REMARK SMILES CCCCC(=O)[O-]
REMARK SMILES IDX 4 1 5 2 6 3 7 4 3 5 2 6 1 7
REMARK H PARENT
REMARK Flexibility Score: inf
ROOT
ATOM      1  C   UNL     1     181.342 181.585 192.182  1.00  0.00     0.053 C 
ENDROOT
BRANCH   1   2
ATOM      2  C   UNL     1     179.859 181.656 191.984  1.00  0.00     0.041 C 
ATOM      3  O   UNL     1     179.080 181.277 192.897  1.00  0.00    -0.550 OA
ATOM      4  O   UNL     1     179.339 182.114 190.781  1.00  0.00    -0.550 OA
ENDBRANCH   1   2
BRANCH   1   5
ATOM      5  C   UNL     1     182.112 182.149 190.977  1.00  0.00     0.006 C 
BRANCH   5   6
ATOM      6  C   UNL     1     183.497 182.722 191.326  1.00  0.00    -0.003 C 
ATOM      7  C   UNL     1     183.581 183.240 192.762  1.00  0.00     0.004 C 
ENDBRANCH   5   6
ENDBRANCH   1   5
TORSDOF 3
ENDMDL
MODEL 4
REMARK VINA RESULT:    -3.152      9.895     10.752
REMARK INTER + INTRA:          -3.744
REMARK INTER:                  -3.612
REMARK INTRA:                  -0.132
REMARK UNBOUND:                -0.039
REMARK SMILES CCCCC(=O)[O-]
REMARK SMILES IDX 4 1 5 2 6 3 7 4 3 5 2 6 1 7
REMARK H PARENT
REMARK Flexibility Score: inf
ROOT
ATOM      1  C   UNL     1     180.539 182.185 181.972  1.00  0.00     0.053 C 
ENDROOT
BRANCH   1   2
ATOM      2  C   UNL     1     179.320 183.044 182.109  1.00  0.00     0.041 C 
ATOM      3  O   UNL     1     179.174 183.781 183.119  1.00  0.00    -0.550 OA
ATOM      4  O   UNL     1     178.331 183.007 181.135  1.00  0.00    -0.550 OA
ENDBRANCH   1   2
BRANCH   1   5
ATOM      5  C   UNL     1     181.814 183.022 181.776  1.00  0.00     0.006 C 
BRANCH   5   6
ATOM      6  C   UNL     1     181.696 184.102 180.685  1.00  0.00    -0.003 C 
ATOM      7  C   UNL     1     182.021 185.504 181.200  1.00  0.00     0.004 C 
ENDBRANCH   5   6
ENDBRANCH   1   5
TORSDOF 3
ENDMDL
MODEL 5
REMARK VINA RESULT:    -3.139      9.999     10.608
REMARK INTER + INTRA:          -3.728
REMARK INTER:                  -3.625
REMARK INTRA:                  -0.104
REMARK UNBOUND:                -0.039
REMARK SMILES CCCCC(=O)[O-]
REMARK SMILES IDX 4 1 5 2 6 3 7 4 3 5 2 6 1 7
REMARK H PARENT
REMARK Flexibility Score: inf
ROOT
ATOM      1  C   UNL     1     183.100 181.115 180.835  1.00  0.00     0.053 C 
ENDROOT
BRANCH   1   2
ATOM      2  C   UNL     1     184.366 180.809 181.576  1.00  0.00     0.041 C 
ATOM      3  O   UNL     1     184.321 180.411 182.769  1.00  0.00    -0.550 OA
ATOM      4  O   UNL     1     185.595 180.992 180.957  1.00  0.00    -0.550 OA
ENDBRANCH   1   2
BRANCH   1   5
ATOM      5  C   UNL     1     181.852 180.715 181.638  1.00  0.00     0.006 C 
BRANCH   5   6
ATOM      6  C   UNL     1     181.071 179.532 181.037  1.00  0.00    -0.003 C 
ATOM      7  C   UNL     1     181.713 178.179 181.343  1.00  0.00     0.004 C 
ENDBRANCH   5   6
ENDBRANCH   1   5
TORSDOF 3
ENDMDL
MODEL 6
REMARK VINA RESULT:    -3.105      9.656     10.283
REMARK INTER + INTRA:          -3.688
REMARK INTER:                  -3.596
REMARK INTRA:                  -0.092
REMARK UNBOUND:                -0.039
REMARK SMILES CCCCC(=O)[O-]
REMARK SMILES IDX 4 1 5 2 6 3 7 4 3 5 2 6 1 7
REMARK H PARENT
REMARK Flexibility Score: inf
ROOT
ATOM      1  C   UNL     1     183.541 181.601 181.803  1.00  0.00     0.053 C 
ENDROOT
BRANCH   1   2
ATOM      2  C   UNL     1     184.844 180.907 182.059  1.00  0.00     0.041 C 
ATOM      3  O   UNL     1     185.765 180.953 181.202  1.00  0.00    -0.550 OA
ATOM      4  O   UNL     1     185.029 180.185 183.231  1.00  0.00    -0.550 OA
ENDBRANCH   1   2
BRANCH   1   5
ATOM      5  C   UNL     1     182.338 180.679 182.058  1.00  0.00     0.006 C 
BRANCH   5   6
ATOM      6  C   UNL     1     182.021 179.722 180.894  1.00  0.00    -0.003 C 
ATOM      7  C   UNL     1     181.829 178.275 181.350  1.00  0.00     0.004 C 
ENDBRANCH   5   6
ENDBRANCH   1   5
TORSDOF 3
ENDMDL
MODEL 7
REMARK VINA RESULT:    -3.102      9.669     10.565
REMARK INTER + INTRA:          -3.685
REMARK INTER:                  -3.578
REMARK INTRA:                  -0.106
REMARK UNBOUND:                -0.039
REMARK SMILES CCCCC(=O)[O-]
REMARK SMILES IDX 4 1 5 2 6 3 7 4 3 5 2 6 1 7
REMARK H PARENT
REMARK Flexibility Score: inf
ROOT
ATOM      1  C   UNL     1     180.892 183.342 181.257  1.00  0.00     0.053 C 
ENDROOT
BRANCH   1   2
ATOM      2  C   UNL     1     180.202 183.407 182.585  1.00  0.00     0.041 C 
ATOM      3  O   UNL     1     180.875 183.503 183.645  1.00  0.00    -0.550 OA
ATOM      4  O   UNL     1     178.817 183.330 182.654  1.00  0.00    -0.550 OA
ENDBRANCH   1   2
BRANCH   1   5
ATOM      5  C   UNL     1     181.609 184.658 180.916  1.00  0.00     0.006 C 
BRANCH   5   6
ATOM      6  C   UNL     1     183.145 184.558 180.923  1.00  0.00    -0.003 C 
ATOM      7  C   UNL     1     183.647 183.133 181.162  1.00  0.00     0.004 C 
ENDBRANCH   5   6
ENDBRANCH   1   5
TORSDOF 3
ENDMDL
MODEL 8
REMARK VINA RESULT:    -3.043      9.225      9.897
REMARK INTER + INTRA:          -3.616
REMARK INTER:                  -3.482
REMARK INTRA:                  -0.134
REMARK UNBOUND:                -0.039
REMARK SMILES CCCCC(=O)[O-]
REMARK SMILES IDX 4 1 5 2 6 3 7 4 3 5 2 6 1 7
REMARK H PARENT
REMARK Flexibility Score: inf
ROOT
ATOM      1  C   UNL     1     181.185 182.039 181.744  1.00  0.00     0.053 C 
ENDROOT
BRANCH   1   2
ATOM      2  C   UNL     1     181.217 183.370 182.430  1.00  0.00     0.041 C 
ATOM      3  O   UNL     1     181.641 184.387 181.820  1.00  0.00    -0.550 OA
ATOM      4  O   UNL     1     180.808 183.481 183.752  1.00  0.00    -0.550 OA
ENDBRANCH   1   2
BRANCH   1   5
ATOM      5  C   UNL     1     179.753 181.496 181.608  1.00  0.00     0.006 C 
BRANCH   5   6
ATOM      6  C   UNL     1     178.768 182.477 180.947  1.00  0.00    -0.003 C 
ATOM      7  C   UNL     1     177.600 182.853 181.860  1.00  0.00     0.004 C 
ENDBRANCH   5   6
ENDBRANCH   1   5
TORSDOF 3
ENDMDL
MODEL 9
REMARK VINA RESULT:    -2.992     10.313     10.864
REMARK INTER + INTRA:          -3.556
REMARK INTER:                  -3.540
REMARK INTRA:                  -0.017
REMARK UNBOUND:                -0.039
REMARK SMILES CCCCC(=O)[O-]
REMARK SMILES IDX 4 1 5 2 6 3 7 4 3 5 2 6 1 7
REMARK H PARENT
REMARK Flexibility Score: inf
ROOT
ATOM      1  C   UNL     1     183.986 182.903 181.630  1.00  0.00     0.053 C 
ENDROOT
BRANCH   1   2
ATOM      2  C   UNL     1     184.597 181.538 181.531  1.00  0.00     0.041 C 
ATOM      3  O   UNL     1     185.359 181.254 180.571  1.00  0.00    -0.550 OA
ATOM      4  O   UNL     1     184.300 180.573 182.484  1.00  0.00    -0.550 OA
ENDBRANCH   1   2
BRANCH   1   5
ATOM      5  C   UNL     1     183.119 183.235 180.406  1.00  0.00     0.006 C 
BRANCH   5   6
ATOM      6  C   UNL     1     181.862 184.064 180.731  1.00  0.00    -0.003 C 
ATOM      7  C   UNL     1     182.186 185.508 181.112  1.00  0.00     0.004 C 
ENDBRANCH   5   6
ENDBRANCH   1   5
TORSDOF 3
ENDMDL
