MODEL 1
REMARK VINA RESULT:    -3.929      0.000      0.000
REMARK INTER + INTRA:          -4.944
REMARK INTER:                  -4.848
REMARK INTRA:                  -0.096
REMARK UNBOUND:                -0.096
REMARK SMILES CCCCCC(=O)[O-]
REMARK SMILES IDX 4 1 5 2 6 3 7 4 8 5 3 6 2 7 1 8
REMARK H PARENT
REMARK Flexibility Score: inf
ROOT
ATOM      1  C   UNL     1       2.928  10.996   9.575  1.00  0.00     0.006 C 
ENDROOT
BRANCH   1   2
ATOM      2  C   UNL     1       3.215  10.743   8.089  1.00  0.00     0.053 C 
BRANCH   2   3
ATOM      3  C   UNL     1       4.213   9.643   7.894  1.00  0.00     0.041 C 
ATOM      4  O   UNL     1       3.900   8.451   8.151  1.00  0.00    -0.550 OA
ATOM      5  O   UNL     1       5.478   9.931   7.395  1.00  0.00    -0.550 OA
ENDBRANCH   2   3
ENDBRANCH   1   2
BRANCH   1   6
ATOM      6  C   UNL     1       1.438  11.249   9.844  1.00  0.00     0.000 C 
BRANCH   6   7
ATOM      7  C   UNL     1       1.099  12.737   9.699  1.00  0.00    -0.003 C 
ATOM      8  C   UNL     1      -0.245  12.930   9.003  1.00  0.00     0.004 C 
ENDBRANCH   6   7
ENDBRANCH   1   6
TORSDOF 4
ENDMDL
MODEL 2
REMARK VINA RESULT:    -3.883      0.551      1.223
REMARK INTER + INTRA:          -4.888
REMARK INTER:                  -4.786
REMARK INTRA:                  -0.102
REMARK UNBOUND:                -0.096
REMARK SMILES CCCCCC(=O)[O-]
REMARK SMILES IDX 4 1 5 2 6 3 7 4 8 5 3 6 2 7 1 8
REMARK H PARENT
REMARK Flexibility Score: inf
ROOT
ATOM      1  C   UNL     1       2.512  10.912   9.632  1.00  0.00     0.006 C 
ENDROOT
BRANCH   1   2
ATOM      2  C   UNL     1       2.703  10.860   8.111  1.00  0.00     0.053 C 
BRANCH   2   3
ATOM      3  C   UNL     1       3.967  10.154   7.732  1.00  0.00     0.041 C 
ATOM      4  O   UNL     1       4.886  10.775   7.137  1.00  0.00    -0.550 OA
ATOM      5  O   UNL     1       4.145   8.816   8.065  1.00  0.00    -0.550 OA
ENDBRANCH   2   3
ENDBRANCH   1   2
BRANCH   1   6
ATOM      6  C   UNL     1       1.125  11.437  10.027  1.00  0.00     0.000 C 
BRANCH   6   7
ATOM      7  C   UNL     1       0.956  12.904   9.618  1.00  0.00    -0.003 C 
ATOM      8  C   UNL     1      -0.364  13.125   8.885  1.00  0.00     0.004 C 
ENDBRANCH   6   7
ENDBRANCH   1   6
TORSDOF 4
ENDMDL
MODEL 3
REMARK VINA RESULT:    -3.746      2.991      4.822
REMARK INTER + INTRA:          -4.718
REMARK INTER:                  -4.574
REMARK INTRA:                  -0.144
REMARK UNBOUND:                -0.096
REMARK SMILES CCCCCC(=O)[O-]
REMARK SMILES IDX 4 1 5 2 6 3 7 4 8 5 3 6 2 7 1 8
REMARK H PARENT
REMARK Flexibility Score: inf
ROOT
ATOM      1  C   UNL     1       5.950  10.724   6.520  1.00  0.00     0.006 C 
ENDROOT
BRANCH   1   2
ATOM      2  C   UNL     1       4.993  10.933   7.701  1.00  0.00     0.053 C 
BRANCH   2   3
ATOM      3  C   UNL     1       3.876   9.936   7.696  1.00  0.00     0.041 C 
ATOM      4  O   UNL     1       4.087   8.745   8.045  1.00  0.00    -0.550 OA
ATOM      5  O   UNL     1       2.592  10.331   7.338  1.00  0.00    -0.550 OA
ENDBRANCH   2   3
ENDBRANCH   1   2
BRANCH   1   6
ATOM      6  C   UNL     1       5.255  10.929   5.166  1.00  0.00     0.000 C 
BRANCH   6   7
ATOM      7  C   UNL     1       6.058  11.884   4.277  1.00  0.00    -0.003 C 
ATOM      8  C   UNL     1       6.741  12.967   5.107  1.00  0.00     0.004 C 
ENDBRANCH   6   7
ENDBRANCH   1   6
TORSDOF 4
ENDMDL
MODEL 4
REMARK VINA RESULT:    -3.636      3.771      5.812
REMARK INTER + INTRA:          -4.583
REMARK INTER:                  -4.472
REMARK INTRA:                  -0.111
REMARK UNBOUND:                -0.096
REMARK SMILES CCCCCC(=O)[O-]
REMARK SMILES IDX 4 1 5 2 6 3 7 4 8 5 3 6 2 7 1 8
REMARK H PARENT
REMARK Flexibility Score: inf
ROOT
ATOM      1  C   UNL     1       5.330  10.896   5.084  1.00  0.00     0.006 C 
ENDROOT
BRANCH   1   2
ATOM      2  C   UNL     1       5.905  10.741   6.498  1.00  0.00     0.053 C 
BRANCH   2   3
ATOM      3  C   UNL     1       4.853  10.341   7.486  1.00  0.00     0.041 C 
ATOM      4  O   UNL     1       4.104  11.211   8.002  1.00  0.00    -0.550 OA
ATOM      5  O   UNL     1       4.679   9.001   7.813  1.00  0.00    -0.550 OA
ENDBRANCH   2   3
ENDBRANCH   1   2
BRANCH   1   6
ATOM      6  C   UNL     1       6.092  11.942   4.258  1.00  0.00     0.000 C 
BRANCH   6   7
ATOM      7  C   UNL     1       7.495  12.175   4.827  1.00  0.00    -0.003 C 
ATOM      8  C   UNL     1       8.550  12.137   3.725  1.00  0.00     0.004 C 
ENDBRANCH   6   7
ENDBRANCH   1   6
TORSDOF 4
ENDMDL
MODEL 5
REMARK VINA RESULT:    -3.582     18.050     18.707
REMARK INTER + INTRA:          -4.516
REMARK INTER:                  -4.372
REMARK INTRA:                  -0.143
REMARK UNBOUND:                -0.096
REMARK SMILES CCCCCC(=O)[O-]
REMARK SMILES IDX 4 1 5 2 6 3 7 4 8 5 3 6 2 7 1 8
REMARK H PARENT
REMARK Flexibility Score: inf
ROOT
ATOM      1  C   UNL     1      -5.523   9.755  -8.842  1.00  0.00     0.006 C 
ENDROOT
BRANCH   1   2
ATOM      2  C   UNL     1      -5.717   8.894  -7.587  1.00  0.00     0.053 C 
BRANCH   2   3
ATOM      3  C   UNL     1      -6.741   9.477  -6.663  1.00  0.00     0.041 C 
ATOM      4  O   UNL     1      -6.826  10.725  -6.518  1.00  0.00    -0.550 OA
ATOM      5  O   UNL     1      -7.624   8.644  -5.987  1.00  0.00    -0.550 OA
ENDBRANCH   2   3
ENDBRANCH   1   2
BRANCH   1   6
ATOM      6  C   UNL     1      -4.044  10.067  -9.111  1.00  0.00     0.000 C 
BRANCH   6   7
ATOM      7  C   UNL     1      -3.736  11.542  -8.832  1.00  0.00    -0.003 C 
ATOM      8  C   UNL     1      -3.678  11.820  -7.333  1.00  0.00     0.004 C 
ENDBRANCH   6   7
ENDBRANCH   1   6
TORSDOF 4
ENDMDL
MODEL 6
REMARK VINA RESULT:    -3.558     17.429     18.026
REMARK INTER + INTRA:          -4.486
REMARK INTER:                  -4.301
REMARK INTRA:                  -0.185
REMARK UNBOUND:                -0.096
REMARK SMILES CCCCCC(=O)[O-]
REMARK SMILES IDX 4 1 5 2 6 3 7 4 8 5 3 6 2 7 1 8
REMARK H PARENT
REMARK Flexibility Score: inf
ROOT
ATOM      1  C   UNL     1      -3.621  10.581  -7.938  1.00  0.00     0.006 C 
ENDROOT
BRANCH   1   2
ATOM      2  C   UNL     1      -4.011  11.995  -7.487  1.00  0.00     0.053 C 
BRANCH   2   3
ATOM      3  C   UNL     1      -4.618  11.996  -6.118  1.00  0.00     0.041 C 
ATOM      4  O   UNL     1      -4.473  11.003  -5.360  1.00  0.00    -0.550 OA
ATOM      5  O   UNL     1      -5.316  13.110  -5.667  1.00  0.00    -0.550 OA
ENDBRANCH   2   3
ENDBRANCH   1   2
BRANCH   1   6
ATOM      6  C   UNL     1      -4.464  10.096  -9.125  1.00  0.00     0.000 C 
BRANCH   6   7
ATOM      7  C   UNL     1      -5.917   9.850  -8.702  1.00  0.00    -0.003 C 
ATOM      8  C   UNL     1      -5.998   8.821  -7.579  1.00  0.00     0.004 C 
ENDBRANCH   6   7
ENDBRANCH   1   6
TORSDOF 4
ENDMDL
MODEL 7
REMARK VINA RESULT:    -3.445      3.209      4.997
REMARK INTER + INTRA:          -4.347
REMARK INTER:                  -4.102
REMARK INTRA:                  -0.245
REMARK UNBOUND:                -0.096
REMARK SMILES CCCCCC(=O)[O-]
REMARK SMILES IDX 4 1 5 2 6 3 7 4 8 5 3 6 2 7 1 8
REMARK H PARENT
REMARK Flexibility Score: inf
ROOT
ATOM      1  C   UNL     1       5.844  11.357   6.498  1.00  0.00     0.006 C 
ENDROOT
BRANCH   1   2
ATOM      2  C   UNL     1       4.552  10.534   6.580  1.00  0.00     0.053 C 
BRANCH   2   3
ATOM      3  C   UNL     1       4.416   9.841   7.900  1.00  0.00     0.041 C 
ATOM      4  O   UNL     1       4.152   8.611   7.946  1.00  0.00    -0.550 OA
ATOM      5  O   UNL     1       4.614  10.547   9.081  1.00  0.00    -0.550 OA
ENDBRANCH   2   3
ENDBRANCH   1   2
BRANCH   1   6
ATOM      6  C   UNL     1       7.068  10.489   6.173  1.00  0.00     0.000 C 
BRANCH   6   7
ATOM      7  C   UNL     1       8.212  10.763   7.155  1.00  0.00    -0.003 C 
ATOM      8  C   UNL     1       7.803  11.791   8.206  1.00  0.00     0.004 C 
ENDBRANCH   6   7
ENDBRANCH   1   6
TORSDOF 4
ENDMDL
MODEL 8
REMARK VINA RESULT:    -3.014     17.716     18.391
REMARK INTER + INTRA:          -3.815
REMARK INTER:                  -3.603
REMARK INTRA:                  -0.212
REMARK UNBOUND:                -0.096
REMARK SMILES CCCCCC(=O)[O-]
REMARK SMILES IDX 4 1 5 2 6 3 7 4 8 5 3 6 2 7 1 8
REMARK H PARENT
REMARK Flexibility Score: inf
ROOT
ATOM      1  C   UNL     1      -5.727   9.189  -7.744  1.00  0.00     0.006 C 
ENDROOT
BRANCH   1   2
ATOM      2  C   UNL     1      -6.554  10.102  -6.829  1.00  0.00     0.053 C 
BRANCH   2   3
ATOM      3  C   UNL     1      -5.697  11.112  -6.130  1.00  0.00     0.041 C 
ATOM      4  O   UNL     1      -6.158  12.250  -5.852  1.00  0.00    -0.550 OA
ATOM      5  O   UNL     1      -4.400  10.784  -5.754  1.00  0.00    -0.550 OA
ENDBRANCH   2   3
ENDBRANCH   1   2
BRANCH   1   6
ATOM      6  C   UNL     1      -5.345   9.877  -9.062  1.00  0.00     0.000 C 
BRANCH   6   7
ATOM      7  C   UNL     1      -3.837  10.142  -9.125  1.00  0.00    -0.003 C 
ATOM      8  C   UNL     1      -3.536  11.636  -9.051  1.00  0.00     0.004 C 
ENDBRANCH   6   7
ENDBRANCH   1   6
TORSDOF 4
ENDMDL
