MODEL 1
REMARK VINA RESULT:    -6.668      0.000      0.000
REMARK INTER + INTRA:          -8.359
REMARK INTER:                  -8.032
REMARK INTRA:                  -0.327
REMARK UNBOUND:                -0.327
REMARK SMILES O=c1c(O)c(-c2ccc(O)c(O)c2)oc2cc(O)cc(O)c12
REMARK SMILES IDX 5 1 3 2 2 3 1 4 22 5 20 6 19 7 17 8 16 9 15 10 14 11 6 12
REMARK SMILES IDX 7 13 8 14 9 15 13 16 11 17 10 18 12 20 4 22 21 24 18 26
REMARK H PARENT 10 19 12 21 4 23 21 25 18 27
REMARK Flexibility Score: inf
ROOT
ATOM      1  C   UNL     1       4.904 -60.309 190.047  1.00  0.00     0.180 A 
ATOM      2  C   UNL     1       3.549 -60.580 189.789  1.00  0.00     0.208 A 
ATOM      3  C   UNL     1       3.213 -61.711 189.026  1.00  0.00     0.238 A 
ATOM      4  O   UNL     1       1.997 -61.977 188.844  1.00  0.00    -0.285 OA
ATOM      5  C   UNL     1       4.237 -62.546 188.516  1.00  0.00     0.111 A 
ATOM      6  C   UNL     1       4.014 -63.692 187.697  1.00  0.00     0.134 A 
ATOM      7  C   UNL     1       5.093 -64.519 187.359  1.00  0.00     0.093 A 
ATOM      8  C   UNL     1       6.392 -64.206 187.754  1.00  0.00     0.123 A 
ATOM      9  C   UNL     1       6.629 -63.054 188.504  1.00  0.00     0.094 A 
ATOM     10  C   UNL     1       5.570 -62.229 188.888  1.00  0.00     0.146 A 
ATOM     11  O   UNL     1       5.837 -61.148 189.610  1.00  0.00    -0.452 OA
ENDROOT
BRANCH   1  12
ATOM     12  C   UNL     1       5.337 -59.124 190.822  1.00  0.00     0.025 A 
ATOM     13  C   UNL     1       5.642 -59.265 192.185  1.00  0.00     0.016 A 
ATOM     14  C   UNL     1       6.072 -58.164 192.931  1.00  0.00     0.051 A 
ATOM     15  C   UNL     1       6.219 -56.912 192.324  1.00  0.00     0.157 A 
ATOM     16  C   UNL     1       5.504 -57.870 190.209  1.00  0.00     0.062 A 
ATOM     17  C   UNL     1       5.938 -56.764 190.955  1.00  0.00     0.158 A 
BRANCH  15  18
ATOM     18  O   UNL     1       6.647 -55.832 193.094  1.00  0.00    -0.504 OA
ATOM     19  H   UNL     1       6.616 -55.846 194.106  1.00  0.00     0.293 HD
ENDBRANCH  15  18
BRANCH  17  20
ATOM     20  O   UNL     1       6.095 -55.522 190.341  1.00  0.00    -0.504 OA
ATOM     21  H   UNL     1       6.195 -54.672 190.882  1.00  0.00     0.293 HD
ENDBRANCH  17  20
ENDBRANCH   1  12
BRANCH   2  22
ATOM     22  O   UNL     1       2.553 -59.756 190.320  1.00  0.00    -0.502 OA
ATOM     23  H   UNL     1       2.158 -59.902 191.241  1.00  0.00     0.293 HD
ENDBRANCH   2  22
BRANCH   6  24
ATOM     24  O   UNL     1       2.768 -64.047 187.172  1.00  0.00    -0.507 OA
ATOM     25  H   UNL     1       2.163 -64.757 187.557  1.00  0.00     0.293 HD
ENDBRANCH   6  24
BRANCH   8  26
ATOM     26  O   UNL     1       7.444 -65.043 187.385  1.00  0.00    -0.508 OA
ATOM     27  H   UNL     1       8.265 -64.685 186.911  1.00  0.00     0.293 HD
ENDBRANCH   8  26
TORSDOF 6
ENDMDL
MODEL 2
REMARK VINA RESULT:    -6.625      0.563      1.429
REMARK INTER + INTRA:          -8.307
REMARK INTER:                  -8.035
REMARK INTRA:                  -0.272
REMARK UNBOUND:                -0.327
REMARK SMILES O=c1c(O)c(-c2ccc(O)c(O)c2)oc2cc(O)cc(O)c12
REMARK SMILES IDX 5 1 3 2 2 3 1 4 22 5 20 6 19 7 17 8 16 9 15 10 14 11 6 12
REMARK SMILES IDX 7 13 8 14 9 15 13 16 11 17 10 18 12 20 4 22 21 24 18 26
REMARK H PARENT 10 19 12 21 4 23 21 25 18 27
REMARK Flexibility Score: inf
ROOT
ATOM      1  C   UNL     1       4.836 -60.286 189.994  1.00  0.00     0.180 A 
ATOM      2  C   UNL     1       3.484 -60.600 189.774  1.00  0.00     0.208 A 
ATOM      3  C   UNL     1       3.163 -61.751 189.036  1.00  0.00     0.238 A 
ATOM      4  O   UNL     1       1.951 -62.056 188.889  1.00  0.00    -0.285 OA
ATOM      5  C   UNL     1       4.198 -62.564 188.514  1.00  0.00     0.111 A 
ATOM      6  C   UNL     1       3.989 -63.729 187.717  1.00  0.00     0.134 A 
ATOM      7  C   UNL     1       5.082 -64.529 187.364  1.00  0.00     0.093 A 
ATOM      8  C   UNL     1       6.381 -64.173 187.722  1.00  0.00     0.123 A 
ATOM      9  C   UNL     1       6.603 -63.002 188.449  1.00  0.00     0.094 A 
ATOM     10  C   UNL     1       5.530 -62.203 188.847  1.00  0.00     0.146 A 
ATOM     11  O   UNL     1       5.783 -61.104 189.547  1.00  0.00    -0.452 OA
ENDROOT
BRANCH   1  12
ATOM     12  C   UNL     1       5.253 -59.077 190.741  1.00  0.00     0.025 A 
ATOM     13  C   UNL     1       5.170 -57.820 190.123  1.00  0.00     0.016 A 
ATOM     14  C   UNL     1       5.539 -56.664 190.816  1.00  0.00     0.051 A 
ATOM     15  C   UNL     1       5.981 -56.745 192.141  1.00  0.00     0.157 A 
ATOM     16  C   UNL     1       5.679 -59.155 192.079  1.00  0.00     0.062 A 
ATOM     17  C   UNL     1       6.048 -57.996 192.778  1.00  0.00     0.158 A 
BRANCH  15  18
ATOM     18  O   UNL     1       6.346 -55.575 192.807  1.00  0.00    -0.504 OA
ATOM     19  H   UNL     1       6.484 -55.548 193.809  1.00  0.00     0.293 HD
ENDBRANCH  15  18
BRANCH  17  20
ATOM     20  O   UNL     1       6.475 -58.082 194.103  1.00  0.00    -0.504 OA
ATOM     21  H   UNL     1       5.877 -58.459 194.829  1.00  0.00     0.293 HD
ENDBRANCH  17  20
ENDBRANCH   1  12
BRANCH   2  22
ATOM     22  O   UNL     1       2.478 -59.796 190.318  1.00  0.00    -0.502 OA
ATOM     23  H   UNL     1       2.016 -59.068 189.787  1.00  0.00     0.293 HD
ENDBRANCH   2  22
BRANCH   6  24
ATOM     24  O   UNL     1       2.741 -64.127 187.229  1.00  0.00    -0.507 OA
ATOM     25  H   UNL     1       2.008 -63.495 186.942  1.00  0.00     0.293 HD
ENDBRANCH   6  24
BRANCH   8  26
ATOM     26  O   UNL     1       7.448 -64.984 187.339  1.00  0.00    -0.508 OA
ATOM     27  H   UNL     1       7.580 -65.265 186.374  1.00  0.00     0.293 HD
ENDBRANCH   8  26
TORSDOF 6
ENDMDL
MODEL 3
REMARK VINA RESULT:    -6.251      2.318      6.880
REMARK INTER + INTRA:          -7.857
REMARK INTER:                  -7.670
REMARK INTRA:                  -0.187
REMARK UNBOUND:                -0.327
REMARK SMILES O=c1c(O)c(-c2ccc(O)c(O)c2)oc2cc(O)cc(O)c12
REMARK SMILES IDX 5 1 3 2 2 3 1 4 22 5 20 6 19 7 17 8 16 9 15 10 14 11 6 12
REMARK SMILES IDX 7 13 8 14 9 15 13 16 11 17 10 18 12 20 4 22 21 24 18 26
REMARK H PARENT 10 19 12 21 4 23 21 25 18 27
REMARK Flexibility Score: inf
ROOT
ATOM      1  C   UNL     1       5.231 -59.471 190.934  1.00  0.00     0.180 A 
ATOM      2  C   UNL     1       3.836 -59.548 191.090  1.00  0.00     0.208 A 
ATOM      3  C   UNL     1       3.144 -58.430 191.584  1.00  0.00     0.238 A 
ATOM      4  O   UNL     1       1.890 -58.486 191.671  1.00  0.00    -0.285 OA
ATOM      5  C   UNL     1       3.856 -57.256 191.930  1.00  0.00     0.111 A 
ATOM      6  C   UNL     1       3.262 -56.080 192.478  1.00  0.00     0.134 A 
ATOM      7  C   UNL     1       4.044 -54.933 192.661  1.00  0.00     0.093 A 
ATOM      8  C   UNL     1       5.409 -54.939 192.378  1.00  0.00     0.123 A 
ATOM      9  C   UNL     1       6.013 -56.103 191.899  1.00  0.00     0.094 A 
ATOM     10  C   UNL     1       5.252 -57.251 191.673  1.00  0.00     0.146 A 
ATOM     11  O   UNL     1       5.862 -58.334 191.206  1.00  0.00    -0.452 OA
ENDROOT
BRANCH   1  12
ATOM     12  C   UNL     1       6.033 -60.616 190.443  1.00  0.00     0.025 A 
ATOM     13  C   UNL     1       5.912 -61.020 189.105  1.00  0.00     0.016 A 
ATOM     14  C   UNL     1       6.674 -62.084 188.615  1.00  0.00     0.051 A 
ATOM     15  C   UNL     1       7.579 -62.748 189.449  1.00  0.00     0.157 A 
ATOM     16  C   UNL     1       6.958 -61.271 191.275  1.00  0.00     0.062 A 
ATOM     17  C   UNL     1       7.725 -62.338 190.786  1.00  0.00     0.158 A 
BRANCH  15  18
ATOM     18  O   UNL     1       8.324 -63.808 188.934  1.00  0.00    -0.504 OA
ATOM     19  H   UNL     1       8.608 -64.594 189.506  1.00  0.00     0.293 HD
ENDBRANCH  15  18
BRANCH  17  20
ATOM     20  O   UNL     1       8.636 -62.987 191.619  1.00  0.00    -0.504 OA
ATOM     21  H   UNL     1       8.963 -62.563 192.479  1.00  0.00     0.293 HD
ENDBRANCH  17  20
ENDBRANCH   1  12
BRANCH   2  22
ATOM     22  O   UNL     1       3.149 -60.708 190.721  1.00  0.00    -0.502 OA
ATOM     23  H   UNL     1       3.238 -61.124 189.803  1.00  0.00     0.293 HD
ENDBRANCH   2  22
BRANCH   6  24
ATOM     24  O   UNL     1       1.926 -55.995 192.880  1.00  0.00    -0.507 OA
ATOM     25  H   UNL     1       1.260 -56.752 192.826  1.00  0.00     0.293 HD
ENDBRANCH   6  24
BRANCH   8  26
ATOM     26  O   UNL     1       6.160 -53.784 192.588  1.00  0.00    -0.508 OA
ATOM     27  H   UNL     1       7.157 -53.760 192.406  1.00  0.00     0.293 HD
ENDBRANCH   8  26
TORSDOF 6
ENDMDL
MODEL 4
REMARK VINA RESULT:    -6.187      1.653      6.664
REMARK INTER + INTRA:          -7.780
REMARK INTER:                  -7.931
REMARK INTRA:                   0.151
REMARK UNBOUND:                -0.327
REMARK SMILES O=c1c(O)c(-c2ccc(O)c(O)c2)oc2cc(O)cc(O)c12
REMARK SMILES IDX 5 1 3 2 2 3 1 4 22 5 20 6 19 7 17 8 16 9 15 10 14 11 6 12
REMARK SMILES IDX 7 13 8 14 9 15 13 16 11 17 10 18 12 20 4 22 21 24 18 26
REMARK H PARENT 10 19 12 21 4 23 21 25 18 27
REMARK Flexibility Score: inf
ROOT
ATOM      1  C   UNL     1       5.177 -60.977 189.733  1.00  0.00     0.180 A 
ATOM      2  C   UNL     1       3.996 -60.345 189.307  1.00  0.00     0.208 A 
ATOM      3  C   UNL     1       3.485 -59.276 190.061  1.00  0.00     0.238 A 
ATOM      4  O   UNL     1       2.458 -58.680 189.645  1.00  0.00    -0.285 OA
ATOM      5  C   UNL     1       4.153 -58.862 191.239  1.00  0.00     0.111 A 
ATOM      6  C   UNL     1       3.703 -57.818 192.101  1.00  0.00     0.134 A 
ATOM      7  C   UNL     1       4.512 -57.407 193.168  1.00  0.00     0.093 A 
ATOM      8  C   UNL     1       5.721 -58.044 193.443  1.00  0.00     0.123 A 
ATOM      9  C   UNL     1       6.142 -59.107 192.642  1.00  0.00     0.094 A 
ATOM     10  C   UNL     1       5.374 -59.516 191.549  1.00  0.00     0.146 A 
ATOM     11  O   UNL     1       5.816 -60.524 190.806  1.00  0.00    -0.452 OA
ENDROOT
BRANCH   1  12
ATOM     12  C   UNL     1       5.763 -62.126 189.005  1.00  0.00     0.025 A 
ATOM     13  C   UNL     1       7.158 -62.268 188.948  1.00  0.00     0.016 A 
ATOM     14  C   UNL     1       7.732 -63.356 188.283  1.00  0.00     0.051 A 
ATOM     15  C   UNL     1       6.922 -64.325 187.682  1.00  0.00     0.157 A 
ATOM     16  C   UNL     1       4.950 -63.112 188.418  1.00  0.00     0.062 A 
ATOM     17  C   UNL     1       5.523 -64.205 187.753  1.00  0.00     0.158 A 
BRANCH  15  18
ATOM     18  O   UNL     1       7.522 -65.398 187.025  1.00  0.00    -0.504 OA
ATOM     19  H   UNL     1       8.511 -65.409 186.805  1.00  0.00     0.293 HD
ENDBRANCH  15  18
BRANCH  17  20
ATOM     20  O   UNL     1       4.710 -65.175 187.168  1.00  0.00    -0.504 OA
ATOM     21  H   UNL     1       4.950 -66.159 187.201  1.00  0.00     0.293 HD
ENDBRANCH  17  20
ENDBRANCH   1  12
BRANCH   2  22
ATOM     22  O   UNL     1       3.365 -60.755 188.129  1.00  0.00    -0.502 OA
ATOM     23  H   UNL     1       2.932 -61.665 188.031  1.00  0.00     0.293 HD
ENDBRANCH   2  22
BRANCH   6  24
ATOM     24  O   UNL     1       2.468 -57.176 191.971  1.00  0.00    -0.507 OA
ATOM     25  H   UNL     1       1.579 -57.584 192.218  1.00  0.00     0.293 HD
ENDBRANCH   6  24
BRANCH   8  26
ATOM     26  O   UNL     1       6.492 -57.619 194.523  1.00  0.00    -0.508 OA
ATOM     27  H   UNL     1       6.791 -56.654 194.614  1.00  0.00     0.293 HD
ENDBRANCH   8  26
TORSDOF 6
ENDMDL
MODEL 5
REMARK VINA RESULT:    -6.153      2.050      6.858
REMARK INTER + INTRA:          -7.739
REMARK INTER:                  -8.124
REMARK INTRA:                   0.385
REMARK UNBOUND:                -0.327
REMARK SMILES O=c1c(O)c(-c2ccc(O)c(O)c2)oc2cc(O)cc(O)c12
REMARK SMILES IDX 5 1 3 2 2 3 1 4 22 5 20 6 19 7 17 8 16 9 15 10 14 11 6 12
REMARK SMILES IDX 7 13 8 14 9 15 13 16 11 17 10 18 12 20 4 22 21 24 18 26
REMARK H PARENT 10 19 12 21 4 23 21 25 18 27
REMARK Flexibility Score: inf
ROOT
ATOM      1  C   UNL     1       5.501 -60.122 191.001  1.00  0.00     0.180 A 
ATOM      2  C   UNL     1       4.108 -59.939 191.005  1.00  0.00     0.208 A 
ATOM      3  C   UNL     1       3.559 -58.901 191.778  1.00  0.00     0.238 A 
ATOM      4  O   UNL     1       2.317 -58.709 191.735  1.00  0.00    -0.285 OA
ATOM      5  C   UNL     1       4.410 -58.072 192.548  1.00  0.00     0.111 A 
ATOM      6  C   UNL     1       3.959 -57.019 193.399  1.00  0.00     0.134 A 
ATOM      7  C   UNL     1       4.897 -56.179 194.013  1.00  0.00     0.093 A 
ATOM      8  C   UNL     1       6.266 -56.394 193.861  1.00  0.00     0.123 A 
ATOM      9  C   UNL     1       6.717 -57.459 193.079  1.00  0.00     0.094 A 
ATOM     10  C   UNL     1       5.807 -58.291 192.425  1.00  0.00     0.146 A 
ATOM     11  O   UNL     1       6.277 -59.287 191.683  1.00  0.00    -0.452 OA
ENDROOT
BRANCH   1  12
ATOM     12  C   UNL     1       6.151 -61.209 190.232  1.00  0.00     0.025 A 
ATOM     13  C   UNL     1       5.514 -61.725 189.093  1.00  0.00     0.016 A 
ATOM     14  C   UNL     1       6.119 -62.736 188.341  1.00  0.00     0.051 A 
ATOM     15  C   UNL     1       7.374 -63.234 188.705  1.00  0.00     0.157 A 
ATOM     16  C   UNL     1       7.422 -61.696 190.585  1.00  0.00     0.062 A 
ATOM     17  C   UNL     1       8.032 -62.709 189.831  1.00  0.00     0.158 A 
BRANCH  15  18
ATOM     18  O   UNL     1       7.951 -64.244 187.938  1.00  0.00    -0.504 OA
ATOM     19  H   UNL     1       8.852 -64.646 188.167  1.00  0.00     0.293 HD
ENDBRANCH  15  18
BRANCH  17  20
ATOM     20  O   UNL     1       9.289 -63.191 190.192  1.00  0.00    -0.504 OA
ATOM     21  H   UNL     1       9.446 -64.173 190.381  1.00  0.00     0.293 HD
ENDBRANCH  17  20
ENDBRANCH   1  12
BRANCH   2  22
ATOM     22  O   UNL     1       3.288 -60.754 190.220  1.00  0.00    -0.502 OA
ATOM     23  H   UNL     1       2.844 -60.425 189.372  1.00  0.00     0.293 HD
ENDBRANCH   2  22
BRANCH   6  24
ATOM     24  O   UNL     1       2.615 -56.772 193.693  1.00  0.00    -0.507 OA
ATOM     25  H   UNL     1       2.290 -56.132 194.402  1.00  0.00     0.293 HD
ENDBRANCH   6  24
BRANCH   8  26
ATOM     26  O   UNL     1       7.171 -55.548 194.500  1.00  0.00    -0.508 OA
ATOM     27  H   UNL     1       7.068 -55.306 195.479  1.00  0.00     0.293 HD
ENDBRANCH   8  26
TORSDOF 6
ENDMDL
MODEL 6
REMARK VINA RESULT:    -6.097      2.049      2.511
REMARK INTER + INTRA:          -7.671
REMARK INTER:                  -7.338
REMARK INTRA:                  -0.333
REMARK UNBOUND:                -0.327
REMARK SMILES O=c1c(O)c(-c2ccc(O)c(O)c2)oc2cc(O)cc(O)c12
REMARK SMILES IDX 5 1 3 2 2 3 1 4 22 5 20 6 19 7 17 8 16 9 15 10 14 11 6 12
REMARK SMILES IDX 7 13 8 14 9 15 13 16 11 17 10 18 12 20 4 22 21 24 18 26
REMARK H PARENT 10 19 12 21 4 23 21 25 18 27
REMARK Flexibility Score: inf
ROOT
ATOM      1  C   UNL     1       4.932 -59.238 191.518  1.00  0.00     0.180 A 
ATOM      2  C   UNL     1       3.944 -59.595 190.584  1.00  0.00     0.208 A 
ATOM      3  C   UNL     1       4.209 -60.632 189.675  1.00  0.00     0.238 A 
ATOM      4  O   UNL     1       3.301 -60.982 188.877  1.00  0.00    -0.285 OA
ATOM      5  C   UNL     1       5.464 -61.288 189.700  1.00  0.00     0.111 A 
ATOM      6  C   UNL     1       5.855 -62.322 188.800  1.00  0.00     0.134 A 
ATOM      7  C   UNL     1       7.071 -62.989 189.000  1.00  0.00     0.093 A 
ATOM      8  C   UNL     1       7.937 -62.616 190.026  1.00  0.00     0.123 A 
ATOM      9  C   UNL     1       7.591 -61.563 190.876  1.00  0.00     0.094 A 
ATOM     10  C   UNL     1       6.370 -60.904 190.724  1.00  0.00     0.146 A 
ATOM     11  O   UNL     1       6.074 -59.916 191.560  1.00  0.00    -0.452 OA
ENDROOT
BRANCH   1  12
ATOM     12  C   UNL     1       4.736 -58.139 192.492  1.00  0.00     0.025 A 
ATOM     13  C   UNL     1       4.289 -58.438 193.789  1.00  0.00     0.016 A 
ATOM     14  C   UNL     1       4.117 -57.419 194.729  1.00  0.00     0.051 A 
ATOM     15  C   UNL     1       4.403 -56.091 194.395  1.00  0.00     0.157 A 
ATOM     16  C   UNL     1       5.043 -56.807 192.163  1.00  0.00     0.062 A 
ATOM     17  C   UNL     1       4.873 -55.783 193.106  1.00  0.00     0.158 A 
BRANCH  15  18
ATOM     18  O   UNL     1       4.219 -55.096 195.353  1.00  0.00    -0.504 OA
ATOM     19  H   UNL     1       4.775 -54.249 195.364  1.00  0.00     0.293 HD
ENDBRANCH  15  18
BRANCH  17  20
ATOM     20  O   UNL     1       5.173 -54.463 192.770  1.00  0.00    -0.504 OA
ATOM     21  H   UNL     1       6.083 -54.203 192.408  1.00  0.00     0.293 HD
ENDBRANCH  17  20
ENDBRANCH   1  12
BRANCH   2  22
ATOM     22  O   UNL     1       2.704 -58.950 190.591  1.00  0.00    -0.502 OA
ATOM     23  H   UNL     1       1.904 -59.303 190.080  1.00  0.00     0.293 HD
ENDBRANCH   2  22
BRANCH   6  24
ATOM     24  O   UNL     1       5.106 -62.713 187.686  1.00  0.00    -0.507 OA
ATOM     25  H   UNL     1       5.036 -62.188 186.827  1.00  0.00     0.293 HD
ENDBRANCH   6  24
BRANCH   8  26
ATOM     26  O   UNL     1       9.146 -63.290 190.186  1.00  0.00    -0.508 OA
ATOM     27  H   UNL     1      10.034 -62.805 190.132  1.00  0.00     0.293 HD
ENDBRANCH   8  26
TORSDOF 6
ENDMDL
MODEL 7
REMARK VINA RESULT:    -6.094      1.456      3.024
REMARK INTER + INTRA:          -7.668
REMARK INTER:                  -7.512
REMARK INTRA:                  -0.156
REMARK UNBOUND:                -0.327
REMARK SMILES O=c1c(O)c(-c2ccc(O)c(O)c2)oc2cc(O)cc(O)c12
REMARK SMILES IDX 5 1 3 2 2 3 1 4 22 5 20 6 19 7 17 8 16 9 15 10 14 11 6 12
REMARK SMILES IDX 7 13 8 14 9 15 13 16 11 17 10 18 12 20 4 22 21 24 18 26
REMARK H PARENT 10 19 12 21 4 23 21 25 18 27
REMARK Flexibility Score: inf
ROOT
ATOM      1  C   UNL     1       5.791 -61.294 189.735  1.00  0.00     0.180 A 
ATOM      2  C   UNL     1       7.040 -61.893 189.497  1.00  0.00     0.208 A 
ATOM      3  C   UNL     1       7.100 -63.047 188.698  1.00  0.00     0.238 A 
ATOM      4  O   UNL     1       8.227 -63.548 188.445  1.00  0.00    -0.285 OA
ATOM      5  C   UNL     1       5.910 -63.594 188.160  1.00  0.00     0.111 A 
ATOM      6  C   UNL     1       5.850 -64.782 187.371  1.00  0.00     0.134 A 
ATOM      7  C   UNL     1       4.636 -65.158 186.782  1.00  0.00     0.093 A 
ATOM      8  C   UNL     1       3.470 -64.429 187.007  1.00  0.00     0.123 A 
ATOM      9  C   UNL     1       3.506 -63.300 187.827  1.00  0.00     0.094 A 
ATOM     10  C   UNL     1       4.708 -62.879 188.398  1.00  0.00     0.146 A 
ATOM     11  O   UNL     1       4.701 -61.793 189.162  1.00  0.00    -0.452 OA
ENDROOT
BRANCH   1  12
ATOM     12  C   UNL     1       5.643 -60.091 190.587  1.00  0.00     0.025 A 
ATOM     13  C   UNL     1       5.981 -60.163 191.947  1.00  0.00     0.016 A 
ATOM     14  C   UNL     1       5.869 -59.035 192.764  1.00  0.00     0.051 A 
ATOM     15  C   UNL     1       5.434 -57.816 192.233  1.00  0.00     0.157 A 
ATOM     16  C   UNL     1       5.225 -58.861 190.049  1.00  0.00     0.062 A 
ATOM     17  C   UNL     1       5.113 -57.727 190.867  1.00  0.00     0.158 A 
BRANCH  15  18
ATOM     18  O   UNL     1       5.329 -56.709 193.073  1.00  0.00    -0.504 OA
ATOM     19  H   UNL     1       6.091 -56.412 193.670  1.00  0.00     0.293 HD
ENDBRANCH  15  18
BRANCH  17  20
ATOM     20  O   UNL     1       4.692 -56.512 190.327  1.00  0.00    -0.504 OA
ATOM     21  H   UNL     1       5.270 -55.992 189.678  1.00  0.00     0.293 HD
ENDBRANCH  17  20
ENDBRANCH   1  12
BRANCH   2  22
ATOM     22  O   UNL     1       8.204 -61.324 190.019  1.00  0.00    -0.502 OA
ATOM     23  H   UNL     1       8.633 -60.498 189.620  1.00  0.00     0.293 HD
ENDBRANCH   2  22
BRANCH   6  24
ATOM     24  O   UNL     1       6.937 -65.634 187.158  1.00  0.00    -0.507 OA
ATOM     25  H   UNL     1       7.423 -66.138 187.885  1.00  0.00     0.293 HD
ENDBRANCH   6  24
BRANCH   8  26
ATOM     26  O   UNL     1       2.276 -64.842 186.419  1.00  0.00    -0.508 OA
ATOM     27  H   UNL     1       1.826 -64.296 185.693  1.00  0.00     0.293 HD
ENDBRANCH   8  26
TORSDOF 6
ENDMDL
MODEL 8
REMARK VINA RESULT:    -6.018      2.207      2.959
REMARK INTER + INTRA:          -7.576
REMARK INTER:                  -7.261
REMARK INTRA:                  -0.315
REMARK UNBOUND:                -0.327
REMARK SMILES O=c1c(O)c(-c2ccc(O)c(O)c2)oc2cc(O)cc(O)c12
REMARK SMILES IDX 5 1 3 2 2 3 1 4 22 5 20 6 19 7 17 8 16 9 15 10 14 11 6 12
REMARK SMILES IDX 7 13 8 14 9 15 13 16 11 17 10 18 12 20 4 22 21 24 18 26
REMARK H PARENT 10 19 12 21 4 23 21 25 18 27
REMARK Flexibility Score: inf
ROOT
ATOM      1  C   UNL     1       4.995 -59.191 191.542  1.00  0.00     0.180 A 
ATOM      2  C   UNL     1       3.985 -59.539 190.629  1.00  0.00     0.208 A 
ATOM      3  C   UNL     1       4.221 -60.582 189.718  1.00  0.00     0.238 A 
ATOM      4  O   UNL     1       3.294 -60.924 188.939  1.00  0.00    -0.285 OA
ATOM      5  C   UNL     1       5.469 -61.251 189.720  1.00  0.00     0.111 A 
ATOM      6  C   UNL     1       5.831 -62.292 188.815  1.00  0.00     0.134 A 
ATOM      7  C   UNL     1       7.043 -62.971 188.993  1.00  0.00     0.093 A 
ATOM      8  C   UNL     1       7.933 -62.604 190.001  1.00  0.00     0.123 A 
ATOM      9  C   UNL     1       7.616 -61.546 190.854  1.00  0.00     0.094 A 
ATOM     10  C   UNL     1       6.399 -60.874 190.724  1.00  0.00     0.146 A 
ATOM     11  O   UNL     1       6.131 -59.881 191.563  1.00  0.00    -0.452 OA
ENDROOT
BRANCH   1  12
ATOM     12  C   UNL     1       4.831 -58.088 192.517  1.00  0.00     0.025 A 
ATOM     13  C   UNL     1       5.267 -56.797 192.179  1.00  0.00     0.016 A 
ATOM     14  C   UNL     1       5.103 -55.738 193.076  1.00  0.00     0.051 A 
ATOM     15  C   UNL     1       4.487 -55.948 194.314  1.00  0.00     0.157 A 
ATOM     16  C   UNL     1       4.194 -58.293 193.754  1.00  0.00     0.062 A 
ATOM     17  C   UNL     1       4.027 -57.232 194.654  1.00  0.00     0.158 A 
BRANCH  15  18
ATOM     18  O   UNL     1       4.340 -54.873 195.189  1.00  0.00    -0.504 OA
ATOM     19  H   UNL     1       4.146 -53.934 194.861  1.00  0.00     0.293 HD
ENDBRANCH  15  18
BRANCH  17  20
ATOM     20  O   UNL     1       3.399 -57.445 195.881  1.00  0.00    -0.504 OA
ATOM     21  H   UNL     1       3.886 -57.878 196.657  1.00  0.00     0.293 HD
ENDBRANCH  17  20
ENDBRANCH   1  12
BRANCH   2  22
ATOM     22  O   UNL     1       2.753 -58.881 190.658  1.00  0.00    -0.502 OA
ATOM     23  H   UNL     1       1.890 -59.352 190.900  1.00  0.00     0.293 HD
ENDBRANCH   2  22
BRANCH   6  24
ATOM     24  O   UNL     1       5.056 -62.678 187.717  1.00  0.00    -0.507 OA
ATOM     25  H   UNL     1       5.259 -63.464 187.118  1.00  0.00     0.293 HD
ENDBRANCH   6  24
BRANCH   8  26
ATOM     26  O   UNL     1       9.138 -63.292 190.139  1.00  0.00    -0.508 OA
ATOM     27  H   UNL     1       9.333 -64.132 189.606  1.00  0.00     0.293 HD
ENDBRANCH   8  26
TORSDOF 6
ENDMDL
MODEL 9
REMARK VINA RESULT:    -5.855      9.668     11.922
REMARK INTER + INTRA:          -7.380
REMARK INTER:                  -7.302
REMARK INTRA:                  -0.077
REMARK UNBOUND:                -0.327
REMARK SMILES O=c1c(O)c(-c2ccc(O)c(O)c2)oc2cc(O)cc(O)c12
REMARK SMILES IDX 5 1 3 2 2 3 1 4 22 5 20 6 19 7 17 8 16 9 15 10 14 11 6 12
REMARK SMILES IDX 7 13 8 14 9 15 13 16 11 17 10 18 12 20 4 22 21 24 18 26
REMARK H PARENT 10 19 12 21 4 23 21 25 18 27
REMARK Flexibility Score: inf
ROOT
ATOM      1  C   UNL     1      11.279 -56.417 197.483  1.00  0.00     0.180 A 
ATOM      2  C   UNL     1      10.339 -56.314 196.443  1.00  0.00     0.208 A 
ATOM      3  C   UNL     1      10.747 -55.783 195.207  1.00  0.00     0.238 A 
ATOM      4  O   UNL     1       9.915 -55.743 194.264  1.00  0.00    -0.285 OA
ATOM      5  C   UNL     1      12.083 -55.349 195.034  1.00  0.00     0.111 A 
ATOM      6  C   UNL     1      12.593 -54.758 193.839  1.00  0.00     0.134 A 
ATOM      7  C   UNL     1      13.963 -54.485 193.735  1.00  0.00     0.093 A 
ATOM      8  C   UNL     1      14.828 -54.721 194.802  1.00  0.00     0.123 A 
ATOM      9  C   UNL     1      14.328 -55.242 195.997  1.00  0.00     0.094 A 
ATOM     10  C   UNL     1      12.974 -55.557 196.119  1.00  0.00     0.146 A 
ATOM     11  O   UNL     1      12.541 -56.062 197.268  1.00  0.00    -0.452 OA
ENDROOT
BRANCH   1  12
ATOM     12  C   UNL     1      10.919 -56.942 198.821  1.00  0.00     0.025 A 
ATOM     13  C   UNL     1       9.882 -56.335 199.545  1.00  0.00     0.016 A 
ATOM     14  C   UNL     1       9.513 -56.828 200.800  1.00  0.00     0.051 A 
ATOM     15  C   UNL     1      10.163 -57.941 201.342  1.00  0.00     0.157 A 
ATOM     16  C   UNL     1      11.558 -58.074 199.358  1.00  0.00     0.062 A 
ATOM     17  C   UNL     1      11.189 -58.571 200.616  1.00  0.00     0.158 A 
BRANCH  15  18
ATOM     18  O   UNL     1       9.775 -58.408 202.597  1.00  0.00    -0.504 OA
ATOM     19  H   UNL     1      10.397 -58.384 203.395  1.00  0.00     0.293 HD
ENDBRANCH  15  18
BRANCH  17  20
ATOM     20  O   UNL     1      11.831 -59.690 201.144  1.00  0.00    -0.504 OA
ATOM     21  H   UNL     1      11.636 -60.020 202.082  1.00  0.00     0.293 HD
ENDBRANCH  17  20
ENDBRANCH   1  12
BRANCH   2  22
ATOM     22  O   UNL     1       9.031 -56.769 196.628  1.00  0.00    -0.502 OA
ATOM     23  H   UNL     1       8.485 -57.175 195.879  1.00  0.00     0.293 HD
ENDBRANCH   2  22
BRANCH   6  24
ATOM     24  O   UNL     1      11.801 -54.398 192.746  1.00  0.00    -0.507 OA
ATOM     25  H   UNL     1      11.461 -53.465 192.565  1.00  0.00     0.293 HD
ENDBRANCH   6  24
BRANCH   8  26
ATOM     26  O   UNL     1      16.183 -54.422 194.669  1.00  0.00    -0.508 OA
ATOM     27  H   UNL     1      16.861 -54.719 195.361  1.00  0.00     0.293 HD
ENDBRANCH   8  26
TORSDOF 6
ENDMDL
