MODEL 1
REMARK VINA RESULT:    -7.045      0.000      0.000
REMARK INTER + INTRA:          -8.724
REMARK INTER:                  -8.693
REMARK INTRA:                  -0.031
REMARK UNBOUND:                -0.031
REMARK SMILES O=C1c2c(O)cc(O)cc2O[C@@H](c2cc(O)c(O)c(O)c2)[C@H]1O
REMARK SMILES IDX 12 1 22 2 2 3 1 4 3 5 4 6 6 7 7 8 9 9 10 10 11 11 13 12
REMARK SMILES IDX 14 13 15 14 21 15 17 16 19 17 16 18 18 20 20 22 23 24 5 26
REMARK SMILES IDX 8 28
REMARK H PARENT 16 19 18 21 20 23 23 25 5 27 8 29
REMARK Flexibility Score: inf
ROOT
ATOM      1  C   UNL     1     122.183 118.056 105.553  1.00  0.00     0.240 C 
ATOM      2  C   UNL     1     123.251 117.551 106.546  1.00  0.00     0.231 C 
ATOM      3  C   UNL     1     124.619 117.891 106.015  1.00  0.00     0.202 C 
ATOM      4  O   UNL     1     125.479 118.375 106.798  1.00  0.00    -0.291 OA
ATOM      5  C   UNL     1     124.898 117.704 104.568  1.00  0.00     0.105 A 
ATOM      6  C   UNL     1     126.204 117.634 104.014  1.00  0.00     0.133 A 
ATOM      7  C   UNL     1     126.359 117.525 102.625  1.00  0.00     0.093 A 
ATOM      8  C   UNL     1     125.245 117.425 101.786  1.00  0.00     0.123 A 
ATOM      9  C   UNL     1     123.961 117.444 102.332  1.00  0.00     0.093 A 
ATOM     10  C   UNL     1     123.782 117.593 103.709  1.00  0.00     0.138 A 
ATOM     11  O   UNL     1     122.478 117.620 104.222  1.00  0.00    -0.481 OA
ENDROOT
BRANCH   1  12
ATOM     12  C   UNL     1     120.793 117.621 105.961  1.00  0.00     0.003 A 
ATOM     13  C   UNL     1     120.479 117.367 107.305  1.00  0.00     0.058 A 
ATOM     14  C   UNL     1     119.180 116.999 107.674  1.00  0.00     0.161 A 
ATOM     15  C   UNL     1     119.779 117.531 104.996  1.00  0.00     0.058 A 
ATOM     16  C   UNL     1     118.172 116.892 106.706  1.00  0.00     0.200 A 
ATOM     17  C   UNL     1     118.475 117.165 105.351  1.00  0.00     0.161 A 
BRANCH  14  18
ATOM     18  O   UNL     1     118.880 116.739 109.011  1.00  0.00    -0.504 OA
ATOM     19  H   UNL     1     119.608 116.603 109.703  1.00  0.00     0.293 HD
ENDBRANCH  14  18
BRANCH  16  20
ATOM     20  O   UNL     1     116.894 116.517 107.128  1.00  0.00    -0.502 OA
ATOM     21  H   UNL     1     116.443 115.653 106.866  1.00  0.00     0.293 HD
ENDBRANCH  16  20
BRANCH  17  22
ATOM     22  O   UNL     1     117.521 117.090 104.334  1.00  0.00    -0.504 OA
ATOM     23  H   UNL     1     117.284 117.856 103.722  1.00  0.00     0.293 HD
ENDBRANCH  17  22
ENDBRANCH   1  12
BRANCH   2  24
ATOM     24  O   UNL     1     123.147 116.167 106.775  1.00  0.00    -0.381 OA
ATOM     25  H   UNL     1     123.149 116.017 107.757  1.00  0.00     0.211 HD
ENDBRANCH   2  24
BRANCH   6  26
ATOM     26  O   UNL     1     127.365 117.631 104.788  1.00  0.00    -0.507 OA
ATOM     27  H   UNL     1     127.869 118.465 105.055  1.00  0.00     0.293 HD
ENDBRANCH   6  26
BRANCH   8  28
ATOM     28  O   UNL     1     125.402 117.297 100.408  1.00  0.00    -0.508 OA
ATOM     29  H   UNL     1     125.841 118.026  99.856  1.00  0.00     0.293 HD
ENDBRANCH   8  28
TORSDOF 7
ENDMDL
MODEL 2
REMARK VINA RESULT:    -6.605      3.102      6.404
REMARK INTER + INTRA:          -8.180
REMARK INTER:                  -7.780
REMARK INTRA:                  -0.400
REMARK UNBOUND:                -0.031
REMARK SMILES O=C1c2c(O)cc(O)cc2O[C@@H](c2cc(O)c(O)c(O)c2)[C@H]1O
REMARK SMILES IDX 12 1 22 2 2 3 1 4 3 5 4 6 6 7 7 8 9 9 10 10 11 11 13 12
REMARK SMILES IDX 14 13 15 14 21 15 17 16 19 17 16 18 18 20 20 22 23 24 5 26
REMARK SMILES IDX 8 28
REMARK H PARENT 16 19 18 21 20 23 23 25 5 27 8 29
REMARK Flexibility Score: inf
ROOT
ATOM      1  C   UNL     1     124.820 117.571 101.179  1.00  0.00     0.240 C 
ATOM      2  C   UNL     1     125.420 116.259 100.629  1.00  0.00     0.231 C 
ATOM      3  C   UNL     1     125.350 116.278  99.125  1.00  0.00     0.202 C 
ATOM      4  O   UNL     1     126.354 115.909  98.459  1.00  0.00    -0.291 OA
ATOM      5  C   UNL     1     124.122 116.789  98.465  1.00  0.00     0.105 A 
ATOM      6  C   UNL     1     123.781 116.531  97.110  1.00  0.00     0.133 A 
ATOM      7  C   UNL     1     122.632 117.118  96.564  1.00  0.00     0.093 A 
ATOM      8  C   UNL     1     121.787 117.906  97.352  1.00  0.00     0.123 A 
ATOM      9  C   UNL     1     122.092 118.121  98.695  1.00  0.00     0.093 A 
ATOM     10  C   UNL     1     123.254 117.580  99.251  1.00  0.00     0.138 A 
ATOM     11  O   UNL     1     123.536 117.826 100.602  1.00  0.00    -0.481 OA
ENDROOT
BRANCH   1  12
ATOM     12  C   UNL     1     124.732 117.554 102.689  1.00  0.00     0.003 A 
ATOM     13  C   UNL     1     125.891 117.558 103.482  1.00  0.00     0.058 A 
ATOM     14  C   UNL     1     125.796 117.578 104.878  1.00  0.00     0.161 A 
ATOM     15  C   UNL     1     123.478 117.598 103.316  1.00  0.00     0.058 A 
ATOM     16  C   UNL     1     124.541 117.604 105.503  1.00  0.00     0.200 A 
ATOM     17  C   UNL     1     123.368 117.619 104.710  1.00  0.00     0.161 A 
BRANCH  14  18
ATOM     18  O   UNL     1     126.952 117.573 105.657  1.00  0.00    -0.504 OA
ATOM     19  H   UNL     1     127.145 116.831 106.318  1.00  0.00     0.293 HD
ENDBRANCH  14  18
BRANCH  16  20
ATOM     20  O   UNL     1     124.504 117.618 106.899  1.00  0.00    -0.502 OA
ATOM     21  H   UNL     1     124.189 118.404 107.448  1.00  0.00     0.293 HD
ENDBRANCH  16  20
BRANCH  17  22
ATOM     22  O   UNL     1     122.086 117.656 105.262  1.00  0.00    -0.504 OA
ATOM     23  H   UNL     1     121.696 118.457 105.734  1.00  0.00     0.293 HD
ENDBRANCH  17  22
ENDBRANCH   1  12
BRANCH   2  24
ATOM     24  O   UNL     1     124.758 115.124 101.134  1.00  0.00    -0.381 OA
ATOM     25  H   UNL     1     125.259 114.807 101.931  1.00  0.00     0.211 HD
ENDBRANCH   2  24
BRANCH   6  26
ATOM     26  O   UNL     1     124.518 115.680  96.284  1.00  0.00    -0.507 OA
ATOM     27  H   UNL     1     124.189 115.330  95.395  1.00  0.00     0.293 HD
ENDBRANCH   6  26
BRANCH   8  28
ATOM     28  O   UNL     1     120.635 118.473  96.810  1.00  0.00    -0.508 OA
ATOM     29  H   UNL     1     120.661 119.000  95.945  1.00  0.00     0.293 HD
ENDBRANCH   8  28
TORSDOF 7
ENDMDL
MODEL 3
REMARK VINA RESULT:    -6.568      3.267      7.239
REMARK INTER + INTRA:          -8.135
REMARK INTER:                  -7.753
REMARK INTRA:                  -0.383
REMARK UNBOUND:                -0.031
REMARK SMILES O=C1c2c(O)cc(O)cc2O[C@@H](c2cc(O)c(O)c(O)c2)[C@H]1O
REMARK SMILES IDX 12 1 22 2 2 3 1 4 3 5 4 6 6 7 7 8 9 9 10 10 11 11 13 12
REMARK SMILES IDX 14 13 15 14 21 15 17 16 19 17 16 18 18 20 20 22 23 24 5 26
REMARK SMILES IDX 8 28
REMARK H PARENT 16 19 18 21 20 23 23 25 5 27 8 29
REMARK Flexibility Score: inf
ROOT
ATOM      1  C   UNL     1     124.234 116.615 100.596  1.00  0.00     0.240 C 
ATOM      2  C   UNL     1     125.690 117.114 100.720  1.00  0.00     0.231 C 
ATOM      3  C   UNL     1     126.158 116.925 102.138  1.00  0.00     0.202 C 
ATOM      4  O   UNL     1     127.302 116.444 102.349  1.00  0.00    -0.291 OA
ATOM      5  C   UNL     1     125.233 117.254 103.253  1.00  0.00     0.105 A 
ATOM      6  C   UNL     1     125.650 117.471 104.594  1.00  0.00     0.133 A 
ATOM      7  C   UNL     1     124.689 117.708 105.585  1.00  0.00     0.093 A 
ATOM      8  C   UNL     1     123.331 117.793 105.261  1.00  0.00     0.123 A 
ATOM      9  C   UNL     1     122.923 117.631 103.938  1.00  0.00     0.093 A 
ATOM     10  C   UNL     1     123.859 117.352 102.939  1.00  0.00     0.138 A 
ATOM     11  O   UNL     1     123.412 117.183 101.621  1.00  0.00    -0.481 OA
ENDROOT
BRANCH   1  12
ATOM     12  C   UNL     1     123.659 116.907  99.228  1.00  0.00     0.003 A 
ATOM     13  C   UNL     1     124.067 116.177  98.101  1.00  0.00     0.058 A 
ATOM     14  C   UNL     1     123.501 116.433  96.846  1.00  0.00     0.161 A 
ATOM     15  C   UNL     1     122.655 117.876  99.086  1.00  0.00     0.058 A 
ATOM     16  C   UNL     1     122.510 117.414  96.703  1.00  0.00     0.200 A 
ATOM     17  C   UNL     1     122.079 118.141  97.838  1.00  0.00     0.161 A 
BRANCH  14  18
ATOM     18  O   UNL     1     123.920 115.709  95.730  1.00  0.00    -0.504 OA
ATOM     19  H   UNL     1     123.604 114.762  95.561  1.00  0.00     0.293 HD
ENDBRANCH  14  18
BRANCH  16  20
ATOM     20  O   UNL     1     121.983 117.632  95.427  1.00  0.00    -0.502 OA
ATOM     21  H   UNL     1     122.036 118.512  94.937  1.00  0.00     0.293 HD
ENDBRANCH  16  20
BRANCH  17  22
ATOM     22  O   UNL     1     121.091 119.125  97.773  1.00  0.00    -0.504 OA
ATOM     23  H   UNL     1     120.128 118.977  98.034  1.00  0.00     0.293 HD
ENDBRANCH  17  22
ENDBRANCH   1  12
BRANCH   2  24
ATOM     24  O   UNL     1     125.820 118.462 100.338  1.00  0.00    -0.381 OA
ATOM     25  H   UNL     1     125.914 119.007 101.163  1.00  0.00     0.211 HD
ENDBRANCH   2  24
BRANCH   6  26
ATOM     26  O   UNL     1     126.990 117.497 104.984  1.00  0.00    -0.507 OA
ATOM     27  H   UNL     1     127.762 117.275 104.370  1.00  0.00     0.293 HD
ENDBRANCH   6  26
BRANCH   8  28
ATOM     28  O   UNL     1     122.380 118.048 106.246  1.00  0.00    -0.508 OA
ATOM     29  H   UNL     1     121.719 118.812 106.159  1.00  0.00     0.293 HD
ENDBRANCH   8  28
TORSDOF 7
ENDMDL
MODEL 4
REMARK VINA RESULT:    -6.543      5.398      8.833
REMARK INTER + INTRA:          -8.104
REMARK INTER:                  -8.392
REMARK INTRA:                   0.288
REMARK UNBOUND:                -0.031
REMARK SMILES O=C1c2c(O)cc(O)cc2O[C@@H](c2cc(O)c(O)c(O)c2)[C@H]1O
REMARK SMILES IDX 12 1 22 2 2 3 1 4 3 5 4 6 6 7 7 8 9 9 10 10 11 11 13 12
REMARK SMILES IDX 14 13 15 14 21 15 17 16 19 17 16 18 18 20 20 22 23 24 5 26
REMARK SMILES IDX 8 28
REMARK H PARENT 16 19 18 21 20 23 23 25 5 27 8 29
REMARK Flexibility Score: inf
ROOT
ATOM      1  C   UNL     1     128.275 114.509 101.439  1.00  0.00     0.240 C 
ATOM      2  C   UNL     1     127.518 113.507 100.541  1.00  0.00     0.231 C 
ATOM      3  C   UNL     1     128.470 112.428 100.095  1.00  0.00     0.202 C 
ATOM      4  O   UNL     1     128.097 111.226 100.135  1.00  0.00    -0.291 OA
ATOM      5  C   UNL     1     129.845 112.805  99.679  1.00  0.00     0.105 A 
ATOM      6  C   UNL     1     130.700 111.970  98.911  1.00  0.00     0.133 A 
ATOM      7  C   UNL     1     132.005 112.392  98.629  1.00  0.00     0.093 A 
ATOM      8  C   UNL     1     132.457 113.649  99.044  1.00  0.00     0.123 A 
ATOM      9  C   UNL     1     131.604 114.492  99.755  1.00  0.00     0.093 A 
ATOM     10  C   UNL     1     130.311 114.076 100.084  1.00  0.00     0.138 A 
ATOM     11  O   UNL     1     129.485 114.944 100.810  1.00  0.00    -0.481 OA
ENDROOT
BRANCH   1  12
ATOM     12  C   UNL     1     127.409 115.694 101.805  1.00  0.00     0.003 A 
ATOM     13  C   UNL     1     126.052 115.736 101.448  1.00  0.00     0.058 A 
ATOM     14  C   UNL     1     125.252 116.822 101.824  1.00  0.00     0.161 A 
ATOM     15  C   UNL     1     127.946 116.742 102.568  1.00  0.00     0.058 A 
ATOM     16  C   UNL     1     125.795 117.876 102.571  1.00  0.00     0.200 A 
ATOM     17  C   UNL     1     127.158 117.833 102.951  1.00  0.00     0.161 A 
BRANCH  14  18
ATOM     18  O   UNL     1     123.907 116.859 101.457  1.00  0.00    -0.504 OA
ATOM     19  H   UNL     1     123.273 117.555 101.829  1.00  0.00     0.293 HD
ENDBRANCH  14  18
BRANCH  16  20
ATOM     20  O   UNL     1     124.953 118.938 102.915  1.00  0.00    -0.502 OA
ATOM     21  H   UNL     1     124.003 119.033 102.589  1.00  0.00     0.293 HD
ENDBRANCH  16  20
BRANCH  17  22
ATOM     22  O   UNL     1     127.764 118.840 103.704  1.00  0.00    -0.504 OA
ATOM     23  H   UNL     1     128.332 118.673 104.520  1.00  0.00     0.293 HD
ENDBRANCH  17  22
ENDBRANCH   1  12
BRANCH   2  24
ATOM     24  O   UNL     1     126.935 114.134  99.425  1.00  0.00    -0.381 OA
ATOM     25  H   UNL     1     127.379 113.783  98.609  1.00  0.00     0.211 HD
ENDBRANCH   2  24
BRANCH   6  26
ATOM     26  O   UNL     1     130.296 110.744  98.379  1.00  0.00    -0.507 OA
ATOM     27  H   UNL     1     129.426 110.602  97.884  1.00  0.00     0.293 HD
ENDBRANCH   6  26
BRANCH   8  28
ATOM     28  O   UNL     1     133.750 114.074  98.746  1.00  0.00    -0.508 OA
ATOM     29  H   UNL     1     134.030 115.040  98.867  1.00  0.00     0.293 HD
ENDBRANCH   8  28
TORSDOF 7
ENDMDL
MODEL 5
REMARK VINA RESULT:    -6.532      3.090      6.458
REMARK INTER + INTRA:          -8.090
REMARK INTER:                  -7.708
REMARK INTRA:                  -0.382
REMARK UNBOUND:                -0.031
REMARK SMILES O=C1c2c(O)cc(O)cc2O[C@@H](c2cc(O)c(O)c(O)c2)[C@H]1O
REMARK SMILES IDX 12 1 22 2 2 3 1 4 3 5 4 6 6 7 7 8 9 9 10 10 11 11 13 12
REMARK SMILES IDX 14 13 15 14 21 15 17 16 19 17 16 18 18 20 20 22 23 24 5 26
REMARK SMILES IDX 8 28
REMARK H PARENT 16 19 18 21 20 23 23 25 5 27 8 29
REMARK Flexibility Score: inf
ROOT
ATOM      1  C   UNL     1     124.881 117.596 101.196  1.00  0.00     0.240 C 
ATOM      2  C   UNL     1     125.477 116.258 100.710  1.00  0.00     0.231 C 
ATOM      3  C   UNL     1     125.448 116.222  99.205  1.00  0.00     0.202 C 
ATOM      4  O   UNL     1     126.464 115.816  98.581  1.00  0.00    -0.291 OA
ATOM      5  C   UNL     1     124.245 116.724  98.494  1.00  0.00     0.105 A 
ATOM      6  C   UNL     1     123.937 116.421  97.141  1.00  0.00     0.133 A 
ATOM      7  C   UNL     1     122.811 117.002  96.543  1.00  0.00     0.093 A 
ATOM      8  C   UNL     1     121.956 117.829  97.277  1.00  0.00     0.123 A 
ATOM      9  C   UNL     1     122.228 118.089  98.620  1.00  0.00     0.093 A 
ATOM     10  C   UNL     1     123.367 117.554  99.227  1.00  0.00     0.138 A 
ATOM     11  O   UNL     1     123.616 117.846 100.575  1.00  0.00    -0.481 OA
ENDROOT
BRANCH   1  12
ATOM     12  C   UNL     1     124.752 117.636 102.702  1.00  0.00     0.003 A 
ATOM     13  C   UNL     1     123.493 117.622 103.322  1.00  0.00     0.058 A 
ATOM     14  C   UNL     1     123.388 117.622 104.718  1.00  0.00     0.161 A 
ATOM     15  C   UNL     1     125.905 117.621 103.502  1.00  0.00     0.058 A 
ATOM     16  C   UNL     1     124.542 117.626 105.515  1.00  0.00     0.200 A 
ATOM     17  C   UNL     1     125.816 117.621 104.898  1.00  0.00     0.161 A 
BRANCH  14  18
ATOM     18  O   UNL     1     122.132 117.618 105.325  1.00  0.00    -0.504 OA
ATOM     19  H   UNL     1     121.289 117.424 104.799  1.00  0.00     0.293 HD
ENDBRANCH  14  18
BRANCH  16  20
ATOM     20  O   UNL     1     124.380 117.631 106.903  1.00  0.00    -0.502 OA
ATOM     21  H   UNL     1     124.462 118.457 107.478  1.00  0.00     0.293 HD
ENDBRANCH  16  20
BRANCH  17  22
ATOM     22  O   UNL     1     127.007 117.613 105.627  1.00  0.00    -0.504 OA
ATOM     23  H   UNL     1     127.648 118.391 105.670  1.00  0.00     0.293 HD
ENDBRANCH  17  22
ENDBRANCH   1  12
BRANCH   2  24
ATOM     24  O   UNL     1     124.787 115.151 101.238  1.00  0.00    -0.381 OA
ATOM     25  H   UNL     1     124.555 114.546 100.485  1.00  0.00     0.211 HD
ENDBRANCH   2  24
BRANCH   6  26
ATOM     26  O   UNL     1     124.684 115.531  96.367  1.00  0.00    -0.507 OA
ATOM     27  H   UNL     1     124.950 114.604  96.669  1.00  0.00     0.293 HD
ENDBRANCH   6  26
BRANCH   8  28
ATOM     28  O   UNL     1     120.827 118.390  96.685  1.00  0.00    -0.508 OA
ATOM     29  H   UNL     1     120.833 119.339  96.328  1.00  0.00     0.293 HD
ENDBRANCH   8  28
TORSDOF 7
ENDMDL
MODEL 6
REMARK VINA RESULT:    -6.433      3.283      8.773
REMARK INTER + INTRA:          -7.969
REMARK INTER:                  -7.608
REMARK INTRA:                  -0.360
REMARK UNBOUND:                -0.031
REMARK SMILES O=C1c2c(O)cc(O)cc2O[C@@H](c2cc(O)c(O)c(O)c2)[C@H]1O
REMARK SMILES IDX 12 1 22 2 2 3 1 4 3 5 4 6 6 7 7 8 9 9 10 10 11 11 13 12
REMARK SMILES IDX 14 13 15 14 21 15 17 16 19 17 16 18 18 20 20 22 23 24 5 26
REMARK SMILES IDX 8 28
REMARK H PARENT 16 19 18 21 20 23 23 25 5 27 8 29
REMARK Flexibility Score: inf
ROOT
ATOM      1  C   UNL     1     125.963 116.556 101.002  1.00  0.00     0.240 C 
ATOM      2  C   UNL     1     124.539 116.062 100.666  1.00  0.00     0.231 C 
ATOM      3  C   UNL     1     123.538 116.888 101.430  1.00  0.00     0.202 C 
ATOM      4  O   UNL     1     122.511 117.311 100.836  1.00  0.00    -0.291 OA
ATOM      5  C   UNL     1     123.817 117.233 102.847  1.00  0.00     0.105 A 
ATOM      6  C   UNL     1     122.829 117.674 103.767  1.00  0.00     0.133 A 
ATOM      7  C   UNL     1     123.210 118.041 105.065  1.00  0.00     0.093 A 
ATOM      8  C   UNL     1     124.539 117.921 105.482  1.00  0.00     0.123 A 
ATOM      9  C   UNL     1     125.503 117.442 104.597  1.00  0.00     0.093 A 
ATOM     10  C   UNL     1     125.155 117.109 103.285  1.00  0.00     0.138 A 
ATOM     11  O   UNL     1     126.152 116.642 102.418  1.00  0.00    -0.481 OA
ENDROOT
BRANCH   1  12
ATOM     12  C   UNL     1     127.021 115.676 100.375  1.00  0.00     0.003 A 
ATOM     13  C   UNL     1     127.029 115.426  98.994  1.00  0.00     0.058 A 
ATOM     14  C   UNL     1     128.035 114.639  98.420  1.00  0.00     0.161 A 
ATOM     15  C   UNL     1     128.050 115.148 101.169  1.00  0.00     0.058 A 
ATOM     16  C   UNL     1     129.052 114.097  99.218  1.00  0.00     0.200 A 
ATOM     17  C   UNL     1     129.062 114.360 100.609  1.00  0.00     0.161 A 
BRANCH  14  18
ATOM     18  O   UNL     1     128.029 114.389  97.048  1.00  0.00    -0.504 OA
ATOM     19  H   UNL     1     128.546 114.971  96.399  1.00  0.00     0.293 HD
ENDBRANCH  14  18
BRANCH  16  20
ATOM     20  O   UNL     1     130.028 113.314  98.595  1.00  0.00    -0.502 OA
ATOM     21  H   UNL     1     130.981 113.236  98.919  1.00  0.00     0.293 HD
ENDBRANCH  16  20
BRANCH  17  22
ATOM     22  O   UNL     1     130.048 113.864 101.464  1.00  0.00    -0.504 OA
ATOM     23  H   UNL     1     130.684 114.443 101.990  1.00  0.00     0.293 HD
ENDBRANCH  17  22
ENDBRANCH   1  12
BRANCH   2  24
ATOM     24  O   UNL     1     124.372 114.696 100.961  1.00  0.00    -0.381 OA
ATOM     25  H   UNL     1     125.251 114.248 100.849  1.00  0.00     0.211 HD
ENDBRANCH   2  24
BRANCH   6  26
ATOM     26  O   UNL     1     121.468 117.731 103.460  1.00  0.00    -0.507 OA
ATOM     27  H   UNL     1     120.926 116.937 103.150  1.00  0.00     0.293 HD
ENDBRANCH   6  26
BRANCH   8  28
ATOM     28  O   UNL     1     124.911 118.269 106.779  1.00  0.00    -0.508 OA
ATOM     29  H   UNL     1     125.779 118.756 106.968  1.00  0.00     0.293 HD
ENDBRANCH   8  28
TORSDOF 7
ENDMDL
MODEL 7
REMARK VINA RESULT:    -6.345      4.810      7.640
REMARK INTER + INTRA:          -7.860
REMARK INTER:                  -7.476
REMARK INTRA:                  -0.384
REMARK UNBOUND:                -0.031
REMARK SMILES O=C1c2c(O)cc(O)cc2O[C@@H](c2cc(O)c(O)c(O)c2)[C@H]1O
REMARK SMILES IDX 12 1 22 2 2 3 1 4 3 5 4 6 6 7 7 8 9 9 10 10 11 11 13 12
REMARK SMILES IDX 14 13 15 14 21 15 17 16 19 17 16 18 18 20 20 22 23 24 5 26
REMARK SMILES IDX 8 28
REMARK H PARENT 16 19 18 21 20 23 23 25 5 27 8 29
REMARK Flexibility Score: inf
ROOT
ATOM      1  C   UNL     1     124.390 115.878  99.558  1.00  0.00     0.240 C 
ATOM      2  C   UNL     1     125.848 115.840  99.050  1.00  0.00     0.231 C 
ATOM      3  C   UNL     1     126.767 115.552 100.207  1.00  0.00     0.202 C 
ATOM      4  O   UNL     1     127.691 114.708 100.063  1.00  0.00    -0.291 OA
ATOM      5  C   UNL     1     126.521 116.225 101.508  1.00  0.00     0.105 A 
ATOM      6  C   UNL     1     127.489 116.332 102.543  1.00  0.00     0.133 A 
ATOM      7  C   UNL     1     127.134 116.927 103.761  1.00  0.00     0.093 A 
ATOM      8  C   UNL     1     125.859 117.471 103.948  1.00  0.00     0.123 A 
ATOM      9  C   UNL     1     124.922 117.413 102.916  1.00  0.00     0.093 A 
ATOM     10  C   UNL     1     125.240 116.787 101.708  1.00  0.00     0.138 A 
ATOM     11  O   UNL     1     124.271 116.736 100.697  1.00  0.00    -0.481 OA
ENDROOT
BRANCH   1  12
ATOM     12  C   UNL     1     123.431 116.302  98.468  1.00  0.00     0.003 A 
ATOM     13  C   UNL     1     122.736 117.519  98.548  1.00  0.00     0.058 A 
ATOM     14  C   UNL     1     121.878 117.916  97.515  1.00  0.00     0.161 A 
ATOM     15  C   UNL     1     123.276 115.503  97.325  1.00  0.00     0.058 A 
ATOM     16  C   UNL     1     121.711 117.107  96.383  1.00  0.00     0.200 A 
ATOM     17  C   UNL     1     122.422 115.888  96.286  1.00  0.00     0.161 A 
BRANCH  14  18
ATOM     18  O   UNL     1     121.185 119.123  97.609  1.00  0.00    -0.504 OA
ATOM     19  H   UNL     1     121.098 119.620  98.486  1.00  0.00     0.293 HD
ENDBRANCH  14  18
BRANCH  16  20
ATOM     20  O   UNL     1     120.838 117.549  95.385  1.00  0.00    -0.502 OA
ATOM     21  H   UNL     1     120.954 118.413  94.875  1.00  0.00     0.293 HD
ENDBRANCH  16  20
BRANCH  17  22
ATOM     22  O   UNL     1     122.314 115.037  95.184  1.00  0.00    -0.504 OA
ATOM     23  H   UNL     1     121.795 115.258  94.347  1.00  0.00     0.293 HD
ENDBRANCH  17  22
ENDBRANCH   1  12
BRANCH   2  24
ATOM     24  O   UNL     1     126.219 117.042  98.419  1.00  0.00    -0.381 OA
ATOM     25  H   UNL     1     125.393 117.478  98.080  1.00  0.00     0.211 HD
ENDBRANCH   2  24
BRANCH   6  26
ATOM     26  O   UNL     1     128.810 115.901 102.403  1.00  0.00    -0.507 OA
ATOM     27  H   UNL     1     129.388 115.594 103.172  1.00  0.00     0.293 HD
ENDBRANCH   6  26
BRANCH   8  28
ATOM     28  O   UNL     1     125.515 118.079 105.153  1.00  0.00    -0.508 OA
ATOM     29  H   UNL     1     125.369 119.080 105.218  1.00  0.00     0.293 HD
ENDBRANCH   8  28
TORSDOF 7
ENDMDL
MODEL 8
REMARK VINA RESULT:    -6.334      4.891      7.781
REMARK INTER + INTRA:          -7.847
REMARK INTER:                  -7.447
REMARK INTRA:                  -0.400
REMARK UNBOUND:                -0.031
REMARK SMILES O=C1c2c(O)cc(O)cc2O[C@@H](c2cc(O)c(O)c(O)c2)[C@H]1O
REMARK SMILES IDX 12 1 22 2 2 3 1 4 3 5 4 6 6 7 7 8 9 9 10 10 11 11 13 12
REMARK SMILES IDX 14 13 15 14 21 15 17 16 19 17 16 18 18 20 20 22 23 24 5 26
REMARK SMILES IDX 8 28
REMARK H PARENT 16 19 18 21 20 23 23 25 5 27 8 29
REMARK Flexibility Score: inf
ROOT
ATOM      1  C   UNL     1     124.461 115.910  99.402  1.00  0.00     0.240 C 
ATOM      2  C   UNL     1     125.920 115.874  98.897  1.00  0.00     0.231 C 
ATOM      3  C   UNL     1     126.835 115.561 100.051  1.00  0.00     0.202 C 
ATOM      4  O   UNL     1     127.755 114.715  99.894  1.00  0.00    -0.291 OA
ATOM      5  C   UNL     1     126.590 116.211 101.364  1.00  0.00     0.105 A 
ATOM      6  C   UNL     1     127.555 116.294 102.403  1.00  0.00     0.133 A 
ATOM      7  C   UNL     1     127.200 116.869 103.630  1.00  0.00     0.093 A 
ATOM      8  C   UNL     1     125.928 117.415 103.824  1.00  0.00     0.123 A 
ATOM      9  C   UNL     1     124.993 117.380 102.790  1.00  0.00     0.093 A 
ATOM     10  C   UNL     1     125.310 116.775 101.571  1.00  0.00     0.138 A 
ATOM     11  O   UNL     1     124.343 116.746 100.557  1.00  0.00    -0.481 OA
ENDROOT
BRANCH   1  12
ATOM     12  C   UNL     1     123.506 116.357  98.319  1.00  0.00     0.003 A 
ATOM     13  C   UNL     1     123.312 115.587  97.162  1.00  0.00     0.058 A 
ATOM     14  C   UNL     1     122.398 115.994  96.182  1.00  0.00     0.161 A 
ATOM     15  C   UNL     1     122.752 117.527  98.493  1.00  0.00     0.058 A 
ATOM     16  C   UNL     1     121.659 117.173  96.350  1.00  0.00     0.200 A 
ATOM     17  C   UNL     1     121.835 117.947  97.523  1.00  0.00     0.161 A 
BRANCH  14  18
ATOM     18  O   UNL     1     122.218 115.227  95.032  1.00  0.00    -0.504 OA
ATOM     19  H   UNL     1     121.337 114.770  94.829  1.00  0.00     0.293 HD
ENDBRANCH  14  18
BRANCH  16  20
ATOM     20  O   UNL     1     120.765 117.536  95.339  1.00  0.00    -0.502 OA
ATOM     21  H   UNL     1     119.823 117.181  95.264  1.00  0.00     0.293 HD
ENDBRANCH  16  20
BRANCH  17  22
ATOM     22  O   UNL     1     121.126 119.125  97.763  1.00  0.00    -0.504 OA
ATOM     23  H   UNL     1     121.034 119.876  97.096  1.00  0.00     0.293 HD
ENDBRANCH  17  22
ENDBRANCH   1  12
BRANCH   2  24
ATOM     24  O   UNL     1     126.297 117.086  98.290  1.00  0.00    -0.381 OA
ATOM     25  H   UNL     1     126.209 117.808  98.965  1.00  0.00     0.211 HD
ENDBRANCH   2  24
BRANCH   6  26
ATOM     26  O   UNL     1     128.874 115.860 102.258  1.00  0.00    -0.507 OA
ATOM     27  H   UNL     1     129.166 115.149 101.602  1.00  0.00     0.293 HD
ENDBRANCH   6  26
BRANCH   8  28
ATOM     28  O   UNL     1     125.584 118.003 105.039  1.00  0.00    -0.508 OA
ATOM     29  H   UNL     1     125.646 119.005 105.179  1.00  0.00     0.293 HD
ENDBRANCH   8  28
TORSDOF 7
ENDMDL
MODEL 9
REMARK VINA RESULT:    -6.241      4.292      7.828
REMARK INTER + INTRA:          -7.731
REMARK INTER:                  -7.359
REMARK INTRA:                  -0.372
REMARK UNBOUND:                -0.031
REMARK SMILES O=C1c2c(O)cc(O)cc2O[C@@H](c2cc(O)c(O)c(O)c2)[C@H]1O
REMARK SMILES IDX 12 1 22 2 2 3 1 4 3 5 4 6 6 7 7 8 9 9 10 10 11 11 13 12
REMARK SMILES IDX 14 13 15 14 21 15 17 16 19 17 16 18 18 20 20 22 23 24 5 26
REMARK SMILES IDX 8 28
REMARK H PARENT 16 19 18 21 20 23 23 25 5 27 8 29
REMARK Flexibility Score: inf
ROOT
ATOM      1  C   UNL     1     123.976 116.672 100.296  1.00  0.00     0.240 C 
ATOM      2  C   UNL     1     123.445 118.011  99.738  1.00  0.00     0.231 C 
ATOM      3  C   UNL     1     122.737 117.756  98.433  1.00  0.00     0.202 C 
ATOM      4  O   UNL     1     121.627 118.311  98.218  1.00  0.00    -0.291 OA
ATOM      5  C   UNL     1     123.336 116.807  97.460  1.00  0.00     0.105 A 
ATOM      6  C   UNL     1     122.985 116.753  96.084  1.00  0.00     0.133 A 
ATOM      7  C   UNL     1     123.560 115.773  95.264  1.00  0.00     0.093 A 
ATOM      8  C   UNL     1     124.518 114.889  95.769  1.00  0.00     0.123 A 
ATOM      9  C   UNL     1     124.902 114.972  97.107  1.00  0.00     0.093 A 
ATOM     10  C   UNL     1     124.312 115.913  97.954  1.00  0.00     0.138 A 
ATOM     11  O   UNL     1     124.712 115.961  99.296  1.00  0.00    -0.481 OA
ENDROOT
BRANCH   1  12
ATOM     12  C   UNL     1     124.818 116.880 101.534  1.00  0.00     0.003 A 
ATOM     13  C   UNL     1     126.211 116.713 101.498  1.00  0.00     0.058 A 
ATOM     14  C   UNL     1     126.984 116.943 102.643  1.00  0.00     0.161 A 
ATOM     15  C   UNL     1     124.214 117.308 102.726  1.00  0.00     0.058 A 
ATOM     16  C   UNL     1     126.376 117.352 103.837  1.00  0.00     0.200 A 
ATOM     17  C   UNL     1     124.974 117.541 103.877  1.00  0.00     0.161 A 
BRANCH  14  18
ATOM     18  O   UNL     1     128.367 116.765 102.599  1.00  0.00    -0.504 OA
ATOM     19  H   UNL     1     128.911 117.026 101.787  1.00  0.00     0.293 HD
ENDBRANCH  14  18
BRANCH  16  20
ATOM     20  O   UNL     1     127.194 117.563 104.951  1.00  0.00    -0.502 OA
ATOM     21  H   UNL     1     127.995 118.176 104.956  1.00  0.00     0.293 HD
ENDBRANCH  16  20
BRANCH  17  22
ATOM     22  O   UNL     1     124.301 117.959 105.027  1.00  0.00    -0.504 OA
ATOM     23  H   UNL     1     124.756 118.355 105.836  1.00  0.00     0.293 HD
ENDBRANCH  17  22
ENDBRANCH   1  12
BRANCH   2  24
ATOM     24  O   UNL     1     124.475 118.953  99.558  1.00  0.00    -0.381 OA
ATOM     25  H   UNL     1     124.302 119.438  98.709  1.00  0.00     0.211 HD
ENDBRANCH   2  24
BRANCH   6  26
ATOM     26  O   UNL     1     122.110 117.658  95.481  1.00  0.00    -0.507 OA
ATOM     27  H   UNL     1     121.172 117.426  95.185  1.00  0.00     0.293 HD
ENDBRANCH   6  26
BRANCH   8  28
ATOM     28  O   UNL     1     125.102 113.928  94.946  1.00  0.00    -0.508 OA
ATOM     29  H   UNL     1     125.976 114.105  94.463  1.00  0.00     0.293 HD
ENDBRANCH   8  28
TORSDOF 7
ENDMDL
