MODEL 1
REMARK VINA RESULT:    -3.498      0.000      0.000
REMARK INTER + INTRA:          -3.305
REMARK INTER:                  -4.316
REMARK INTRA:                   1.010
REMARK UNBOUND:                 1.010
REMARK SMILES C=C1[C@H]2CC[C@@H]3[C@H]2C(C)(C)CCC[C@]13C
REMARK SMILES IDX 14 1 6 2 7 3 3 4 2 5 1 6 4 7 5 8 15 9 8 10 9 11 10 12 11 13
REMARK SMILES IDX 13 15 12 16
REMARK H PARENT
REMARK Flexibility Score: 80.00
ROOT
ATOM      1  C   UNL     1     146.785 145.126 133.093  1.00  0.00    -0.008 C 
ATOM      2  C   UNL     1     145.331 144.998 133.693  1.00  0.00     0.003 C 
ATOM      3  C   UNL     1     144.397 145.061 132.463  1.00  0.00     0.006 C 
ATOM      4  C   UNL     1     145.134 143.962 131.710  1.00  0.00     0.019 C 
ATOM      5  C   UNL     1     146.553 144.453 131.760  1.00  0.00    -0.068 C 
ATOM      6  C   UNL     1     147.472 144.226 130.812  1.00  0.00     0.009 C 
ATOM      7  C   UNL     1     145.031 142.798 132.724  1.00  0.00     0.008 C 
ATOM      8  C   UNL     1     145.064 143.521 134.093  1.00  0.00     0.005 C 
ATOM      9  C   UNL     1     147.870 144.354 133.894  1.00  0.00     0.016 C 
ENDROOT
BRANCH   3  10
ATOM     10  C   UNL     1     144.123 146.431 131.731  1.00  0.00    -0.032 C 
ATOM     11  C   UNL     1     143.416 146.144 130.383  1.00  0.00     0.011 C 
ATOM     12  C   UNL     1     143.125 147.253 132.591  1.00  0.00     0.011 C 
BRANCH  10  13
ATOM     13  C   UNL     1     145.379 147.289 131.414  1.00  0.00     0.007 CG0
ATOM     14  G   UNL     1     146.221 147.656 132.637  1.00  0.00     0.000 G0
ENDBRANCH  10  13
ENDBRANCH   3  10
BRANCH   1  15
ATOM     15  C   UNL     1     147.280 146.596 132.956  1.00  0.00     0.011 C 
BRANCH  15  16
ATOM     16  C   UNL     1     146.230 147.655 132.630  1.00  0.00     0.001 CG0
ATOM     17  G   UNL     1     145.380 147.300 131.410  1.00  0.00     0.000 G0
ENDBRANCH  15  16
ENDBRANCH   1  15
TORSDOF 0
ENDMDL
MODEL 2
REMARK VINA RESULT:    -3.481      1.708      4.077
REMARK INTER + INTRA:          -3.285
REMARK INTER:                  -4.283
REMARK INTRA:                   0.998
REMARK UNBOUND:                 1.010
REMARK SMILES C=C1[C@H]2CC[C@@H]3[C@H]2C(C)(C)CCC[C@]13C
REMARK SMILES IDX 14 1 6 2 7 3 3 4 2 5 1 6 4 7 5 8 15 9 8 10 9 11 10 12 11 13
REMARK SMILES IDX 13 15 12 16
REMARK H PARENT
REMARK Flexibility Score: 80.00
ROOT
ATOM      1  C   UNL     1     143.997 145.651 133.191  1.00  0.00    -0.008 C 
ATOM      2  C   UNL     1     145.471 145.773 133.741  1.00  0.00     0.003 C 
ATOM      3  C   UNL     1     146.363 145.698 132.480  1.00  0.00     0.006 C 
ATOM      4  C   UNL     1     145.608 146.798 131.747  1.00  0.00     0.019 C 
ATOM      5  C   UNL     1     144.188 146.316 131.847  1.00  0.00    -0.068 C 
ATOM      6  C   UNL     1     143.239 146.544 130.929  1.00  0.00     0.009 C 
ATOM      7  C   UNL     1     145.751 147.967 132.751  1.00  0.00     0.008 C 
ATOM      8  C   UNL     1     145.759 147.250 134.124  1.00  0.00     0.005 C 
ATOM      9  C   UNL     1     142.944 146.434 134.023  1.00  0.00     0.016 C 
ENDROOT
BRANCH   3  10
ATOM     10  C   UNL     1     146.604 144.324 131.747  1.00  0.00    -0.032 C 
ATOM     11  C   UNL     1     147.255 144.600 130.369  1.00  0.00     0.011 C 
ATOM     12  C   UNL     1     147.635 143.505 132.570  1.00  0.00     0.011 C 
BRANCH  10  13
ATOM     13  C   UNL     1     145.334 143.466 131.488  1.00  0.00     0.007 CG0
ATOM     14  G   UNL     1     144.538 143.114 132.745  1.00  0.00     0.000 G0
ENDBRANCH  10  13
ENDBRANCH   3  10
BRANCH   1  15
ATOM     15  C   UNL     1     143.488 144.184 133.078  1.00  0.00     0.011 C 
BRANCH  15  16
ATOM     16  C   UNL     1     144.523 143.115 132.731  1.00  0.00     0.001 CG0
ATOM     17  G   UNL     1     145.340 143.456 131.485  1.00  0.00     0.000 G0
ENDBRANCH  15  16
ENDBRANCH   1  15
TORSDOF 0
ENDMDL
MODEL 3
REMARK VINA RESULT:    -2.962      1.606      4.012
REMARK INTER + INTRA:          -2.644
REMARK INTER:                  -3.672
REMARK INTRA:                   1.028
REMARK UNBOUND:                 1.010
REMARK SMILES C=C1[C@H]2CC[C@@H]3[C@H]2C(C)(C)CCC[C@]13C
REMARK SMILES IDX 14 1 6 2 7 3 3 4 2 5 1 6 4 7 5 8 15 9 8 10 9 11 10 12 11 13
REMARK SMILES IDX 13 15 12 16
REMARK H PARENT
REMARK Flexibility Score: 80.00
ROOT
ATOM      1  C   UNL     1     144.185 146.103 131.538  1.00  0.00    -0.008 C 
ATOM      2  C   UNL     1     143.911 145.435 132.941  1.00  0.00     0.003 C 
ATOM      3  C   UNL     1     145.316 145.222 133.550  1.00  0.00     0.006 C 
ATOM      4  C   UNL     1     145.747 146.666 133.337  1.00  0.00     0.019 C 
ATOM      5  C   UNL     1     145.444 146.866 131.878  1.00  0.00    -0.068 C 
ATOM      6  C   UNL     1     146.131 147.676 131.061  1.00  0.00     0.009 C 
ATOM      7  C   UNL     1     144.648 147.416 134.125  1.00  0.00     0.008 C 
ATOM      8  C   UNL     1     143.404 146.513 133.937  1.00  0.00     0.005 C 
ATOM      9  C   UNL     1     143.076 147.090 131.080  1.00  0.00     0.016 C 
ENDROOT
BRANCH   3  10
ATOM     10  C   UNL     1     146.252 144.065 133.028  1.00  0.00    -0.032 C 
ATOM     11  C   UNL     1     147.673 144.272 133.606  1.00  0.00     0.011 C 
ATOM     12  C   UNL     1     145.730 142.719 133.601  1.00  0.00     0.011 C 
BRANCH  10  13
ATOM     13  C   UNL     1     146.397 143.961 131.484  1.00  0.00     0.007 CG0
ATOM     14  G   UNL     1     145.079 143.761 130.734  1.00  0.00     0.000 G0
ENDBRANCH  10  13
ENDBRANCH   3  10
BRANCH   1  15
ATOM     15  C   UNL     1     144.386 145.078 130.383  1.00  0.00     0.011 C 
BRANCH  15  16
ATOM     16  C   UNL     1     145.080 143.764 130.735  1.00  0.00     0.001 CG0
ATOM     17  G   UNL     1     146.402 143.965 131.477  1.00  0.00     0.000 G0
ENDBRANCH  15  16
ENDBRANCH   1  15
TORSDOF 0
ENDMDL
MODEL 4
REMARK VINA RESULT:    -2.938      1.138      2.269
REMARK INTER + INTRA:          -2.615
REMARK INTER:                  -3.661
REMARK INTRA:                   1.047
REMARK UNBOUND:                 1.010
REMARK SMILES C=C1[C@H]2CC[C@@H]3[C@H]2C(C)(C)CCC[C@]13C
REMARK SMILES IDX 14 1 6 2 7 3 3 4 2 5 1 6 4 7 5 8 15 9 8 10 9 11 10 12 11 13
REMARK SMILES IDX 13 15 12 16
REMARK H PARENT
REMARK Flexibility Score: 80.00
ROOT
ATOM      1  C   UNL     1     146.287 144.762 131.262  1.00  0.00    -0.008 C 
ATOM      2  C   UNL     1     146.751 145.137 132.722  1.00  0.00     0.003 C 
ATOM      3  C   UNL     1     145.440 145.220 133.537  1.00  0.00     0.006 C 
ATOM      4  C   UNL     1     144.953 143.846 133.099  1.00  0.00     0.019 C 
ATOM      5  C   UNL     1     145.064 143.942 131.603  1.00  0.00    -0.068 C 
ATOM      6  C   UNL     1     144.262 143.308 130.737  1.00  0.00     0.009 C 
ATOM      7  C   UNL     1     146.127 142.957 133.575  1.00  0.00     0.008 C 
ATOM      8  C   UNL     1     147.357 143.885 133.411  1.00  0.00     0.005 C 
ATOM      9  C   UNL     1     147.307 143.890 130.478  1.00  0.00     0.016 C 
ENDROOT
BRANCH   3  10
ATOM     10  C   UNL     1     144.471 146.454 133.379  1.00  0.00    -0.032 C 
ATOM     11  C   UNL     1     143.135 146.136 134.093  1.00  0.00     0.011 C 
ATOM     12  C   UNL     1     145.097 147.664 134.124  1.00  0.00     0.011 C 
BRANCH  10  13
ATOM     13  C   UNL     1     144.124 146.856 131.918  1.00  0.00     0.007 CG0
ATOM     14  G   UNL     1     145.335 147.198 131.049  1.00  0.00     0.000 G0
ENDBRANCH  10  13
ENDBRANCH   3  10
BRANCH   1  15
ATOM     15  C   UNL     1     145.963 145.996 130.369  1.00  0.00     0.011 C 
BRANCH  15  16
ATOM     16  C   UNL     1     145.336 147.206 131.057  1.00  0.00     0.001 CG0
ATOM     17  G   UNL     1     144.125 146.843 131.917  1.00  0.00     0.000 G0
ENDBRANCH  15  16
ENDBRANCH   1  15
TORSDOF 0
ENDMDL
MODEL 5
REMARK VINA RESULT:    -2.931      1.739      3.421
REMARK INTER + INTRA:          -2.606
REMARK INTER:                  -3.610
REMARK INTRA:                   1.004
REMARK UNBOUND:                 1.010
REMARK SMILES C=C1[C@H]2CC[C@@H]3[C@H]2C(C)(C)CCC[C@]13C
REMARK SMILES IDX 14 1 6 2 7 3 3 4 2 5 1 6 4 7 5 8 15 9 8 10 9 11 10 12 11 13
REMARK SMILES IDX 13 15 12 16
REMARK H PARENT
REMARK Flexibility Score: 80.00
ROOT
ATOM      1  C   UNL     1     144.323 144.020 131.782  1.00  0.00    -0.008 C 
ATOM      2  C   UNL     1     144.782 145.307 130.992  1.00  0.00     0.003 C 
ATOM      3  C   UNL     1     145.771 146.015 131.946  1.00  0.00     0.006 C 
ATOM      4  C   UNL     1     146.622 144.772 132.164  1.00  0.00     0.019 C 
ATOM      5  C   UNL     1     145.588 143.758 132.567  1.00  0.00    -0.068 C 
ATOM      6  C   UNL     1     145.808 142.737 133.405  1.00  0.00     0.009 C 
ATOM      7  C   UNL     1     147.026 144.439 130.709  1.00  0.00     0.008 C 
ATOM      8  C   UNL     1     145.796 144.902 129.888  1.00  0.00     0.005 C 
ATOM      9  C   UNL     1     144.003 142.801 130.873  1.00  0.00     0.016 C 
ENDROOT
BRANCH   3  10
ATOM     10  C   UNL     1     145.247 146.807 133.205  1.00  0.00    -0.032 C 
ATOM     11  C   UNL     1     146.448 147.137 134.125  1.00  0.00     0.011 C 
ATOM     12  C   UNL     1     144.670 148.165 132.722  1.00  0.00     0.011 C 
BRANCH  10  13
ATOM     13  C   UNL     1     144.194 146.066 134.076  1.00  0.00     0.007 CG0
ATOM     14  G   UNL     1     142.933 145.642 133.324  1.00  0.00     0.000 G0
ENDBRANCH  10  13
ENDBRANCH   3  10
BRANCH   1  15
ATOM     15  C   UNL     1     143.079 144.251 132.689  1.00  0.00     0.011 C 
BRANCH  15  16
ATOM     16  C   UNL     1     142.937 145.627 133.336  1.00  0.00     0.001 CG0
ATOM     17  G   UNL     1     144.196 146.071 134.081  1.00  0.00     0.000 G0
ENDBRANCH  15  16
ENDBRANCH   1  15
TORSDOF 0
ENDMDL
MODEL 6
REMARK VINA RESULT:    -2.923      1.586      3.692
REMARK INTER + INTRA:          -2.596
REMARK INTER:                  -3.636
REMARK INTRA:                   1.040
REMARK UNBOUND:                 1.010
REMARK SMILES C=C1[C@H]2CC[C@@H]3[C@H]2C(C)(C)CCC[C@]13C
REMARK SMILES IDX 14 1 6 2 7 3 3 4 2 5 1 6 4 7 5 8 15 9 8 10 9 11 10 12 11 13
REMARK SMILES IDX 13 15 12 16
REMARK H PARENT
REMARK Flexibility Score: 80.00
ROOT
ATOM      1  C   UNL     1     146.391 146.758 131.740  1.00  0.00    -0.008 C 
ATOM      2  C   UNL     1     145.989 145.444 130.964  1.00  0.00     0.003 C 
ATOM      3  C   UNL     1     145.052 144.690 131.936  1.00  0.00     0.006 C 
ATOM      4  C   UNL     1     144.141 145.889 132.160  1.00  0.00     0.019 C 
ATOM      5  C   UNL     1     145.126 146.957 132.542  1.00  0.00    -0.068 C 
ATOM      6  C   UNL     1     144.864 147.971 133.379  1.00  0.00     0.009 C 
ATOM      7  C   UNL     1     143.699 146.192 130.708  1.00  0.00     0.008 C 
ATOM      8  C   UNL     1     144.940 145.788 129.873  1.00  0.00     0.005 C 
ATOM      9  C   UNL     1     146.634 147.986 130.821  1.00  0.00     0.016 C 
ENDROOT
BRANCH   3  10
ATOM     10  C   UNL     1     145.635 143.935 133.191  1.00  0.00    -0.032 C 
ATOM     11  C   UNL     1     144.463 143.524 134.116  1.00  0.00     0.011 C 
ATOM     12  C   UNL     1     146.300 142.619 132.704  1.00  0.00     0.011 C 
BRANCH  10  13
ATOM     13  C   UNL     1     146.639 144.744 134.058  1.00  0.00     0.007 CG0
ATOM     14  G   UNL     1     147.870 145.246 133.302  1.00  0.00     0.000 G0
ENDBRANCH  10  13
ENDBRANCH   3  10
BRANCH   1  15
ATOM     15  C   UNL     1     147.658 146.598 132.631  1.00  0.00     0.011 C 
BRANCH  15  16
ATOM     16  C   UNL     1     147.868 145.243 133.304  1.00  0.00     0.001 CG0
ATOM     17  G   UNL     1     146.637 144.760 134.073  1.00  0.00     0.000 G0
ENDBRANCH  15  16
ENDBRANCH   1  15
TORSDOF 0
ENDMDL
MODEL 7
REMARK VINA RESULT:    -2.879      1.252      3.628
REMARK INTER + INTRA:          -2.542
REMARK INTER:                  -3.546
REMARK INTRA:                   1.004
REMARK UNBOUND:                 1.010
REMARK SMILES C=C1[C@H]2CC[C@@H]3[C@H]2C(C)(C)CCC[C@]13C
REMARK SMILES IDX 14 1 6 2 7 3 3 4 2 5 1 6 4 7 5 8 15 9 8 10 9 11 10 12 11 13
REMARK SMILES IDX 13 15 12 16
REMARK H PARENT
REMARK Flexibility Score: 80.00
ROOT
ATOM      1  C   UNL     1     144.080 146.474 131.779  1.00  0.00    -0.008 C 
ATOM      2  C   UNL     1     145.372 146.022 130.996  1.00  0.00     0.003 C 
ATOM      3  C   UNL     1     146.066 145.014 131.942  1.00  0.00     0.006 C 
ATOM      4  C   UNL     1     144.816 144.167 132.133  1.00  0.00     0.019 C 
ATOM      5  C   UNL     1     143.804 145.199 132.542  1.00  0.00    -0.068 C 
ATOM      6  C   UNL     1     142.772 144.971 133.366  1.00  0.00     0.009 C 
ATOM      7  C   UNL     1     144.497 143.787 130.668  1.00  0.00     0.008 C 
ATOM      8  C   UNL     1     144.975 145.027 129.872  1.00  0.00     0.005 C 
ATOM      9  C   UNL     1     142.872 146.816 130.864  1.00  0.00     0.016 C 
ENDROOT
BRANCH   3  10
ATOM     10  C   UNL     1     146.847 145.515 133.217  1.00  0.00    -0.032 C 
ATOM     11  C   UNL     1     147.155 144.298 134.125  1.00  0.00     0.011 C 
ATOM     12  C   UNL     1     148.216 146.086 132.759  1.00  0.00     0.011 C 
BRANCH  10  13
ATOM     13  C   UNL     1     146.105 146.563 134.093  1.00  0.00     0.007 CG0
ATOM     14  G   UNL     1     145.681 147.828 133.348  1.00  0.00     0.000 G0
ENDBRANCH  10  13
ENDBRANCH   3  10
BRANCH   1  15
ATOM     15  C   UNL     1     144.307 147.703 132.709  1.00  0.00     0.011 C 
BRANCH  15  16
ATOM     16  C   UNL     1     145.676 147.828 133.374  1.00  0.00     0.001 CG0
ATOM     17  G   UNL     1     146.109 146.552 134.096  1.00  0.00     0.000 G0
ENDBRANCH  15  16
ENDBRANCH   1  15
TORSDOF 0
ENDMDL
MODEL 8
REMARK VINA RESULT:    -2.715      1.488      2.878
REMARK INTER + INTRA:          -2.340
REMARK INTER:                  -3.349
REMARK INTRA:                   1.010
REMARK UNBOUND:                 1.010
REMARK SMILES C=C1[C@H]2CC[C@@H]3[C@H]2C(C)(C)CCC[C@]13C
REMARK SMILES IDX 14 1 6 2 7 3 3 4 2 5 1 6 4 7 5 8 15 9 8 10 9 11 10 12 11 13
REMARK SMILES IDX 13 15 12 16
REMARK H PARENT
REMARK Flexibility Score: 80.00
ROOT
ATOM      1  C   UNL     1     145.069 144.287 133.213  1.00  0.00    -0.008 C 
ATOM      2  C   UNL     1     144.934 145.803 133.628  1.00  0.00     0.003 C 
ATOM      3  C   UNL     1     145.025 146.581 132.295  1.00  0.00     0.006 C 
ATOM      4  C   UNL     1     143.939 145.758 131.615  1.00  0.00     0.019 C 
ATOM      5  C   UNL     1     144.424 144.355 131.848  1.00  0.00    -0.068 C 
ATOM      6  C   UNL     1     144.213 143.328 131.014  1.00  0.00     0.009 C 
ATOM      7  C   UNL     1     142.755 145.985 132.584  1.00  0.00     0.008 C 
ATOM      8  C   UNL     1     143.450 146.118 133.962  1.00  0.00     0.005 C 
ATOM      9  C   UNL     1     144.277 143.308 134.123  1.00  0.00     0.016 C 
ENDROOT
BRANCH   3  10
ATOM     10  C   UNL     1     146.410 146.762 131.563  1.00  0.00    -0.032 C 
ATOM     11  C   UNL     1     146.154 147.301 130.134  1.00  0.00     0.011 C 
ATOM     12  C   UNL     1     147.219 147.855 132.313  1.00  0.00     0.011 C 
BRANCH  10  13
ATOM     13  C   UNL     1     147.270 145.475 131.419  1.00  0.00     0.007 CG0
ATOM     14  G   UNL     1     147.599 144.780 132.740  1.00  0.00     0.000 G0
ENDBRANCH  10  13
ENDBRANCH   3  10
BRANCH   1  15
ATOM     15  C   UNL     1     146.540 143.777 133.167  1.00  0.00     0.011 C 
BRANCH  15  16
ATOM     16  C   UNL     1     147.607 144.775 132.725  1.00  0.00     0.001 CG0
ATOM     17  G   UNL     1     147.262 145.477 131.411  1.00  0.00     0.000 G0
ENDBRANCH  15  16
ENDBRANCH   1  15
TORSDOF 0
ENDMDL
MODEL 9
REMARK VINA RESULT:    -2.697      1.858      3.463
REMARK INTER + INTRA:          -2.317
REMARK INTER:                  -3.350
REMARK INTRA:                   1.034
REMARK UNBOUND:                 1.010
REMARK SMILES C=C1[C@H]2CC[C@@H]3[C@H]2C(C)(C)CCC[C@]13C
REMARK SMILES IDX 14 1 6 2 7 3 3 4 2 5 1 6 4 7 5 8 15 9 8 10 9 11 10 12 11 13
REMARK SMILES IDX 13 15 12 16
REMARK H PARENT
REMARK Flexibility Score: 80.00
ROOT
ATOM      1  C   UNL     1     146.622 144.401 131.757  1.00  0.00    -0.008 C 
ATOM      2  C   UNL     1     145.372 144.951 130.966  1.00  0.00     0.003 C 
ATOM      3  C   UNL     1     144.708 145.954 131.937  1.00  0.00     0.006 C 
ATOM      4  C   UNL     1     145.995 146.728 132.190  1.00  0.00     0.019 C 
ATOM      5  C   UNL     1     146.944 145.629 132.577  1.00  0.00    -0.068 C 
ATOM      6  C   UNL     1     147.966 145.770 133.432  1.00  0.00     0.009 C 
ATOM      7  C   UNL     1     146.367 147.149 130.749  1.00  0.00     0.008 C 
ATOM      8  C   UNL     1     145.846 145.968 129.892  1.00  0.00     0.005 C 
ATOM      9  C   UNL     1     147.832 144.036 130.854  1.00  0.00     0.016 C 
ENDROOT
BRANCH   3  10
ATOM     10  C   UNL     1     143.873 145.444 133.173  1.00  0.00    -0.032 C 
ATOM     11  C   UNL     1     143.579 146.643 134.108  1.00  0.00     0.011 C 
ATOM     12  C   UNL     1     142.500 144.933 132.658  1.00  0.00     0.011 C 
BRANCH  10  13
ATOM     13  C   UNL     1     144.554 144.347 134.039  1.00  0.00     0.007 CG0
ATOM     14  G   UNL     1     144.940 143.082 133.272  1.00  0.00     0.000 G0
ENDBRANCH  10  13
ENDBRANCH   3  10
BRANCH   1  15
ATOM     15  C   UNL     1     146.311 143.150 132.630  1.00  0.00     0.011 C 
BRANCH  15  16
ATOM     16  C   UNL     1     144.933 143.084 133.285  1.00  0.00     0.001 CG0
ATOM     17  G   UNL     1     144.568 144.363 134.039  1.00  0.00     0.000 G0
ENDBRANCH  15  16
ENDBRANCH   1  15
TORSDOF 0
ENDMDL
