MODEL 1
REMARK VINA RESULT:    -2.568      0.000      0.000
REMARK INTER + INTRA:          -2.990
REMARK INTER:                  -2.943
REMARK INTRA:                  -0.047
REMARK UNBOUND:                -0.047
REMARK SMILES CC(C)[C@@H]([NH3+])C(=O)[O-]
REMARK SMILES IDX 4 1 5 2 6 6 7 7 8 8 2 9 1 10 3 11
REMARK H PARENT 5 3 5 4 5 5
REMARK Flexibility Score: inf
ROOT
ATOM      1  C   UNL     1      14.332 -12.531 -13.081  1.00  0.00     0.230 C 
ENDROOT
BRANCH   1   2
ATOM      2  N   UNL     1      13.670 -11.285 -12.663  1.00  0.00    -0.350 N 
ATOM      3  H   UNL     1      13.501 -10.683 -13.501  1.00  0.00     0.345 HD
ATOM      4  H   UNL     1      14.256 -10.749 -11.985  1.00  0.00     0.345 HD
ATOM      5  H   UNL     1      12.742 -11.491 -12.232  1.00  0.00     0.345 HD
ENDBRANCH   1   2
BRANCH   1   6
ATOM      6  C   UNL     1      13.334 -13.488 -13.687  1.00  0.00     0.099 C 
ATOM      7  O   UNL     1      13.205 -14.645 -13.209  1.00  0.00    -0.544 OA
ATOM      8  O   UNL     1      12.589 -13.123 -14.802  1.00  0.00    -0.544 OA
ENDBRANCH   1   6
BRANCH   1   9
ATOM      9  C   UNL     1      15.529 -12.290 -14.049  1.00  0.00     0.047 C 
ATOM     10  C   UNL     1      16.881 -12.399 -13.327  1.00  0.00     0.014 C 
ATOM     11  C   UNL     1      15.444 -10.959 -14.814  1.00  0.00     0.014 C 
ENDBRANCH   1   9
TORSDOF 3
ENDMDL
MODEL 2
REMARK VINA RESULT:    -2.517      2.074      3.341
REMARK INTER + INTRA:          -2.932
REMARK INTER:                  -2.885
REMARK INTRA:                  -0.048
REMARK UNBOUND:                -0.047
REMARK SMILES CC(C)[C@@H]([NH3+])C(=O)[O-]
REMARK SMILES IDX 4 1 5 2 6 6 7 7 8 8 2 9 1 10 3 11
REMARK H PARENT 5 3 5 4 5 5
REMARK Flexibility Score: inf
ROOT
ATOM      1  C   UNL     1      14.079 -12.168 -13.327  1.00  0.00     0.230 C 
ENDROOT
BRANCH   1   2
ATOM      2  N   UNL     1      14.178 -12.186 -11.859  1.00  0.00    -0.350 N 
ATOM      3  H   UNL     1      15.076 -12.644 -11.577  1.00  0.00     0.345 HD
ATOM      4  H   UNL     1      13.389 -12.717 -11.429  1.00  0.00     0.345 HD
ATOM      5  H   UNL     1      14.190 -11.213 -11.482  1.00  0.00     0.345 HD
ENDBRANCH   1   2
BRANCH   1   6
ATOM      6  C   UNL     1      15.447 -12.042 -13.953  1.00  0.00     0.099 C 
ATOM      7  O   UNL     1      16.398 -12.751 -13.530  1.00  0.00    -0.544 OA
ATOM      8  O   UNL     1      15.684 -11.115 -14.961  1.00  0.00    -0.544 OA
ENDBRANCH   1   6
BRANCH   1   9
ATOM      9  C   UNL     1      13.317 -13.400 -13.902  1.00  0.00     0.047 C 
ATOM     10  C   UNL     1      12.252 -12.987 -14.929  1.00  0.00     0.014 C 
ATOM     11  C   UNL     1      12.690 -14.296 -12.821  1.00  0.00     0.014 C 
ENDBRANCH   1   9
TORSDOF 3
ENDMDL
MODEL 3
REMARK VINA RESULT:    -2.495      2.285      3.463
REMARK INTER + INTRA:          -2.907
REMARK INTER:                  -2.854
REMARK INTRA:                  -0.053
REMARK UNBOUND:                -0.047
REMARK SMILES CC(C)[C@@H]([NH3+])C(=O)[O-]
REMARK SMILES IDX 4 1 5 2 6 6 7 7 8 8 2 9 1 10 3 11
REMARK H PARENT 5 3 5 4 5 5
REMARK Flexibility Score: inf
ROOT
ATOM      1  C   UNL     1      13.812 -12.346 -12.643  1.00  0.00     0.230 C 
ENDROOT
BRANCH   1   2
ATOM      2  N   UNL     1      13.501 -12.605 -11.228  1.00  0.00    -0.350 N 
ATOM      3  H   UNL     1      12.599 -12.138 -10.979  1.00  0.00     0.345 HD
ATOM      4  H   UNL     1      14.248 -12.237 -10.598  1.00  0.00     0.345 HD
ATOM      5  H   UNL     1      13.380 -13.629 -11.062  1.00  0.00     0.345 HD
ENDBRANCH   1   2
BRANCH   1   6
ATOM      6  C   UNL     1      15.284 -12.068 -12.824  1.00  0.00     0.099 C 
ATOM      7  O   UNL     1      15.917 -11.440 -11.935  1.00  0.00    -0.544 OA
ATOM      8  O   UNL     1      15.942 -12.455 -13.985  1.00  0.00    -0.544 OA
ENDBRANCH   1   6
BRANCH   1   9
ATOM      9  C   UNL     1      13.343 -13.492 -13.589  1.00  0.00     0.047 C 
ATOM     10  C   UNL     1      12.485 -12.962 -14.749  1.00  0.00     0.014 C 
ATOM     11  C   UNL     1      12.605 -14.628 -12.863  1.00  0.00     0.014 C 
ENDBRANCH   1   9
TORSDOF 3
ENDMDL
MODEL 4
REMARK VINA RESULT:    -2.427     15.525     16.289
REMARK INTER + INTRA:          -2.828
REMARK INTER:                  -2.785
REMARK INTRA:                  -0.043
REMARK UNBOUND:                -0.047
REMARK SMILES CC(C)[C@@H]([NH3+])C(=O)[O-]
REMARK SMILES IDX 4 1 5 2 6 6 7 7 8 8 2 9 1 10 3 11
REMARK H PARENT 5 3 5 4 5 5
REMARK Flexibility Score: inf
ROOT
ATOM      1  C   UNL     1      19.178 -11.219   1.832  1.00  0.00     0.230 C 
ENDROOT
BRANCH   1   2
ATOM      2  N   UNL     1      19.036 -12.668   2.043  1.00  0.00    -0.350 N 
ATOM      3  H   UNL     1      19.194 -12.889   3.054  1.00  0.00     0.345 HD
ATOM      4  H   UNL     1      19.727 -13.207   1.476  1.00  0.00     0.345 HD
ATOM      5  H   UNL     1      18.069 -12.979   1.802  1.00  0.00     0.345 HD
ENDBRANCH   1   2
BRANCH   1   6
ATOM      6  C   UNL     1      20.630 -10.810   1.892  1.00  0.00     0.099 C 
ATOM      7  O   UNL     1      20.958  -9.624   1.626  1.00  0.00    -0.544 OA
ATOM      8  O   UNL     1      21.617 -11.741   2.190  1.00  0.00    -0.544 OA
ENDBRANCH   1   6
BRANCH   1   9
ATOM      9  C   UNL     1      18.517 -10.729   0.508  1.00  0.00     0.047 C 
ATOM     10  C   UNL     1      17.541  -9.567   0.751  1.00  0.00     0.014 C 
ATOM     11  C   UNL     1      17.821 -11.848  -0.284  1.00  0.00     0.014 C 
ENDBRANCH   1   9
TORSDOF 3
ENDMDL
MODEL 5
REMARK VINA RESULT:    -2.416     18.448     18.931
REMARK INTER + INTRA:          -2.816
REMARK INTER:                  -2.752
REMARK INTRA:                  -0.064
REMARK UNBOUND:                -0.047
REMARK SMILES CC(C)[C@@H]([NH3+])C(=O)[O-]
REMARK SMILES IDX 4 1 5 2 6 6 7 7 8 8 2 9 1 10 3 11
REMARK H PARENT 5 3 5 4 5 5
REMARK Flexibility Score: inf
ROOT
ATOM      1  C   UNL     1      18.621  -3.667   2.281  1.00  0.00     0.230 C 
ENDROOT
BRANCH   1   2
ATOM      2  N   UNL     1      19.465  -4.422   3.221  1.00  0.00    -0.350 N 
ATOM      3  H   UNL     1      18.857  -4.918   3.912  1.00  0.00     0.345 HD
ATOM      4  H   UNL     1      20.114  -3.793   3.743  1.00  0.00     0.345 HD
ATOM      5  H   UNL     1      20.019  -5.147   2.712  1.00  0.00     0.345 HD
ENDBRANCH   1   2
BRANCH   1   6
ATOM      6  C   UNL     1      17.632  -4.582   1.599  1.00  0.00     0.099 C 
ATOM      7  O   UNL     1      17.940  -5.139   0.513  1.00  0.00    -0.544 OA
ATOM      8  O   UNL     1      16.364  -4.778   2.131  1.00  0.00    -0.544 OA
ENDBRANCH   1   6
BRANCH   1   9
ATOM      9  C   UNL     1      17.893  -2.462   2.949  1.00  0.00     0.047 C 
ATOM     10  C   UNL     1      17.530  -1.373   1.928  1.00  0.00     0.014 C 
ATOM     11  C   UNL     1      18.671  -1.847   4.124  1.00  0.00     0.014 C 
ENDBRANCH   1   9
TORSDOF 3
ENDMDL
MODEL 6
REMARK VINA RESULT:    -2.411     19.642     20.027
REMARK INTER + INTRA:          -2.810
REMARK INTER:                  -2.761
REMARK INTRA:                  -0.050
REMARK UNBOUND:                -0.047
REMARK SMILES CC(C)[C@@H]([NH3+])C(=O)[O-]
REMARK SMILES IDX 4 1 5 2 6 6 7 7 8 8 2 9 1 10 3 11
REMARK H PARENT 5 3 5 4 5 5
REMARK Flexibility Score: inf
ROOT
ATOM      1  C   UNL     1      17.030  -1.409   2.174  1.00  0.00     0.230 C 
ENDROOT
BRANCH   1   2
ATOM      2  N   UNL     1      16.693  -2.195   0.977  1.00  0.00    -0.350 N 
ATOM      3  H   UNL     1      16.397  -1.550   0.209  1.00  0.00     0.345 HD
ATOM      4  H   UNL     1      15.913  -2.864   1.165  1.00  0.00     0.345 HD
ATOM      5  H   UNL     1      17.529  -2.723   0.639  1.00  0.00     0.345 HD
ENDBRANCH   1   2
BRANCH   1   6
ATOM      6  C   UNL     1      18.204  -2.018   2.901  1.00  0.00     0.099 C 
ATOM      7  O   UNL     1      18.650  -1.469   3.943  1.00  0.00    -0.544 OA
ATOM      8  O   UNL     1      18.831  -3.155   2.408  1.00  0.00    -0.544 OA
ENDBRANCH   1   6
BRANCH   1   9
ATOM      9  C   UNL     1      17.291   0.096   1.861  1.00  0.00     0.047 C 
ATOM     10  C   UNL     1      16.265   1.011   2.547  1.00  0.00     0.014 C 
ATOM     11  C   UNL     1      17.357   0.409   0.357  1.00  0.00     0.014 C 
ENDBRANCH   1   9
TORSDOF 3
ENDMDL
MODEL 7
REMARK VINA RESULT:    -2.390      2.487      3.319
REMARK INTER + INTRA:          -2.786
REMARK INTER:                  -2.713
REMARK INTRA:                  -0.073
REMARK UNBOUND:                -0.047
REMARK SMILES CC(C)[C@@H]([NH3+])C(=O)[O-]
REMARK SMILES IDX 4 1 5 2 6 6 7 7 8 8 2 9 1 10 3 11
REMARK H PARENT 5 3 5 4 5 5
REMARK Flexibility Score: inf
ROOT
ATOM      1  C   UNL     1      11.998 -12.486 -14.106  1.00  0.00     0.230 C 
ENDROOT
BRANCH   1   2
ATOM      2  N   UNL     1      12.116 -12.915 -15.509  1.00  0.00    -0.350 N 
ATOM      3  H   UNL     1      11.762 -13.895 -15.604  1.00  0.00     0.345 HD
ATOM      4  H   UNL     1      13.107 -12.890 -15.835  1.00  0.00     0.345 HD
ATOM      5  H   UNL     1      11.531 -12.309 -16.127  1.00  0.00     0.345 HD
ENDBRANCH   1   2
BRANCH   1   6
ATOM      6  C   UNL     1      10.609 -12.756 -13.581  1.00  0.00     0.099 C 
ATOM      7  O   UNL     1      10.224 -12.206 -12.515  1.00  0.00    -0.544 OA
ATOM      8  O   UNL     1       9.763 -13.645 -14.234  1.00  0.00    -0.544 OA
ENDBRANCH   1   6
BRANCH   1   9
ATOM      9  C   UNL     1      13.076 -13.127 -13.181  1.00  0.00     0.047 C 
ATOM     10  C   UNL     1      14.502 -12.784 -13.639  1.00  0.00     0.014 C 
ATOM     11  C   UNL     1      12.923 -14.648 -13.019  1.00  0.00     0.014 C 
ENDBRANCH   1   9
TORSDOF 3
ENDMDL
MODEL 8
REMARK VINA RESULT:    -2.326      2.772      3.150
REMARK INTER + INTRA:          -2.713
REMARK INTER:                  -2.666
REMARK INTRA:                  -0.047
REMARK UNBOUND:                -0.047
REMARK SMILES CC(C)[C@@H]([NH3+])C(=O)[O-]
REMARK SMILES IDX 4 1 5 2 6 6 7 7 8 8 2 9 1 10 3 11
REMARK H PARENT 5 3 5 4 5 5
REMARK Flexibility Score: inf
ROOT
ATOM      1  C   UNL     1      15.672 -11.061 -11.935  1.00  0.00     0.230 C 
ENDROOT
BRANCH   1   2
ATOM      2  N   UNL     1      14.753  -9.986 -12.341  1.00  0.00    -0.350 N 
ATOM      3  H   UNL     1      13.864 -10.064 -11.795  1.00  0.00     0.345 HD
ATOM      4  H   UNL     1      14.522 -10.044 -13.357  1.00  0.00     0.345 HD
ATOM      5  H   UNL     1      15.169  -9.051 -12.131  1.00  0.00     0.345 HD
ENDBRANCH   1   2
BRANCH   1   6
ATOM      6  C   UNL     1      15.251 -11.652 -10.611  1.00  0.00     0.099 C 
ATOM      7  O   UNL     1      16.027 -11.590  -9.622  1.00  0.00    -0.544 OA
ATOM      8  O   UNL     1      14.033 -12.309 -10.483  1.00  0.00    -0.544 OA
ENDBRANCH   1   6
BRANCH   1   9
ATOM      9  C   UNL     1      15.826 -12.172 -13.016  1.00  0.00     0.047 C 
ATOM     10  C   UNL     1      17.280 -12.313 -13.491  1.00  0.00     0.014 C 
ATOM     11  C   UNL     1      14.890 -11.991 -14.223  1.00  0.00     0.014 C 
ENDBRANCH   1   9
TORSDOF 3
ENDMDL
MODEL 9
REMARK VINA RESULT:    -2.293      6.057      6.611
REMARK INTER + INTRA:          -2.675
REMARK INTER:                  -2.603
REMARK INTRA:                  -0.072
REMARK UNBOUND:                -0.047
REMARK SMILES CC(C)[C@@H]([NH3+])C(=O)[O-]
REMARK SMILES IDX 4 1 5 2 6 6 7 7 8 8 2 9 1 10 3 11
REMARK H PARENT 5 3 5 4 5 5
REMARK Flexibility Score: inf
ROOT
ATOM      1  C   UNL     1      14.590 -10.835  -7.737  1.00  0.00     0.230 C 
ENDROOT
BRANCH   1   2
ATOM      2  N   UNL     1      14.803 -12.005  -6.869  1.00  0.00    -0.350 N 
ATOM      3  H   UNL     1      13.984 -12.651  -6.950  1.00  0.00     0.345 HD
ATOM      4  H   UNL     1      14.905 -11.725  -5.868  1.00  0.00     0.345 HD
ATOM      5  H   UNL     1      15.651 -12.534  -7.171  1.00  0.00     0.345 HD
ENDBRANCH   1   2
BRANCH   1   6
ATOM      6  C   UNL     1      15.674  -9.807  -7.523  1.00  0.00     0.099 C 
ATOM      7  O   UNL     1      16.641 -10.065  -6.759  1.00  0.00    -0.544 OA
ATOM      8  O   UNL     1      15.594  -8.556  -8.123  1.00  0.00    -0.544 OA
ENDBRANCH   1   6
BRANCH   1   9
ATOM      9  C   UNL     1      14.469 -11.209  -9.245  1.00  0.00     0.047 C 
ATOM     10  C   UNL     1      13.427 -12.314  -9.479  1.00  0.00     0.014 C 
ATOM     11  C   UNL     1      15.808 -11.599  -9.892  1.00  0.00     0.014 C 
ENDBRANCH   1   9
TORSDOF 3
ENDMDL
