MODEL 1
REMARK VINA RESULT:    -3.937      0.000      0.000
REMARK INTER + INTRA:          -4.111
REMARK INTER:                  -4.858
REMARK INTRA:                   0.747
REMARK UNBOUND:                 0.747
REMARK SMILES CC1=CC=CC(C)(C)CC1=O
REMARK SMILES IDX 1 1 2 2 3 3 10 4 11 5 9 6 4 8 5 9 6 10 7 11 8 12
REMARK H PARENT
REMARK Flexibility Score: 80.00
ROOT
ATOM      1  C   UNL     1      20.746  -0.709   7.484  1.00  0.00     0.048 C 
ATOM      2  C   UNL     1      21.977  -1.582   7.512  1.00  0.00    -0.008 C 
ATOM      3  C   UNL     1      23.084  -1.125   6.888  1.00  0.00     0.007 C 
ENDROOT
BRANCH   2   4
ATOM      4  C   UNL     1      21.848  -2.911   8.161  1.00  0.00     0.159 C 
ATOM      5  O   UNL     1      20.699  -3.324   8.478  1.00  0.00    -0.295 OA
BRANCH   4   6
ATOM      6  C   UNL     1      23.017  -3.794   8.477  1.00  0.00     0.091 CG0
ATOM      7  G   UNL     1      23.847  -4.175   7.232  1.00  0.00     0.000 G0
ENDBRANCH   4   6
ENDBRANCH   2   4
BRANCH   3   8
ATOM      8  C   UNL     1      24.414  -1.758   6.725  1.00  0.00    -0.003 C 
ATOM      9  C   UNL     1      24.760  -3.045   6.857  1.00  0.00    -0.020 C 
BRANCH   9  10
ATOM     10  C   UNL     1      23.846  -4.184   7.240  1.00  0.00    -0.010 CG0
ATOM     11  C   UNL     1      22.975  -4.594   6.031  1.00  0.00     0.016 C 
ATOM     12  C   UNL     1      24.720  -5.397   7.631  1.00  0.00     0.016 C 
ATOM     13  G   UNL     1      23.003  -3.783   8.472  1.00  0.00     0.000 G0
ENDBRANCH   9  10
ENDBRANCH   3   8
TORSDOF 0
ENDMDL
MODEL 2
REMARK VINA RESULT:    -3.443      1.632      2.605
REMARK INTER + INTRA:          -3.501
REMARK INTER:                  -4.260
REMARK INTRA:                   0.760
REMARK UNBOUND:                 0.747
REMARK SMILES CC1=CC=CC(C)(C)CC1=O
REMARK SMILES IDX 1 1 2 2 3 3 10 4 11 5 9 6 4 8 5 9 6 10 7 11 8 12
REMARK H PARENT
REMARK Flexibility Score: 80.00
ROOT
ATOM      1  C   UNL     1      19.882  -2.880   8.305  1.00  0.00     0.048 C 
ATOM      2  C   UNL     1      21.314  -3.164   7.918  1.00  0.00    -0.008 C 
ATOM      3  C   UNL     1      22.104  -3.760   8.837  1.00  0.00     0.007 C 
ENDROOT
BRANCH   2   4
ATOM      4  C   UNL     1      21.758  -2.697   6.581  1.00  0.00     0.159 C 
ATOM      5  O   UNL     1      20.999  -1.938   5.918  1.00  0.00    -0.295 OA
BRANCH   4   6
ATOM      6  C   UNL     1      23.064  -3.088   5.960  1.00  0.00     0.091 CG0
ATOM      7  G   UNL     1      24.289  -2.681   6.810  1.00  0.00     0.000 G0
ENDBRANCH   4   6
ENDBRANCH   2   4
BRANCH   3   8
ATOM      8  C   UNL     1      23.536  -4.135   8.760  1.00  0.00    -0.003 C 
ATOM      9  C   UNL     1      24.482  -3.693   7.922  1.00  0.00    -0.020 C 
BRANCH   9  10
ATOM     10  C   UNL     1      24.294  -2.693   6.805  1.00  0.00    -0.010 CG0
ATOM     11  C   UNL     1      24.191  -1.265   7.386  1.00  0.00     0.016 C 
ATOM     12  C   UNL     1      25.540  -2.748   5.892  1.00  0.00     0.016 C 
ATOM     13  G   UNL     1      23.061  -3.082   5.960  1.00  0.00     0.000 G0
ENDBRANCH   9  10
ENDBRANCH   3   8
TORSDOF 0
ENDMDL
MODEL 3
REMARK VINA RESULT:    -3.156      4.573      5.899
REMARK INTER + INTRA:          -3.146
REMARK INTER:                  -3.901
REMARK INTRA:                   0.755
REMARK UNBOUND:                 0.747
REMARK SMILES CC1=CC=CC(C)(C)CC1=O
REMARK SMILES IDX 1 1 2 2 3 3 10 4 11 5 9 6 4 8 5 9 6 10 7 11 8 12
REMARK H PARENT
REMARK Flexibility Score: 80.00
ROOT
ATOM      1  C   UNL     1      22.503  -6.889  11.662  1.00  0.00     0.048 C 
ATOM      2  C   UNL     1      22.725  -7.642  10.372  1.00  0.00    -0.008 C 
ATOM      3  C   UNL     1      22.476  -8.969  10.372  1.00  0.00     0.007 C 
ENDROOT
BRANCH   2   4
ATOM      4  C   UNL     1      23.273  -6.874   9.227  1.00  0.00     0.159 C 
ATOM      5  O   UNL     1      23.695  -5.702   9.426  1.00  0.00    -0.295 OA
BRANCH   4   6
ATOM      6  C   UNL     1      23.342  -7.409   7.829  1.00  0.00     0.091 CG0
ATOM      7  G   UNL     1      24.174  -8.707   7.714  1.00  0.00     0.000 G0
ENDBRANCH   4   6
ENDBRANCH   2   4
BRANCH   3   8
ATOM      8  C   UNL     1      22.623  -9.964   9.283  1.00  0.00    -0.003 C 
ATOM      9  C   UNL     1      23.339  -9.882   8.154  1.00  0.00    -0.020 C 
BRANCH   9  10
ATOM     10  C   UNL     1      24.169  -8.704   7.703  1.00  0.00    -0.010 CG0
ATOM     11  C   UNL     1      25.493  -8.655   8.500  1.00  0.00     0.016 C 
ATOM     12  C   UNL     1      24.519  -8.901   6.210  1.00  0.00     0.016 C 
ATOM     13  G   UNL     1      23.345  -7.404   7.836  1.00  0.00     0.000 G0
ENDBRANCH   9  10
ENDBRANCH   3   8
TORSDOF 0
ENDMDL
MODEL 4
REMARK VINA RESULT:    -3.064      1.668      2.294
REMARK INTER + INTRA:          -3.033
REMARK INTER:                  -3.790
REMARK INTRA:                   0.756
REMARK UNBOUND:                 0.747
REMARK SMILES CC1=CC=CC(C)(C)CC1=O
REMARK SMILES IDX 1 1 2 2 3 3 10 4 11 5 9 6 4 8 5 9 6 10 7 11 8 12
REMARK H PARENT
REMARK Flexibility Score: 80.00
ROOT
ATOM      1  C   UNL     1      22.565  -2.250   8.450  1.00  0.00     0.048 C 
ATOM      2  C   UNL     1      23.521  -3.333   8.010  1.00  0.00    -0.008 C 
ATOM      3  C   UNL     1      24.477  -3.000   7.116  1.00  0.00     0.007 C 
ENDROOT
BRANCH   2   4
ATOM      4  C   UNL     1      23.284  -4.699   8.541  1.00  0.00     0.159 C 
ATOM      5  O   UNL     1      22.210  -4.934   9.159  1.00  0.00    -0.295 OA
BRANCH   4   6
ATOM      6  C   UNL     1      24.263  -5.824   8.395  1.00  0.00     0.091 CG0
ATOM      7  G   UNL     1      24.602  -6.150   6.924  1.00  0.00     0.000 G0
ENDBRANCH   4   6
ENDBRANCH   2   4
BRANCH   3   8
ATOM      8  C   UNL     1      25.525  -3.838   6.487  1.00  0.00    -0.003 C 
ATOM      9  C   UNL     1      25.590  -5.172   6.381  1.00  0.00    -0.020 C 
BRANCH   9  10
ATOM     10  C   UNL     1      24.587  -6.164   6.920  1.00  0.00    -0.010 CG0
ATOM     11  C   UNL     1      23.334  -6.193   6.016  1.00  0.00     0.016 C 
ATOM     12  C   UNL     1      25.230  -7.569   6.888  1.00  0.00     0.016 C 
ATOM     13  G   UNL     1      24.253  -5.821   8.389  1.00  0.00     0.000 G0
ENDBRANCH   9  10
ENDBRANCH   3   8
TORSDOF 0
ENDMDL
MODEL 5
REMARK VINA RESULT:    -3.029     12.171     13.424
REMARK INTER + INTRA:          -2.990
REMARK INTER:                  -3.742
REMARK INTRA:                   0.752
REMARK UNBOUND:                 0.747
REMARK SMILES CC1=CC=CC(C)(C)CC1=O
REMARK SMILES IDX 1 1 2 2 3 3 10 4 11 5 9 6 4 8 5 9 6 10 7 11 8 12
REMARK H PARENT
REMARK Flexibility Score: 80.00
ROOT
ATOM      1  C   UNL     1      16.492  -4.961  15.710  1.00  0.00     0.048 C 
ATOM      2  C   UNL     1      15.979  -6.224  16.360  1.00  0.00    -0.008 C 
ATOM      3  C   UNL     1      14.642  -6.366  16.483  1.00  0.00     0.007 C 
ENDROOT
BRANCH   2   4
ATOM      4  C   UNL     1      16.993  -7.174  16.882  1.00  0.00     0.159 C 
ATOM      5  O   UNL     1      18.202  -6.816  16.917  1.00  0.00    -0.295 OA
BRANCH   4   6
ATOM      6  C   UNL     1      16.662  -8.554  17.364  1.00  0.00     0.091 CG0
ATOM      7  G   UNL     1      15.637  -8.567  18.520  1.00  0.00     0.000 G0
ENDBRANCH   4   6
ENDBRANCH   2   4
BRANCH   3   8
ATOM      8  C   UNL     1      13.854  -7.464  17.092  1.00  0.00    -0.003 C 
ATOM      9  C   UNL     1      14.246  -8.404  17.962  1.00  0.00    -0.020 C 
BRANCH   9  10
ATOM     10  C   UNL     1      15.637  -8.582  18.523  1.00  0.00    -0.010 CG0
ATOM     11  C   UNL     1      15.909  -7.516  19.609  1.00  0.00     0.016 C 
ATOM     12  C   UNL     1      15.716  -9.973  19.192  1.00  0.00     0.016 C 
ATOM     13  G   UNL     1      16.671  -8.540  17.376  1.00  0.00     0.000 G0
ENDBRANCH   9  10
ENDBRANCH   3   8
TORSDOF 0
ENDMDL
MODEL 6
REMARK VINA RESULT:    -2.927     13.065     14.291
REMARK INTER + INTRA:          -2.864
REMARK INTER:                  -3.614
REMARK INTRA:                   0.750
REMARK UNBOUND:                 0.747
REMARK SMILES CC1=CC=CC(C)(C)CC1=O
REMARK SMILES IDX 1 1 2 2 3 3 10 4 11 5 9 6 4 8 5 9 6 10 7 11 8 12
REMARK H PARENT
REMARK Flexibility Score: 80.00
ROOT
ATOM      1  C   UNL     1      14.218  -5.466  22.147  1.00  0.00     0.048 C 
ATOM      2  C   UNL     1      14.785  -5.146  20.784  1.00  0.00    -0.008 C 
ATOM      3  C   UNL     1      14.604  -3.895  20.309  1.00  0.00     0.007 C 
ENDROOT
BRANCH   2   4
ATOM      4  C   UNL     1      15.431  -6.258  20.043  1.00  0.00     0.159 C 
ATOM      5  O   UNL     1      15.317  -7.433  20.488  1.00  0.00    -0.295 OA
BRANCH   4   6
ATOM      6  C   UNL     1      16.230  -6.063  18.791  1.00  0.00     0.091 CG0
ATOM      7  G   UNL     1      15.425  -5.400  17.651  1.00  0.00     0.000 G0
ENDBRANCH   4   6
ENDBRANCH   2   4
BRANCH   3   8
ATOM      8  C   UNL     1      15.016  -3.300  19.015  1.00  0.00    -0.003 C 
ATOM      9  C   UNL     1      15.361  -3.913  17.875  1.00  0.00    -0.020 C 
BRANCH   9  10
ATOM     10  C   UNL     1      15.437  -5.404  17.646  1.00  0.00    -0.010 CG0
ATOM     11  C   UNL     1      14.016  -5.987  17.479  1.00  0.00     0.016 C 
ATOM     12  C   UNL     1      16.212  -5.653  16.332  1.00  0.00     0.016 C 
ATOM     13  G   UNL     1      16.222  -6.068  18.799  1.00  0.00     0.000 G0
ENDBRANCH   9  10
ENDBRANCH   3   8
TORSDOF 0
ENDMDL
MODEL 7
REMARK VINA RESULT:    -2.916     12.791     14.057
REMARK INTER + INTRA:          -2.850
REMARK INTER:                  -3.608
REMARK INTRA:                   0.757
REMARK UNBOUND:                 0.747
REMARK SMILES CC1=CC=CC(C)(C)CC1=O
REMARK SMILES IDX 1 1 2 2 3 3 10 4 11 5 9 6 4 8 5 9 6 10 7 11 8 12
REMARK H PARENT
REMARK Flexibility Score: 80.00
ROOT
ATOM      1  C   UNL     1      16.440  -4.743  16.056  1.00  0.00     0.048 C 
ATOM      2  C   UNL     1      15.578  -5.499  17.039  1.00  0.00    -0.008 C 
ATOM      3  C   UNL     1      15.829  -5.325  18.354  1.00  0.00     0.007 C 
ENDROOT
BRANCH   2   4
ATOM      4  C   UNL     1      14.573  -6.434  16.476  1.00  0.00     0.159 C 
ATOM      5  O   UNL     1      14.607  -6.694  15.241  1.00  0.00    -0.295 OA
BRANCH   4   6
ATOM      6  C   UNL     1      13.499  -7.084  17.294  1.00  0.00     0.091 CG0
ATOM      7  G   UNL     1      14.051  -7.952  18.446  1.00  0.00     0.000 G0
ENDBRANCH   4   6
ENDBRANCH   2   4
BRANCH   3   8
ATOM      8  C   UNL     1      15.181  -5.941  19.536  1.00  0.00    -0.003 C 
ATOM      9  C   UNL     1      14.434  -7.051  19.607  1.00  0.00    -0.020 C 
BRANCH   9  10
ATOM     10  C   UNL     1      14.047  -7.948  18.455  1.00  0.00    -0.010 CG0
ATOM     11  C   UNL     1      15.251  -8.823  18.039  1.00  0.00     0.016 C 
ATOM     12  C   UNL     1      12.916  -8.887  18.931  1.00  0.00     0.016 C 
ATOM     13  G   UNL     1      13.503  -7.092  17.290  1.00  0.00     0.000 G0
ENDBRANCH   9  10
ENDBRANCH   3   8
TORSDOF 0
ENDMDL
MODEL 8
REMARK VINA RESULT:    -2.910     13.314     14.405
REMARK INTER + INTRA:          -2.844
REMARK INTER:                  -3.594
REMARK INTRA:                   0.750
REMARK UNBOUND:                 0.747
REMARK SMILES CC1=CC=CC(C)(C)CC1=O
REMARK SMILES IDX 1 1 2 2 3 3 10 4 11 5 9 6 4 8 5 9 6 10 7 11 8 12
REMARK H PARENT
REMARK Flexibility Score: 80.00
ROOT
ATOM      1  C   UNL     1      14.359  -3.657  20.308  1.00  0.00     0.048 C 
ATOM      2  C   UNL     1      14.863  -4.827  19.497  1.00  0.00    -0.008 C 
ATOM      3  C   UNL     1      15.224  -4.593  18.217  1.00  0.00     0.007 C 
ENDROOT
BRANCH   2   4
ATOM      4  C   UNL     1      14.851  -6.159  20.152  1.00  0.00     0.159 C 
ATOM      5  O   UNL     1      14.252  -6.289  21.255  1.00  0.00    -0.295 OA
BRANCH   4   6
ATOM      6  C   UNL     1      15.526  -7.368  19.580  1.00  0.00     0.091 CG0
ATOM      7  G   UNL     1      15.005  -7.751  18.177  1.00  0.00     0.000 G0
ENDBRANCH   4   6
ENDBRANCH   2   4
BRANCH   3   8
ATOM      8  C   UNL     1      15.723  -5.529  17.182  1.00  0.00    -0.003 C 
ATOM      9  C   UNL     1      15.634  -6.865  17.138  1.00  0.00    -0.020 C 
BRANCH   9  10
ATOM     10  C   UNL     1      15.007  -7.757  18.182  1.00  0.00    -0.010 CG0
ATOM     11  C   UNL     1      13.466  -7.699  18.070  1.00  0.00     0.016 C 
ATOM     12  C   UNL     1      15.450  -9.212  17.907  1.00  0.00     0.016 C 
ATOM     13  G   UNL     1      15.517  -7.356  19.584  1.00  0.00     0.000 G0
ENDBRANCH   9  10
ENDBRANCH   3   8
TORSDOF 0
ENDMDL
MODEL 9
REMARK VINA RESULT:    -2.818     12.493     13.528
REMARK INTER + INTRA:          -2.730
REMARK INTER:                  -3.490
REMARK INTRA:                   0.759
REMARK UNBOUND:                 0.747
REMARK SMILES CC1=CC=CC(C)(C)CC1=O
REMARK SMILES IDX 1 1 2 2 3 3 10 4 11 5 9 6 4 8 5 9 6 10 7 11 8 12
REMARK H PARENT
REMARK Flexibility Score: 80.00
ROOT
ATOM      1  C   UNL     1      14.173  -4.260  18.654  1.00  0.00     0.048 C 
ATOM      2  C   UNL     1      15.207  -5.321  18.361  1.00  0.00    -0.008 C 
ATOM      3  C   UNL     1      15.764  -5.329  17.130  1.00  0.00     0.007 C 
ENDROOT
BRANCH   2   4
ATOM      4  C   UNL     1      15.473  -6.319  19.426  1.00  0.00     0.159 C 
ATOM      5  O   UNL     1      14.705  -6.360  20.427  1.00  0.00    -0.295 OA
BRANCH   4   6
ATOM      6  C   UNL     1      16.620  -7.282  19.390  1.00  0.00     0.091 CG0
ATOM      7  G   UNL     1      16.600  -8.208  18.153  1.00  0.00     0.000 G0
ENDBRANCH   4   6
ENDBRANCH   2   4
BRANCH   3   8
ATOM      8  C   UNL     1      16.770  -6.248  16.547  1.00  0.00    -0.003 C 
ATOM      9  C   UNL     1      17.134  -7.471  16.954  1.00  0.00    -0.020 C 
BRANCH   9  10
ATOM     10  C   UNL     1      16.602  -8.211  18.159  1.00  0.00    -0.010 CG0
ATOM     11  C   UNL     1      15.195  -8.774  17.855  1.00  0.00     0.016 C 
ATOM     12  C   UNL     1      17.540  -9.403  18.449  1.00  0.00     0.016 C 
ATOM     13  G   UNL     1      16.615  -7.277  19.390  1.00  0.00     0.000 G0
ENDBRANCH   9  10
ENDBRANCH   3   8
TORSDOF 0
ENDMDL
