MODEL 1
REMARK VINA RESULT:    -4.290      0.000      0.000
REMARK INTER + INTRA:          -5.098
REMARK INTER:                  -4.917
REMARK INTRA:                  -0.182
REMARK UNBOUND:                -0.182
REMARK SMILES CC=Cc1ccc(O)c(OC)c1
REMARK SMILES IDX 4 1 12 2 9 3 7 4 6 5 5 6 3 7 1 8 2 9 10 10 11 11 8 12
REMARK H PARENT 8 13
REMARK Flexibility Score: inf
ROOT
ATOM      1  C   UNL     1     163.997 165.605 168.448  1.00  0.00    -0.022 A 
ATOM      2  C   UNL     1     162.911 164.879 168.977  1.00  0.00     0.058 A 
ATOM      3  C   UNL     1     161.805 164.548 168.166  1.00  0.00     0.161 A 
ATOM      4  C   UNL     1     161.789 164.956 166.826  1.00  0.00     0.157 A 
ATOM      5  C   UNL     1     162.859 165.691 166.302  1.00  0.00     0.051 A 
ATOM      6  C   UNL     1     163.951 166.018 167.108  1.00  0.00     0.012 A 
ENDROOT
BRANCH   1   7
ATOM      7  C   UNL     1     165.177 165.984 169.264  1.00  0.00     0.003 C 
ATOM      8  C   UNL     1     167.572 166.059 169.839  1.00  0.00     0.035 C 
ATOM      9  C   UNL     1     166.432 165.624 168.974  1.00  0.00    -0.030 C 
ENDBRANCH   1   7
BRANCH   3  10
ATOM     10  O   UNL     1     160.708 163.822 168.657  1.00  0.00    -0.493 OA
ATOM     11  C   UNL     1     160.724 162.426 168.938  1.00  0.00     0.278 C 
ENDBRANCH   3  10
BRANCH   4  12
ATOM     12  O   UNL     1     160.700 164.628 166.020  1.00  0.00    -0.504 OA
ATOM     13  H   UNL     1     160.592 165.018 165.091  1.00  0.00     0.293 HD
ENDBRANCH   4  12
TORSDOF 3
ENDMDL
MODEL 2
REMARK VINA RESULT:    -4.275      4.697      6.898
REMARK INTER + INTRA:          -5.082
REMARK INTER:                  -4.901
REMARK INTRA:                  -0.181
REMARK UNBOUND:                -0.182
REMARK SMILES CC=Cc1ccc(O)c(OC)c1
REMARK SMILES IDX 4 1 12 2 9 3 7 4 6 5 5 6 3 7 1 8 2 9 10 10 11 11 8 12
REMARK H PARENT 8 13
REMARK Flexibility Score: inf
ROOT
ATOM      1  C   UNL     1     167.213 165.617 168.439  1.00  0.00    -0.022 A 
ATOM      2  C   UNL     1     168.288 166.361 168.964  1.00  0.00     0.058 A 
ATOM      3  C   UNL     1     169.396 166.691 168.157  1.00  0.00     0.161 A 
ATOM      4  C   UNL     1     169.425 166.265 166.822  1.00  0.00     0.157 A 
ATOM      5  C   UNL     1     168.366 165.512 166.302  1.00  0.00     0.051 A 
ATOM      6  C   UNL     1     167.272 165.187 167.105  1.00  0.00     0.012 A 
ENDROOT
BRANCH   1   7
ATOM      7  C   UNL     1     166.030 165.239 169.253  1.00  0.00     0.003 C 
ATOM      8  C   UNL     1     163.639 165.199 169.845  1.00  0.00     0.035 C 
ATOM      9  C   UNL     1     164.782 165.636 168.985  1.00  0.00    -0.030 C 
ENDBRANCH   1   7
BRANCH   3  10
ATOM     10  O   UNL     1     170.483 167.434 168.644  1.00  0.00    -0.493 OA
ATOM     11  C   UNL     1     170.472 168.844 168.847  1.00  0.00     0.278 C 
ENDBRANCH   3  10
BRANCH   4  12
ATOM     12  O   UNL     1     170.516 166.592 166.019  1.00  0.00    -0.504 OA
ATOM     13  H   UNL     1     171.322 167.079 166.393  1.00  0.00     0.293 HD
ENDBRANCH   4  12
TORSDOF 3
ENDMDL
MODEL 3
REMARK VINA RESULT:    -4.055      4.531      6.832
REMARK INTER + INTRA:          -4.829
REMARK INTER:                  -4.685
REMARK INTRA:                  -0.144
REMARK UNBOUND:                -0.182
REMARK SMILES CC=Cc1ccc(O)c(OC)c1
REMARK SMILES IDX 4 1 12 2 9 3 7 4 6 5 5 6 3 7 1 8 2 9 10 10 11 11 8 12
REMARK H PARENT 8 13
REMARK Flexibility Score: inf
ROOT
ATOM      1  C   UNL     1     167.287 166.032 169.063  1.00  0.00    -0.022 A 
ATOM      2  C   UNL     1     167.722 165.788 167.745  1.00  0.00     0.058 A 
ATOM      3  C   UNL     1     169.002 166.200 167.323  1.00  0.00     0.161 A 
ATOM      4  C   UNL     1     169.841 166.867 168.225  1.00  0.00     0.157 A 
ATOM      5  C   UNL     1     169.406 167.127 169.530  1.00  0.00     0.051 A 
ATOM      6  C   UNL     1     168.138 166.717 169.944  1.00  0.00     0.012 A 
ENDROOT
BRANCH   1   7
ATOM      7  C   UNL     1     165.945 165.624 169.550  1.00  0.00     0.003 C 
ATOM      8  C   UNL     1     163.564 165.035 169.321  1.00  0.00     0.035 C 
ATOM      9  C   UNL     1     164.880 165.464 168.756  1.00  0.00    -0.030 C 
ENDBRANCH   1   7
BRANCH   3  10
ATOM     10  O   UNL     1     169.471 165.970 166.020  1.00  0.00    -0.493 OA
ATOM     11  C   UNL     1     168.663 165.520 164.938  1.00  0.00     0.278 C 
ENDBRANCH   3  10
BRANCH   4  12
ATOM     12  O   UNL     1     171.109 167.275 167.814  1.00  0.00    -0.504 OA
ATOM     13  H   UNL     1     171.781 167.659 168.468  1.00  0.00     0.293 HD
ENDBRANCH   4  12
TORSDOF 3
ENDMDL
MODEL 4
REMARK VINA RESULT:    -3.926      1.073      2.584
REMARK INTER + INTRA:          -4.682
REMARK INTER:                  -4.538
REMARK INTRA:                  -0.144
REMARK UNBOUND:                -0.182
REMARK SMILES CC=Cc1ccc(O)c(OC)c1
REMARK SMILES IDX 4 1 12 2 9 3 7 4 6 5 5 6 3 7 1 8 2 9 10 10 11 11 8 12
REMARK H PARENT 8 13
REMARK Flexibility Score: inf
ROOT
ATOM      1  C   UNL     1     163.543 164.935 169.378  1.00  0.00    -0.022 A 
ATOM      2  C   UNL     1     163.042 165.138 168.077  1.00  0.00     0.058 A 
ATOM      3  C   UNL     1     161.735 164.730 167.738  1.00  0.00     0.161 A 
ATOM      4  C   UNL     1     160.936 164.109 168.707  1.00  0.00     0.157 A 
ATOM      5  C   UNL     1     161.437 163.890 169.996  1.00  0.00     0.051 A 
ATOM      6  C   UNL     1     162.731 164.295 170.327  1.00  0.00     0.012 A 
ENDROOT
BRANCH   1   7
ATOM      7  C   UNL     1     164.914 165.340 169.779  1.00  0.00     0.003 C 
ATOM      8  C   UNL     1     167.241 166.050 169.394  1.00  0.00     0.035 C 
ATOM      9  C   UNL     1     165.888 165.635 168.911  1.00  0.00    -0.030 C 
ENDBRANCH   1   7
BRANCH   3  10
ATOM     10  O   UNL     1     161.201 164.921 166.454  1.00  0.00    -0.493 OA
ATOM     11  C   UNL     1     161.914 165.482 165.357  1.00  0.00     0.278 C 
ENDBRANCH   3  10
BRANCH   4  12
ATOM     12  O   UNL     1     159.643 163.706 168.377  1.00  0.00    -0.504 OA
ATOM     13  H   UNL     1     158.917 164.379 168.162  1.00  0.00     0.293 HD
ENDBRANCH   4  12
TORSDOF 3
ENDMDL
MODEL 5
REMARK VINA RESULT:    -3.823      1.459      1.819
REMARK INTER + INTRA:          -4.563
REMARK INTER:                  -4.401
REMARK INTRA:                  -0.162
REMARK UNBOUND:                -0.182
REMARK SMILES CC=Cc1ccc(O)c(OC)c1
REMARK SMILES IDX 4 1 12 2 9 3 7 4 6 5 5 6 3 7 1 8 2 9 10 10 11 11 8 12
REMARK H PARENT 8 13
REMARK Flexibility Score: inf
ROOT
ATOM      1  C   UNL     1     163.571 165.243 168.636  1.00  0.00    -0.022 A 
ATOM      2  C   UNL     1     163.023 164.605 169.766  1.00  0.00     0.058 A 
ATOM      3  C   UNL     1     161.740 164.022 169.711  1.00  0.00     0.161 A 
ATOM      4  C   UNL     1     161.006 164.089 168.520  1.00  0.00     0.157 A 
ATOM      5  C   UNL     1     161.540 164.737 167.400  1.00  0.00     0.051 A 
ATOM      6  C   UNL     1     162.810 165.314 167.459  1.00  0.00     0.012 A 
ENDROOT
BRANCH   1   7
ATOM      7  C   UNL     1     164.912 165.878 168.649  1.00  0.00     0.003 C 
ATOM      8  C   UNL     1     167.337 165.981 169.073  1.00  0.00     0.035 C 
ATOM      9  C   UNL     1     166.017 165.279 169.108  1.00  0.00    -0.030 C 
ENDBRANCH   1   7
BRANCH   3  10
ATOM     10  O   UNL     1     161.164 163.373 170.815  1.00  0.00    -0.493 OA
ATOM     11  C   UNL     1     160.511 164.037 171.892  1.00  0.00     0.278 C 
ENDBRANCH   3  10
BRANCH   4  12
ATOM     12  O   UNL     1     159.738 163.512 168.459  1.00  0.00    -0.504 OA
ATOM     13  H   UNL     1     159.551 162.600 168.861  1.00  0.00     0.293 HD
ENDBRANCH   4  12
TORSDOF 3
ENDMDL
MODEL 6
REMARK VINA RESULT:    -3.798      4.846      7.262
REMARK INTER + INTRA:          -4.534
REMARK INTER:                  -4.379
REMARK INTRA:                  -0.155
REMARK UNBOUND:                -0.182
REMARK SMILES CC=Cc1ccc(O)c(OC)c1
REMARK SMILES IDX 4 1 12 2 9 3 7 4 6 5 5 6 3 7 1 8 2 9 10 10 11 11 8 12
REMARK H PARENT 8 13
REMARK Flexibility Score: inf
ROOT
ATOM      1  C   UNL     1     167.506 166.001 168.985  1.00  0.00    -0.022 A 
ATOM      2  C   UNL     1     168.190 166.732 169.976  1.00  0.00     0.058 A 
ATOM      3  C   UNL     1     169.464 167.277 169.716  1.00  0.00     0.161 A 
ATOM      4  C   UNL     1     170.053 167.078 168.460  1.00  0.00     0.157 A 
ATOM      5  C   UNL     1     169.384 166.337 167.479  1.00  0.00     0.051 A 
ATOM      6  C   UNL     1     168.123 165.799 167.741  1.00  0.00     0.012 A 
ENDROOT
BRANCH   1   7
ATOM      7  C   UNL     1     166.167 165.401 169.216  1.00  0.00     0.003 C 
ATOM      8  C   UNL     1     163.718 165.241 169.002  1.00  0.00     0.035 C 
ATOM      9  C   UNL     1     165.028 165.913 168.738  1.00  0.00    -0.030 C 
ENDBRANCH   1   7
BRANCH   3  10
ATOM     10  O   UNL     1     170.173 168.016 170.676  1.00  0.00    -0.493 OA
ATOM     11  C   UNL     1     169.695 168.309 171.985  1.00  0.00     0.278 C 
ENDBRANCH   3  10
BRANCH   4  12
ATOM     12  O   UNL     1     171.311 167.617 168.197  1.00  0.00    -0.504 OA
ATOM     13  H   UNL     1     171.917 167.938 168.943  1.00  0.00     0.293 HD
ENDBRANCH   4  12
TORSDOF 3
ENDMDL
MODEL 7
REMARK VINA RESULT:    -3.792      8.360      9.574
REMARK INTER + INTRA:          -4.528
REMARK INTER:                  -4.361
REMARK INTRA:                  -0.167
REMARK UNBOUND:                -0.182
REMARK SMILES CC=Cc1ccc(O)c(OC)c1
REMARK SMILES IDX 4 1 12 2 9 3 7 4 6 5 5 6 3 7 1 8 2 9 10 10 11 11 8 12
REMARK H PARENT 8 13
REMARK Flexibility Score: inf
ROOT
ATOM      1  C   UNL     1     161.415 172.940 168.922  1.00  0.00    -0.022 A 
ATOM      2  C   UNL     1     161.508 174.052 168.062  1.00  0.00     0.058 A 
ATOM      3  C   UNL     1     162.558 174.151 167.126  1.00  0.00     0.161 A 
ATOM      4  C   UNL     1     163.521 173.135 167.064  1.00  0.00     0.157 A 
ATOM      5  C   UNL     1     163.441 172.037 167.930  1.00  0.00     0.051 A 
ATOM      6  C   UNL     1     162.400 171.944 168.854  1.00  0.00     0.012 A 
ENDROOT
BRANCH   1   7
ATOM      7  C   UNL     1     160.332 172.797 169.928  1.00  0.00     0.003 C 
ATOM      8  C   UNL     1     158.192 171.953 170.810  1.00  0.00     0.035 C 
ATOM      9  C   UNL     1     159.232 172.059 169.741  1.00  0.00    -0.030 C 
ENDBRANCH   1   7
BRANCH   3  10
ATOM     10  O   UNL     1     162.680 175.240 166.249  1.00  0.00    -0.493 OA
ATOM     11  C   UNL     1     161.713 175.600 165.268  1.00  0.00     0.278 C 
ENDBRANCH   3  10
BRANCH   4  12
ATOM     12  O   UNL     1     164.560 173.226 166.140  1.00  0.00    -0.504 OA
ATOM     13  H   UNL     1     164.586 172.642 165.312  1.00  0.00     0.293 HD
ENDBRANCH   4  12
TORSDOF 3
ENDMDL
MODEL 8
REMARK VINA RESULT:    -3.770      8.470      9.536
REMARK INTER + INTRA:          -4.503
REMARK INTER:                  -4.324
REMARK INTRA:                  -0.179
REMARK UNBOUND:                -0.182
REMARK SMILES CC=Cc1ccc(O)c(OC)c1
REMARK SMILES IDX 4 1 12 2 9 3 7 4 6 5 5 6 3 7 1 8 2 9 10 10 11 11 8 12
REMARK H PARENT 8 13
REMARK Flexibility Score: inf
ROOT
ATOM      1  C   UNL     1     162.695 173.053 168.279  1.00  0.00    -0.022 A 
ATOM      2  C   UNL     1     163.349 173.605 167.159  1.00  0.00     0.058 A 
ATOM      3  C   UNL     1     162.746 174.636 166.410  1.00  0.00     0.161 A 
ATOM      4  C   UNL     1     161.479 175.104 166.782  1.00  0.00     0.157 A 
ATOM      5  C   UNL     1     160.818 174.547 167.883  1.00  0.00     0.051 A 
ATOM      6  C   UNL     1     161.419 173.526 168.622  1.00  0.00     0.012 A 
ENDROOT
BRANCH   1   7
ATOM      7  C   UNL     1     163.286 171.961 169.092  1.00  0.00     0.003 C 
ATOM      8  C   UNL     1     163.294 170.217 170.831  1.00  0.00     0.035 C 
ATOM      9  C   UNL     1     162.633 171.318 170.066  1.00  0.00    -0.030 C 
ENDBRANCH   1   7
BRANCH   3  10
ATOM     10  O   UNL     1     163.370 175.213 165.293  1.00  0.00    -0.493 OA
ATOM     11  C   UNL     1     164.741 175.038 164.953  1.00  0.00     0.278 C 
ENDBRANCH   3  10
BRANCH   4  12
ATOM     12  O   UNL     1     160.879 176.125 166.046  1.00  0.00    -0.504 OA
ATOM     13  H   UNL     1     160.419 175.942 165.162  1.00  0.00     0.293 HD
ENDBRANCH   4  12
TORSDOF 3
ENDMDL
MODEL 9
REMARK VINA RESULT:    -3.748      9.642     10.908
REMARK INTER + INTRA:          -4.478
REMARK INTER:                  -4.313
REMARK INTRA:                  -0.165
REMARK UNBOUND:                -0.182
REMARK SMILES CC=Cc1ccc(O)c(OC)c1
REMARK SMILES IDX 4 1 12 2 9 3 7 4 6 5 5 6 3 7 1 8 2 9 10 10 11 11 8 12
REMARK H PARENT 8 13
REMARK Flexibility Score: inf
ROOT
ATOM      1  C   UNL     1     160.974 175.414 166.048  1.00  0.00    -0.022 A 
ATOM      2  C   UNL     1     161.488 174.631 167.101  1.00  0.00     0.058 A 
ATOM      3  C   UNL     1     162.841 174.234 167.106  1.00  0.00     0.161 A 
ATOM      4  C   UNL     1     163.674 174.617 166.046  1.00  0.00     0.157 A 
ATOM      5  C   UNL     1     163.162 175.380 164.990  1.00  0.00     0.051 A 
ATOM      6  C   UNL     1     161.822 175.771 164.989  1.00  0.00     0.012 A 
ENDROOT
BRANCH   1   7
ATOM      7  C   UNL     1     159.555 175.848 165.995  1.00  0.00     0.003 C 
ATOM      8  C   UNL     1     157.160 175.746 166.562  1.00  0.00     0.035 C 
ATOM      9  C   UNL     1     158.563 175.238 166.655  1.00  0.00    -0.030 C 
ENDBRANCH   1   7
BRANCH   3  10
ATOM     10  O   UNL     1     163.390 173.459 168.140  1.00  0.00    -0.493 OA
ATOM     11  C   UNL     1     163.217 172.052 168.275  1.00  0.00     0.278 C 
ENDBRANCH   3  10
BRANCH   4  12
ATOM     12  O   UNL     1     165.013 174.230 166.048  1.00  0.00    -0.504 OA
ATOM     13  H   UNL     1     165.718 174.756 165.545  1.00  0.00     0.293 HD
ENDBRANCH   4  12
TORSDOF 3
ENDMDL
