MODEL 1
REMARK VINA RESULT:    -7.391      0.000      0.000
REMARK INTER + INTRA:         -12.291
REMARK INTER:                 -10.848
REMARK INTRA:                  -1.443
REMARK UNBOUND:                -1.443
REMARK SMILES O=c1c(O[C@@H]2O[C@H](CO)[C@@H](O)[C@@H](O)[C@H]2O)c(-c2ccc(O)c(O)c2)oc2cc(O)cc(O)c12
REMARK SMILES IDX 4 1 3 2 16 3 25 4 2 5 26 6 1 7 33 8 27 9 31 10 28 11 30 12
REMARK SMILES IDX 17 13 18 14 19 15 20 16 24 17 22 18 21 19 23 21 32 23 29 25
REMARK SMILES IDX 5 27 14 28 6 29 12 30 7 31 10 32 15 33 13 35 8 37 9 38 11 40
REMARK H PARENT 21 20 23 22 32 24 29 26 15 34 13 36 9 39 11 41
REMARK Flexibility Score: inf
ROOT
ATOM      1  O   UNL     1      15.199  16.483  11.720  1.00  0.00    -0.454 OA
ENDROOT
BRANCH   1   2
ATOM      2  C   UNL     1      15.823  15.653  12.665  1.00  0.00     0.214 A 
ATOM      3  C   UNL     1      16.666  14.636  12.185  1.00  0.00     0.180 A 
ATOM      4  O   UNL     1      17.307  13.845  13.035  1.00  0.00    -0.452 OA
ATOM      5  C   UNL     1      15.663  15.795  14.061  1.00  0.00     0.239 A 
ATOM      6  C   UNL     1      17.204  13.953  14.354  1.00  0.00     0.146 A 
ATOM      7  O   UNL     1      14.839  16.635  14.505  1.00  0.00    -0.285 OA
ATOM      8  C   UNL     1      16.402  14.965  14.941  1.00  0.00     0.111 A 
ATOM      9  C   UNL     1      17.896  13.039  15.153  1.00  0.00     0.094 A 
ATOM     10  C   UNL     1      16.374  15.065  16.367  1.00  0.00     0.134 A 
ATOM     11  C   UNL     1      17.824  13.120  16.541  1.00  0.00     0.123 A 
ATOM     12  C   UNL     1      17.068  14.126  17.138  1.00  0.00     0.093 A 
BRANCH   3  13
ATOM     13  C   UNL     1      16.893  14.442  10.734  1.00  0.00     0.025 A 
ATOM     14  C   UNL     1      16.259  13.407  10.026  1.00  0.00     0.016 A 
ATOM     15  C   UNL     1      16.422  13.294   8.645  1.00  0.00     0.051 A 
ATOM     16  C   UNL     1      17.214  14.210   7.945  1.00  0.00     0.157 A 
ATOM     17  C   UNL     1      17.733  15.328  10.040  1.00  0.00     0.062 A 
ATOM     18  C   UNL     1      17.886  15.236   8.652  1.00  0.00     0.158 A 
BRANCH  16  19
ATOM     19  O   UNL     1      17.302  14.067   6.560  1.00  0.00    -0.504 OA
ATOM     20  H   UNL     1      17.405  14.839   5.918  1.00  0.00     0.293 HD
ENDBRANCH  16  19
BRANCH  18  21
ATOM     21  O   UNL     1      18.703  16.176   8.021  1.00  0.00    -0.504 OA
ATOM     22  H   UNL     1      18.357  17.003   7.557  1.00  0.00     0.293 HD
ENDBRANCH  18  21
ENDBRANCH   3  13
BRANCH  10  23
ATOM     23  O   UNL     1      15.714  16.081  17.069  1.00  0.00    -0.507 OA
ATOM     24  H   UNL     1      15.985  17.051  17.074  1.00  0.00     0.293 HD
ENDBRANCH  10  23
BRANCH  11  25
ATOM     25  O   UNL     1      18.511  12.207  17.342  1.00  0.00    -0.508 OA
ATOM     26  H   UNL     1      18.019  11.582  17.971  1.00  0.00     0.293 HD
ENDBRANCH  11  25
ENDBRANCH   1   2
BRANCH   1  27
ATOM     27  C   UNL     1      13.890  16.364  11.165  1.00  0.00     0.339 C 
ATOM     28  C   UNL     1      13.200  17.715  11.382  1.00  0.00     0.214 C 
ATOM     29  O   UNL     1      14.005  16.050   9.784  1.00  0.00    -0.332 OA
ATOM     30  C   UNL     1      11.740  17.669  10.875  1.00  0.00     0.180 C 
ATOM     31  C   UNL     1      12.833  16.285   8.996  1.00  0.00     0.179 C 
ATOM     32  C   UNL     1      11.524  16.587   9.790  1.00  0.00     0.177 C 
BRANCH  28  33
ATOM     33  O   UNL     1      13.257  18.064  12.745  1.00  0.00    -0.384 OA
ATOM     34  H   UNL     1      12.579  17.508  13.209  1.00  0.00     0.211 HD
ENDBRANCH  28  33
BRANCH  30  35
ATOM     35  O   UNL     1      10.814  17.523  11.927  1.00  0.00    -0.387 OA
ATOM     36  H   UNL     1      11.264  17.042  12.668  1.00  0.00     0.211 HD
ENDBRANCH  30  35
BRANCH  31  37
ATOM     37  C   UNL     1      13.145  17.378   7.961  1.00  0.00     0.191 C 
BRANCH  37  38
ATOM     38  O   UNL     1      14.231  16.994   7.165  1.00  0.00    -0.394 OA
ATOM     39  H   UNL     1      14.159  16.009   7.056  1.00  0.00     0.210 HD
ENDBRANCH  37  38
ENDBRANCH  31  37
BRANCH  32  40
ATOM     40  O   UNL     1      11.054  15.394  10.368  1.00  0.00    -0.387 OA
ATOM     41  H   UNL     1      10.069  15.383  10.256  1.00  0.00     0.211 HD
ENDBRANCH  32  40
ENDBRANCH   1  27
TORSDOF 12
ENDMDL
MODEL 2
REMARK VINA RESULT:    -7.308      1.065      2.024
REMARK INTER + INTRA:         -12.169
REMARK INTER:                 -10.899
REMARK INTRA:                  -1.270
REMARK UNBOUND:                -1.443
REMARK SMILES O=c1c(O[C@@H]2O[C@H](CO)[C@@H](O)[C@@H](O)[C@H]2O)c(-c2ccc(O)c(O)c2)oc2cc(O)cc(O)c12
REMARK SMILES IDX 4 1 3 2 16 3 25 4 2 5 26 6 1 7 33 8 27 9 31 10 28 11 30 12
REMARK SMILES IDX 17 13 18 14 19 15 20 16 24 17 22 18 21 19 23 21 32 23 29 25
REMARK SMILES IDX 5 27 14 28 6 29 12 30 7 31 10 32 15 33 13 35 8 37 9 38 11 40
REMARK H PARENT 21 20 23 22 32 24 29 26 15 34 13 36 9 39 11 41
REMARK Flexibility Score: inf
ROOT
ATOM      1  O   UNL     1      15.380  16.902  11.242  1.00  0.00    -0.454 OA
ENDROOT
BRANCH   1   2
ATOM      2  C   UNL     1      15.779  16.029  12.268  1.00  0.00     0.214 A 
ATOM      3  C   UNL     1      16.483  14.869  11.901  1.00  0.00     0.180 A 
ATOM      4  O   UNL     1      16.913  14.029  12.831  1.00  0.00    -0.452 OA
ATOM      5  C   UNL     1      15.527  16.261  13.638  1.00  0.00     0.239 A 
ATOM      6  C   UNL     1      16.717  14.214  14.132  1.00  0.00     0.146 A 
ATOM      7  O   UNL     1      14.816  17.243  13.976  1.00  0.00    -0.285 OA
ATOM      8  C   UNL     1      16.044  15.368  14.609  1.00  0.00     0.111 A 
ATOM      9  C   UNL     1      17.182  13.241  15.020  1.00  0.00     0.094 A 
ATOM     10  C   UNL     1      15.912  15.540  16.022  1.00  0.00     0.134 A 
ATOM     11  C   UNL     1      17.008  13.400  16.393  1.00  0.00     0.123 A 
ATOM     12  C   UNL     1      16.377  14.540  16.884  1.00  0.00     0.093 A 
BRANCH   3  13
ATOM     13  C   UNL     1      16.797  14.572  10.484  1.00  0.00     0.025 A 
ATOM     14  C   UNL     1      16.117  13.563   9.779  1.00  0.00     0.016 A 
ATOM     15  C   UNL     1      16.371  13.357   8.423  1.00  0.00     0.051 A 
ATOM     16  C   UNL     1      17.300  14.152   7.744  1.00  0.00     0.157 A 
ATOM     17  C   UNL     1      17.770  15.333   9.816  1.00  0.00     0.062 A 
ATOM     18  C   UNL     1      18.016  15.149   8.451  1.00  0.00     0.158 A 
BRANCH  16  19
ATOM     19  O   UNL     1      17.476  13.923   6.379  1.00  0.00    -0.504 OA
ATOM     20  H   UNL     1      17.891  14.588   5.743  1.00  0.00     0.293 HD
ENDBRANCH  16  19
BRANCH  18  21
ATOM     21  O   UNL     1      18.967  15.969   7.841  1.00  0.00    -0.504 OA
ATOM     22  H   UNL     1      19.827  15.629   7.435  1.00  0.00     0.293 HD
ENDBRANCH  18  21
ENDBRANCH   3  13
BRANCH  10  23
ATOM     23  O   UNL     1      15.369  16.679  16.626  1.00  0.00    -0.507 OA
ATOM     24  H   UNL     1      14.780  16.676  17.443  1.00  0.00     0.293 HD
ENDBRANCH  10  23
BRANCH  11  25
ATOM     25  O   UNL     1      17.466  12.428  17.284  1.00  0.00    -0.508 OA
ATOM     26  H   UNL     1      17.096  11.484  17.272  1.00  0.00     0.293 HD
ENDBRANCH  11  25
ENDBRANCH   1   2
BRANCH   1  27
ATOM     27  C   UNL     1      14.084  17.059  10.668  1.00  0.00     0.339 C 
ATOM     28  C   UNL     1      14.205  16.648   9.197  1.00  0.00     0.214 C 
ATOM     29  O   UNL     1      13.168  16.228  11.370  1.00  0.00    -0.332 OA
ATOM     30  C   UNL     1      12.860  16.849   8.462  1.00  0.00     0.180 C 
ATOM     31  C   UNL     1      11.936  15.956  10.695  1.00  0.00     0.179 C 
ATOM     32  C   UNL     1      11.648  16.813   9.424  1.00  0.00     0.177 C 
BRANCH  28  33
ATOM     33  O   UNL     1      15.237  17.382   8.582  1.00  0.00    -0.384 OA
ATOM     34  H   UNL     1      15.928  17.538   9.277  1.00  0.00     0.211 HD
ENDBRANCH  28  33
BRANCH  30  35
ATOM     35  O   UNL     1      12.849  18.021   7.679  1.00  0.00    -0.387 OA
ATOM     36  H   UNL     1      13.441  18.687   8.115  1.00  0.00     0.211 HD
ENDBRANCH  30  35
BRANCH  31  37
ATOM     37  C   UNL     1      11.855  14.448  10.405  1.00  0.00     0.191 C 
BRANCH  37  38
ATOM     38  O   UNL     1      11.776  13.728  11.603  1.00  0.00    -0.394 OA
ATOM     39  H   UNL     1      11.874  12.770  11.356  1.00  0.00     0.210 HD
ENDBRANCH  37  38
ENDBRANCH  31  37
BRANCH  32  40
ATOM     40  O   UNL     1      11.293  18.115   9.821  1.00  0.00    -0.387 OA
ATOM     41  H   UNL     1      11.858  18.346  10.603  1.00  0.00     0.211 HD
ENDBRANCH  32  40
ENDBRANCH   1  27
TORSDOF 12
ENDMDL
MODEL 3
REMARK VINA RESULT:    -7.045      1.123      1.595
REMARK INTER + INTRA:         -11.783
REMARK INTER:                 -10.394
REMARK INTRA:                  -1.389
REMARK UNBOUND:                -1.443
REMARK SMILES O=c1c(O[C@@H]2O[C@H](CO)[C@@H](O)[C@@H](O)[C@H]2O)c(-c2ccc(O)c(O)c2)oc2cc(O)cc(O)c12
REMARK SMILES IDX 4 1 3 2 16 3 25 4 2 5 26 6 1 7 33 8 27 9 31 10 28 11 30 12
REMARK SMILES IDX 17 13 18 14 19 15 20 16 24 17 22 18 21 19 23 21 32 23 29 25
REMARK SMILES IDX 5 27 14 28 6 29 12 30 7 31 10 32 15 33 13 35 8 37 9 38 11 40
REMARK H PARENT 21 20 23 22 32 24 29 26 15 34 13 36 9 39 11 41
REMARK Flexibility Score: inf
ROOT
ATOM      1  O   UNL     1      15.348  16.223  12.366  1.00  0.00    -0.454 OA
ENDROOT
BRANCH   1   2
ATOM      2  C   UNL     1      15.944  15.361  13.301  1.00  0.00     0.214 A 
ATOM      3  C   UNL     1      16.627  14.235  12.808  1.00  0.00     0.180 A 
ATOM      4  O   UNL     1      17.236  13.406  13.644  1.00  0.00    -0.452 OA
ATOM      5  C   UNL     1      15.908  15.571  14.697  1.00  0.00     0.239 A 
ATOM      6  C   UNL     1      17.247  13.574  14.962  1.00  0.00     0.146 A 
ATOM      7  O   UNL     1      15.222  16.518  15.160  1.00  0.00    -0.285 OA
ATOM      8  C   UNL     1      16.613  14.693  15.558  1.00  0.00     0.111 A 
ATOM      9  C   UNL     1      17.890  12.615  15.749  1.00  0.00     0.094 A 
ATOM     10  C   UNL     1      16.705  14.848  16.976  1.00  0.00     0.134 A 
ATOM     11  C   UNL     1      17.934  12.755  17.134  1.00  0.00     0.123 A 
ATOM     12  C   UNL     1      17.345  13.863  17.737  1.00  0.00     0.093 A 
BRANCH   3  13
ATOM     13  C   UNL     1      16.719  13.963  11.354  1.00  0.00     0.025 A 
ATOM     14  C   UNL     1      17.629  14.655  10.537  1.00  0.00     0.016 A 
ATOM     15  C   UNL     1      17.757  14.324   9.187  1.00  0.00     0.051 A 
ATOM     16  C   UNL     1      16.987  13.298   8.630  1.00  0.00     0.157 A 
ATOM     17  C   UNL     1      15.907  12.971  10.783  1.00  0.00     0.062 A 
ATOM     18  C   UNL     1      16.043  12.617   9.436  1.00  0.00     0.158 A 
BRANCH  16  19
ATOM     19  O   UNL     1      17.194  12.988   7.286  1.00  0.00    -0.504 OA
ATOM     20  H   UNL     1      17.485  12.081   6.953  1.00  0.00     0.293 HD
ENDBRANCH  16  19
BRANCH  18  21
ATOM     21  O   UNL     1      15.232  11.593   8.944  1.00  0.00    -0.504 OA
ATOM     22  H   UNL     1      15.227  10.652   9.311  1.00  0.00     0.293 HD
ENDBRANCH  18  21
ENDBRANCH   3  13
BRANCH  10  23
ATOM     23  O   UNL     1      16.221  15.959  17.677  1.00  0.00    -0.507 OA
ATOM     24  H   UNL     1      16.468  16.199  18.624  1.00  0.00     0.293 HD
ENDBRANCH  10  23
BRANCH  11  25
ATOM     25  O   UNL     1      18.571  11.797  17.925  1.00  0.00    -0.508 OA
ATOM     26  H   UNL     1      18.481  10.807  17.729  1.00  0.00     0.293 HD
ENDBRANCH  11  25
ENDBRANCH   1   2
BRANCH   1  27
ATOM     27  C   UNL     1      14.013  16.198  11.866  1.00  0.00     0.339 C 
ATOM     28  C   UNL     1      13.480  17.631  11.978  1.00  0.00     0.214 C 
ATOM     29  O   UNL     1      14.037  15.752  10.516  1.00  0.00    -0.332 OA
ATOM     30  C   UNL     1      12.003  17.700  11.523  1.00  0.00     0.180 C 
ATOM     31  C   UNL     1      12.865  16.043   9.748  1.00  0.00     0.179 C 
ATOM     32  C   UNL     1      11.629  16.556  10.551  1.00  0.00     0.177 C 
BRANCH  28  33
ATOM     33  O   UNL     1      13.629  18.091  13.300  1.00  0.00    -0.384 OA
ATOM     34  H   UNL     1      12.974  18.828  13.420  1.00  0.00     0.211 HD
ENDBRANCH  28  33
BRANCH  30  35
ATOM     35  O   UNL     1      11.111  17.750  12.613  1.00  0.00    -0.387 OA
ATOM     36  H   UNL     1      10.187  17.770  12.251  1.00  0.00     0.211 HD
ENDBRANCH  30  35
BRANCH  31  37
ATOM     37  C   UNL     1      13.248  16.999   8.606  1.00  0.00     0.191 C 
BRANCH  37  38
ATOM     38  O   UNL     1      12.124  17.714   8.176  1.00  0.00    -0.394 OA
ATOM     39  H   UNL     1      12.369  18.112   7.299  1.00  0.00     0.210 HD
ENDBRANCH  37  38
ENDBRANCH  31  37
BRANCH  32  40
ATOM     40  O   UNL     1      11.060  15.477  11.251  1.00  0.00    -0.387 OA
ATOM     41  H   UNL     1      11.289  15.597  12.209  1.00  0.00     0.211 HD
ENDBRANCH  32  40
ENDBRANCH   1  27
TORSDOF 12
ENDMDL
MODEL 4
REMARK VINA RESULT:    -6.820      1.495      4.910
REMARK INTER + INTRA:         -11.453
REMARK INTER:                 -10.169
REMARK INTRA:                  -1.284
REMARK UNBOUND:                -1.443
REMARK SMILES O=c1c(O[C@@H]2O[C@H](CO)[C@@H](O)[C@@H](O)[C@H]2O)c(-c2ccc(O)c(O)c2)oc2cc(O)cc(O)c12
REMARK SMILES IDX 4 1 3 2 16 3 25 4 2 5 26 6 1 7 33 8 27 9 31 10 28 11 30 12
REMARK SMILES IDX 17 13 18 14 19 15 20 16 24 17 22 18 21 19 23 21 32 23 29 25
REMARK SMILES IDX 5 27 14 28 6 29 12 30 7 31 10 32 15 33 13 35 8 37 9 38 11 40
REMARK H PARENT 21 20 23 22 32 24 29 26 15 34 13 36 9 39 11 41
REMARK Flexibility Score: inf
ROOT
ATOM      1  O   UNL     1      15.777  14.676  10.886  1.00  0.00    -0.454 OA
ENDROOT
BRANCH   1   2
ATOM      2  C   UNL     1      16.007  14.619  12.271  1.00  0.00     0.214 A 
ATOM      3  C   UNL     1      15.099  15.285  13.112  1.00  0.00     0.180 A 
ATOM      4  O   UNL     1      15.249  15.236  14.428  1.00  0.00    -0.452 OA
ATOM      5  C   UNL     1      17.083  13.919  12.859  1.00  0.00     0.239 A 
ATOM      6  C   UNL     1      16.233  14.575  15.027  1.00  0.00     0.146 A 
ATOM      7  O   UNL     1      17.958  13.399  12.120  1.00  0.00    -0.285 OA
ATOM      8  C   UNL     1      17.185  13.845  14.271  1.00  0.00     0.111 A 
ATOM      9  C   UNL     1      16.314  14.624  16.421  1.00  0.00     0.094 A 
ATOM     10  C   UNL     1      18.188  13.109  14.975  1.00  0.00     0.134 A 
ATOM     11  C   UNL     1      17.324  13.938  17.092  1.00  0.00     0.123 A 
ATOM     12  C   UNL     1      18.251  13.189  16.370  1.00  0.00     0.093 A 
BRANCH   3  13
ATOM     13  C   UNL     1      13.937  16.024  12.563  1.00  0.00     0.025 A 
ATOM     14  C   UNL     1      13.907  17.429  12.541  1.00  0.00     0.016 A 
ATOM     15  C   UNL     1      12.840  18.102  11.944  1.00  0.00     0.051 A 
ATOM     16  C   UNL     1      11.790  17.391  11.356  1.00  0.00     0.157 A 
ATOM     17  C   UNL     1      12.856  15.310  12.022  1.00  0.00     0.062 A 
ATOM     18  C   UNL     1      11.793  15.976  11.402  1.00  0.00     0.158 A 
BRANCH  16  19
ATOM     19  O   UNL     1      10.775  18.123  10.738  1.00  0.00    -0.504 OA
ATOM     20  H   UNL     1       9.903  17.725  10.423  1.00  0.00     0.293 HD
ENDBRANCH  16  19
BRANCH  18  21
ATOM     21  O   UNL     1      10.771  15.202  10.848  1.00  0.00    -0.504 OA
ATOM     22  H   UNL     1      10.682  15.008   9.861  1.00  0.00     0.293 HD
ENDBRANCH  18  21
ENDBRANCH   3  13
BRANCH  10  23
ATOM     23  O   UNL     1      19.118  12.263  14.358  1.00  0.00    -0.507 OA
ATOM     24  H   UNL     1      19.787  11.687  14.844  1.00  0.00     0.293 HD
ENDBRANCH  10  23
BRANCH  11  25
ATOM     25  O   UNL     1      17.412  13.987  18.484  1.00  0.00    -0.508 OA
ATOM     26  H   UNL     1      16.593  13.869  19.069  1.00  0.00     0.293 HD
ENDBRANCH  11  25
ENDBRANCH   1   2
BRANCH   1  27
ATOM     27  C   UNL     1      16.303  15.604   9.940  1.00  0.00     0.339 C 
ATOM     28  C   UNL     1      16.611  14.804   8.670  1.00  0.00     0.214 C 
ATOM     29  O   UNL     1      15.333  16.615   9.701  1.00  0.00    -0.332 OA
ATOM     30  C   UNL     1      17.256  15.711   7.597  1.00  0.00     0.180 C 
ATOM     31  C   UNL     1      15.523  17.385   8.509  1.00  0.00     0.179 C 
ATOM     32  C   UNL     1      16.894  17.204   7.788  1.00  0.00     0.177 C 
BRANCH  28  33
ATOM     33  O   UNL     1      17.444  13.714   8.985  1.00  0.00    -0.384 OA
ATOM     34  H   UNL     1      17.120  12.944   8.449  1.00  0.00     0.211 HD
ENDBRANCH  28  33
BRANCH  30  35
ATOM     35  O   UNL     1      18.652  15.535   7.518  1.00  0.00    -0.387 OA
ATOM     36  H   UNL     1      19.027  15.646   8.430  1.00  0.00     0.211 HD
ENDBRANCH  30  35
BRANCH  31  37
ATOM     37  C   UNL     1      14.336  17.134   7.565  1.00  0.00     0.191 C 
BRANCH  37  38
ATOM     38  O   UNL     1      13.183  17.754   8.060  1.00  0.00    -0.394 OA
ATOM     39  H   UNL     1      12.487  17.046   8.107  1.00  0.00     0.210 HD
ENDBRANCH  37  38
ENDBRANCH  31  37
BRANCH  32  40
ATOM     40  O   UNL     1      17.891  17.864   8.529  1.00  0.00    -0.387 OA
ATOM     41  H   UNL     1      18.038  17.337   9.356  1.00  0.00     0.211 HD
ENDBRANCH  32  40
ENDBRANCH   1  27
TORSDOF 12
ENDMDL
MODEL 5
REMARK VINA RESULT:    -6.803      3.015      5.814
REMARK INTER + INTRA:         -11.427
REMARK INTER:                 -10.033
REMARK INTRA:                  -1.394
REMARK UNBOUND:                -1.443
REMARK SMILES O=c1c(O[C@@H]2O[C@H](CO)[C@@H](O)[C@@H](O)[C@H]2O)c(-c2ccc(O)c(O)c2)oc2cc(O)cc(O)c12
REMARK SMILES IDX 4 1 3 2 16 3 25 4 2 5 26 6 1 7 33 8 27 9 31 10 28 11 30 12
REMARK SMILES IDX 17 13 18 14 19 15 20 16 24 17 22 18 21 19 23 21 32 23 29 25
REMARK SMILES IDX 5 27 14 28 6 29 12 30 7 31 10 32 15 33 13 35 8 37 9 38 11 40
REMARK H PARENT 21 20 23 22 32 24 29 26 15 34 13 36 9 39 11 41
REMARK Flexibility Score: inf
ROOT
ATOM      1  O   UNL     1      14.405  14.164  11.137  1.00  0.00    -0.454 OA
ENDROOT
BRANCH   1   2
ATOM      2  C   UNL     1      14.765  13.239  10.143  1.00  0.00     0.214 A 
ATOM      3  C   UNL     1      16.032  13.380   9.549  1.00  0.00     0.180 A 
ATOM      4  O   UNL     1      16.437  12.515   8.631  1.00  0.00    -0.452 OA
ATOM      5  C   UNL     1      13.938  12.174   9.724  1.00  0.00     0.239 A 
ATOM      6  C   UNL     1      15.703  11.487   8.219  1.00  0.00     0.146 A 
ATOM      7  O   UNL     1      12.767  12.090  10.175  1.00  0.00    -0.285 OA
ATOM      8  C   UNL     1      14.422  11.239   8.777  1.00  0.00     0.111 A 
ATOM      9  C   UNL     1      16.217  10.661   7.217  1.00  0.00     0.094 A 
ATOM     10  C   UNL     1      13.703  10.086   8.333  1.00  0.00     0.134 A 
ATOM     11  C   UNL     1      15.486   9.566   6.762  1.00  0.00     0.123 A 
ATOM     12  C   UNL     1      14.240   9.286   7.318  1.00  0.00     0.093 A 
BRANCH   3  13
ATOM     13  C   UNL     1      16.958  14.464   9.953  1.00  0.00     0.025 A 
ATOM     14  C   UNL     1      17.702  14.384  11.144  1.00  0.00     0.016 A 
ATOM     15  C   UNL     1      18.629  15.377  11.462  1.00  0.00     0.051 A 
ATOM     16  C   UNL     1      18.836  16.460  10.603  1.00  0.00     0.157 A 
ATOM     17  C   UNL     1      17.125  15.579   9.118  1.00  0.00     0.062 A 
ATOM     18  C   UNL     1      18.068  16.569   9.418  1.00  0.00     0.158 A 
BRANCH  16  19
ATOM     19  O   UNL     1      19.808  17.396  10.958  1.00  0.00    -0.504 OA
ATOM     20  H   UNL     1      19.604  18.340  11.251  1.00  0.00     0.293 HD
ENDBRANCH  16  19
BRANCH  18  21
ATOM     21  O   UNL     1      18.210  17.630   8.522  1.00  0.00    -0.504 OA
ATOM     22  H   UNL     1      17.499  17.909   7.861  1.00  0.00     0.293 HD
ENDBRANCH  18  21
ENDBRANCH   3  13
BRANCH  10  23
ATOM     23  O   UNL     1      12.483   9.665   8.877  1.00  0.00    -0.507 OA
ATOM     24  H   UNL     1      12.137   9.921   9.787  1.00  0.00     0.293 HD
ENDBRANCH  10  23
BRANCH  11  25
ATOM     25  O   UNL     1      15.993   8.741   5.757  1.00  0.00    -0.508 OA
ATOM     26  H   UNL     1      15.802   8.922   4.778  1.00  0.00     0.293 HD
ENDBRANCH  11  25
ENDBRANCH   1   2
BRANCH   1  27
ATOM     27  C   UNL     1      13.630  15.353  10.999  1.00  0.00     0.339 C 
ATOM     28  C   UNL     1      12.496  15.255  12.025  1.00  0.00     0.214 C 
ATOM     29  O   UNL     1      14.465  16.476  11.246  1.00  0.00    -0.332 OA
ATOM     30  C   UNL     1      11.548  16.472  11.909  1.00  0.00     0.180 C 
ATOM     31  C   UNL     1      13.784  17.700  11.541  1.00  0.00     0.179 C 
ATOM     32  C   UNL     1      12.245  17.706  11.287  1.00  0.00     0.177 C 
BRANCH  28  33
ATOM     33  O   UNL     1      11.797  14.046  11.848  1.00  0.00    -0.384 OA
ATOM     34  H   UNL     1      10.831  14.276  11.827  1.00  0.00     0.211 HD
ENDBRANCH  28  33
BRANCH  30  35
ATOM     35  O   UNL     1      10.360  16.160  11.218  1.00  0.00    -0.387 OA
ATOM     36  H   UNL     1       9.603  16.573  11.710  1.00  0.00     0.211 HD
ENDBRANCH  30  35
BRANCH  31  37
ATOM     37  C   UNL     1      14.133  18.125  12.977  1.00  0.00     0.191 C 
BRANCH  37  38
ATOM     38  O   UNL     1      14.702  17.052  13.674  1.00  0.00    -0.394 OA
ATOM     39  H   UNL     1      15.652  17.300  13.833  1.00  0.00     0.210 HD
ENDBRANCH  37  38
ENDBRANCH  31  37
BRANCH  32  40
ATOM     40  O   UNL     1      12.011  17.760   9.901  1.00  0.00    -0.387 OA
ATOM     41  H   UNL     1      12.037  16.828   9.563  1.00  0.00     0.211 HD
ENDBRANCH  32  40
ENDBRANCH   1  27
TORSDOF 12
ENDMDL
MODEL 6
REMARK VINA RESULT:    -6.737      4.327      4.977
REMARK INTER + INTRA:         -11.331
REMARK INTER:                  -9.969
REMARK INTRA:                  -1.362
REMARK UNBOUND:                -1.443
REMARK SMILES O=c1c(O[C@@H]2O[C@H](CO)[C@@H](O)[C@@H](O)[C@H]2O)c(-c2ccc(O)c(O)c2)oc2cc(O)cc(O)c12
REMARK SMILES IDX 4 1 3 2 16 3 25 4 2 5 26 6 1 7 33 8 27 9 31 10 28 11 30 12
REMARK SMILES IDX 17 13 18 14 19 15 20 16 24 17 22 18 21 19 23 21 32 23 29 25
REMARK SMILES IDX 5 27 14 28 6 29 12 30 7 31 10 32 15 33 13 35 8 37 9 38 11 40
REMARK H PARENT 21 20 23 22 32 24 29 26 15 34 13 36 9 39 11 41
REMARK Flexibility Score: inf
ROOT
ATOM      1  O   UNL     1      13.443  13.094  10.595  1.00  0.00    -0.454 OA
ENDROOT
BRANCH   1   2
ATOM      2  C   UNL     1      13.426  11.955  11.418  1.00  0.00     0.214 A 
ATOM      3  C   UNL     1      13.059  10.732  10.831  1.00  0.00     0.180 A 
ATOM      4  O   UNL     1      13.059   9.620  11.553  1.00  0.00    -0.452 OA
ATOM      5  C   UNL     1      13.771  11.971  12.787  1.00  0.00     0.239 A 
ATOM      6  C   UNL     1      13.394   9.581  12.837  1.00  0.00     0.146 A 
ATOM      7  O   UNL     1      14.008  13.070  13.350  1.00  0.00    -0.285 OA
ATOM      8  C   UNL     1      13.809  10.756  13.516  1.00  0.00     0.111 A 
ATOM      9  C   UNL     1      13.321   8.358  13.508  1.00  0.00     0.094 A 
ATOM     10  C   UNL     1      14.210  10.642  14.883  1.00  0.00     0.134 A 
ATOM     11  C   UNL     1      13.672   8.270  14.852  1.00  0.00     0.123 A 
ATOM     12  C   UNL     1      14.112   9.405  15.530  1.00  0.00     0.093 A 
BRANCH   3  13
ATOM     13  C   UNL     1      12.702  10.640   9.395  1.00  0.00     0.025 A 
ATOM     14  C   UNL     1      11.390  10.881   8.951  1.00  0.00     0.016 A 
ATOM     15  C   UNL     1      11.096  10.871   7.587  1.00  0.00     0.051 A 
ATOM     16  C   UNL     1      12.099  10.625   6.644  1.00  0.00     0.157 A 
ATOM     17  C   UNL     1      13.698  10.338   8.452  1.00  0.00     0.062 A 
ATOM     18  C   UNL     1      13.416  10.347   7.082  1.00  0.00     0.158 A 
BRANCH  16  19
ATOM     19  O   UNL     1      11.747  10.671   5.295  1.00  0.00    -0.504 OA
ATOM     20  H   UNL     1      11.449   9.869   4.760  1.00  0.00     0.293 HD
ENDBRANCH  16  19
BRANCH  18  21
ATOM     21  O   UNL     1      14.463  10.079   6.198  1.00  0.00    -0.504 OA
ATOM     22  H   UNL     1      14.332   9.800   5.236  1.00  0.00     0.293 HD
ENDBRANCH  18  21
ENDBRANCH   3  13
BRANCH  10  23
ATOM     23  O   UNL     1      14.742  11.696  15.635  1.00  0.00    -0.507 OA
ATOM     24  H   UNL     1      14.803  11.716  16.640  1.00  0.00     0.293 HD
ENDBRANCH  10  23
BRANCH  11  25
ATOM     25  O   UNL     1      13.596   7.051  15.528  1.00  0.00    -0.508 OA
ATOM     26  H   UNL     1      13.213   6.989  16.464  1.00  0.00     0.293 HD
ENDBRANCH  11  25
ENDBRANCH   1   2
BRANCH   1  27
ATOM     27  C   UNL     1      12.585  14.231  10.642  1.00  0.00     0.339 C 
ATOM     28  C   UNL     1      13.494  15.459  10.765  1.00  0.00     0.214 C 
ATOM     29  O   UNL     1      11.809  14.271   9.451  1.00  0.00    -0.332 OA
ATOM     30  C   UNL     1      12.653  16.750  10.895  1.00  0.00     0.180 C 
ATOM     31  C   UNL     1      11.200  15.531   9.151  1.00  0.00     0.179 C 
ATOM     32  C   UNL     1      11.238  16.598  10.288  1.00  0.00     0.177 C 
BRANCH  28  33
ATOM     33  O   UNL     1      14.360  15.301  11.864  1.00  0.00    -0.384 OA
ATOM     34  H   UNL     1      14.651  16.211  12.130  1.00  0.00     0.211 HD
ENDBRANCH  28  33
BRANCH  30  35
ATOM     35  O   UNL     1      12.586  17.212  12.225  1.00  0.00    -0.387 OA
ATOM     36  H   UNL     1      12.404  18.187  12.202  1.00  0.00     0.211 HD
ENDBRANCH  30  35
BRANCH  31  37
ATOM     37  C   UNL     1      11.796  16.065   7.838  1.00  0.00     0.191 C 
BRANCH  37  38
ATOM     38  O   UNL     1      11.053  15.602   6.745  1.00  0.00    -0.394 OA
ATOM     39  H   UNL     1      10.875  14.640   6.920  1.00  0.00     0.210 HD
ENDBRANCH  37  38
ENDBRANCH  31  37
BRANCH  32  40
ATOM     40  O   UNL     1      10.309  16.240  11.282  1.00  0.00    -0.387 OA
ATOM     41  H   UNL     1      10.759  15.591  11.882  1.00  0.00     0.211 HD
ENDBRANCH  32  40
ENDBRANCH   1  27
TORSDOF 12
ENDMDL
MODEL 7
REMARK VINA RESULT:    -6.616      2.070      2.719
REMARK INTER + INTRA:         -11.154
REMARK INTER:                  -9.824
REMARK INTRA:                  -1.330
REMARK UNBOUND:                -1.443
REMARK SMILES O=c1c(O[C@@H]2O[C@H](CO)[C@@H](O)[C@@H](O)[C@H]2O)c(-c2ccc(O)c(O)c2)oc2cc(O)cc(O)c12
REMARK SMILES IDX 4 1 3 2 16 3 25 4 2 5 26 6 1 7 33 8 27 9 31 10 28 11 30 12
REMARK SMILES IDX 17 13 18 14 19 15 20 16 24 17 22 18 21 19 23 21 32 23 29 25
REMARK SMILES IDX 5 27 14 28 6 29 12 30 7 31 10 32 15 33 13 35 8 37 9 38 11 40
REMARK H PARENT 21 20 23 22 32 24 29 26 15 34 13 36 9 39 11 41
REMARK Flexibility Score: inf
ROOT
ATOM      1  O   UNL     1      15.038  15.295  12.218  1.00  0.00    -0.454 OA
ENDROOT
BRANCH   1   2
ATOM      2  C   UNL     1      15.395  14.427  13.263  1.00  0.00     0.214 A 
ATOM      3  C   UNL     1      15.412  13.048  12.989  1.00  0.00     0.180 A 
ATOM      4  O   UNL     1      15.775  12.187  13.929  1.00  0.00    -0.452 OA
ATOM      5  C   UNL     1      15.751  14.862  14.558  1.00  0.00     0.239 A 
ATOM      6  C   UNL     1      16.136  12.550  15.154  1.00  0.00     0.146 A 
ATOM      7  O   UNL     1      15.649  16.082  14.848  1.00  0.00    -0.285 OA
ATOM      8  C   UNL     1      16.181  13.918  15.524  1.00  0.00     0.111 A 
ATOM      9  C   UNL     1      16.462  11.551  16.075  1.00  0.00     0.094 A 
ATOM     10  C   UNL     1      16.631  14.250  16.839  1.00  0.00     0.134 A 
ATOM     11  C   UNL     1      16.856  11.886  17.369  1.00  0.00     0.123 A 
ATOM     12  C   UNL     1      16.937  13.226  17.742  1.00  0.00     0.093 A 
BRANCH   3  13
ATOM     13  C   UNL     1      15.068  12.523  11.647  1.00  0.00     0.025 A 
ATOM     14  C   UNL     1      16.000  12.536  10.595  1.00  0.00     0.016 A 
ATOM     15  C   UNL     1      15.681  11.961   9.364  1.00  0.00     0.051 A 
ATOM     16  C   UNL     1      14.435  11.361   9.161  1.00  0.00     0.157 A 
ATOM     17  C   UNL     1      13.797  11.970  11.426  1.00  0.00     0.062 A 
ATOM     18  C   UNL     1      13.476  11.372  10.202  1.00  0.00     0.158 A 
BRANCH  16  19
ATOM     19  O   UNL     1      14.194  10.766   7.922  1.00  0.00    -0.504 OA
ATOM     20  H   UNL     1      13.622  11.176   7.199  1.00  0.00     0.293 HD
ENDBRANCH  16  19
BRANCH  18  21
ATOM     21  O   UNL     1      12.207  10.804  10.065  1.00  0.00    -0.504 OA
ATOM     22  H   UNL     1      11.572  11.020   9.310  1.00  0.00     0.293 HD
ENDBRANCH  18  21
ENDBRANCH   3  13
BRANCH  10  23
ATOM     23  O   UNL     1      16.827  15.559  17.295  1.00  0.00    -0.507 OA
ATOM     24  H   UNL     1      16.093  16.190  17.575  1.00  0.00     0.293 HD
ENDBRANCH  10  23
BRANCH  11  25
ATOM     25  O   UNL     1      17.178  10.892  18.293  1.00  0.00    -0.508 OA
ATOM     26  H   UNL     1      17.072   9.909  18.070  1.00  0.00     0.293 HD
ENDBRANCH  11  25
ENDBRANCH   1   2
BRANCH   1  27
ATOM     27  C   UNL     1      13.732  15.672  11.790  1.00  0.00     0.339 C 
ATOM     28  C   UNL     1      13.640  17.192  11.959  1.00  0.00     0.214 C 
ATOM     29  O   UNL     1      13.565  15.286  10.432  1.00  0.00    -0.332 OA
ATOM     30  C   UNL     1      12.227  17.699  11.586  1.00  0.00     0.180 C 
ATOM     31  C   UNL     1      12.493  15.927   9.733  1.00  0.00     0.179 C 
ATOM     32  C   UNL     1      11.495  16.745  10.611  1.00  0.00     0.177 C 
BRANCH  28  33
ATOM     33  O   UNL     1      13.974  17.544  13.280  1.00  0.00    -0.384 OA
ATOM     34  H   UNL     1      14.029  16.698  13.795  1.00  0.00     0.211 HD
ENDBRANCH  28  33
BRANCH  30  35
ATOM     35  O   UNL     1      11.437  17.964  12.722  1.00  0.00    -0.387 OA
ATOM     36  H   UNL     1      10.557  18.301  12.411  1.00  0.00     0.211 HD
ENDBRANCH  30  35
BRANCH  31  37
ATOM     37  C   UNL     1      13.084  16.772   8.593  1.00  0.00     0.191 C 
BRANCH  37  38
ATOM     38  O   UNL     1      12.263  16.699   7.461  1.00  0.00    -0.394 OA
ATOM     39  H   UNL     1      12.864  16.492   6.697  1.00  0.00     0.210 HD
ENDBRANCH  37  38
ENDBRANCH  31  37
BRANCH  32  40
ATOM     40  O   UNL     1      10.671  15.851  11.318  1.00  0.00    -0.387 OA
ATOM     41  H   UNL     1      10.682  16.134  12.269  1.00  0.00     0.211 HD
ENDBRANCH  32  40
ENDBRANCH   1  27
TORSDOF 12
ENDMDL
MODEL 8
REMARK VINA RESULT:    -6.608      3.054      5.531
REMARK INTER + INTRA:         -11.141
REMARK INTER:                  -9.732
REMARK INTRA:                  -1.409
REMARK UNBOUND:                -1.443
REMARK SMILES O=c1c(O[C@@H]2O[C@H](CO)[C@@H](O)[C@@H](O)[C@H]2O)c(-c2ccc(O)c(O)c2)oc2cc(O)cc(O)c12
REMARK SMILES IDX 4 1 3 2 16 3 25 4 2 5 26 6 1 7 33 8 27 9 31 10 28 11 30 12
REMARK SMILES IDX 17 13 18 14 19 15 20 16 24 17 22 18 21 19 23 21 32 23 29 25
REMARK SMILES IDX 5 27 14 28 6 29 12 30 7 31 10 32 15 33 13 35 8 37 9 38 11 40
REMARK H PARENT 21 20 23 22 32 24 29 26 15 34 13 36 9 39 11 41
REMARK Flexibility Score: inf
ROOT
ATOM      1  O   UNL     1      15.642  14.239  11.091  1.00  0.00    -0.454 OA
ENDROOT
BRANCH   1   2
ATOM      2  C   UNL     1      15.020  13.382  12.015  1.00  0.00     0.214 A 
ATOM      3  C   UNL     1      13.640  13.543  12.227  1.00  0.00     0.180 A 
ATOM      4  O   UNL     1      12.996  12.739  13.062  1.00  0.00    -0.452 OA
ATOM      5  C   UNL     1      15.698  12.366  12.722  1.00  0.00     0.239 A 
ATOM      6  C   UNL     1      13.587  11.758  13.734  1.00  0.00     0.146 A 
ATOM      7  O   UNL     1      16.948  12.270  12.617  1.00  0.00    -0.285 OA
ATOM      8  C   UNL     1      14.970  11.493  13.568  1.00  0.00     0.111 A 
ATOM      9  C   UNL     1      12.815  10.997  14.616  1.00  0.00     0.094 A 
ATOM     10  C   UNL     1      15.538  10.388  14.277  1.00  0.00     0.134 A 
ATOM     11  C   UNL     1      13.391   9.952  15.334  1.00  0.00     0.123 A 
ATOM     12  C   UNL     1      14.741   9.655  15.163  1.00  0.00     0.093 A 
BRANCH   3  13
ATOM     13  C   UNL     1      12.862  14.578  11.505  1.00  0.00     0.025 A 
ATOM     14  C   UNL     1      12.526  14.426  10.149  1.00  0.00     0.016 A 
ATOM     15  C   UNL     1      11.724  15.373   9.512  1.00  0.00     0.051 A 
ATOM     16  C   UNL     1      11.239  16.482  10.213  1.00  0.00     0.157 A 
ATOM     17  C   UNL     1      12.422  15.719  12.194  1.00  0.00     0.062 A 
ATOM     18  C   UNL     1      11.598  16.662  11.570  1.00  0.00     0.158 A 
BRANCH  16  19
ATOM     19  O   UNL     1      10.406  17.369   9.530  1.00  0.00    -0.504 OA
ATOM     20  H   UNL     1      10.287  18.339   9.780  1.00  0.00     0.293 HD
ENDBRANCH  16  19
BRANCH  18  21
ATOM     21  O   UNL     1      11.163  17.752  12.327  1.00  0.00    -0.504 OA
ATOM     22  H   UNL     1      10.925  17.699  13.307  1.00  0.00     0.293 HD
ENDBRANCH  18  21
ENDBRANCH   3  13
BRANCH  10  23
ATOM     23  O   UNL     1      16.859   9.952  14.121  1.00  0.00    -0.507 OA
ATOM     24  H   UNL     1      17.477  10.233  13.377  1.00  0.00     0.293 HD
ENDBRANCH  10  23
BRANCH  11  25
ATOM     25  O   UNL     1      12.626   9.193  16.220  1.00  0.00    -0.508 OA
ATOM     26  H   UNL     1      11.675   8.920  15.997  1.00  0.00     0.293 HD
ENDBRANCH  11  25
ENDBRANCH   1   2
BRANCH   1  27
ATOM     27  C   UNL     1      16.329  15.463  11.345  1.00  0.00     0.339 C 
ATOM     28  C   UNL     1      15.693  16.517  10.432  1.00  0.00     0.214 C 
ATOM     29  O   UNL     1      16.176  15.799  12.718  1.00  0.00    -0.332 OA
ATOM     30  C   UNL     1      16.418  17.875  10.579  1.00  0.00     0.180 C 
ATOM     31  C   UNL     1      16.449  17.163  13.055  1.00  0.00     0.179 C 
ATOM     32  C   UNL     1      17.131  18.020  11.944  1.00  0.00     0.177 C 
BRANCH  28  33
ATOM     33  O   UNL     1      15.719  16.067   9.098  1.00  0.00    -0.384 OA
ATOM     34  H   UNL     1      15.309  16.785   8.548  1.00  0.00     0.211 HD
ENDBRANCH  28  33
BRANCH  30  35
ATOM     35  O   UNL     1      17.307  18.124   9.514  1.00  0.00    -0.387 OA
ATOM     36  H   UNL     1      16.949  18.884   8.987  1.00  0.00     0.211 HD
ENDBRANCH  30  35
BRANCH  31  37
ATOM     37  C   UNL     1      15.154  17.812  13.570  1.00  0.00     0.191 C 
BRANCH  37  38
ATOM     38  O   UNL     1      14.905  17.415  14.890  1.00  0.00    -0.394 OA
ATOM     39  H   UNL     1      15.742  16.989  15.212  1.00  0.00     0.210 HD
ENDBRANCH  37  38
ENDBRANCH  31  37
BRANCH  32  40
ATOM     40  O   UNL     1      18.482  17.640  11.840  1.00  0.00    -0.387 OA
ATOM     41  H   UNL     1      18.941  18.337  11.303  1.00  0.00     0.211 HD
ENDBRANCH  32  40
ENDBRANCH   1  27
TORSDOF 12
ENDMDL
