MODEL 1
REMARK VINA RESULT:    -4.997      0.000      0.000
REMARK INTER + INTRA:          -5.467
REMARK INTER:                  -5.436
REMARK INTRA:                  -0.031
REMARK UNBOUND:                -0.031
REMARK SMILES COc1ccccc1O
REMARK SMILES IDX 3 1 4 2 5 3 6 4 7 5 8 6 2 7 1 8 9 9
REMARK H PARENT 9 10
REMARK Flexibility Score: inf
ROOT
ATOM      1  C   UNL     1      -4.937  10.978  -6.601  1.00  0.00     0.160 A 
ATOM      2  C   UNL     1      -6.086  10.334  -7.102  1.00  0.00     0.050 A 
ATOM      3  C   UNL     1      -6.058   9.723  -8.359  1.00  0.00     0.004 A 
ATOM      4  C   UNL     1      -4.891   9.748  -9.125  1.00  0.00     0.004 A 
ATOM      5  C   UNL     1      -3.748  10.383  -8.636  1.00  0.00     0.050 A 
ATOM      6  C   UNL     1      -3.767  10.998  -7.376  1.00  0.00     0.157 A 
ENDROOT
BRANCH   1   7
ATOM      7  O   UNL     1      -4.919  11.604  -5.344  1.00  0.00    -0.493 OA
ATOM      8  C   UNL     1      -5.305  12.956  -5.113  1.00  0.00     0.278 C 
ENDBRANCH   1   7
BRANCH   6   9
ATOM      9  O   UNL     1      -2.627  11.633  -6.887  1.00  0.00    -0.504 OA
ATOM     10  H   UNL     1      -1.977  11.157  -6.272  1.00  0.00     0.293 HD
ENDBRANCH   6   9
TORSDOF 2
ENDMDL
MODEL 2
REMARK VINA RESULT:    -4.395     16.266     17.386
REMARK INTER + INTRA:          -4.812
REMARK INTER:                  -4.765
REMARK INTRA:                  -0.046
REMARK UNBOUND:                -0.031
REMARK SMILES COc1ccccc1O
REMARK SMILES IDX 3 1 4 2 5 3 6 4 7 5 8 6 2 7 1 8 9 9
REMARK H PARENT 9 10
REMARK Flexibility Score: inf
ROOT
ATOM      1  C   UNL     1       5.203  10.454   6.645  1.00  0.00     0.160 A 
ATOM      2  C   UNL     1       4.903  10.908   5.345  1.00  0.00     0.050 A 
ATOM      3  C   UNL     1       5.889  11.527   4.571  1.00  0.00     0.004 A 
ATOM      4  C   UNL     1       7.176  11.700   5.083  1.00  0.00     0.004 A 
ATOM      5  C   UNL     1       7.482  11.253   6.370  1.00  0.00     0.050 A 
ATOM      6  C   UNL     1       6.499  10.630   7.153  1.00  0.00     0.157 A 
ENDROOT
BRANCH   1   7
ATOM      7  O   UNL     1       4.244   9.826   7.458  1.00  0.00    -0.493 OA
ATOM      8  C   UNL     1       3.237  10.515   8.192  1.00  0.00     0.278 C 
ENDBRANCH   1   7
BRANCH   6   9
ATOM      9  O   UNL     1       6.804  10.183   8.438  1.00  0.00    -0.504 OA
ATOM     10  H   UNL     1       7.752   9.953   8.708  1.00  0.00     0.293 HD
ENDBRANCH   6   9
TORSDOF 2
ENDMDL
MODEL 3
REMARK VINA RESULT:    -4.279     16.789     17.961
REMARK INTER + INTRA:          -4.685
REMARK INTER:                  -4.656
REMARK INTRA:                  -0.029
REMARK UNBOUND:                -0.031
REMARK SMILES COc1ccccc1O
REMARK SMILES IDX 3 1 4 2 5 3 6 4 7 5 8 6 2 7 1 8 9 9
REMARK H PARENT 9 10
REMARK Flexibility Score: inf
ROOT
ATOM      1  C   UNL     1       7.067  10.880   6.678  1.00  0.00     0.160 A 
ATOM      2  C   UNL     1       6.880  11.341   5.360  1.00  0.00     0.050 A 
ATOM      3  C   UNL     1       5.614  11.288   4.769  1.00  0.00     0.004 A 
ATOM      4  C   UNL     1       4.529  10.775   5.481  1.00  0.00     0.004 A 
ATOM      5  C   UNL     1       4.705  10.315   6.788  1.00  0.00     0.050 A 
ATOM      6  C   UNL     1       5.971  10.366   7.389  1.00  0.00     0.157 A 
ENDROOT
BRANCH   1   7
ATOM      7  O   UNL     1       8.320  10.915   7.312  1.00  0.00    -0.493 OA
ATOM      8  C   UNL     1       9.341  11.865   7.026  1.00  0.00     0.278 C 
ENDBRANCH   1   7
BRANCH   6   9
ATOM      9  O   UNL     1       6.149   9.907   8.693  1.00  0.00    -0.504 OA
ATOM     10  H   UNL     1       6.985   9.409   8.971  1.00  0.00     0.293 HD
ENDBRANCH   6   9
TORSDOF 2
ENDMDL
MODEL 4
REMARK VINA RESULT:    -4.220     17.674     18.152
REMARK INTER + INTRA:          -4.621
REMARK INTER:                  -4.578
REMARK INTRA:                  -0.043
REMARK UNBOUND:                -0.031
REMARK SMILES COc1ccccc1O
REMARK SMILES IDX 3 1 4 2 5 3 6 4 7 5 8 6 2 7 1 8 9 9
REMARK H PARENT 9 10
REMARK Flexibility Score: inf
ROOT
ATOM      1  C   UNL     1       3.742  10.717   9.047  1.00  0.00     0.160 A 
ATOM      2  C   UNL     1       4.403  11.959   8.962  1.00  0.00     0.050 A 
ATOM      3  C   UNL     1       5.432  12.146   8.034  1.00  0.00     0.004 A 
ATOM      4  C   UNL     1       5.811  11.103   7.187  1.00  0.00     0.004 A 
ATOM      5  C   UNL     1       5.161   9.869   7.265  1.00  0.00     0.050 A 
ATOM      6  C   UNL     1       4.128   9.673   8.192  1.00  0.00     0.157 A 
ENDROOT
BRANCH   1   7
ATOM      7  O   UNL     1       2.702  10.484   9.963  1.00  0.00    -0.493 OA
ATOM      8  C   UNL     1       1.452  11.164   9.951  1.00  0.00     0.278 C 
ENDBRANCH   1   7
BRANCH   6   9
ATOM      9  O   UNL     1       3.478   8.442   8.270  1.00  0.00    -0.504 OA
ATOM     10  H   UNL     1       3.125   8.083   9.149  1.00  0.00     0.293 HD
ENDBRANCH   6   9
TORSDOF 2
ENDMDL
MODEL 5
REMARK VINA RESULT:    -4.153     16.976     18.129
REMARK INTER + INTRA:          -4.548
REMARK INTER:                  -4.503
REMARK INTRA:                  -0.044
REMARK UNBOUND:                -0.031
REMARK SMILES COc1ccccc1O
REMARK SMILES IDX 3 1 4 2 5 3 6 4 7 5 8 6 2 7 1 8 9 9
REMARK H PARENT 9 10
REMARK Flexibility Score: inf
ROOT
ATOM      1  C   UNL     1       6.189  10.672   7.115  1.00  0.00     0.160 A 
ATOM      2  C   UNL     1       7.246  10.897   8.018  1.00  0.00     0.050 A 
ATOM      3  C   UNL     1       8.532  11.171   7.543  1.00  0.00     0.004 A 
ATOM      4  C   UNL     1       8.775  11.222   6.169  1.00  0.00     0.004 A 
ATOM      5  C   UNL     1       7.733  11.000   5.266  1.00  0.00     0.050 A 
ATOM      6  C   UNL     1       6.440  10.726   5.735  1.00  0.00     0.157 A 
ENDROOT
BRANCH   1   7
ATOM      7  O   UNL     1       4.881  10.394   7.548  1.00  0.00    -0.493 OA
ATOM      8  C   UNL     1       4.425   9.108   7.955  1.00  0.00     0.278 C 
ENDBRANCH   1   7
BRANCH   6   9
ATOM      9  O   UNL     1       5.399  10.504   4.835  1.00  0.00    -0.504 OA
ATOM     10  H   UNL     1       4.520  10.096   5.130  1.00  0.00     0.293 HD
ENDBRANCH   6   9
TORSDOF 2
ENDMDL
MODEL 6
REMARK VINA RESULT:    -4.123     17.854     18.518
REMARK INTER + INTRA:          -4.515
REMARK INTER:                  -4.477
REMARK INTRA:                  -0.038
REMARK UNBOUND:                -0.031
REMARK SMILES COc1ccccc1O
REMARK SMILES IDX 3 1 4 2 5 3 6 4 7 5 8 6 2 7 1 8 9 9
REMARK H PARENT 9 10
REMARK Flexibility Score: inf
ROOT
ATOM      1  C   UNL     1       5.829  11.149   7.632  1.00  0.00     0.160 A 
ATOM      2  C   UNL     1       5.727  12.454   8.152  1.00  0.00     0.050 A 
ATOM      3  C   UNL     1       4.606  12.829   8.898  1.00  0.00     0.004 A 
ATOM      4  C   UNL     1       3.579  11.911   9.130  1.00  0.00     0.004 A 
ATOM      5  C   UNL     1       3.672  10.615   8.618  1.00  0.00     0.050 A 
ATOM      6  C   UNL     1       4.794  10.231   7.869  1.00  0.00     0.157 A 
ENDROOT
BRANCH   1   7
ATOM      7  O   UNL     1       6.937  10.728   6.877  1.00  0.00    -0.493 OA
ATOM      8  C   UNL     1       8.290  10.832   7.309  1.00  0.00     0.278 C 
ENDBRANCH   1   7
BRANCH   6   9
ATOM      9  O   UNL     1       4.887   8.938   7.358  1.00  0.00    -0.504 OA
ATOM     10  H   UNL     1       5.455   8.229   7.807  1.00  0.00     0.293 HD
ENDBRANCH   6   9
TORSDOF 2
ENDMDL
MODEL 7
REMARK VINA RESULT:    -4.102     17.583     18.348
REMARK INTER + INTRA:          -4.493
REMARK INTER:                  -4.446
REMARK INTRA:                  -0.046
REMARK UNBOUND:                -0.031
REMARK SMILES COc1ccccc1O
REMARK SMILES IDX 3 1 4 2 5 3 6 4 7 5 8 6 2 7 1 8 9 9
REMARK H PARENT 9 10
REMARK Flexibility Score: inf
ROOT
ATOM      1  C   UNL     1       4.874  11.021   8.737  1.00  0.00     0.160 A 
ATOM      2  C   UNL     1       5.211  12.381   8.887  1.00  0.00     0.050 A 
ATOM      3  C   UNL     1       5.928  13.043   7.886  1.00  0.00     0.004 A 
ATOM      4  C   UNL     1       6.316  12.359   6.732  1.00  0.00     0.004 A 
ATOM      5  C   UNL     1       5.987  11.011   6.576  1.00  0.00     0.050 A 
ATOM      6  C   UNL     1       5.267  10.340   7.575  1.00  0.00     0.157 A 
ENDROOT
BRANCH   1   7
ATOM      7  O   UNL     1       4.155  10.316   9.717  1.00  0.00    -0.493 OA
ATOM      8  C   UNL     1       2.745  10.405   9.899  1.00  0.00     0.278 C 
ENDBRANCH   1   7
BRANCH   6   9
ATOM      9  O   UNL     1       4.938   8.994   7.419  1.00  0.00    -0.504 OA
ATOM     10  H   UNL     1       5.650   8.284   7.298  1.00  0.00     0.293 HD
ENDBRANCH   6   9
TORSDOF 2
ENDMDL
