MODEL 1
REMARK VINA RESULT:     3.339      0.000      0.000
REMARK INTER + INTRA:           7.734
REMARK INTER:                   8.805
REMARK INTRA:                  -1.071
REMARK UNBOUND:                -1.071
REMARK SMILES CCCCCCCCCCCCCCCCCCCCCCCCCCCCCC(=O)[O-]
REMARK SMILES IDX 16 1 17 2 18 3 19 4 20 5 21 6 22 7 23 8 24 9 25 10 26 11
REMARK SMILES IDX 27 12 28 13 29 14 30 15 31 16 32 17 15 18 14 19 13 20 12 21
REMARK SMILES IDX 11 22 10 23 9 24 8 25 7 26 6 27 5 28 4 29 3 30 2 31 1 32
REMARK H PARENT
REMARK Flexibility Score: inf
ROOT
ATOM      1  C   UNL     1      29.072   0.942   1.742  1.00  0.00     0.000 C 
ENDROOT
BRANCH   1   2
ATOM      2  C   UNL     1      30.459   0.805   1.092  1.00  0.00     0.000 C 
BRANCH   2   3
ATOM      3  C   UNL     1      30.412   0.857  -0.445  1.00  0.00     0.000 C 
BRANCH   3   4
ATOM      4  C   UNL     1      31.114  -0.312  -1.160  1.00  0.00     0.000 C 
BRANCH   4   5
ATOM      5  C   UNL     1      31.979   0.148  -2.345  1.00  0.00     0.000 C 
BRANCH   5   6
ATOM      6  C   UNL     1      33.321  -0.605  -2.438  1.00  0.00     0.000 C 
BRANCH   6   7
ATOM      7  C   UNL     1      33.948  -0.656  -3.845  1.00  0.00     0.000 C 
BRANCH   7   8
ATOM      8  C   UNL     1      35.473  -0.863  -3.815  1.00  0.00     0.000 C 
BRANCH   8   9
ATOM      9  C   UNL     1      35.879  -2.312  -4.125  1.00  0.00     0.000 C 
BRANCH   9  10
ATOM     10  C   UNL     1      36.534  -3.025  -2.928  1.00  0.00     0.000 C 
BRANCH  10  11
ATOM     11  C   UNL     1      37.125  -4.389  -3.323  1.00  0.00     0.000 C 
BRANCH  11  12
ATOM     12  C   UNL     1      36.503  -5.552  -2.527  1.00  0.00     0.000 C 
BRANCH  12  13
ATOM     13  C   UNL     1      37.080  -6.922  -2.933  1.00  0.00     0.006 C 
BRANCH  13  14
ATOM     14  C   UNL     1      36.037  -8.052  -2.985  1.00  0.00     0.053 C 
BRANCH  14  15
ATOM     15  C   UNL     1      36.074  -8.909  -1.755  1.00  0.00     0.041 C 
ATOM     16  O   UNL     1      36.976  -8.744  -0.894  1.00  0.00    -0.550 OA
ATOM     17  O   UNL     1      35.109  -9.891  -1.565  1.00  0.00    -0.550 OA
ENDBRANCH  14  15
ENDBRANCH  13  14
ENDBRANCH  12  13
ENDBRANCH  11  12
ENDBRANCH  10  11
ENDBRANCH   9  10
ENDBRANCH   8   9
ENDBRANCH   7   8
ENDBRANCH   6   7
ENDBRANCH   5   6
ENDBRANCH   4   5
ENDBRANCH   3   4
ENDBRANCH   2   3
ENDBRANCH   1   2
BRANCH   1  18
ATOM     18  C   UNL     1      29.151   0.724   3.261  1.00  0.00     0.000 C 
BRANCH  18  19
ATOM     19  C   UNL     1      29.547   1.994   4.036  1.00  0.00     0.000 C 
BRANCH  19  20
ATOM     20  C   UNL     1      31.024   2.413   3.893  1.00  0.00     0.000 C 
BRANCH  20  21
ATOM     21  C   UNL     1      31.260   3.736   3.142  1.00  0.00     0.000 C 
BRANCH  21  22
ATOM     22  C   UNL     1      30.918   4.973   3.984  1.00  0.00     0.000 C 
BRANCH  22  23
ATOM     23  C   UNL     1      31.168   6.261   3.185  1.00  0.00     0.000 C 
BRANCH  23  24
ATOM     24  C   UNL     1      30.192   6.443   2.010  1.00  0.00    -0.000 C 
BRANCH  24  25
ATOM     25  C   UNL     1      30.745   6.027   0.632  1.00  0.00    -0.000 C 
BRANCH  25  26
ATOM     26  C   UNL     1      30.914   7.173  -0.383  1.00  0.00    -0.000 C 
BRANCH  26  27
ATOM     27  C   UNL     1      29.726   7.295  -1.353  1.00  0.00    -0.000 C 
BRANCH  27  28
ATOM     28  C   UNL     1      30.092   8.040  -2.648  1.00  0.00    -0.000 C 
BRANCH  28  29
ATOM     29  C   UNL     1      29.672   9.522  -2.624  1.00  0.00    -0.000 C 
BRANCH  29  30
ATOM     30  C   UNL     1      28.694   9.828  -1.470  1.00  0.00    -0.000 C 
BRANCH  30  31
ATOM     31  C   UNL     1      27.214   9.775  -1.886  1.00  0.00    -0.003 C 
ATOM     32  C   UNL     1      27.000  10.087  -3.364  1.00  0.00     0.004 C 
ENDBRANCH  30  31
ENDBRANCH  29  30
ENDBRANCH  28  29
ENDBRANCH  27  28
ENDBRANCH  26  27
ENDBRANCH  25  26
ENDBRANCH  24  25
ENDBRANCH  23  24
ENDBRANCH  22  23
ENDBRANCH  21  22
ENDBRANCH  20  21
ENDBRANCH  19  20
ENDBRANCH  18  19
ENDBRANCH   1  18
TORSDOF 28
ENDMDL
MODEL 2
REMARK VINA RESULT:     3.930      5.049     13.178
REMARK INTER + INTRA:           9.292
REMARK INTER:                  11.236
REMARK INTRA:                  -1.945
REMARK UNBOUND:                -1.071
REMARK SMILES CCCCCCCCCCCCCCCCCCCCCCCCCCCCCC(=O)[O-]
REMARK SMILES IDX 16 1 17 2 18 3 19 4 20 5 21 6 22 7 23 8 24 9 25 10 26 11
REMARK SMILES IDX 27 12 28 13 29 14 30 15 31 16 32 17 15 18 14 19 13 20 12 21
REMARK SMILES IDX 11 22 10 23 9 24 8 25 7 26 6 27 5 28 4 29 3 30 2 31 1 32
REMARK H PARENT
REMARK Flexibility Score: inf
ROOT
ATOM      1  C   UNL     1      32.907   4.791  -2.980  1.00  0.00     0.000 C 
ENDROOT
BRANCH   1   2
ATOM      2  C   UNL     1      31.619   5.630  -2.950  1.00  0.00     0.000 C 
BRANCH   2   3
ATOM      3  C   UNL     1      31.589   6.728  -4.029  1.00  0.00     0.000 C 
BRANCH   3   4
ATOM      4  C   UNL     1      31.657   8.170  -3.495  1.00  0.00     0.000 C 
BRANCH   4   5
ATOM      5  C   UNL     1      30.538   9.065  -4.052  1.00  0.00     0.000 C 
BRANCH   5   6
ATOM      6  C   UNL     1      29.136   8.644  -3.570  1.00  0.00     0.000 C 
BRANCH   6   7
ATOM      7  C   UNL     1      28.807   9.010  -2.109  1.00  0.00     0.000 C 
BRANCH   7   8
ATOM      8  C   UNL     1      28.660   7.777  -1.199  1.00  0.00     0.000 C 
BRANCH   8   9
ATOM      9  C   UNL     1      29.669   7.775  -0.040  1.00  0.00     0.000 C 
BRANCH   9  10
ATOM     10  C   UNL     1      29.930   6.369   0.531  1.00  0.00     0.000 C 
BRANCH  10  11
ATOM     11  C   UNL     1      29.816   6.340   2.065  1.00  0.00     0.000 C 
BRANCH  11  12
ATOM     12  C   UNL     1      30.373   5.040   2.672  1.00  0.00     0.000 C 
BRANCH  12  13
ATOM     13  C   UNL     1      30.771   5.200   4.153  1.00  0.00     0.006 C 
BRANCH  13  14
ATOM     14  C   UNL     1      31.110   6.646   4.558  1.00  0.00     0.053 C 
BRANCH  14  15
ATOM     15  C   UNL     1      30.375   7.070   5.795  1.00  0.00     0.041 C 
ATOM     16  O   UNL     1      30.137   6.238   6.708  1.00  0.00    -0.550 OA
ATOM     17  O   UNL     1      29.952   8.387   5.932  1.00  0.00    -0.550 OA
ENDBRANCH  14  15
ENDBRANCH  13  14
ENDBRANCH  12  13
ENDBRANCH  11  12
ENDBRANCH  10  11
ENDBRANCH   9  10
ENDBRANCH   8   9
ENDBRANCH   7   8
ENDBRANCH   6   7
ENDBRANCH   5   6
ENDBRANCH   4   5
ENDBRANCH   3   4
ENDBRANCH   2   3
ENDBRANCH   1   2
BRANCH   1  18
ATOM     18  C   UNL     1      32.871   3.764  -4.122  1.00  0.00     0.000 C 
BRANCH  18  19
ATOM     19  C   UNL     1      32.838   2.307  -3.625  1.00  0.00     0.000 C 
BRANCH  19  20
ATOM     20  C   UNL     1      31.431   1.686  -3.513  1.00  0.00     0.000 C 
BRANCH  20  21
ATOM     21  C   UNL     1      31.378   0.299  -2.848  1.00  0.00     0.000 C 
BRANCH  21  22
ATOM     22  C   UNL     1      31.401  -0.854  -3.863  1.00  0.00     0.000 C 
BRANCH  22  23
ATOM     23  C   UNL     1      32.742  -1.602  -3.804  1.00  0.00     0.000 C 
BRANCH  23  24
ATOM     24  C   UNL     1      33.731  -0.994  -2.795  1.00  0.00    -0.000 C 
BRANCH  24  25
ATOM     25  C   UNL     1      35.208  -1.368  -3.024  1.00  0.00    -0.000 C 
BRANCH  25  26
ATOM     26  C   UNL     1      35.446  -2.734  -3.695  1.00  0.00    -0.000 C 
BRANCH  26  27
ATOM     27  C   UNL     1      36.872  -3.270  -3.474  1.00  0.00    -0.000 C 
BRANCH  27  28
ATOM     28  C   UNL     1      37.046  -4.713  -3.977  1.00  0.00    -0.000 C 
BRANCH  28  29
ATOM     29  C   UNL     1      36.808  -5.763  -2.876  1.00  0.00    -0.000 C 
BRANCH  29  30
ATOM     30  C   UNL     1      36.481  -7.154  -3.463  1.00  0.00    -0.000 C 
BRANCH  30  31
ATOM     31  C   UNL     1      36.363  -8.258  -2.399  1.00  0.00    -0.003 C 
ATOM     32  C   UNL     1      36.001  -7.720  -1.019  1.00  0.00     0.004 C 
ENDBRANCH  30  31
ENDBRANCH  29  30
ENDBRANCH  28  29
ENDBRANCH  27  28
ENDBRANCH  26  27
ENDBRANCH  25  26
ENDBRANCH  24  25
ENDBRANCH  23  24
ENDBRANCH  22  23
ENDBRANCH  21  22
ENDBRANCH  20  21
ENDBRANCH  19  20
ENDBRANCH  18  19
ENDBRANCH   1  18
TORSDOF 28
ENDMDL
MODEL 3
REMARK VINA RESULT:     3.939      6.327     10.347
REMARK INTER + INTRA:           9.315
REMARK INTER:                  11.343
REMARK INTRA:                  -2.028
REMARK UNBOUND:                -1.071
REMARK SMILES CCCCCCCCCCCCCCCCCCCCCCCCCCCCCC(=O)[O-]
REMARK SMILES IDX 16 1 17 2 18 3 19 4 20 5 21 6 22 7 23 8 24 9 25 10 26 11
REMARK SMILES IDX 27 12 28 13 29 14 30 15 31 16 32 17 15 18 14 19 13 20 12 21
REMARK SMILES IDX 11 22 10 23 9 24 8 25 7 26 6 27 5 28 4 29 3 30 2 31 1 32
REMARK H PARENT
REMARK Flexibility Score: inf
ROOT
ATOM      1  C   UNL     1      31.775  -0.004  -0.391  1.00  0.00     0.000 C 
ENDROOT
BRANCH   1   2
ATOM      2  C   UNL     1      31.834  -0.646  -1.788  1.00  0.00     0.000 C 
BRANCH   2   3
ATOM      3  C   UNL     1      33.050  -0.187  -2.612  1.00  0.00     0.000 C 
BRANCH   3   4
ATOM      4  C   UNL     1      32.714   0.617  -3.881  1.00  0.00     0.000 C 
BRANCH   4   5
ATOM      5  C   UNL     1      31.595   1.645  -3.655  1.00  0.00     0.000 C 
BRANCH   5   6
ATOM      6  C   UNL     1      31.978   3.063  -4.123  1.00  0.00     0.000 C 
BRANCH   6   7
ATOM      7  C   UNL     1      32.835   3.873  -3.131  1.00  0.00     0.000 C 
BRANCH   7   8
ATOM      8  C   UNL     1      32.907   5.370  -3.481  1.00  0.00     0.000 C 
BRANCH   8   9
ATOM      9  C   UNL     1      31.529   5.969  -3.800  1.00  0.00     0.000 C 
BRANCH   9  10
ATOM     10  C   UNL     1      30.911   6.728  -2.611  1.00  0.00     0.000 C 
BRANCH  10  11
ATOM     11  C   UNL     1      31.182   8.240  -2.689  1.00  0.00     0.000 C 
BRANCH  11  12
ATOM     12  C   UNL     1      30.385   8.923  -3.816  1.00  0.00     0.000 C 
BRANCH  12  13
ATOM     13  C   UNL     1      29.460  10.040  -3.294  1.00  0.00     0.006 C 
BRANCH  13  14
ATOM     14  C   UNL     1      29.172   9.962  -1.784  1.00  0.00     0.053 C 
BRANCH  14  15
ATOM     15  C   UNL     1      27.702   9.960  -1.491  1.00  0.00     0.041 C 
ATOM     16  O   UNL     1      26.870   9.811  -2.423  1.00  0.00    -0.550 OA
ATOM     17  O   UNL     1      27.255  10.125  -0.185  1.00  0.00    -0.550 OA
ENDBRANCH  14  15
ENDBRANCH  13  14
ENDBRANCH  12  13
ENDBRANCH  11  12
ENDBRANCH  10  11
ENDBRANCH   9  10
ENDBRANCH   8   9
ENDBRANCH   7   8
ENDBRANCH   6   7
ENDBRANCH   5   6
ENDBRANCH   4   5
ENDBRANCH   3   4
ENDBRANCH   2   3
ENDBRANCH   1   2
BRANCH   1  18
ATOM     18  C   UNL     1      30.321   0.225   0.051  1.00  0.00     0.000 C 
BRANCH  18  19
ATOM     19  C   UNL     1      30.041   1.675   0.484  1.00  0.00     0.000 C 
BRANCH  19  20
ATOM     20  C   UNL     1      29.864   1.882   2.001  1.00  0.00     0.000 C 
BRANCH  20  21
ATOM     21  C   UNL     1      31.105   2.418   2.739  1.00  0.00     0.000 C 
BRANCH  21  22
ATOM     22  C   UNL     1      30.828   2.754   4.211  1.00  0.00     0.000 C 
BRANCH  22  23
ATOM     23  C   UNL     1      30.730   4.274   4.411  1.00  0.00     0.000 C 
BRANCH  23  24
ATOM     24  C   UNL     1      29.828   4.964   3.373  1.00  0.00    -0.000 C 
BRANCH  24  25
ATOM     25  C   UNL     1      30.360   6.309   2.840  1.00  0.00    -0.000 C 
BRANCH  25  26
ATOM     26  C   UNL     1      31.760   6.710   3.341  1.00  0.00    -0.000 C 
BRANCH  26  27
ATOM     27  C   UNL     1      31.725   7.865   4.359  1.00  0.00    -0.000 C 
BRANCH  27  28
ATOM     28  C   UNL     1      30.384   7.953   5.108  1.00  0.00    -0.000 C 
BRANCH  28  29
ATOM     29  C   UNL     1      30.357   7.097   6.387  1.00  0.00    -0.000 C 
BRANCH  29  30
ATOM     30  C   UNL     1      29.568   7.781   7.526  1.00  0.00    -0.000 C 
BRANCH  30  31
ATOM     31  C   UNL     1      29.529   9.314   7.411  1.00  0.00    -0.003 C 
ATOM     32  C   UNL     1      30.813   9.981   7.895  1.00  0.00     0.004 C 
ENDBRANCH  30  31
ENDBRANCH  29  30
ENDBRANCH  28  29
ENDBRANCH  27  28
ENDBRANCH  26  27
ENDBRANCH  25  26
ENDBRANCH  24  25
ENDBRANCH  23  24
ENDBRANCH  22  23
ENDBRANCH  21  22
ENDBRANCH  20  21
ENDBRANCH  19  20
ENDBRANCH  18  19
ENDBRANCH   1  18
TORSDOF 28
ENDMDL
MODEL 4
REMARK VINA RESULT:     4.100      5.297     13.316
REMARK INTER + INTRA:           9.739
REMARK INTER:                   9.464
REMARK INTRA:                   0.275
REMARK UNBOUND:                -1.071
REMARK SMILES CCCCCCCCCCCCCCCCCCCCCCCCCCCCCC(=O)[O-]
REMARK SMILES IDX 16 1 17 2 18 3 19 4 20 5 21 6 22 7 23 8 24 9 25 10 26 11
REMARK SMILES IDX 27 12 28 13 29 14 30 15 31 16 32 17 15 18 14 19 13 20 12 21
REMARK SMILES IDX 11 22 10 23 9 24 8 25 7 26 6 27 5 28 4 29 3 30 2 31 1 32
REMARK H PARENT
REMARK Flexibility Score: inf
ROOT
ATOM      1  C   UNL     1      30.106   1.465   1.464  1.00  0.00     0.000 C 
ENDROOT
BRANCH   1   2
ATOM      2  C   UNL     1      30.570   2.287   2.678  1.00  0.00     0.000 C 
BRANCH   2   3
ATOM      3  C   UNL     1      30.085   3.747   2.637  1.00  0.00     0.000 C 
BRANCH   3   4
ATOM      4  C   UNL     1      31.081   4.782   3.193  1.00  0.00     0.000 C 
BRANCH   4   5
ATOM      5  C   UNL     1      30.440   6.158   3.430  1.00  0.00     0.000 C 
BRANCH   5   6
ATOM      6  C   UNL     1      29.931   6.816   2.132  1.00  0.00     0.000 C 
BRANCH   6   7
ATOM      7  C   UNL     1      30.418   6.156   0.827  1.00  0.00     0.000 C 
BRANCH   7   8
ATOM      8  C   UNL     1      30.025   6.949  -0.432  1.00  0.00     0.000 C 
BRANCH   8   9
ATOM      9  C   UNL     1      31.150   6.994  -1.478  1.00  0.00     0.000 C 
BRANCH   9  10
ATOM     10  C   UNL     1      30.627   7.058  -2.924  1.00  0.00     0.000 C 
BRANCH  10  11
ATOM     11  C   UNL     1      31.048   8.358  -3.631  1.00  0.00     0.000 C 
BRANCH  11  12
ATOM     12  C   UNL     1      30.036   9.498  -3.417  1.00  0.00     0.000 C 
BRANCH  12  13
ATOM     13  C   UNL     1      28.603   9.102  -3.827  1.00  0.00     0.006 C 
BRANCH  13  14
ATOM     14  C   UNL     1      27.622   8.985  -2.647  1.00  0.00     0.053 C 
BRANCH  14  15
ATOM     15  C   UNL     1      28.079   9.772  -1.455  1.00  0.00     0.041 C 
ATOM     16  O   UNL     1      27.254  10.120  -0.571  1.00  0.00    -0.550 OA
ATOM     17  O   UNL     1      29.418  10.122  -1.328  1.00  0.00    -0.550 OA
ENDBRANCH  14  15
ENDBRANCH  13  14
ENDBRANCH  12  13
ENDBRANCH  11  12
ENDBRANCH  10  11
ENDBRANCH   9  10
ENDBRANCH   8   9
ENDBRANCH   7   8
ENDBRANCH   6   7
ENDBRANCH   5   6
ENDBRANCH   4   5
ENDBRANCH   3   4
ENDBRANCH   2   3
ENDBRANCH   1   2
BRANCH   1  18
ATOM     18  C   UNL     1      31.149   1.508   0.336  1.00  0.00     0.000 C 
BRANCH  18  19
ATOM     19  C   UNL     1      30.528   1.717  -1.056  1.00  0.00     0.000 C 
BRANCH  19  20
ATOM     20  C   UNL     1      30.371   0.438  -1.902  1.00  0.00     0.000 C 
BRANCH  20  21
ATOM     21  C   UNL     1      31.548   0.128  -2.845  1.00  0.00     0.000 C 
BRANCH  21  22
ATOM     22  C   UNL     1      31.919  -1.361  -2.871  1.00  0.00     0.000 C 
BRANCH  22  23
ATOM     23  C   UNL     1      32.756  -1.691  -4.117  1.00  0.00     0.000 C 
BRANCH  23  24
ATOM     24  C   UNL     1      34.149  -1.039  -4.100  1.00  0.00    -0.000 C 
BRANCH  24  25
ATOM     25  C   UNL     1      35.099  -1.559  -3.004  1.00  0.00    -0.000 C 
BRANCH  25  26
ATOM     26  C   UNL     1      36.316  -2.356  -3.510  1.00  0.00    -0.000 C 
BRANCH  26  27
ATOM     27  C   UNL     1      35.967  -3.806  -3.892  1.00  0.00    -0.000 C 
BRANCH  27  28
ATOM     28  C   UNL     1      36.795  -4.840  -3.110  1.00  0.00    -0.000 C 
BRANCH  28  29
ATOM     29  C   UNL     1      36.423  -6.292  -3.462  1.00  0.00    -0.000 C 
BRANCH  29  30
ATOM     30  C   UNL     1      36.537  -7.231  -2.241  1.00  0.00    -0.000 C 
BRANCH  30  31
ATOM     31  C   UNL     1      35.387  -8.246  -2.135  1.00  0.00    -0.003 C 
ATOM     32  C   UNL     1      35.868  -9.665  -1.850  1.00  0.00     0.004 C 
ENDBRANCH  30  31
ENDBRANCH  29  30
ENDBRANCH  28  29
ENDBRANCH  27  28
ENDBRANCH  26  27
ENDBRANCH  25  26
ENDBRANCH  24  25
ENDBRANCH  23  24
ENDBRANCH  22  23
ENDBRANCH  21  22
ENDBRANCH  20  21
ENDBRANCH  19  20
ENDBRANCH  18  19
ENDBRANCH   1  18
TORSDOF 28
ENDMDL
MODEL 5
REMARK VINA RESULT:     4.176      3.694     12.260
REMARK INTER + INTRA:           9.940
REMARK INTER:                  10.879
REMARK INTRA:                  -0.939
REMARK UNBOUND:                -1.071
REMARK SMILES CCCCCCCCCCCCCCCCCCCCCCCCCCCCCC(=O)[O-]
REMARK SMILES IDX 16 1 17 2 18 3 19 4 20 5 21 6 22 7 23 8 24 9 25 10 26 11
REMARK SMILES IDX 27 12 28 13 29 14 30 15 31 16 32 17 15 18 14 19 13 20 12 21
REMARK SMILES IDX 11 22 10 23 9 24 8 25 7 26 6 27 5 28 4 29 3 30 2 31 1 32
REMARK H PARENT
REMARK Flexibility Score: inf
ROOT
ATOM      1  C   UNL     1      32.902   4.828  -3.004  1.00  0.00     0.000 C 
ENDROOT
BRANCH   1   2
ATOM      2  C   UNL     1      31.663   5.736  -2.928  1.00  0.00     0.000 C 
BRANCH   2   3
ATOM      3  C   UNL     1      31.607   6.776  -4.062  1.00  0.00     0.000 C 
BRANCH   3   4
ATOM      4  C   UNL     1      31.816   8.236  -3.621  1.00  0.00     0.000 C 
BRANCH   4   5
ATOM      5  C   UNL     1      30.619   9.137  -3.961  1.00  0.00     0.000 C 
BRANCH   5   6
ATOM      6  C   UNL     1      29.310   8.678  -3.289  1.00  0.00     0.000 C 
BRANCH   6   7
ATOM      7  C   UNL     1      29.284   8.799  -1.753  1.00  0.00     0.000 C 
BRANCH   7   8
ATOM      8  C   UNL     1      29.239   7.434  -1.043  1.00  0.00     0.000 C 
BRANCH   8   9
ATOM      9  C   UNL     1      30.361   7.270  -0.006  1.00  0.00     0.000 C 
BRANCH   9  10
ATOM     10  C   UNL     1      30.220   5.992   0.841  1.00  0.00     0.000 C 
BRANCH  10  11
ATOM     11  C   UNL     1      30.268   6.293   2.349  1.00  0.00     0.000 C 
BRANCH  11  12
ATOM     12  C   UNL     1      31.138   5.285   3.122  1.00  0.00     0.000 C 
BRANCH  12  13
ATOM     13  C   UNL     1      30.383   4.630   4.296  1.00  0.00     0.006 C 
BRANCH  13  14
ATOM     14  C   UNL     1      30.588   3.108   4.404  1.00  0.00     0.053 C 
BRANCH  14  15
ATOM     15  C   UNL     1      30.344   2.414   3.097  1.00  0.00     0.041 C 
ATOM     16  O   UNL     1      29.765   1.298   3.070  1.00  0.00    -0.550 OA
ATOM     17  O   UNL     1      30.763   3.004   1.911  1.00  0.00    -0.550 OA
ENDBRANCH  14  15
ENDBRANCH  13  14
ENDBRANCH  12  13
ENDBRANCH  11  12
ENDBRANCH  10  11
ENDBRANCH   9  10
ENDBRANCH   8   9
ENDBRANCH   7   8
ENDBRANCH   6   7
ENDBRANCH   5   6
ENDBRANCH   4   5
ENDBRANCH   3   4
ENDBRANCH   2   3
ENDBRANCH   1   2
BRANCH   1  18
ATOM     18  C   UNL     1      32.741   3.767  -4.104  1.00  0.00     0.000 C 
BRANCH  18  19
ATOM     19  C   UNL     1      32.746   2.326  -3.561  1.00  0.00     0.000 C 
BRANCH  19  20
ATOM     20  C   UNL     1      31.353   1.713  -3.318  1.00  0.00     0.000 C 
BRANCH  20  21
ATOM     21  C   UNL     1      31.353   0.339  -2.624  1.00  0.00     0.000 C 
BRANCH  21  22
ATOM     22  C   UNL     1      31.322  -0.833  -3.615  1.00  0.00     0.000 C 
BRANCH  22  23
ATOM     23  C   UNL     1      32.694  -1.520  -3.688  1.00  0.00     0.000 C 
BRANCH  23  24
ATOM     24  C   UNL     1      33.767  -0.820  -2.836  1.00  0.00    -0.000 C 
BRANCH  24  25
ATOM     25  C   UNL     1      35.222  -1.113  -3.250  1.00  0.00    -0.000 C 
BRANCH  25  26
ATOM     26  C   UNL     1      35.469  -2.512  -3.844  1.00  0.00    -0.000 C 
BRANCH  26  27
ATOM     27  C   UNL     1      36.941  -2.953  -3.749  1.00  0.00    -0.000 C 
BRANCH  27  28
ATOM     28  C   UNL     1      37.125  -4.460  -3.995  1.00  0.00    -0.000 C 
BRANCH  28  29
ATOM     29  C   UNL     1      36.887  -5.305  -2.730  1.00  0.00    -0.000 C 
BRANCH  29  30
ATOM     30  C   UNL     1      35.967  -6.515  -3.007  1.00  0.00    -0.000 C 
BRANCH  30  31
ATOM     31  C   UNL     1      36.197  -7.695  -2.048  1.00  0.00    -0.003 C 
ATOM     32  C   UNL     1      35.469  -8.964  -2.480  1.00  0.00     0.004 C 
ENDBRANCH  30  31
ENDBRANCH  29  30
ENDBRANCH  28  29
ENDBRANCH  27  28
ENDBRANCH  26  27
ENDBRANCH  25  26
ENDBRANCH  24  25
ENDBRANCH  23  24
ENDBRANCH  22  23
ENDBRANCH  21  22
ENDBRANCH  20  21
ENDBRANCH  19  20
ENDBRANCH  18  19
ENDBRANCH   1  18
TORSDOF 28
ENDMDL
MODEL 6
REMARK VINA RESULT:     4.192      5.540      9.062
REMARK INTER + INTRA:           9.982
REMARK INTER:                  10.190
REMARK INTRA:                  -0.208
REMARK UNBOUND:                -1.071
REMARK SMILES CCCCCCCCCCCCCCCCCCCCCCCCCCCCCC(=O)[O-]
REMARK SMILES IDX 16 1 17 2 18 3 19 4 20 5 21 6 22 7 23 8 24 9 25 10 26 11
REMARK SMILES IDX 27 12 28 13 29 14 30 15 31 16 32 17 15 18 14 19 13 20 12 21
REMARK SMILES IDX 11 22 10 23 9 24 8 25 7 26 6 27 5 28 4 29 3 30 2 31 1 32
REMARK H PARENT
REMARK Flexibility Score: inf
ROOT
ATOM      1  C   UNL     1      31.205   3.649  -2.721  1.00  0.00     0.000 C 
ENDROOT
BRANCH   1   2
ATOM      2  C   UNL     1      31.444   2.205  -3.193  1.00  0.00     0.000 C 
BRANCH   2   3
ATOM      3  C   UNL     1      32.691   2.061  -4.085  1.00  0.00     0.000 C 
BRANCH   3   4
ATOM      4  C   UNL     1      33.494   0.763  -3.880  1.00  0.00     0.000 C 
BRANCH   4   5
ATOM      5  C   UNL     1      32.600  -0.484  -3.801  1.00  0.00     0.000 C 
BRANCH   5   6
ATOM      6  C   UNL     1      31.260  -0.220  -3.085  1.00  0.00     0.000 C 
BRANCH   6   7
ATOM      7  C   UNL     1      30.978  -1.122  -1.868  1.00  0.00     0.000 C 
BRANCH   7   8
ATOM      8  C   UNL     1      31.536  -0.550  -0.553  1.00  0.00     0.000 C 
BRANCH   8   9
ATOM      9  C   UNL     1      31.027   0.871  -0.264  1.00  0.00     0.000 C 
BRANCH   9  10
ATOM     10  C   UNL     1      30.212   0.968   1.039  1.00  0.00     0.000 C 
BRANCH  10  11
ATOM     11  C   UNL     1      30.218   2.394   1.616  1.00  0.00     0.000 C 
BRANCH  11  12
ATOM     12  C   UNL     1      30.248   2.405   3.156  1.00  0.00     0.000 C 
BRANCH  12  13
ATOM     13  C   UNL     1      31.114   3.548   3.723  1.00  0.00     0.006 C 
BRANCH  13  14
ATOM     14  C   UNL     1      30.727   4.944   3.204  1.00  0.00     0.053 C 
BRANCH  14  15
ATOM     15  C   UNL     1      31.070   6.024   4.187  1.00  0.00     0.041 C 
ATOM     16  O   UNL     1      31.341   7.185   3.784  1.00  0.00    -0.550 OA
ATOM     17  O   UNL     1      31.093   5.741   5.547  1.00  0.00    -0.550 OA
ENDBRANCH  14  15
ENDBRANCH  13  14
ENDBRANCH  12  13
ENDBRANCH  11  12
ENDBRANCH  10  11
ENDBRANCH   9  10
ENDBRANCH   8   9
ENDBRANCH   7   8
ENDBRANCH   6   7
ENDBRANCH   5   6
ENDBRANCH   4   5
ENDBRANCH   3   4
ENDBRANCH   2   3
ENDBRANCH   1   2
BRANCH   1  18
ATOM     18  C   UNL     1      32.242   4.607  -3.328  1.00  0.00     0.000 C 
BRANCH  18  19
ATOM     19  C   UNL     1      32.191   6.019  -2.718  1.00  0.00     0.000 C 
BRANCH  19  20
ATOM     20  C   UNL     1      30.837   6.743  -2.855  1.00  0.00     0.000 C 
BRANCH  20  21
ATOM     21  C   UNL     1      30.814   7.906  -3.865  1.00  0.00     0.000 C 
BRANCH  21  22
ATOM     22  C   UNL     1      30.544   9.266  -3.207  1.00  0.00     0.000 C 
BRANCH  22  23
ATOM     23  C   UNL     1      29.259   9.216  -2.366  1.00  0.00     0.000 C 
BRANCH  23  24
ATOM     24  C   UNL     1      27.980   9.389  -3.204  1.00  0.00    -0.000 C 
BRANCH  24  25
ATOM     25  C   UNL     1      26.719   9.763  -2.400  1.00  0.00    -0.000 C 
BRANCH  25  26
ATOM     26  C   UNL     1      25.483  10.125  -3.244  1.00  0.00    -0.000 C 
BRANCH  26  27
ATOM     27  C   UNL     1      24.687   8.890  -3.703  1.00  0.00    -0.000 C 
BRANCH  27  28
ATOM     28  C   UNL     1      23.166   9.108  -3.640  1.00  0.00    -0.000 C 
BRANCH  28  29
ATOM     29  C   UNL     1      22.365   7.844  -4.001  1.00  0.00    -0.000 C 
BRANCH  29  30
ATOM     30  C   UNL     1      22.867   6.601  -3.232  1.00  0.00    -0.000 C 
BRANCH  30  31
ATOM     31  C   UNL     1      22.355   5.272  -3.812  1.00  0.00    -0.003 C 
ATOM     32  C   UNL     1      23.299   4.103  -3.545  1.00  0.00     0.004 C 
ENDBRANCH  30  31
ENDBRANCH  29  30
ENDBRANCH  28  29
ENDBRANCH  27  28
ENDBRANCH  26  27
ENDBRANCH  25  26
ENDBRANCH  24  25
ENDBRANCH  23  24
ENDBRANCH  22  23
ENDBRANCH  21  22
ENDBRANCH  20  21
ENDBRANCH  19  20
ENDBRANCH  18  19
ENDBRANCH   1  18
TORSDOF 28
ENDMDL
MODEL 7
REMARK VINA RESULT:     4.398      4.818     13.249
REMARK INTER + INTRA:          10.525
REMARK INTER:                  10.397
REMARK INTRA:                   0.128
REMARK UNBOUND:                -1.071
REMARK SMILES CCCCCCCCCCCCCCCCCCCCCCCCCCCCCC(=O)[O-]
REMARK SMILES IDX 16 1 17 2 18 3 19 4 20 5 21 6 22 7 23 8 24 9 25 10 26 11
REMARK SMILES IDX 27 12 28 13 29 14 30 15 31 16 32 17 15 18 14 19 13 20 12 21
REMARK SMILES IDX 11 22 10 23 9 24 8 25 7 26 6 27 5 28 4 29 3 30 2 31 1 32
REMARK H PARENT
REMARK Flexibility Score: inf
ROOT
ATOM      1  C   UNL     1      30.490   0.651   0.167  1.00  0.00     0.000 C 
ENDROOT
BRANCH   1   2
ATOM      2  C   UNL     1      29.012   0.753   0.582  1.00  0.00     0.000 C 
BRANCH   2   3
ATOM      3  C   UNL     1      28.820   1.361   1.983  1.00  0.00     0.000 C 
BRANCH   3   4
ATOM      4  C   UNL     1      29.612   2.654   2.248  1.00  0.00     0.000 C 
BRANCH   4   5
ATOM      5  C   UNL     1      31.069   2.570   1.766  1.00  0.00     0.000 C 
BRANCH   5   6
ATOM      6  C   UNL     1      32.085   2.986   2.847  1.00  0.00     0.000 C 
BRANCH   6   7
ATOM      7  C   UNL     1      31.473   3.596   4.123  1.00  0.00     0.000 C 
BRANCH   7   8
ATOM      8  C   UNL     1      30.369   4.626   3.828  1.00  0.00     0.000 C 
BRANCH   8   9
ATOM      9  C   UNL     1      30.843   6.074   4.026  1.00  0.00     0.000 C 
BRANCH   9  10
ATOM     10  C   UNL     1      31.386   6.715   2.736  1.00  0.00     0.000 C 
BRANCH  10  11
ATOM     11  C   UNL     1      30.325   6.752   1.622  1.00  0.00     0.000 C 
BRANCH  11  12
ATOM     12  C   UNL     1      30.720   5.895   0.406  1.00  0.00     0.000 C 
BRANCH  12  13
ATOM     13  C   UNL     1      30.968   6.740  -0.859  1.00  0.00     0.006 C 
BRANCH  13  14
ATOM     14  C   UNL     1      29.890   7.805  -1.124  1.00  0.00     0.053 C 
BRANCH  14  15
ATOM     15  C   UNL     1      29.904   8.279  -2.547  1.00  0.00     0.041 C 
ATOM     16  O   UNL     1      30.996   8.438  -3.151  1.00  0.00    -0.550 OA
ATOM     17  O   UNL     1      28.707   8.545  -3.201  1.00  0.00    -0.550 OA
ENDBRANCH  14  15
ENDBRANCH  13  14
ENDBRANCH  12  13
ENDBRANCH  11  12
ENDBRANCH  10  11
ENDBRANCH   9  10
ENDBRANCH   8   9
ENDBRANCH   7   8
ENDBRANCH   6   7
ENDBRANCH   5   6
ENDBRANCH   4   5
ENDBRANCH   3   4
ENDBRANCH   2   3
ENDBRANCH   1   2
BRANCH   1  18
ATOM     18  C   UNL     1      30.654   0.867  -1.346  1.00  0.00     0.000 C 
BRANCH  18  19
ATOM     19  C   UNL     1      30.729  -0.449  -2.140  1.00  0.00     0.000 C 
BRANCH  19  20
ATOM     20  C   UNL     1      31.590  -0.394  -3.418  1.00  0.00     0.000 C 
BRANCH  20  21
ATOM     21  C   UNL     1      32.851  -1.277  -3.397  1.00  0.00     0.000 C 
BRANCH  21  22
ATOM     22  C   UNL     1      34.136  -0.495  -3.707  1.00  0.00     0.000 C 
BRANCH  22  23
ATOM     23  C   UNL     1      35.361  -1.206  -3.112  1.00  0.00     0.000 C 
BRANCH  23  24
ATOM     24  C   UNL     1      36.091  -2.105  -4.125  1.00  0.00    -0.000 C 
BRANCH  24  25
ATOM     25  C   UNL     1      36.617  -3.436  -3.554  1.00  0.00    -0.000 C 
BRANCH  25  26
ATOM     26  C   UNL     1      35.815  -4.688  -3.955  1.00  0.00    -0.000 C 
BRANCH  26  27
ATOM     27  C   UNL     1      36.658  -5.976  -3.926  1.00  0.00    -0.000 C 
BRANCH  27  28
ATOM     28  C   UNL     1      36.858  -6.521  -2.503  1.00  0.00    -0.000 C 
BRANCH  28  29
ATOM     29  C   UNL     1      35.632  -7.293  -1.980  1.00  0.00    -0.000 C 
BRANCH  29  30
ATOM     30  C   UNL     1      35.529  -8.705  -2.598  1.00  0.00    -0.000 C 
BRANCH  30  31
ATOM     31  C   UNL     1      36.754  -9.590  -2.314  1.00  0.00    -0.003 C 
ATOM     32  C   UNL     1      36.809 -10.087  -0.873  1.00  0.00     0.004 C 
ENDBRANCH  30  31
ENDBRANCH  29  30
ENDBRANCH  28  29
ENDBRANCH  27  28
ENDBRANCH  26  27
ENDBRANCH  25  26
ENDBRANCH  24  25
ENDBRANCH  23  24
ENDBRANCH  22  23
ENDBRANCH  21  22
ENDBRANCH  20  21
ENDBRANCH  19  20
ENDBRANCH  18  19
ENDBRANCH   1  18
TORSDOF 28
ENDMDL
MODEL 8
REMARK VINA RESULT:     6.043      6.454     10.724
REMARK INTER + INTRA:          14.863
REMARK INTER:                  16.854
REMARK INTRA:                  -1.991
REMARK UNBOUND:                -1.071
REMARK SMILES CCCCCCCCCCCCCCCCCCCCCCCCCCCCCC(=O)[O-]
REMARK SMILES IDX 16 1 17 2 18 3 19 4 20 5 21 6 22 7 23 8 24 9 25 10 26 11
REMARK SMILES IDX 27 12 28 13 29 14 30 15 31 16 32 17 15 18 14 19 13 20 12 21
REMARK SMILES IDX 11 22 10 23 9 24 8 25 7 26 6 27 5 28 4 29 3 30 2 31 1 32
REMARK H PARENT
REMARK Flexibility Score: inf
ROOT
ATOM      1  C   UNL     1      30.624   0.163  -1.607  1.00  0.00     0.000 C 
ENDROOT
BRANCH   1   2
ATOM      2  C   UNL     1      30.485   1.283  -0.562  1.00  0.00     0.000 C 
BRANCH   2   3
ATOM      3  C   UNL     1      30.449   0.758   0.884  1.00  0.00     0.000 C 
BRANCH   3   4
ATOM      4  C   UNL     1      29.598   1.591   1.861  1.00  0.00     0.000 C 
BRANCH   4   5
ATOM      5  C   UNL     1      30.314   1.860   3.193  1.00  0.00     0.000 C 
BRANCH   5   6
ATOM      6  C   UNL     1      30.754   3.329   3.353  1.00  0.00     0.000 C 
BRANCH   6   7
ATOM      7  C   UNL     1      30.287   4.279   2.232  1.00  0.00     0.000 C 
BRANCH   7   8
ATOM      8  C   UNL     1      30.160   5.741   2.698  1.00  0.00     0.000 C 
BRANCH   8   9
ATOM      9  C   UNL     1      31.501   6.336   3.151  1.00  0.00     0.000 C 
BRANCH   9  10
ATOM     10  C   UNL     1      31.399   7.118   4.474  1.00  0.00     0.000 C 
BRANCH  10  11
ATOM     11  C   UNL     1      31.712   6.230   5.692  1.00  0.00     0.000 C 
BRANCH  11  12
ATOM     12  C   UNL     1      30.442   5.806   6.452  1.00  0.00     0.000 C 
BRANCH  12  13
ATOM     13  C   UNL     1      29.325   6.866   6.375  1.00  0.00     0.006 C 
BRANCH  13  14
ATOM     14  C   UNL     1      29.169   7.708   7.653  1.00  0.00     0.053 C 
BRANCH  14  15
ATOM     15  C   UNL     1      30.064   8.912   7.646  1.00  0.00     0.041 C 
ATOM     16  O   UNL     1      29.773   9.913   6.941  1.00  0.00    -0.550 OA
ATOM     17  O   UNL     1      31.219   8.922   8.418  1.00  0.00    -0.550 OA
ENDBRANCH  14  15
ENDBRANCH  13  14
ENDBRANCH  12  13
ENDBRANCH  11  12
ENDBRANCH  10  11
ENDBRANCH   9  10
ENDBRANCH   8   9
ENDBRANCH   7   8
ENDBRANCH   6   7
ENDBRANCH   5   6
ENDBRANCH   4   5
ENDBRANCH   3   4
ENDBRANCH   2   3
ENDBRANCH   1   2
BRANCH   1  18
ATOM     18  C   UNL     1      30.475   0.716  -3.032  1.00  0.00     0.000 C 
BRANCH  18  19
ATOM     19  C   UNL     1      31.458   0.083  -4.034  1.00  0.00     0.000 C 
BRANCH  19  20
ATOM     20  C   UNL     1      32.942   0.435  -3.805  1.00  0.00     0.000 C 
BRANCH  20  21
ATOM     21  C   UNL     1      33.326   1.893  -4.119  1.00  0.00     0.000 C 
BRANCH  21  22
ATOM     22  C   UNL     1      32.119   2.842  -4.125  1.00  0.00     0.000 C 
BRANCH  22  23
ATOM     23  C   UNL     1      32.326   3.991  -3.125  1.00  0.00     0.000 C 
BRANCH  23  24
ATOM     24  C   UNL     1      33.158   5.150  -3.700  1.00  0.00    -0.000 C 
BRANCH  24  25
ATOM     25  C   UNL     1      32.522   6.546  -3.549  1.00  0.00    -0.000 C 
BRANCH  25  26
ATOM     26  C   UNL     1      31.091   6.560  -2.980  1.00  0.00    -0.000 C 
BRANCH  26  27
ATOM     27  C   UNL     1      30.654   7.953  -2.491  1.00  0.00    -0.000 C 
BRANCH  27  28
ATOM     28  C   UNL     1      30.479   8.957  -3.642  1.00  0.00    -0.000 C 
BRANCH  28  29
ATOM     29  C   UNL     1      29.383  10.002  -3.362  1.00  0.00    -0.000 C 
BRANCH  29  30
ATOM     30  C   UNL     1      27.976   9.368  -3.316  1.00  0.00    -0.000 C 
BRANCH  30  31
ATOM     31  C   UNL     1      27.048  10.006  -2.269  1.00  0.00    -0.003 C 
ATOM     32  C   UNL     1      27.695  10.125  -0.892  1.00  0.00     0.004 C 
ENDBRANCH  30  31
ENDBRANCH  29  30
ENDBRANCH  28  29
ENDBRANCH  27  28
ENDBRANCH  26  27
ENDBRANCH  25  26
ENDBRANCH  24  25
ENDBRANCH  23  24
ENDBRANCH  22  23
ENDBRANCH  21  22
ENDBRANCH  20  21
ENDBRANCH  19  20
ENDBRANCH  18  19
ENDBRANCH   1  18
TORSDOF 28
ENDMDL
