MODEL 1
REMARK VINA RESULT:    -4.215      0.000      0.000
REMARK INTER + INTRA:          -5.150
REMARK INTER:                  -4.831
REMARK INTRA:                  -0.319
REMARK UNBOUND:                -0.319
REMARK SMILES COc1ccc(C(C)=O)c(O)c1
REMARK SMILES IDX 6 1 10 2 12 3 3 4 4 5 5 6 7 7 8 8 9 9 11 10 2 12 1 13
REMARK H PARENT 11 11
REMARK Flexibility Score: inf
ROOT
ATOM      1  C   UNL     1      28.544  29.085  25.320  1.00  0.00     0.059 A 
ATOM      2  C   UNL     1      28.901  30.311  25.927  1.00  0.00     0.130 A 
ATOM      3  C   UNL     1      29.046  31.467  25.145  1.00  0.00     0.093 A 
ATOM      4  C   UNL     1      28.847  31.430  23.763  1.00  0.00     0.122 A 
ATOM      5  C   UNL     1      28.496  30.214  23.155  1.00  0.00     0.047 A 
ATOM      6  C   UNL     1      28.347  29.057  23.925  1.00  0.00     0.019 A 
ENDROOT
BRANCH   1   7
ATOM      7  C   UNL     1      28.374  27.842  26.127  1.00  0.00     0.163 C 
ATOM      8  C   UNL     1      27.299  26.843  25.819  1.00  0.00     0.093 C 
ATOM      9  O   UNL     1      29.125  27.622  27.115  1.00  0.00    -0.294 OA
ENDBRANCH   1   7
BRANCH   2  10
ATOM     10  O   UNL     1      29.123  30.387  27.302  1.00  0.00    -0.507 OA
ATOM     11  H   UNL     1      29.202  31.276  27.782  1.00  0.00     0.293 HD
ENDBRANCH   2  10
BRANCH   4  12
ATOM     12  O   UNL     1      29.007  32.618  23.034  1.00  0.00    -0.497 OA
ATOM     13  C   UNL     1      28.535  33.892  23.459  1.00  0.00     0.278 C 
ENDBRANCH   4  12
TORSDOF 3
ENDMDL
MODEL 2
REMARK VINA RESULT:    -3.104      2.647      5.470
REMARK INTER + INTRA:          -3.876
REMARK INTER:                  -3.533
REMARK INTRA:                  -0.343
REMARK UNBOUND:                -0.319
REMARK SMILES COc1ccc(C(C)=O)c(O)c1
REMARK SMILES IDX 6 1 10 2 12 3 3 4 4 5 5 6 7 7 8 8 9 9 11 10 2 12 1 13
REMARK H PARENT 11 11
REMARK Flexibility Score: inf
ROOT
ATOM      1  C   UNL     1      28.386  28.114  25.965  1.00  0.00     0.059 A 
ATOM      2  C   UNL     1      27.262  27.811  25.162  1.00  0.00     0.130 A 
ATOM      3  C   UNL     1      26.900  26.475  24.935  1.00  0.00     0.093 A 
ATOM      4  C   UNL     1      27.637  25.426  25.489  1.00  0.00     0.122 A 
ATOM      5  C   UNL     1      28.756  25.722  26.283  1.00  0.00     0.047 A 
ATOM      6  C   UNL     1      29.124  27.049  26.518  1.00  0.00     0.019 A 
ENDROOT
BRANCH   1   7
ATOM      7  C   UNL     1      28.789  29.525  26.231  1.00  0.00     0.163 C 
ATOM      8  C   UNL     1      29.100  30.009  27.616  1.00  0.00     0.093 C 
ATOM      9  O   UNL     1      28.848  30.356  25.285  1.00  0.00    -0.294 OA
ENDBRANCH   1   7
BRANCH   2  10
ATOM     10  O   UNL     1      26.508  28.830  24.579  1.00  0.00    -0.507 OA
ATOM     11  H   UNL     1      26.929  29.526  23.975  1.00  0.00     0.293 HD
ENDBRANCH   2  10
BRANCH   4  12
ATOM     12  O   UNL     1      27.227  24.110  25.225  1.00  0.00    -0.497 OA
ATOM     13  C   UNL     1      26.123  23.764  24.395  1.00  0.00     0.278 C 
ENDBRANCH   4  12
TORSDOF 3
ENDMDL
MODEL 3
REMARK VINA RESULT:    -3.054      2.813      4.878
REMARK INTER + INTRA:          -3.819
REMARK INTER:                  -3.477
REMARK INTRA:                  -0.342
REMARK UNBOUND:                -0.319
REMARK SMILES COc1ccc(C(C)=O)c(O)c1
REMARK SMILES IDX 6 1 10 2 12 3 3 4 4 5 5 6 7 7 8 8 9 9 11 10 2 12 1 13
REMARK H PARENT 11 11
REMARK Flexibility Score: inf
ROOT
ATOM      1  C   UNL     1      27.137  25.077  26.203  1.00  0.00     0.059 A 
ATOM      2  C   UNL     1      28.450  25.078  25.679  1.00  0.00     0.130 A 
ATOM      3  C   UNL     1      29.086  26.291  25.376  1.00  0.00     0.093 A 
ATOM      4  C   UNL     1      28.439  27.513  25.580  1.00  0.00     0.122 A 
ATOM      5  C   UNL     1      27.133  27.517  26.096  1.00  0.00     0.047 A 
ATOM      6  C   UNL     1      26.492  26.314  26.403  1.00  0.00     0.019 A 
ENDROOT
BRANCH   1   7
ATOM      7  C   UNL     1      26.439  23.803  26.543  1.00  0.00     0.163 C 
ATOM      8  C   UNL     1      25.855  23.563  27.902  1.00  0.00     0.093 C 
ATOM      9  O   UNL     1      26.354  22.881  25.687  1.00  0.00    -0.294 OA
ENDBRANCH   1   7
BRANCH   2  10
ATOM     10  O   UNL     1      29.125  23.879  25.447  1.00  0.00    -0.507 OA
ATOM     11  H   UNL     1      29.865  23.808  24.759  1.00  0.00     0.293 HD
ENDBRANCH   2  10
BRANCH   4  12
ATOM     12  O   UNL     1      29.125  28.693  25.257  1.00  0.00    -0.497 OA
ATOM     13  C   UNL     1      29.057  29.896  26.018  1.00  0.00     0.278 C 
ENDBRANCH   4  12
TORSDOF 3
ENDMDL
MODEL 4
REMARK VINA RESULT:    -2.648      2.618      4.359
REMARK INTER + INTRA:          -3.354
REMARK INTER:                  -3.038
REMARK INTRA:                  -0.316
REMARK UNBOUND:                -0.319
REMARK SMILES COc1ccc(C(C)=O)c(O)c1
REMARK SMILES IDX 6 1 10 2 12 3 3 4 4 5 5 6 7 7 8 8 9 9 11 10 2 12 1 13
REMARK H PARENT 11 11
REMARK Flexibility Score: inf
ROOT
ATOM      1  C   UNL     1      27.897  25.317  25.539  1.00  0.00     0.059 A 
ATOM      2  C   UNL     1      26.878  26.103  26.125  1.00  0.00     0.130 A 
ATOM      3  C   UNL     1      26.994  27.501  26.146  1.00  0.00     0.093 A 
ATOM      4  C   UNL     1      28.109  28.139  25.598  1.00  0.00     0.122 A 
ATOM      5  C   UNL     1      29.125  27.362  25.018  1.00  0.00     0.047 A 
ATOM      6  C   UNL     1      29.019  25.969  24.989  1.00  0.00     0.019 A 
ENDROOT
BRANCH   1   7
ATOM      7  C   UNL     1      27.797  23.829  25.493  1.00  0.00     0.163 C 
ATOM      8  C   UNL     1      28.262  23.043  24.304  1.00  0.00     0.093 C 
ATOM      9  O   UNL     1      27.284  23.200  26.457  1.00  0.00    -0.294 OA
ENDBRANCH   1   7
BRANCH   2  10
ATOM     10  O   UNL     1      25.756  25.504  26.696  1.00  0.00    -0.507 OA
ATOM     11  H   UNL     1      25.056  26.044  27.190  1.00  0.00     0.293 HD
ENDBRANCH   2  10
BRANCH   4  12
ATOM     12  O   UNL     1      28.169  29.540  25.650  1.00  0.00    -0.497 OA
ATOM     13  C   UNL     1      29.109  30.275  26.427  1.00  0.00     0.278 C 
ENDBRANCH   4  12
TORSDOF 3
ENDMDL
MODEL 5
REMARK VINA RESULT:    -2.264      1.881      5.214
REMARK INTER + INTRA:          -2.913
REMARK INTER:                  -2.592
REMARK INTRA:                  -0.321
REMARK UNBOUND:                -0.319
REMARK SMILES COc1ccc(C(C)=O)c(O)c1
REMARK SMILES IDX 6 1 10 2 12 3 3 4 4 5 5 6 7 7 8 8 9 9 11 10 2 12 1 13
REMARK H PARENT 11 11
REMARK Flexibility Score: inf
ROOT
ATOM      1  C   UNL     1      28.291  29.496  24.829  1.00  0.00     0.059 A 
ATOM      2  C   UNL     1      27.201  28.731  24.354  1.00  0.00     0.130 A 
ATOM      3  C   UNL     1      26.965  27.449  24.871  1.00  0.00     0.093 A 
ATOM      4  C   UNL     1      27.796  26.904  25.853  1.00  0.00     0.122 A 
ATOM      5  C   UNL     1      28.882  27.659  26.325  1.00  0.00     0.047 A 
ATOM      6  C   UNL     1      29.125  28.939  25.819  1.00  0.00     0.019 A 
ENDROOT
BRANCH   1   7
ATOM      7  C   UNL     1      28.562  30.867  24.305  1.00  0.00     0.163 C 
ATOM      8  C   UNL     1      29.060  31.967  25.193  1.00  0.00     0.093 C 
ATOM      9  O   UNL     1      28.345  31.134  23.092  1.00  0.00    -0.294 OA
ENDBRANCH   1   7
BRANCH   2  10
ATOM     10  O   UNL     1      26.357  29.233  23.364  1.00  0.00    -0.507 OA
ATOM     11  H   UNL     1      25.973  28.638  22.639  1.00  0.00     0.293 HD
ENDBRANCH   2  10
BRANCH   4  12
ATOM     12  O   UNL     1      27.510  25.616  26.331  1.00  0.00    -0.497 OA
ATOM     13  C   UNL     1      26.330  24.885  26.012  1.00  0.00     0.278 C 
ENDBRANCH   4  12
TORSDOF 3
ENDMDL
MODEL 6
REMARK VINA RESULT:    -1.859      7.000      8.128
REMARK INTER + INTRA:          -2.449
REMARK INTER:                  -2.297
REMARK INTRA:                  -0.152
REMARK UNBOUND:                -0.319
REMARK SMILES COc1ccc(C(C)=O)c(O)c1
REMARK SMILES IDX 6 1 10 2 12 3 3 4 4 5 5 6 7 7 8 8 9 9 11 10 2 12 1 13
REMARK H PARENT 11 11
REMARK Flexibility Score: inf
ROOT
ATOM      1  C   UNL     1      24.082  23.583  26.591  1.00  0.00     0.059 A 
ATOM      2  C   UNL     1      25.306  23.552  27.297  1.00  0.00     0.130 A 
ATOM      3  C   UNL     1      26.508  23.317  26.612  1.00  0.00     0.093 A 
ATOM      4  C   UNL     1      26.518  23.108  25.230  1.00  0.00     0.122 A 
ATOM      5  C   UNL     1      25.305  23.134  24.525  1.00  0.00     0.047 A 
ATOM      6  C   UNL     1      24.103  23.369  25.198  1.00  0.00     0.019 A 
ENDROOT
BRANCH   1   7
ATOM      7  C   UNL     1      22.790  23.839  27.291  1.00  0.00     0.163 C 
ATOM      8  C   UNL     1      22.355  25.225  27.662  1.00  0.00     0.093 C 
ATOM      9  O   UNL     1      22.044  22.875  27.614  1.00  0.00    -0.294 OA
ENDBRANCH   1   7
BRANCH   2  10
ATOM     10  O   UNL     1      25.336  23.741  28.679  1.00  0.00    -0.507 OA
ATOM     11  H   UNL     1      24.838  24.503  29.124  1.00  0.00     0.293 HD
ENDBRANCH   2  10
BRANCH   4  12
ATOM     12  O   UNL     1      27.751  22.877  24.600  1.00  0.00    -0.497 OA
ATOM     13  C   UNL     1      28.838  23.798  24.600  1.00  0.00     0.278 C 
ENDBRANCH   4  12
TORSDOF 3
ENDMDL
MODEL 7
REMARK VINA RESULT:    -1.230      1.970      3.203
REMARK INTER + INTRA:          -1.728
REMARK INTER:                  -1.548
REMARK INTRA:                  -0.181
REMARK UNBOUND:                -0.319
REMARK SMILES COc1ccc(C(C)=O)c(O)c1
REMARK SMILES IDX 6 1 10 2 12 3 3 4 4 5 5 6 7 7 8 8 9 9 11 10 2 12 1 13
REMARK H PARENT 11 11
REMARK Flexibility Score: inf
ROOT
ATOM      1  C   UNL     1      28.952  31.794  23.951  1.00  0.00     0.059 A 
ATOM      2  C   UNL     1      29.011  33.157  24.323  1.00  0.00     0.130 A 
ATOM      3  C   UNL     1      29.066  34.153  23.337  1.00  0.00     0.093 A 
ATOM      4  C   UNL     1      29.067  33.823  21.980  1.00  0.00     0.122 A 
ATOM      5  C   UNL     1      29.012  32.471  21.605  1.00  0.00     0.047 A 
ATOM      6  C   UNL     1      28.955  31.470  22.579  1.00  0.00     0.019 A 
ENDROOT
BRANCH   1   7
ATOM      7  C   UNL     1      28.883  30.714  24.977  1.00  0.00     0.163 C 
ATOM      8  C   UNL     1      28.497  29.310  24.620  1.00  0.00     0.093 C 
ATOM      9  O   UNL     1      29.125  30.974  26.186  1.00  0.00    -0.294 OA
ENDBRANCH   1   7
BRANCH   2  10
ATOM     10  O   UNL     1      29.028  33.528  25.668  1.00  0.00    -0.507 OA
ATOM     11  H   UNL     1      28.174  33.634  26.202  1.00  0.00     0.293 HD
ENDBRANCH   2  10
BRANCH   4  12
ATOM     12  O   UNL     1      29.125  34.863  21.040  1.00  0.00    -0.497 OA
ATOM     13  C   UNL     1      28.912  34.695  19.641  1.00  0.00     0.278 C 
ENDBRANCH   4  12
TORSDOF 3
ENDMDL
