MODEL 1
REMARK VINA RESULT:    -2.867      0.000      0.000
REMARK INTER + INTRA:         -11.246
REMARK INTER:                  -6.554
REMARK INTRA:                  -4.692
REMARK UNBOUND:                -4.692
REMARK SMILES CCCCCCCCCCCCCCCCCCCCCCCC(=O)[O-]
REMARK SMILES IDX 13 1 14 2 15 3 16 4 17 5 18 6 19 7 20 8 21 9 22 10 23 11
REMARK SMILES IDX 24 12 25 13 26 14 12 15 11 16 10 17 9 18 8 19 7 20 6 21 5 22
REMARK SMILES IDX 4 23 3 24 2 25 1 26
REMARK H PARENT
REMARK Flexibility Score: inf
ROOT
ATOM      1  C   UNL     1    -100.724 -31.597 -15.017  1.00  0.00     0.000 C 
ENDROOT
BRANCH   1   2
ATOM      2  C   UNL     1    -100.614 -30.506 -16.100  1.00  0.00     0.000 C 
BRANCH   2   3
ATOM      3  C   UNL     1    -101.912 -29.721 -16.365  1.00  0.00     0.000 C 
BRANCH   3   4
ATOM      4  C   UNL     1    -101.677 -28.205 -16.490  1.00  0.00     0.000 C 
BRANCH   4   5
ATOM      5  C   UNL     1    -102.974 -27.424 -16.756  1.00  0.00     0.000 C 
BRANCH   5   6
ATOM      6  C   UNL     1    -103.132 -26.208 -15.826  1.00  0.00     0.000 C 
BRANCH   6   7
ATOM      7  C   UNL     1    -104.379 -25.372 -16.157  1.00  0.00     0.000 C 
BRANCH   7   8
ATOM      8  C   UNL     1    -104.661 -24.287 -15.103  1.00  0.00     0.000 C 
BRANCH   8   9
ATOM      9  C   UNL     1    -104.345 -24.756 -13.674  1.00  0.00     0.000 C 
BRANCH   9  10
ATOM     10  C   UNL     1    -105.609 -25.098 -12.871  1.00  0.00     0.006 C 
BRANCH  10  11
ATOM     11  C   UNL     1    -105.281 -26.038 -11.706  1.00  0.00     0.053 C 
BRANCH  11  12
ATOM     12  C   UNL     1    -104.276 -25.412 -10.792  1.00  0.00     0.041 C 
ATOM     13  O   UNL     1    -103.214 -26.023 -10.502  1.00  0.00    -0.550 OA
ATOM     14  O   UNL     1    -104.523 -24.159 -10.241  1.00  0.00    -0.550 OA
ENDBRANCH  11  12
ENDBRANCH  10  11
ENDBRANCH   9  10
ENDBRANCH   8   9
ENDBRANCH   7   8
ENDBRANCH   6   7
ENDBRANCH   5   6
ENDBRANCH   4   5
ENDBRANCH   3   4
ENDBRANCH   2   3
ENDBRANCH   1   2
BRANCH   1  15
ATOM     15  C   UNL     1     -99.559 -31.561 -14.014  1.00  0.00     0.000 C 
BRANCH  15  16
ATOM     16  C   UNL     1     -98.528 -30.467 -14.339  1.00  0.00     0.000 C 
BRANCH  16  17
ATOM     17  C   UNL     1     -98.136 -29.632 -13.107  1.00  0.00     0.000 C 
BRANCH  17  18
ATOM     18  C   UNL     1     -99.360 -29.047 -12.383  1.00  0.00    -0.000 C 
BRANCH  18  19
ATOM     19  C   UNL     1    -100.140 -28.055 -13.265  1.00  0.00    -0.000 C 
BRANCH  19  20
ATOM     20  C   UNL     1    -101.607 -27.904 -12.834  1.00  0.00    -0.000 C 
BRANCH  20  21
ATOM     21  C   UNL     1    -102.175 -29.180 -12.195  1.00  0.00    -0.000 C 
BRANCH  21  22
ATOM     22  C   UNL     1    -103.313 -29.760 -13.047  1.00  0.00    -0.000 C 
BRANCH  22  23
ATOM     23  C   UNL     1    -104.289 -28.682 -13.556  1.00  0.00    -0.000 C 
BRANCH  23  24
ATOM     24  C   UNL     1    -105.286 -29.160 -14.630  1.00  0.00    -0.000 C 
BRANCH  24  25
ATOM     25  C   UNL     1    -106.368 -28.135 -15.015  1.00  0.00    -0.003 C 
ATOM     26  C   UNL     1    -106.748 -28.198 -16.493  1.00  0.00     0.004 C 
ENDBRANCH  24  25
ENDBRANCH  23  24
ENDBRANCH  22  23
ENDBRANCH  21  22
ENDBRANCH  20  21
ENDBRANCH  19  20
ENDBRANCH  18  19
ENDBRANCH  17  18
ENDBRANCH  16  17
ENDBRANCH  15  16
ENDBRANCH   1  15
TORSDOF 22
ENDMDL
MODEL 2
REMARK VINA RESULT:    -2.843      1.826      3.356
REMARK INTER + INTRA:         -11.191
REMARK INTER:                  -6.700
REMARK INTRA:                  -4.492
REMARK UNBOUND:                -4.692
REMARK SMILES CCCCCCCCCCCCCCCCCCCCCCCC(=O)[O-]
REMARK SMILES IDX 13 1 14 2 15 3 16 4 17 5 18 6 19 7 20 8 21 9 22 10 23 11
REMARK SMILES IDX 24 12 25 13 26 14 12 15 11 16 10 17 9 18 8 19 7 20 6 21 5 22
REMARK SMILES IDX 4 23 3 24 2 25 1 26
REMARK H PARENT
REMARK Flexibility Score: inf
ROOT
ATOM      1  C   UNL     1    -101.931 -30.612 -15.710  1.00  0.00     0.000 C 
ENDROOT
BRANCH   1   2
ATOM      2  C   UNL     1    -102.786 -29.378 -16.055  1.00  0.00     0.000 C 
BRANCH   2   3
ATOM      3  C   UNL     1    -101.988 -28.133 -16.484  1.00  0.00     0.000 C 
BRANCH   3   4
ATOM      4  C   UNL     1    -102.761 -26.822 -16.260  1.00  0.00     0.000 C 
BRANCH   4   5
ATOM      5  C   UNL     1    -104.076 -26.766 -17.054  1.00  0.00     0.000 C 
BRANCH   5   6
ATOM      6  C   UNL     1    -105.007 -25.638 -16.575  1.00  0.00     0.000 C 
BRANCH   6   7
ATOM      7  C   UNL     1    -104.290 -24.631 -15.661  1.00  0.00     0.000 C 
BRANCH   7   8
ATOM      8  C   UNL     1    -104.983 -24.475 -14.295  1.00  0.00     0.000 C 
BRANCH   8   9
ATOM      9  C   UNL     1    -104.545 -25.547 -13.285  1.00  0.00     0.000 C 
BRANCH   9  10
ATOM     10  C   UNL     1    -105.626 -26.612 -13.048  1.00  0.00     0.006 C 
BRANCH  10  11
ATOM     11  C   UNL     1    -105.200 -27.964 -13.631  1.00  0.00     0.053 C 
BRANCH  11  12
ATOM     12  C   UNL     1    -105.784 -29.087 -12.835  1.00  0.00     0.041 C 
ATOM     13  O   UNL     1    -105.825 -30.251 -13.314  1.00  0.00    -0.550 OA
ATOM     14  O   UNL     1    -106.307 -28.844 -11.569  1.00  0.00    -0.550 OA
ENDBRANCH  11  12
ENDBRANCH  10  11
ENDBRANCH   9  10
ENDBRANCH   8   9
ENDBRANCH   7   8
ENDBRANCH   6   7
ENDBRANCH   5   6
ENDBRANCH   4   5
ENDBRANCH   3   4
ENDBRANCH   2   3
ENDBRANCH   1   2
BRANCH   1  15
ATOM     15  C   UNL     1    -100.491 -30.508 -16.240  1.00  0.00     0.000 C 
BRANCH  15  16
ATOM     16  C   UNL     1     -99.437 -30.733 -15.143  1.00  0.00     0.000 C 
BRANCH  16  17
ATOM     17  C   UNL     1    -100.054 -31.172 -13.803  1.00  0.00     0.000 C 
BRANCH  17  18
ATOM     18  C   UNL     1     -99.855 -30.125 -12.695  1.00  0.00    -0.000 C 
BRANCH  18  19
ATOM     19  C   UNL     1     -99.248 -28.816 -13.232  1.00  0.00    -0.000 C 
BRANCH  19  20
ATOM     20  C   UNL     1    -100.271 -27.672 -13.305  1.00  0.00    -0.000 C 
BRANCH  20  21
ATOM     21  C   UNL     1    -101.649 -28.070 -12.753  1.00  0.00    -0.000 C 
BRANCH  21  22
ATOM     22  C   UNL     1    -101.983 -27.271 -11.484  1.00  0.00    -0.000 C 
BRANCH  22  23
ATOM     23  C   UNL     1    -102.943 -28.020 -10.542  1.00  0.00    -0.000 C 
BRANCH  23  24
ATOM     24  C   UNL     1    -103.883 -27.118  -9.717  1.00  0.00    -0.000 C 
BRANCH  24  25
ATOM     25  C   UNL     1    -103.432 -25.652  -9.590  1.00  0.00    -0.003 C 
ATOM     26  C   UNL     1    -104.579 -24.659  -9.769  1.00  0.00     0.004 C 
ENDBRANCH  24  25
ENDBRANCH  23  24
ENDBRANCH  22  23
ENDBRANCH  21  22
ENDBRANCH  20  21
ENDBRANCH  19  20
ENDBRANCH  18  19
ENDBRANCH  17  18
ENDBRANCH  16  17
ENDBRANCH  15  16
ENDBRANCH   1  15
TORSDOF 22
ENDMDL
MODEL 3
REMARK VINA RESULT:    -2.833      1.239      2.504
REMARK INTER + INTRA:         -11.169
REMARK INTER:                  -6.957
REMARK INTRA:                  -4.212
REMARK UNBOUND:                -4.692
REMARK SMILES CCCCCCCCCCCCCCCCCCCCCCCC(=O)[O-]
REMARK SMILES IDX 13 1 14 2 15 3 16 4 17 5 18 6 19 7 20 8 21 9 22 10 23 11
REMARK SMILES IDX 24 12 25 13 26 14 12 15 11 16 10 17 9 18 8 19 7 20 6 21 5 22
REMARK SMILES IDX 4 23 3 24 2 25 1 26
REMARK H PARENT
REMARK Flexibility Score: inf
ROOT
ATOM      1  C   UNL     1    -102.254 -29.443 -16.200  1.00  0.00     0.000 C 
ENDROOT
BRANCH   1   2
ATOM      2  C   UNL     1    -101.982 -27.978 -16.591  1.00  0.00     0.000 C 
BRANCH   2   3
ATOM      3  C   UNL     1    -102.768 -26.932 -15.779  1.00  0.00     0.000 C 
BRANCH   3   4
ATOM      4  C   UNL     1    -103.634 -26.018 -16.663  1.00  0.00     0.000 C 
BRANCH   4   5
ATOM      5  C   UNL     1    -104.260 -24.854 -15.879  1.00  0.00     0.000 C 
BRANCH   5   6
ATOM      6  C   UNL     1    -104.171 -25.052 -14.356  1.00  0.00     0.000 C 
BRANCH   6   7
ATOM      7  C   UNL     1    -104.934 -23.969 -13.576  1.00  0.00     0.000 C 
BRANCH   7   8
ATOM      8  C   UNL     1    -105.256 -24.396 -12.132  1.00  0.00     0.000 C 
BRANCH   8   9
ATOM      9  C   UNL     1    -104.156 -25.277 -11.519  1.00  0.00     0.000 C 
BRANCH   9  10
ATOM     10  C   UNL     1    -104.449 -25.656 -10.059  1.00  0.00     0.006 C 
BRANCH  10  11
ATOM     11  C   UNL     1    -103.295 -25.236  -9.142  1.00  0.00     0.053 C 
BRANCH  11  12
ATOM     12  C   UNL     1    -103.556 -23.885  -8.554  1.00  0.00     0.041 C 
ATOM     13  O   UNL     1    -103.057 -22.856  -9.082  1.00  0.00    -0.550 OA
ATOM     14  O   UNL     1    -104.333 -23.763  -7.408  1.00  0.00    -0.550 OA
ENDBRANCH  11  12
ENDBRANCH  10  11
ENDBRANCH   9  10
ENDBRANCH   8   9
ENDBRANCH   7   8
ENDBRANCH   6   7
ENDBRANCH   5   6
ENDBRANCH   4   5
ENDBRANCH   3   4
ENDBRANCH   2   3
ENDBRANCH   1   2
BRANCH   1  15
ATOM     15  C   UNL     1    -101.001 -30.329 -16.294  1.00  0.00     0.000 C 
BRANCH  15  16
ATOM     16  C   UNL     1    -100.975 -31.437 -15.228  1.00  0.00     0.000 C 
BRANCH  16  17
ATOM     17  C   UNL     1    -100.487 -30.936 -13.858  1.00  0.00     0.000 C 
BRANCH  17  18
ATOM     18  C   UNL     1     -99.371 -29.885 -13.982  1.00  0.00    -0.000 C 
BRANCH  18  19
ATOM     19  C   UNL     1     -99.525 -28.747 -12.957  1.00  0.00    -0.000 C 
BRANCH  19  20
ATOM     20  C   UNL     1    -100.935 -28.136 -12.954  1.00  0.00    -0.000 C 
BRANCH  20  21
ATOM     21  C   UNL     1    -101.538 -28.035 -11.545  1.00  0.00    -0.000 C 
BRANCH  21  22
ATOM     22  C   UNL     1    -102.919 -28.704 -11.490  1.00  0.00    -0.000 C 
BRANCH  22  23
ATOM     23  C   UNL     1    -103.521 -28.948 -12.886  1.00  0.00    -0.000 C 
BRANCH  23  24
ATOM     24  C   UNL     1    -105.017 -28.603 -13.020  1.00  0.00    -0.000 C 
BRANCH  24  25
ATOM     25  C   UNL     1    -105.642 -28.933 -14.387  1.00  0.00    -0.003 C 
ATOM     26  C   UNL     1    -106.465 -27.781 -14.960  1.00  0.00     0.004 C 
ENDBRANCH  24  25
ENDBRANCH  23  24
ENDBRANCH  22  23
ENDBRANCH  21  22
ENDBRANCH  20  21
ENDBRANCH  19  20
ENDBRANCH  18  19
ENDBRANCH  17  18
ENDBRANCH  16  17
ENDBRANCH  15  16
ENDBRANCH   1  15
TORSDOF 22
ENDMDL
MODEL 4
REMARK VINA RESULT:    -2.826      3.396      7.289
REMARK INTER + INTRA:         -11.154
REMARK INTER:                  -6.870
REMARK INTRA:                  -4.284
REMARK UNBOUND:                -4.692
REMARK SMILES CCCCCCCCCCCCCCCCCCCCCCCC(=O)[O-]
REMARK SMILES IDX 13 1 14 2 15 3 16 4 17 5 18 6 19 7 20 8 21 9 22 10 23 11
REMARK SMILES IDX 24 12 25 13 26 14 12 15 11 16 10 17 9 18 8 19 7 20 6 21 5 22
REMARK SMILES IDX 4 23 3 24 2 25 1 26
REMARK H PARENT
REMARK Flexibility Score: inf
ROOT
ATOM      1  C   UNL     1    -100.055 -27.936 -13.199  1.00  0.00     0.000 C 
ENDROOT
BRANCH   1   2
ATOM      2  C   UNL     1     -98.990 -29.048 -13.140  1.00  0.00     0.000 C 
BRANCH   2   3
ATOM      3  C   UNL     1     -99.027 -29.917 -11.869  1.00  0.00     0.000 C 
BRANCH   3   4
ATOM      4  C   UNL     1     -97.693 -29.911 -11.103  1.00  0.00     0.000 C 
BRANCH   4   5
ATOM      5  C   UNL     1     -96.476 -30.066 -12.028  1.00  0.00     0.000 C 
BRANCH   5   6
ATOM      6  C   UNL     1     -95.819 -31.452 -11.914  1.00  0.00     0.000 C 
BRANCH   6   7
ATOM      7  C   UNL     1     -95.914 -32.258 -13.220  1.00  0.00     0.000 C 
BRANCH   7   8
ATOM      8  C   UNL     1     -96.272 -31.381 -14.432  1.00  0.00     0.000 C 
BRANCH   8   9
ATOM      9  C   UNL     1     -97.073 -32.145 -15.498  1.00  0.00     0.000 C 
BRANCH   9  10
ATOM     10  C   UNL     1     -98.498 -31.599 -15.671  1.00  0.00     0.006 C 
BRANCH  10  11
ATOM     11  C   UNL     1     -99.487 -32.357 -14.777  1.00  0.00     0.053 C 
BRANCH  11  12
ATOM     12  C   UNL     1    -100.290 -33.326 -15.586  1.00  0.00     0.041 C 
ATOM     13  O   UNL     1    -100.203 -33.329 -16.842  1.00  0.00    -0.550 OA
ATOM     14  O   UNL     1    -101.153 -34.213 -14.953  1.00  0.00    -0.550 OA
ENDBRANCH  11  12
ENDBRANCH  10  11
ENDBRANCH   9  10
ENDBRANCH   8   9
ENDBRANCH   7   8
ENDBRANCH   6   7
ENDBRANCH   5   6
ENDBRANCH   4   5
ENDBRANCH   3   4
ENDBRANCH   2   3
ENDBRANCH   1   2
BRANCH   1  15
ATOM     15  C   UNL     1    -101.320 -28.278 -12.395  1.00  0.00     0.000 C 
BRANCH  15  16
ATOM     16  C   UNL     1    -102.489 -27.323 -12.692  1.00  0.00     0.000 C 
BRANCH  16  17
ATOM     17  C   UNL     1    -103.827 -28.060 -12.880  1.00  0.00     0.000 C 
BRANCH  17  18
ATOM     18  C   UNL     1    -103.669 -29.588 -12.818  1.00  0.00    -0.000 C 
BRANCH  18  19
ATOM     19  C   UNL     1    -104.176 -30.279 -14.096  1.00  0.00    -0.000 C 
BRANCH  19  20
ATOM     20  C   UNL     1    -103.056 -30.988 -14.873  1.00  0.00    -0.000 C 
BRANCH  20  21
ATOM     21  C   UNL     1    -102.768 -30.334 -16.233  1.00  0.00    -0.000 C 
BRANCH  21  22
ATOM     22  C   UNL     1    -101.481 -29.498 -16.178  1.00  0.00    -0.000 C 
BRANCH  22  23
ATOM     23  C   UNL     1    -101.732 -27.997 -16.414  1.00  0.00    -0.000 C 
BRANCH  23  24
ATOM     24  C   UNL     1    -103.214 -27.598 -16.557  1.00  0.00    -0.000 C 
BRANCH  24  25
ATOM     25  C   UNL     1    -103.467 -26.091 -16.739  1.00  0.00    -0.003 C 
ATOM     26  C   UNL     1    -104.101 -25.441 -15.510  1.00  0.00     0.004 C 
ENDBRANCH  24  25
ENDBRANCH  23  24
ENDBRANCH  22  23
ENDBRANCH  21  22
ENDBRANCH  20  21
ENDBRANCH  19  20
ENDBRANCH  18  19
ENDBRANCH  17  18
ENDBRANCH  16  17
ENDBRANCH  15  16
ENDBRANCH   1  15
TORSDOF 22
ENDMDL
MODEL 5
REMARK VINA RESULT:    -2.775      2.846      6.840
REMARK INTER + INTRA:         -11.035
REMARK INTER:                  -7.602
REMARK INTRA:                  -3.433
REMARK UNBOUND:                -4.692
REMARK SMILES CCCCCCCCCCCCCCCCCCCCCCCC(=O)[O-]
REMARK SMILES IDX 13 1 14 2 15 3 16 4 17 5 18 6 19 7 20 8 21 9 22 10 23 11
REMARK SMILES IDX 24 12 25 13 26 14 12 15 11 16 10 17 9 18 8 19 7 20 6 21 5 22
REMARK SMILES IDX 4 23 3 24 2 25 1 26
REMARK H PARENT
REMARK Flexibility Score: inf
ROOT
ATOM      1  C   UNL     1    -102.745 -26.669 -15.609  1.00  0.00     0.000 C 
ENDROOT
BRANCH   1   2
ATOM      2  C   UNL     1    -102.357 -27.957 -16.361  1.00  0.00     0.000 C 
BRANCH   2   3
ATOM      3  C   UNL     1    -102.850 -29.262 -15.712  1.00  0.00     0.000 C 
BRANCH   3   4
ATOM      4  C   UNL     1    -104.154 -29.078 -14.916  1.00  0.00     0.000 C 
BRANCH   4   5
ATOM      5  C   UNL     1    -104.007 -29.468 -13.437  1.00  0.00     0.000 C 
BRANCH   5   6
ATOM      6  C   UNL     1    -103.809 -28.248 -12.521  1.00  0.00     0.000 C 
BRANCH   6   7
ATOM      7  C   UNL     1    -103.121 -28.612 -11.195  1.00  0.00     0.000 C 
BRANCH   7   8
ATOM      8  C   UNL     1    -101.592 -28.445 -11.257  1.00  0.00     0.000 C 
BRANCH   8   9
ATOM      9  C   UNL     1    -101.137 -27.622 -12.473  1.00  0.00     0.000 C 
BRANCH   9  10
ATOM     10  C   UNL     1    -100.094 -28.359 -13.327  1.00  0.00     0.006 C 
BRANCH  10  11
ATOM     11  C   UNL     1     -99.305 -29.365 -12.481  1.00  0.00     0.053 C 
BRANCH  11  12
ATOM     12  C   UNL     1     -98.118 -29.870 -13.238  1.00  0.00     0.041 C 
ATOM     13  O   UNL     1     -96.952 -29.615 -12.835  1.00  0.00    -0.550 OA
ATOM     14  O   UNL     1     -98.298 -30.606 -14.404  1.00  0.00    -0.550 OA
ENDBRANCH  11  12
ENDBRANCH  10  11
ENDBRANCH   9  10
ENDBRANCH   8   9
ENDBRANCH   7   8
ENDBRANCH   6   7
ENDBRANCH   5   6
ENDBRANCH   4   5
ENDBRANCH   3   4
ENDBRANCH   2   3
ENDBRANCH   1   2
BRANCH   1  15
ATOM     15  C   UNL     1    -103.652 -25.744 -16.438  1.00  0.00     0.000 C 
BRANCH  15  16
ATOM     16  C   UNL     1    -104.316 -24.647 -15.589  1.00  0.00     0.000 C 
BRANCH  16  17
ATOM     17  C   UNL     1    -104.901 -25.185 -14.272  1.00  0.00     0.000 C 
BRANCH  17  18
ATOM     18  C   UNL     1    -104.625 -24.249 -13.083  1.00  0.00    -0.000 C 
BRANCH  18  19
ATOM     19  C   UNL     1    -105.800 -23.292 -12.810  1.00  0.00    -0.000 C 
BRANCH  19  20
ATOM     20  C   UNL     1    -105.590 -22.437 -11.550  1.00  0.00    -0.000 C 
BRANCH  20  21
ATOM     21  C   UNL     1    -104.348 -21.538 -11.642  1.00  0.00    -0.000 C 
BRANCH  21  22
ATOM     22  C   UNL     1    -103.512 -21.623 -10.356  1.00  0.00    -0.000 C 
BRANCH  22  23
ATOM     23  C   UNL     1    -104.253 -22.333  -9.208  1.00  0.00    -0.000 C 
BRANCH  23  24
ATOM     24  C   UNL     1    -103.446 -23.436  -8.495  1.00  0.00    -0.000 C 
BRANCH  24  25
ATOM     25  C   UNL     1    -103.248 -24.727  -9.309  1.00  0.00    -0.003 C 
ATOM     26  C   UNL     1    -104.559 -25.459  -9.592  1.00  0.00     0.004 C 
ENDBRANCH  24  25
ENDBRANCH  23  24
ENDBRANCH  22  23
ENDBRANCH  21  22
ENDBRANCH  20  21
ENDBRANCH  19  20
ENDBRANCH  18  19
ENDBRANCH  17  18
ENDBRANCH  16  17
ENDBRANCH  15  16
ENDBRANCH   1  15
TORSDOF 22
ENDMDL
MODEL 6
REMARK VINA RESULT:    -2.760      2.466      5.362
REMARK INTER + INTRA:         -11.002
REMARK INTER:                  -6.275
REMARK INTRA:                  -4.728
REMARK UNBOUND:                -4.692
REMARK SMILES CCCCCCCCCCCCCCCCCCCCCCCC(=O)[O-]
REMARK SMILES IDX 13 1 14 2 15 3 16 4 17 5 18 6 19 7 20 8 21 9 22 10 23 11
REMARK SMILES IDX 24 12 25 13 26 14 12 15 11 16 10 17 9 18 8 19 7 20 6 21 5 22
REMARK SMILES IDX 4 23 3 24 2 25 1 26
REMARK H PARENT
REMARK Flexibility Score: inf
ROOT
ATOM      1  C   UNL     1    -103.884 -30.548 -13.303  1.00  0.00     0.000 C 
ENDROOT
BRANCH   1   2
ATOM      2  C   UNL     1    -102.710 -31.436 -12.849  1.00  0.00     0.000 C 
BRANCH   2   3
ATOM      3  C   UNL     1    -101.635 -31.690 -13.922  1.00  0.00     0.000 C 
BRANCH   3   4
ATOM      4  C   UNL     1    -101.967 -31.026 -15.269  1.00  0.00     0.000 C 
BRANCH   4   5
ATOM      5  C   UNL     1    -101.059 -29.824 -15.577  1.00  0.00     0.000 C 
BRANCH   5   6
ATOM      6  C   UNL     1    -101.856 -28.536 -15.845  1.00  0.00     0.000 C 
BRANCH   6   7
ATOM      7  C   UNL     1    -101.589 -27.449 -14.790  1.00  0.00     0.000 C 
BRANCH   7   8
ATOM      8  C   UNL     1    -100.576 -27.897 -13.722  1.00  0.00     0.000 C 
BRANCH   8   9
ATOM      9  C   UNL     1    -101.208 -28.029 -12.328  1.00  0.00     0.000 C 
BRANCH   9  10
ATOM     10  C   UNL     1    -100.434 -28.995 -11.417  1.00  0.00     0.006 C 
BRANCH  10  11
ATOM     11  C   UNL     1     -99.216 -29.575 -12.144  1.00  0.00     0.053 C 
BRANCH  11  12
ATOM     12  C   UNL     1     -98.179 -30.016 -11.160  1.00  0.00     0.041 C 
ATOM     13  O   UNL     1     -98.522 -30.475 -10.039  1.00  0.00    -0.550 OA
ATOM     14  O   UNL     1     -96.829 -29.901 -11.473  1.00  0.00    -0.550 OA
ENDBRANCH  11  12
ENDBRANCH  10  11
ENDBRANCH   9  10
ENDBRANCH   8   9
ENDBRANCH   7   8
ENDBRANCH   6   7
ENDBRANCH   5   6
ENDBRANCH   4   5
ENDBRANCH   3   4
ENDBRANCH   2   3
ENDBRANCH   1   2
BRANCH   1  15
ATOM     15  C   UNL     1    -104.323 -29.542 -12.225  1.00  0.00     0.000 C 
BRANCH  15  16
ATOM     16  C   UNL     1    -104.846 -28.224 -12.820  1.00  0.00     0.000 C 
BRANCH  16  17
ATOM     17  C   UNL     1    -105.174 -27.173 -11.744  1.00  0.00     0.000 C 
BRANCH  17  18
ATOM     18  C   UNL     1    -104.449 -25.839 -11.989  1.00  0.00    -0.000 C 
BRANCH  18  19
ATOM     19  C   UNL     1    -104.218 -25.568 -13.487  1.00  0.00    -0.000 C 
BRANCH  19  20
ATOM     20  C   UNL     1    -104.732 -24.188 -13.927  1.00  0.00    -0.000 C 
BRANCH  20  21
ATOM     21  C   UNL     1    -104.758 -24.022 -15.454  1.00  0.00    -0.000 C 
BRANCH  21  22
ATOM     22  C   UNL     1    -104.172 -25.259 -16.150  1.00  0.00    -0.000 C 
BRANCH  22  23
ATOM     23  C   UNL     1    -105.225 -26.056 -16.942  1.00  0.00    -0.000 C 
BRANCH  23  24
ATOM     24  C   UNL     1    -105.459 -27.497 -16.449  1.00  0.00    -0.000 C 
BRANCH  24  25
ATOM     25  C   UNL     1    -106.878 -27.785 -15.928  1.00  0.00    -0.003 C 
ATOM     26  C   UNL     1    -107.441 -26.648 -15.076  1.00  0.00     0.004 C 
ENDBRANCH  24  25
ENDBRANCH  23  24
ENDBRANCH  22  23
ENDBRANCH  21  22
ENDBRANCH  20  21
ENDBRANCH  19  20
ENDBRANCH  18  19
ENDBRANCH  17  18
ENDBRANCH  16  17
ENDBRANCH  15  16
ENDBRANCH   1  15
TORSDOF 22
ENDMDL
MODEL 7
REMARK VINA RESULT:    -2.746      2.318      5.109
REMARK INTER + INTRA:         -10.969
REMARK INTER:                  -7.561
REMARK INTRA:                  -3.408
REMARK UNBOUND:                -4.692
REMARK SMILES CCCCCCCCCCCCCCCCCCCCCCCC(=O)[O-]
REMARK SMILES IDX 13 1 14 2 15 3 16 4 17 5 18 6 19 7 20 8 21 9 22 10 23 11
REMARK SMILES IDX 24 12 25 13 26 14 12 15 11 16 10 17 9 18 8 19 7 20 6 21 5 22
REMARK SMILES IDX 4 23 3 24 2 25 1 26
REMARK H PARENT
REMARK Flexibility Score: inf
ROOT
ATOM      1  C   UNL     1    -103.523 -26.803 -16.766  1.00  0.00     0.000 C 
ENDROOT
BRANCH   1   2
ATOM      2  C   UNL     1    -104.026 -25.380 -16.455  1.00  0.00     0.000 C 
BRANCH   2   3
ATOM      3  C   UNL     1    -104.227 -25.073 -14.960  1.00  0.00     0.000 C 
BRANCH   3   4
ATOM      4  C   UNL     1    -104.860 -23.693 -14.713  1.00  0.00     0.000 C 
BRANCH   4   5
ATOM      5  C   UNL     1    -104.986 -23.356 -13.219  1.00  0.00     0.000 C 
BRANCH   5   6
ATOM      6  C   UNL     1    -104.811 -24.591 -12.319  1.00  0.00     0.000 C 
BRANCH   6   7
ATOM      7  C   UNL     1    -104.788 -24.231 -10.824  1.00  0.00     0.000 C 
BRANCH   7   8
ATOM      8  C   UNL     1    -104.374 -22.770 -10.573  1.00  0.00     0.000 C 
BRANCH   8   9
ATOM      9  C   UNL     1    -103.630 -22.588  -9.241  1.00  0.00     0.000 C 
BRANCH   9  10
ATOM     10  C   UNL     1    -102.907 -23.866  -8.789  1.00  0.00     0.006 C 
BRANCH  10  11
ATOM     11  C   UNL     1    -102.041 -23.597  -7.553  1.00  0.00     0.053 C 
BRANCH  11  12
ATOM     12  C   UNL     1    -102.858 -23.709  -6.305  1.00  0.00     0.041 C 
ATOM     13  O   UNL     1    -103.373 -24.811  -5.981  1.00  0.00    -0.550 OA
ATOM     14  O   UNL     1    -103.070 -22.589  -5.509  1.00  0.00    -0.550 OA
ENDBRANCH  11  12
ENDBRANCH  10  11
ENDBRANCH   9  10
ENDBRANCH   8   9
ENDBRANCH   7   8
ENDBRANCH   6   7
ENDBRANCH   5   6
ENDBRANCH   4   5
ENDBRANCH   3   4
ENDBRANCH   2   3
ENDBRANCH   1   2
BRANCH   1  15
ATOM     15  C   UNL     1    -102.364 -27.238 -15.853  1.00  0.00     0.000 C 
BRANCH  15  16
ATOM     16  C   UNL     1    -101.603 -28.458 -16.400  1.00  0.00     0.000 C 
BRANCH  16  17
ATOM     17  C   UNL     1    -101.885 -29.743 -15.601  1.00  0.00     0.000 C 
BRANCH  17  18
ATOM     18  C   UNL     1    -103.306 -30.280 -15.838  1.00  0.00    -0.000 C 
BRANCH  18  19
ATOM     19  C   UNL     1    -104.138 -30.318 -14.544  1.00  0.00    -0.000 C 
BRANCH  19  20
ATOM     20  C   UNL     1    -105.250 -29.257 -14.520  1.00  0.00    -0.000 C 
BRANCH  20  21
ATOM     21  C   UNL     1    -105.062 -28.223 -13.400  1.00  0.00    -0.000 C 
BRANCH  21  22
ATOM     22  C   UNL     1    -103.869 -28.592 -12.507  1.00  0.00    -0.000 C 
BRANCH  22  23
ATOM     23  C   UNL     1    -102.860 -27.440 -12.349  1.00  0.00    -0.000 C 
BRANCH  23  24
ATOM     24  C   UNL     1    -101.545 -27.818 -11.640  1.00  0.00    -0.000 C 
BRANCH  24  25
ATOM     25  C   UNL     1    -100.770 -28.982 -12.284  1.00  0.00    -0.003 C 
ATOM     26  C   UNL     1     -99.579 -28.515 -13.119  1.00  0.00     0.004 C 
ENDBRANCH  24  25
ENDBRANCH  23  24
ENDBRANCH  22  23
ENDBRANCH  21  22
ENDBRANCH  20  21
ENDBRANCH  19  20
ENDBRANCH  18  19
ENDBRANCH  17  18
ENDBRANCH  16  17
ENDBRANCH  15  16
ENDBRANCH   1  15
TORSDOF 22
ENDMDL
MODEL 8
REMARK VINA RESULT:    -2.745      2.392      6.092
REMARK INTER + INTRA:         -10.967
REMARK INTER:                  -6.576
REMARK INTRA:                  -4.391
REMARK UNBOUND:                -4.692
REMARK SMILES CCCCCCCCCCCCCCCCCCCCCCCC(=O)[O-]
REMARK SMILES IDX 13 1 14 2 15 3 16 4 17 5 18 6 19 7 20 8 21 9 22 10 23 11
REMARK SMILES IDX 24 12 25 13 26 14 12 15 11 16 10 17 9 18 8 19 7 20 6 21 5 22
REMARK SMILES IDX 4 23 3 24 2 25 1 26
REMARK H PARENT
REMARK Flexibility Score: inf
ROOT
ATOM      1  C   UNL     1    -104.352 -28.143 -12.449  1.00  0.00     0.000 C 
ENDROOT
BRANCH   1   2
ATOM      2  C   UNL     1    -105.371 -28.169 -13.604  1.00  0.00     0.000 C 
BRANCH   2   3
ATOM      3  C   UNL     1    -105.977 -26.802 -13.967  1.00  0.00     0.000 C 
BRANCH   3   4
ATOM      4  C   UNL     1    -105.713 -26.400 -15.429  1.00  0.00     0.000 C 
BRANCH   4   5
ATOM      5  C   UNL     1    -104.623 -25.324 -15.561  1.00  0.00     0.000 C 
BRANCH   5   6
ATOM      6  C   UNL     1    -103.493 -25.742 -16.517  1.00  0.00     0.000 C 
BRANCH   6   7
ATOM      7  C   UNL     1    -103.208 -27.252 -16.468  1.00  0.00     0.000 C 
BRANCH   7   8
ATOM      8  C   UNL     1    -101.905 -27.584 -15.718  1.00  0.00     0.000 C 
BRANCH   8   9
ATOM      9  C   UNL     1    -101.910 -29.002 -15.126  1.00  0.00     0.000 C 
BRANCH   9  10
ATOM     10  C   UNL     1    -100.570 -29.372 -14.471  1.00  0.00     0.006 C 
BRANCH  10  11
ATOM     11  C   UNL     1    -100.350 -28.572 -13.182  1.00  0.00     0.053 C 
BRANCH  11  12
ATOM     12  C   UNL     1    -100.725 -29.388 -11.986  1.00  0.00     0.041 C 
ATOM     13  O   UNL     1    -100.953 -28.828 -10.882  1.00  0.00    -0.550 OA
ATOM     14  O   UNL     1    -100.802 -30.773 -12.085  1.00  0.00    -0.550 OA
ENDBRANCH  11  12
ENDBRANCH  10  11
ENDBRANCH   9  10
ENDBRANCH   8   9
ENDBRANCH   7   8
ENDBRANCH   6   7
ENDBRANCH   5   6
ENDBRANCH   4   5
ENDBRANCH   3   4
ENDBRANCH   2   3
ENDBRANCH   1   2
BRANCH   1  15
ATOM     15  C   UNL     1    -103.508 -26.858 -12.425  1.00  0.00     0.000 C 
BRANCH  15  16
ATOM     16  C   UNL     1    -103.360 -26.270 -11.012  1.00  0.00     0.000 C 
BRANCH  16  17
ATOM     17  C   UNL     1    -104.715 -26.025 -10.323  1.00  0.00     0.000 C 
BRANCH  17  18
ATOM     18  C   UNL     1    -104.610 -25.014  -9.169  1.00  0.00    -0.000 C 
BRANCH  18  19
ATOM     19  C   UNL     1    -103.153 -24.613  -8.875  1.00  0.00    -0.000 C 
BRANCH  19  20
ATOM     20  C   UNL     1    -102.994 -23.109  -8.603  1.00  0.00    -0.000 C 
BRANCH  20  21
ATOM     21  C   UNL     1    -104.121 -22.269  -9.225  1.00  0.00    -0.000 C 
BRANCH  21  22
ATOM     22  C   UNL     1    -103.612 -21.488 -10.445  1.00  0.00    -0.000 C 
BRANCH  22  23
ATOM     23  C   UNL     1    -104.568 -21.569 -11.650  1.00  0.00    -0.000 C 
BRANCH  23  24
ATOM     24  C   UNL     1    -104.655 -22.954 -12.320  1.00  0.00    -0.000 C 
BRANCH  24  25
ATOM     25  C   UNL     1    -106.083 -23.436 -12.634  1.00  0.00    -0.003 C 
ATOM     26  C   UNL     1    -107.036 -23.286 -11.449  1.00  0.00     0.004 C 
ENDBRANCH  24  25
ENDBRANCH  23  24
ENDBRANCH  22  23
ENDBRANCH  21  22
ENDBRANCH  20  21
ENDBRANCH  19  20
ENDBRANCH  18  19
ENDBRANCH  17  18
ENDBRANCH  16  17
ENDBRANCH  15  16
ENDBRANCH   1  15
TORSDOF 22
ENDMDL
MODEL 9
REMARK VINA RESULT:    -2.714      2.689      6.741
REMARK INTER + INTRA:         -10.896
REMARK INTER:                  -7.205
REMARK INTRA:                  -3.692
REMARK UNBOUND:                -4.692
REMARK SMILES CCCCCCCCCCCCCCCCCCCCCCCC(=O)[O-]
REMARK SMILES IDX 13 1 14 2 15 3 16 4 17 5 18 6 19 7 20 8 21 9 22 10 23 11
REMARK SMILES IDX 24 12 25 13 26 14 12 15 11 16 10 17 9 18 8 19 7 20 6 21 5 22
REMARK SMILES IDX 4 23 3 24 2 25 1 26
REMARK H PARENT
REMARK Flexibility Score: inf
ROOT
ATOM      1  C   UNL     1    -101.672 -28.839 -13.637  1.00  0.00     0.000 C 
ENDROOT
BRANCH   1   2
ATOM      2  C   UNL     1    -100.508 -29.411 -12.805  1.00  0.00     0.000 C 
BRANCH   2   3
ATOM      3  C   UNL     1     -99.159 -28.693 -12.994  1.00  0.00     0.000 C 
BRANCH   3   4
ATOM      4  C   UNL     1     -97.955 -29.642 -12.862  1.00  0.00     0.000 C 
BRANCH   4   5
ATOM      5  C   UNL     1     -98.355 -31.047 -12.386  1.00  0.00     0.000 C 
BRANCH   5   6
ATOM      6  C   UNL     1     -98.098 -32.127 -13.451  1.00  0.00     0.000 C 
BRANCH   6   7
ATOM      7  C   UNL     1     -97.452 -31.557 -14.724  1.00  0.00     0.000 C 
BRANCH   7   8
ATOM      8  C   UNL     1     -98.308 -31.797 -15.980  1.00  0.00     0.000 C 
BRANCH   8   9
ATOM      9  C   UNL     1     -99.596 -30.959 -15.986  1.00  0.00     0.000 C 
BRANCH   9  10
ATOM     10  C   UNL     1    -100.863 -31.825 -16.045  1.00  0.00     0.006 C 
BRANCH  10  11
ATOM     11  C   UNL     1    -101.956 -31.141 -16.875  1.00  0.00     0.053 C 
BRANCH  11  12
ATOM     12  C   UNL     1    -103.307 -31.419 -16.295  1.00  0.00     0.041 C 
ATOM     13  O   UNL     1    -103.494 -31.331 -15.052  1.00  0.00    -0.550 OA
ATOM     14  O   UNL     1    -104.356 -31.797 -17.125  1.00  0.00    -0.550 OA
ENDBRANCH  11  12
ENDBRANCH  10  11
ENDBRANCH   9  10
ENDBRANCH   8   9
ENDBRANCH   7   8
ENDBRANCH   6   7
ENDBRANCH   5   6
ENDBRANCH   4   5
ENDBRANCH   3   4
ENDBRANCH   2   3
ENDBRANCH   1   2
BRANCH   1  15
ATOM     15  C   UNL     1    -101.250 -27.647 -14.512  1.00  0.00     0.000 C 
BRANCH  15  16
ATOM     16  C   UNL     1    -101.631 -27.831 -15.991  1.00  0.00     0.000 C 
BRANCH  16  17
ATOM     17  C   UNL     1    -103.142 -27.681 -16.240  1.00  0.00     0.000 C 
BRANCH  17  18
ATOM     18  C   UNL     1    -103.514 -26.284 -16.764  1.00  0.00    -0.000 C 
BRANCH  18  19
ATOM     19  C   UNL     1    -105.021 -26.150 -17.048  1.00  0.00    -0.000 C 
BRANCH  19  20
ATOM     20  C   UNL     1    -105.682 -25.025 -16.237  1.00  0.00    -0.000 C 
BRANCH  20  21
ATOM     21  C   UNL     1    -104.659 -24.088 -15.577  1.00  0.00    -0.000 C 
BRANCH  21  22
ATOM     22  C   UNL     1    -105.016 -23.836 -14.105  1.00  0.00    -0.000 C 
BRANCH  22  23
ATOM     23  C   UNL     1    -105.315 -25.134 -13.332  1.00  0.00    -0.000 C 
BRANCH  23  24
ATOM     24  C   UNL     1    -104.080 -25.992 -12.994  1.00  0.00    -0.000 C 
BRANCH  24  25
ATOM     25  C   UNL     1    -104.211 -26.849 -11.722  1.00  0.00    -0.003 C 
ATOM     26  C   UNL     1    -102.957 -26.816 -10.850  1.00  0.00     0.004 C 
ENDBRANCH  24  25
ENDBRANCH  23  24
ENDBRANCH  22  23
ENDBRANCH  21  22
ENDBRANCH  20  21
ENDBRANCH  19  20
ENDBRANCH  18  19
ENDBRANCH  17  18
ENDBRANCH  16  17
ENDBRANCH  15  16
ENDBRANCH   1  15
TORSDOF 22
ENDMDL
