MODEL 1
REMARK VINA RESULT:    -7.036      0.000      0.000
REMARK INTER + INTRA:          -8.552
REMARK INTER:                  -8.270
REMARK INTRA:                  -0.282
REMARK UNBOUND:                -0.282
REMARK SMILES O=c1cc(-c2ccc(O)c(O)c2)oc2cc(O)cc(O)c12
REMARK SMILES IDX 4 1 3 2 2 3 1 4 21 5 19 6 18 7 16 8 15 9 14 10 13 11 5 12
REMARK SMILES IDX 6 13 7 14 8 15 12 16 10 17 9 18 11 20 20 22 17 24
REMARK H PARENT 9 19 11 21 20 23 17 25
REMARK Flexibility Score: inf
ROOT
ATOM      1  C   UNL     1      27.691  13.113  65.518  1.00  0.00     0.138 A 
ATOM      2  C   UNL     1      27.240  13.292  66.837  1.00  0.00     0.100 A 
ATOM      3  C   UNL     1      26.178  14.162  67.086  1.00  0.00     0.197 A 
ATOM      4  O   UNL     1      25.779  14.315  68.273  1.00  0.00    -0.289 OA
ATOM      5  C   UNL     1      25.572  14.845  66.014  1.00  0.00     0.107 A 
ATOM      6  C   UNL     1      24.491  15.744  66.179  1.00  0.00     0.134 A 
ATOM      7  C   UNL     1      23.939  16.381  65.059  1.00  0.00     0.093 A 
ATOM      8  C   UNL     1      24.443  16.136  63.780  1.00  0.00     0.123 A 
ATOM      9  C   UNL     1      25.510  15.248  63.609  1.00  0.00     0.094 A 
ATOM     10  C   UNL     1      26.075  14.604  64.713  1.00  0.00     0.146 A 
ATOM     11  O   UNL     1      27.090  13.766  64.527  1.00  0.00    -0.456 OA
ENDROOT
BRANCH   1  12
ATOM     12  C   UNL     1      28.815  12.200  65.193  1.00  0.00     0.021 A 
ATOM     13  C   UNL     1      30.056  12.376  65.831  1.00  0.00     0.016 A 
ATOM     14  C   UNL     1      31.129  11.526  65.547  1.00  0.00     0.051 A 
ATOM     15  C   UNL     1      30.976  10.480  64.630  1.00  0.00     0.157 A 
ATOM     16  C   UNL     1      28.666  11.136  64.281  1.00  0.00     0.062 A 
ATOM     17  C   UNL     1      29.744  10.283  63.998  1.00  0.00     0.158 A 
BRANCH  15  18
ATOM     18  O   UNL     1      32.044   9.631  64.344  1.00  0.00    -0.504 OA
ATOM     19  H   UNL     1      32.715   9.850  63.617  1.00  0.00     0.293 HD
ENDBRANCH  15  18
BRANCH  17  20
ATOM     20  O   UNL     1      29.593   9.233  63.093  1.00  0.00    -0.504 OA
ATOM     21  H   UNL     1      28.779   8.630  63.111  1.00  0.00     0.293 HD
ENDBRANCH  17  20
ENDBRANCH   1  12
BRANCH   6  22
ATOM     22  O   UNL     1      23.966  16.010  67.446  1.00  0.00    -0.507 OA
ATOM     23  H   UNL     1      22.967  16.033  67.613  1.00  0.00     0.293 HD
ENDBRANCH   6  22
BRANCH   8  24
ATOM     24  O   UNL     1      23.875  16.781  62.682  1.00  0.00    -0.508 OA
ATOM     25  H   UNL     1      24.340  17.557  62.225  1.00  0.00     0.293 HD
ENDBRANCH   8  24
TORSDOF 5
ENDMDL
MODEL 2
REMARK VINA RESULT:    -6.857      6.201      9.102
REMARK INTER + INTRA:          -8.341
REMARK INTER:                  -8.033
REMARK INTRA:                  -0.308
REMARK UNBOUND:                -0.282
REMARK SMILES O=c1cc(-c2ccc(O)c(O)c2)oc2cc(O)cc(O)c12
REMARK SMILES IDX 4 1 3 2 2 3 1 4 21 5 19 6 18 7 16 8 15 9 14 10 13 11 5 12
REMARK SMILES IDX 6 13 7 14 8 15 12 16 10 17 9 18 11 20 20 22 17 24
REMARK H PARENT 9 19 11 21 20 23 17 25
REMARK Flexibility Score: inf
ROOT
ATOM      1  C   UNL     1      34.445  12.178  62.548  1.00  0.00     0.138 A 
ATOM      2  C   UNL     1      34.916  11.425  61.459  1.00  0.00     0.100 A 
ATOM      3  C   UNL     1      34.127  10.396  60.944  1.00  0.00     0.197 A 
ATOM      4  O   UNL     1      34.558   9.727  59.965  1.00  0.00    -0.289 OA
ATOM      5  C   UNL     1      32.870  10.128  61.521  1.00  0.00     0.107 A 
ATOM      6  C   UNL     1      32.009   9.104  61.060  1.00  0.00     0.134 A 
ATOM      7  C   UNL     1      30.770   8.904  61.685  1.00  0.00     0.093 A 
ATOM      8  C   UNL     1      30.375   9.708  62.757  1.00  0.00     0.123 A 
ATOM      9  C   UNL     1      31.221  10.722  63.217  1.00  0.00     0.094 A 
ATOM     10  C   UNL     1      32.461  10.936  62.608  1.00  0.00     0.146 A 
ATOM     11  O   UNL     1      33.249  11.905  63.063  1.00  0.00    -0.456 OA
ENDROOT
BRANCH   1  12
ATOM     12  C   UNL     1      35.240  13.285  63.137  1.00  0.00     0.021 A 
ATOM     13  C   UNL     1      36.163  13.977  62.334  1.00  0.00     0.016 A 
ATOM     14  C   UNL     1      36.919  15.027  62.861  1.00  0.00     0.051 A 
ATOM     15  C   UNL     1      36.757  15.410  64.198  1.00  0.00     0.157 A 
ATOM     16  C   UNL     1      35.074  13.685  64.478  1.00  0.00     0.062 A 
ATOM     17  C   UNL     1      35.832  14.740  65.007  1.00  0.00     0.158 A 
BRANCH  15  18
ATOM     18  O   UNL     1      37.510  16.456  64.729  1.00  0.00    -0.504 OA
ATOM     19  H   UNL     1      37.881  16.418  65.671  1.00  0.00     0.293 HD
ENDBRANCH  15  18
BRANCH  17  20
ATOM     20  O   UNL     1      35.667  15.131  66.335  1.00  0.00    -0.504 OA
ATOM     21  H   UNL     1      34.748  15.199  66.757  1.00  0.00     0.293 HD
ENDBRANCH  17  20
ENDBRANCH   1  12
BRANCH   6  22
ATOM     22  O   UNL     1      32.376   8.285  59.991  1.00  0.00    -0.507 OA
ATOM     23  H   UNL     1      33.289   8.353  59.557  1.00  0.00     0.293 HD
ENDBRANCH   6  22
BRANCH   8  24
ATOM     24  O   UNL     1      29.138   9.488  63.361  1.00  0.00    -0.508 OA
ATOM     25  H   UNL     1      28.482  10.245  63.514  1.00  0.00     0.293 HD
ENDBRANCH   8  24
TORSDOF 5
ENDMDL
MODEL 3
REMARK VINA RESULT:    -6.575      5.824      9.066
REMARK INTER + INTRA:          -8.010
REMARK INTER:                  -7.724
REMARK INTRA:                  -0.286
REMARK UNBOUND:                -0.282
REMARK SMILES O=c1cc(-c2ccc(O)c(O)c2)oc2cc(O)cc(O)c12
REMARK SMILES IDX 4 1 3 2 2 3 1 4 21 5 19 6 18 7 16 8 15 9 14 10 13 11 5 12
REMARK SMILES IDX 6 13 7 14 8 15 12 16 10 17 9 18 11 20 20 22 17 24
REMARK H PARENT 9 19 11 21 20 23 17 25
REMARK Flexibility Score: inf
ROOT
ATOM      1  C   UNL     1      34.454   9.975  60.868  1.00  0.00     0.138 A 
ATOM      2  C   UNL     1      34.908  10.951  61.771  1.00  0.00     0.100 A 
ATOM      3  C   UNL     1      34.058  11.399  62.782  1.00  0.00     0.197 A 
ATOM      4  O   UNL     1      34.475  12.274  63.589  1.00  0.00    -0.289 OA
ATOM      5  C   UNL     1      32.758  10.866  62.885  1.00  0.00     0.107 A 
ATOM      6  C   UNL     1      31.833  11.265  63.879  1.00  0.00     0.134 A 
ATOM      7  C   UNL     1      30.558  10.682  63.918  1.00  0.00     0.093 A 
ATOM      8  C   UNL     1      30.193   9.707  62.985  1.00  0.00     0.123 A 
ATOM      9  C   UNL     1      31.102   9.308  62.000  1.00  0.00     0.094 A 
ATOM     10  C   UNL     1      32.377   9.879  61.944  1.00  0.00     0.146 A 
ATOM     11  O   UNL     1      33.224   9.485  60.999  1.00  0.00    -0.456 OA
ENDROOT
BRANCH   1  12
ATOM     12  C   UNL     1      35.315   9.460  59.774  1.00  0.00     0.021 A 
ATOM     13  C   UNL     1      35.963  10.368  58.918  1.00  0.00     0.016 A 
ATOM     14  C   UNL     1      36.784   9.909  57.884  1.00  0.00     0.051 A 
ATOM     15  C   UNL     1      36.980   8.536  57.696  1.00  0.00     0.157 A 
ATOM     16  C   UNL     1      35.527   8.080  59.585  1.00  0.00     0.062 A 
ATOM     17  C   UNL     1      36.353   7.621  58.548  1.00  0.00     0.158 A 
BRANCH  15  18
ATOM     18  O   UNL     1      37.797   8.075  56.666  1.00  0.00    -0.504 OA
ATOM     19  H   UNL     1      38.285   7.188  56.732  1.00  0.00     0.293 HD
ENDBRANCH  15  18
BRANCH  17  20
ATOM     20  O   UNL     1      36.559   6.254  58.363  1.00  0.00    -0.504 OA
ATOM     21  H   UNL     1      35.814   5.582  58.503  1.00  0.00     0.293 HD
ENDBRANCH  17  20
ENDBRANCH   1  12
BRANCH   6  22
ATOM     22  O   UNL     1      32.170  12.236  64.824  1.00  0.00    -0.507 OA
ATOM     23  H   UNL     1      31.500  12.567  65.508  1.00  0.00     0.293 HD
ENDBRANCH   6  22
BRANCH   8  24
ATOM     24  O   UNL     1      28.920   9.142  63.045  1.00  0.00    -0.508 OA
ATOM     25  H   UNL     1      28.776   8.193  63.369  1.00  0.00     0.293 HD
ENDBRANCH   8  24
TORSDOF 5
ENDMDL
MODEL 4
REMARK VINA RESULT:    -6.569      7.192      9.658
REMARK INTER + INTRA:          -8.003
REMARK INTER:                  -7.724
REMARK INTRA:                  -0.279
REMARK UNBOUND:                -0.282
REMARK SMILES O=c1cc(-c2ccc(O)c(O)c2)oc2cc(O)cc(O)c12
REMARK SMILES IDX 4 1 3 2 2 3 1 4 21 5 19 6 18 7 16 8 15 9 14 10 13 11 5 12
REMARK SMILES IDX 6 13 7 14 8 15 12 16 10 17 9 18 11 20 20 22 17 24
REMARK H PARENT 9 19 11 21 20 23 17 25
REMARK Flexibility Score: inf
ROOT
ATOM      1  C   UNL     1      35.301  13.187  62.746  1.00  0.00     0.138 A 
ATOM      2  C   UNL     1      34.676  13.098  64.002  1.00  0.00     0.100 A 
ATOM      3  C   UNL     1      33.724  12.103  64.225  1.00  0.00     0.197 A 
ATOM      4  O   UNL     1      33.170  12.029  65.356  1.00  0.00    -0.289 OA
ATOM      5  C   UNL     1      33.405  11.200  63.191  1.00  0.00     0.107 A 
ATOM      6  C   UNL     1      32.453  10.164  63.333  1.00  0.00     0.134 A 
ATOM      7  C   UNL     1      32.196   9.302  62.257  1.00  0.00     0.093 A 
ATOM      8  C   UNL     1      32.873   9.456  61.045  1.00  0.00     0.123 A 
ATOM      9  C   UNL     1      33.815  10.479  60.897  1.00  0.00     0.094 A 
ATOM     10  C   UNL     1      34.085  11.349  61.958  1.00  0.00     0.146 A 
ATOM     11  O   UNL     1      34.984  12.313  61.794  1.00  0.00    -0.456 OA
ENDROOT
BRANCH   1  12
ATOM     12  C   UNL     1      36.321  14.225  62.452  1.00  0.00     0.021 A 
ATOM     13  C   UNL     1      36.278  14.908  61.223  1.00  0.00     0.016 A 
ATOM     14  C   UNL     1      37.223  15.894  60.924  1.00  0.00     0.051 A 
ATOM     15  C   UNL     1      38.219  16.220  61.852  1.00  0.00     0.157 A 
ATOM     16  C   UNL     1      37.320  14.569  63.385  1.00  0.00     0.062 A 
ATOM     17  C   UNL     1      38.266  15.559  63.084  1.00  0.00     0.158 A 
BRANCH  15  18
ATOM     18  O   UNL     1      39.164  17.201  61.557  1.00  0.00    -0.504 OA
ATOM     19  H   UNL     1      39.263  18.032  62.130  1.00  0.00     0.293 HD
ENDBRANCH  15  18
BRANCH  17  20
ATOM     20  O   UNL     1      39.254  15.895  64.009  1.00  0.00    -0.504 OA
ATOM     21  H   UNL     1      39.030  16.086  64.978  1.00  0.00     0.293 HD
ENDBRANCH  17  20
ENDBRANCH   1  12
BRANCH   6  22
ATOM     22  O   UNL     1      31.761   9.985  64.533  1.00  0.00    -0.507 OA
ATOM     23  H   UNL     1      31.920  10.585  65.334  1.00  0.00     0.293 HD
ENDBRANCH   6  22
BRANCH   8  24
ATOM     24  O   UNL     1      32.599   8.587  59.990  1.00  0.00    -0.508 OA
ATOM     25  H   UNL     1      32.882   7.614  60.019  1.00  0.00     0.293 HD
ENDBRANCH   8  24
TORSDOF 5
ENDMDL
MODEL 5
REMARK VINA RESULT:    -6.547      9.356     11.979
REMARK INTER + INTRA:          -7.978
REMARK INTER:                  -7.712
REMARK INTRA:                  -0.266
REMARK UNBOUND:                -0.282
REMARK SMILES O=c1cc(-c2ccc(O)c(O)c2)oc2cc(O)cc(O)c12
REMARK SMILES IDX 4 1 3 2 2 3 1 4 21 5 19 6 18 7 16 8 15 9 14 10 13 11 5 12
REMARK SMILES IDX 6 13 7 14 8 15 12 16 10 17 9 18 11 20 20 22 17 24
REMARK H PARENT 9 19 11 21 20 23 17 25
REMARK Flexibility Score: inf
ROOT
ATOM      1  C   UNL     1      36.985  15.117  61.967  1.00  0.00     0.138 A 
ATOM      2  C   UNL     1      35.971  14.288  62.477  1.00  0.00     0.100 A 
ATOM      3  C   UNL     1      36.037  13.860  63.803  1.00  0.00     0.197 A 
ATOM      4  O   UNL     1      35.121  13.117  64.251  1.00  0.00    -0.289 OA
ATOM      5  C   UNL     1      37.116  14.267  64.612  1.00  0.00     0.107 A 
ATOM      6  C   UNL     1      37.259  13.878  65.965  1.00  0.00     0.134 A 
ATOM      7  C   UNL     1      38.359  14.331  66.707  1.00  0.00     0.093 A 
ATOM      8  C   UNL     1      39.317  15.164  66.123  1.00  0.00     0.123 A 
ATOM      9  C   UNL     1      39.182  15.552  64.786  1.00  0.00     0.094 A 
ATOM     10  C   UNL     1      38.092  15.111  64.030  1.00  0.00     0.146 A 
ATOM     11  O   UNL     1      37.985  15.492  62.761  1.00  0.00    -0.456 OA
ENDROOT
BRANCH   1  12
ATOM     12  C   UNL     1      36.967  15.604  60.565  1.00  0.00     0.021 A 
ATOM     13  C   UNL     1      37.312  14.725  59.523  1.00  0.00     0.016 A 
ATOM     14  C   UNL     1      37.297  15.157  58.194  1.00  0.00     0.051 A 
ATOM     15  C   UNL     1      36.926  16.471  57.883  1.00  0.00     0.157 A 
ATOM     16  C   UNL     1      36.583  16.921  60.242  1.00  0.00     0.062 A 
ATOM     17  C   UNL     1      36.566  17.353  58.907  1.00  0.00     0.158 A 
BRANCH  15  18
ATOM     18  O   UNL     1      36.911  16.905  56.559  1.00  0.00    -0.504 OA
ATOM     19  H   UNL     1      36.058  17.230  56.117  1.00  0.00     0.293 HD
ENDBRANCH  15  18
BRANCH  17  20
ATOM     20  O   UNL     1      36.187  18.657  58.593  1.00  0.00    -0.504 OA
ATOM     21  H   UNL     1      36.089  18.964  57.633  1.00  0.00     0.293 HD
ENDBRANCH  17  20
ENDBRANCH   1  12
BRANCH   6  22
ATOM     22  O   UNL     1      36.318  13.046  66.576  1.00  0.00    -0.507 OA
ATOM     23  H   UNL     1      35.512  13.421  67.063  1.00  0.00     0.293 HD
ENDBRANCH   6  22
BRANCH   8  24
ATOM     24  O   UNL     1      40.402  15.601  66.882  1.00  0.00    -0.508 OA
ATOM     25  H   UNL     1      40.273  16.150  67.723  1.00  0.00     0.293 HD
ENDBRANCH   8  24
TORSDOF 5
ENDMDL
MODEL 6
REMARK VINA RESULT:    -6.459      4.007      5.961
REMARK INTER + INTRA:          -7.873
REMARK INTER:                  -7.558
REMARK INTRA:                  -0.316
REMARK UNBOUND:                -0.282
REMARK SMILES O=c1cc(-c2ccc(O)c(O)c2)oc2cc(O)cc(O)c12
REMARK SMILES IDX 4 1 3 2 2 3 1 4 21 5 19 6 18 7 16 8 15 9 14 10 13 11 5 12
REMARK SMILES IDX 6 13 7 14 8 15 12 16 10 17 9 18 11 20 20 22 17 24
REMARK H PARENT 9 19 11 21 20 23 17 25
REMARK Flexibility Score: inf
ROOT
ATOM      1  C   UNL     1      31.092  10.577  63.792  1.00  0.00     0.138 A 
ATOM      2  C   UNL     1      29.713  10.335  63.913  1.00  0.00     0.100 A 
ATOM      3  C   UNL     1      29.006  10.908  64.971  1.00  0.00     0.197 A 
ATOM      4  O   UNL     1      27.769  10.686  65.070  1.00  0.00    -0.289 OA
ATOM      5  C   UNL     1      29.683  11.722  65.900  1.00  0.00     0.107 A 
ATOM      6  C   UNL     1      29.042  12.339  67.000  1.00  0.00     0.134 A 
ATOM      7  C   UNL     1      29.786  13.141  67.878  1.00  0.00     0.093 A 
ATOM      8  C   UNL     1      31.154  13.338  67.676  1.00  0.00     0.123 A 
ATOM      9  C   UNL     1      31.794  12.731  66.591  1.00  0.00     0.094 A 
ATOM     10  C   UNL     1      31.070  11.927  65.705  1.00  0.00     0.146 A 
ATOM     11  O   UNL     1      31.699  11.360  64.681  1.00  0.00    -0.456 OA
ENDROOT
BRANCH   1  12
ATOM     12  C   UNL     1      31.895   9.996  62.687  1.00  0.00     0.021 A 
ATOM     13  C   UNL     1      31.240   9.430  61.579  1.00  0.00     0.016 A 
ATOM     14  C   UNL     1      31.973   8.883  60.523  1.00  0.00     0.051 A 
ATOM     15  C   UNL     1      33.372   8.901  60.551  1.00  0.00     0.157 A 
ATOM     16  C   UNL     1      33.304  10.022  62.702  1.00  0.00     0.062 A 
ATOM     17  C   UNL     1      34.039   9.474  61.639  1.00  0.00     0.158 A 
BRANCH  15  18
ATOM     18  O   UNL     1      34.106   8.355  59.500  1.00  0.00    -0.504 OA
ATOM     19  H   UNL     1      34.629   8.940  58.858  1.00  0.00     0.293 HD
ENDBRANCH  15  18
BRANCH  17  20
ATOM     20  O   UNL     1      35.433   9.499  61.659  1.00  0.00    -0.504 OA
ATOM     21  H   UNL     1      35.976   9.441  60.806  1.00  0.00     0.293 HD
ENDBRANCH  17  20
ENDBRANCH   1  12
BRANCH   6  22
ATOM     22  O   UNL     1      27.676  12.161  67.228  1.00  0.00    -0.507 OA
ATOM     23  H   UNL     1      27.080  12.929  67.513  1.00  0.00     0.293 HD
ENDBRANCH   6  22
BRANCH   8  24
ATOM     24  O   UNL     1      31.871  14.140  68.564  1.00  0.00    -0.508 OA
ATOM     25  H   UNL     1      31.643  14.172  69.550  1.00  0.00     0.293 HD
ENDBRANCH   8  24
TORSDOF 5
ENDMDL
MODEL 7
REMARK VINA RESULT:    -6.458      5.471      7.975
REMARK INTER + INTRA:          -7.872
REMARK INTER:                  -7.570
REMARK INTRA:                  -0.302
REMARK UNBOUND:                -0.282
REMARK SMILES O=c1cc(-c2ccc(O)c(O)c2)oc2cc(O)cc(O)c12
REMARK SMILES IDX 4 1 3 2 2 3 1 4 21 5 19 6 18 7 16 8 15 9 14 10 13 11 5 12
REMARK SMILES IDX 6 13 7 14 8 15 12 16 10 17 9 18 11 20 20 22 17 24
REMARK H PARENT 9 19 11 21 20 23 17 25
REMARK Flexibility Score: inf
ROOT
ATOM      1  C   UNL     1      32.976  11.897  65.129  1.00  0.00     0.138 A 
ATOM      2  C   UNL     1      31.633  11.713  65.498  1.00  0.00     0.100 A 
ATOM      3  C   UNL     1      30.803  10.926  64.699  1.00  0.00     0.197 A 
ATOM      4  O   UNL     1      29.599  10.766  65.039  1.00  0.00    -0.289 OA
ATOM      5  C   UNL     1      31.324  10.325  63.536  1.00  0.00     0.107 A 
ATOM      6  C   UNL     1      30.553   9.513  62.671  1.00  0.00     0.134 A 
ATOM      7  C   UNL     1      31.147   8.946  61.535  1.00  0.00     0.093 A 
ATOM      8  C   UNL     1      32.496   9.172  61.249  1.00  0.00     0.123 A 
ATOM      9  C   UNL     1      33.264   9.972  62.100  1.00  0.00     0.094 A 
ATOM     10  C   UNL     1      32.690  10.548  63.237  1.00  0.00     0.146 A 
ATOM     11  O   UNL     1      33.439  11.307  64.030  1.00  0.00    -0.456 OA
ENDROOT
BRANCH   1  12
ATOM     12  C   UNL     1      33.905  12.722  65.941  1.00  0.00     0.021 A 
ATOM     13  C   UNL     1      33.776  12.735  67.341  1.00  0.00     0.016 A 
ATOM     14  C   UNL     1      34.641  13.498  68.129  1.00  0.00     0.051 A 
ATOM     15  C   UNL     1      35.658  14.253  67.532  1.00  0.00     0.157 A 
ATOM     16  C   UNL     1      34.939  13.475  65.349  1.00  0.00     0.062 A 
ATOM     17  C   UNL     1      35.809  14.239  66.141  1.00  0.00     0.158 A 
BRANCH  15  18
ATOM     18  O   UNL     1      36.522  15.016  68.314  1.00  0.00    -0.504 OA
ATOM     19  H   UNL     1      37.465  14.705  68.521  1.00  0.00     0.293 HD
ENDBRANCH  15  18
BRANCH  17  20
ATOM     20  O   UNL     1      36.828  14.985  65.550  1.00  0.00    -0.504 OA
ATOM     21  H   UNL     1      37.038  14.907  64.562  1.00  0.00     0.293 HD
ENDBRANCH  17  20
ENDBRANCH   1  12
BRANCH   6  22
ATOM     22  O   UNL     1      29.202   9.269  62.930  1.00  0.00    -0.507 OA
ATOM     23  H   UNL     1      28.904   8.730  63.735  1.00  0.00     0.293 HD
ENDBRANCH   6  22
BRANCH   8  24
ATOM     24  O   UNL     1      33.063   8.595  60.114  1.00  0.00    -0.508 OA
ATOM     25  H   UNL     1      34.024   8.780  59.849  1.00  0.00     0.293 HD
ENDBRANCH   8  24
TORSDOF 5
ENDMDL
MODEL 8
REMARK VINA RESULT:    -6.454      5.061      7.923
REMARK INTER + INTRA:          -7.868
REMARK INTER:                  -7.596
REMARK INTRA:                  -0.271
REMARK UNBOUND:                -0.282
REMARK SMILES O=c1cc(-c2ccc(O)c(O)c2)oc2cc(O)cc(O)c12
REMARK SMILES IDX 4 1 3 2 2 3 1 4 21 5 19 6 18 7 16 8 15 9 14 10 13 11 5 12
REMARK SMILES IDX 6 13 7 14 8 15 12 16 10 17 9 18 11 20 20 22 17 24
REMARK H PARENT 9 19 11 21 20 23 17 25
REMARK Flexibility Score: inf
ROOT
ATOM      1  C   UNL     1      32.765  12.136  65.788  1.00  0.00     0.138 A 
ATOM      2  C   UNL     1      33.087  12.009  67.150  1.00  0.00     0.100 A 
ATOM      3  C   UNL     1      34.143  12.753  67.677  1.00  0.00     0.197 A 
ATOM      4  O   UNL     1      34.424  12.633  68.901  1.00  0.00    -0.289 OA
ATOM      5  C   UNL     1      34.869  13.622  66.839  1.00  0.00     0.107 A 
ATOM      6  C   UNL     1      35.953  14.410  67.293  1.00  0.00     0.134 A 
ATOM      7  C   UNL     1      36.621  15.256  66.396  1.00  0.00     0.093 A 
ATOM      8  C   UNL     1      36.226  15.329  65.058  1.00  0.00     0.123 A 
ATOM      9  C   UNL     1      35.156  14.553  64.603  1.00  0.00     0.094 A 
ATOM     10  C   UNL     1      34.477  13.703  65.481  1.00  0.00     0.146 A 
ATOM     11  O   UNL     1      33.464  12.974  65.026  1.00  0.00    -0.456 OA
ENDROOT
BRANCH   1  12
ATOM     12  C   UNL     1      31.651  11.372  65.172  1.00  0.00     0.021 A 
ATOM     13  C   UNL     1      30.326  11.662  65.541  1.00  0.00     0.016 A 
ATOM     14  C   UNL     1      29.259  10.961  64.971  1.00  0.00     0.051 A 
ATOM     15  C   UNL     1      29.499   9.967  64.015  1.00  0.00     0.157 A 
ATOM     16  C   UNL     1      31.883  10.378  64.200  1.00  0.00     0.062 A 
ATOM     17  C   UNL     1      30.811   9.677  63.627  1.00  0.00     0.158 A 
BRANCH  15  18
ATOM     18  O   UNL     1      28.438   9.265  63.446  1.00  0.00    -0.504 OA
ATOM     19  H   UNL     1      27.600   9.738  63.126  1.00  0.00     0.293 HD
ENDBRANCH  15  18
BRANCH  17  20
ATOM     20  O   UNL     1      31.045   8.693  62.668  1.00  0.00    -0.504 OA
ATOM     21  H   UNL     1      30.316   8.384  62.036  1.00  0.00     0.293 HD
ENDBRANCH  17  20
ENDBRANCH   1  12
BRANCH   6  22
ATOM     22  O   UNL     1      36.370  14.358  68.624  1.00  0.00    -0.507 OA
ATOM     23  H   UNL     1      36.158  15.102  69.278  1.00  0.00     0.293 HD
ENDBRANCH   6  22
BRANCH   8  24
ATOM     24  O   UNL     1      36.907  16.178  64.187  1.00  0.00    -0.508 OA
ATOM     25  H   UNL     1      36.959  17.176  64.352  1.00  0.00     0.293 HD
ENDBRANCH   8  24
TORSDOF 5
ENDMDL
MODEL 9
REMARK VINA RESULT:    -6.422      2.752      5.110
REMARK INTER + INTRA:          -7.830
REMARK INTER:                  -7.549
REMARK INTRA:                  -0.281
REMARK UNBOUND:                -0.282
REMARK SMILES O=c1cc(-c2ccc(O)c(O)c2)oc2cc(O)cc(O)c12
REMARK SMILES IDX 4 1 3 2 2 3 1 4 21 5 19 6 18 7 16 8 15 9 14 10 13 11 5 12
REMARK SMILES IDX 6 13 7 14 8 15 12 16 10 17 9 18 11 20 20 22 17 24
REMARK H PARENT 9 19 11 21 20 23 17 25
REMARK Flexibility Score: inf
ROOT
ATOM      1  C   UNL     1      31.013  10.509  64.421  1.00  0.00     0.138 A 
ATOM      2  C   UNL     1      31.520  10.321  65.718  1.00  0.00     0.100 A 
ATOM      3  C   UNL     1      30.831  10.851  66.808  1.00  0.00     0.197 A 
ATOM      4  O   UNL     1      31.294  10.676  67.968  1.00  0.00    -0.289 OA
ATOM      5  C   UNL     1      29.635  11.565  66.594  1.00  0.00     0.107 A 
ATOM      6  C   UNL     1      28.875  12.135  67.643  1.00  0.00     0.134 A 
ATOM      7  C   UNL     1      27.691  12.826  67.348  1.00  0.00     0.093 A 
ATOM      8  C   UNL     1      27.252  12.955  66.028  1.00  0.00     0.123 A 
ATOM      9  C   UNL     1      27.998  12.394  64.987  1.00  0.00     0.094 A 
ATOM     10  C   UNL     1      29.182  11.703  65.260  1.00  0.00     0.146 A 
ATOM     11  O   UNL     1      29.875  11.178  64.255  1.00  0.00    -0.456 OA
ENDROOT
BRANCH   1  12
ATOM     12  C   UNL     1      31.703   9.966  63.224  1.00  0.00     0.021 A 
ATOM     13  C   UNL     1      30.943   9.410  62.180  1.00  0.00     0.016 A 
ATOM     14  C   UNL     1      31.567   8.899  61.039  1.00  0.00     0.051 A 
ATOM     15  C   UNL     1      32.961   8.944  60.918  1.00  0.00     0.157 A 
ATOM     16  C   UNL     1      33.105  10.019  63.088  1.00  0.00     0.062 A 
ATOM     17  C   UNL     1      33.730   9.507  61.942  1.00  0.00     0.158 A 
BRANCH  15  18
ATOM     18  O   UNL     1      33.588   8.434  59.783  1.00  0.00    -0.504 OA
ATOM     19  H   UNL     1      33.213   7.636  59.283  1.00  0.00     0.293 HD
ENDBRANCH  15  18
BRANCH  17  20
ATOM     20  O   UNL     1      35.118   9.560  61.813  1.00  0.00    -0.504 OA
ATOM     21  H   UNL     1      35.682   8.719  61.806  1.00  0.00     0.293 HD
ENDBRANCH  17  20
ENDBRANCH   1  12
BRANCH   6  22
ATOM     22  O   UNL     1      29.288  12.022  68.972  1.00  0.00    -0.507 OA
ATOM     23  H   UNL     1      29.400  11.120  69.419  1.00  0.00     0.293 HD
ENDBRANCH   6  22
BRANCH   8  24
ATOM     24  O   UNL     1      26.071  13.647  65.761  1.00  0.00    -0.508 OA
ATOM     25  H   UNL     1      25.236  13.167  65.447  1.00  0.00     0.293 HD
ENDBRANCH   8  24
TORSDOF 5
ENDMDL
