MODEL 1
REMARK VINA RESULT:    -4.584      0.000      0.000
REMARK INTER + INTRA:          -9.802
REMARK INTER:                  -8.470
REMARK INTRA:                  -1.332
REMARK UNBOUND:                -1.332
REMARK SMILES CCCCCCCCCCCCCCCCO
REMARK SMILES IDX 9 1 8 2 7 3 6 4 5 5 4 6 3 7 2 8 1 9 10 10 11 11 12 12 13 13
REMARK SMILES IDX 14 14 15 15 16 16 17 17
REMARK H PARENT 17 18
REMARK Flexibility Score: inf
ROOT
ATOM      1  C   UNL     1      -3.937 -12.080  20.128  1.00  0.00     0.000 C 
ENDROOT
BRANCH   1   2
ATOM      2  C   UNL     1      -3.316 -12.968  21.221  1.00  0.00    -0.000 C 
BRANCH   2   3
ATOM      3  C   UNL     1      -2.078 -13.759  20.746  1.00  0.00    -0.000 C 
BRANCH   3   4
ATOM      4  C   UNL     1      -2.344 -14.511  19.429  1.00  0.00    -0.000 C 
BRANCH   4   5
ATOM      5  C   UNL     1      -1.550 -15.821  19.327  1.00  0.00    -0.000 C 
BRANCH   5   6
ATOM      6  C   UNL     1      -1.835 -16.778  20.498  1.00  0.00    -0.000 C 
BRANCH   6   7
ATOM      7  C   UNL     1      -3.303 -17.239  20.548  1.00  0.00    -0.000 C 
BRANCH   7   8
ATOM      8  C   UNL     1      -3.578 -18.410  21.510  1.00  0.00    -0.003 C 
ATOM      9  C   UNL     1      -4.526 -19.454  20.924  1.00  0.00     0.004 C 
ENDBRANCH   7   8
ENDBRANCH   6   7
ENDBRANCH   5   6
ENDBRANCH   4   5
ENDBRANCH   3   4
ENDBRANCH   2   3
ENDBRANCH   1   2
BRANCH   1  10
ATOM     10  C   UNL     1      -4.198 -10.643  20.605  1.00  0.00     0.000 C 
BRANCH  10  11
ATOM     11  C   UNL     1      -3.218 -10.185  21.702  1.00  0.00     0.000 C 
BRANCH  11  12
ATOM     12  C   UNL     1      -1.929  -9.512  21.196  1.00  0.00     0.000 C 
BRANCH  12  13
ATOM     13  C   UNL     1      -0.684 -10.402  21.357  1.00  0.00     0.000 C 
BRANCH  13  14
ATOM     14  C   UNL     1       0.072 -10.601  20.034  1.00  0.00     0.002 C 
BRANCH  14  15
ATOM     15  C   UNL     1       1.256 -11.573  20.168  1.00  0.00     0.028 C 
BRANCH  15  16
ATOM     16  C   UNL     1       1.053 -12.831  19.321  1.00  0.00     0.156 C 
BRANCH  16  17
ATOM     17  O   UNL     1       2.292 -13.397  18.993  1.00  0.00    -0.396 OA
ATOM     18  H   UNL     1       2.528 -13.996  19.748  1.00  0.00     0.210 HD
ENDBRANCH  16  17
ENDBRANCH  15  16
ENDBRANCH  14  15
ENDBRANCH  13  14
ENDBRANCH  12  13
ENDBRANCH  11  12
ENDBRANCH  10  11
ENDBRANCH   1  10
TORSDOF 15
ENDMDL
MODEL 2
REMARK VINA RESULT:    -4.388      2.469      4.222
REMARK INTER + INTRA:          -9.440
REMARK INTER:                  -8.232
REMARK INTRA:                  -1.208
REMARK UNBOUND:                -1.332
REMARK SMILES CCCCCCCCCCCCCCCCO
REMARK SMILES IDX 9 1 8 2 7 3 6 4 5 5 4 6 3 7 2 8 1 9 10 10 11 11 12 12 13 13
REMARK SMILES IDX 14 14 15 15 16 16 17 17
REMARK H PARENT 17 18
REMARK Flexibility Score: inf
ROOT
ATOM      1  C   UNL     1      -0.044 -10.635  20.472  1.00  0.00     0.000 C 
ENDROOT
BRANCH   1   2
ATOM      2  C   UNL     1      -1.200 -10.930  21.445  1.00  0.00    -0.000 C 
BRANCH   2   3
ATOM      3  C   UNL     1      -2.588 -10.949  20.769  1.00  0.00    -0.000 C 
BRANCH   3   4
ATOM      4  C   UNL     1      -3.402 -12.196  21.157  1.00  0.00    -0.000 C 
BRANCH   4   5
ATOM      5  C   UNL     1      -2.552 -13.474  21.173  1.00  0.00    -0.000 C 
BRANCH   5   6
ATOM      6  C   UNL     1      -2.469 -14.147  19.791  1.00  0.00    -0.000 C 
BRANCH   6   7
ATOM      7  C   UNL     1      -1.129 -14.868  19.557  1.00  0.00    -0.000 C 
BRANCH   7   8
ATOM      8  C   UNL     1      -1.189 -16.399  19.701  1.00  0.00    -0.003 C 
ATOM      9  C   UNL     1      -2.469 -16.888  20.377  1.00  0.00     0.004 C 
ENDBRANCH   7   8
ENDBRANCH   6   7
ENDBRANCH   5   6
ENDBRANCH   4   5
ENDBRANCH   3   4
ENDBRANCH   2   3
ENDBRANCH   1   2
BRANCH   1  10
ATOM     10  C   UNL     1       0.829 -11.868  20.194  1.00  0.00     0.000 C 
BRANCH  10  11
ATOM     11  C   UNL     1       1.258 -11.982  18.719  1.00  0.00     0.000 C 
BRANCH  11  12
ATOM     12  C   UNL     1       1.698 -10.664  18.055  1.00  0.00     0.000 C 
BRANCH  12  13
ATOM     13  C   UNL     1       3.154 -10.697  17.560  1.00  0.00     0.000 C 
BRANCH  13  14
ATOM     14  C   UNL     1       3.760 -12.109  17.603  1.00  0.00     0.002 C 
BRANCH  14  15
ATOM     15  C   UNL     1       5.143 -12.181  16.937  1.00  0.00     0.028 C 
BRANCH  15  16
ATOM     16  C   UNL     1       5.165 -13.189  15.786  1.00  0.00     0.156 C 
BRANCH  16  17
ATOM     17  O   UNL     1       3.869 -13.379  15.287  1.00  0.00    -0.396 OA
ATOM     18  H   UNL     1       3.815 -12.844  14.453  1.00  0.00     0.210 HD
ENDBRANCH  16  17
ENDBRANCH  15  16
ENDBRANCH  14  15
ENDBRANCH  13  14
ENDBRANCH  12  13
ENDBRANCH  11  12
ENDBRANCH  10  11
ENDBRANCH   1  10
TORSDOF 15
ENDMDL
MODEL 3
REMARK VINA RESULT:    -4.357      1.166      1.586
REMARK INTER + INTRA:          -9.382
REMARK INTER:                  -8.022
REMARK INTRA:                  -1.360
REMARK UNBOUND:                -1.332
REMARK SMILES CCCCCCCCCCCCCCCCO
REMARK SMILES IDX 9 1 8 2 7 3 6 4 5 5 4 6 3 7 2 8 1 9 10 10 11 11 12 12 13 13
REMARK SMILES IDX 14 14 15 15 16 16 17 17
REMARK H PARENT 17 18
REMARK Flexibility Score: inf
ROOT
ATOM      1  C   UNL     1      -3.118 -11.605  21.657  1.00  0.00     0.000 C 
ENDROOT
BRANCH   1   2
ATOM      2  C   UNL     1      -3.867 -12.461  20.620  1.00  0.00    -0.000 C 
BRANCH   2   3
ATOM      3  C   UNL     1      -2.938 -13.356  19.771  1.00  0.00    -0.000 C 
BRANCH   3   4
ATOM      4  C   UNL     1      -2.169 -14.372  20.634  1.00  0.00    -0.000 C 
BRANCH   4   5
ATOM      5  C   UNL     1      -1.318 -15.335  19.794  1.00  0.00    -0.000 C 
BRANCH   5   6
ATOM      6  C   UNL     1      -1.623 -16.813  20.097  1.00  0.00    -0.000 C 
BRANCH   6   7
ATOM      7  C   UNL     1      -2.942 -17.004  20.866  1.00  0.00    -0.000 C 
BRANCH   7   8
ATOM      8  C   UNL     1      -3.459 -18.453  20.910  1.00  0.00    -0.003 C 
ATOM      9  C   UNL     1      -4.131 -18.809  22.235  1.00  0.00     0.004 C 
ENDBRANCH   7   8
ENDBRANCH   6   7
ENDBRANCH   5   6
ENDBRANCH   4   5
ENDBRANCH   3   4
ENDBRANCH   2   3
ENDBRANCH   1   2
BRANCH   1  10
ATOM     10  C   UNL     1      -2.834 -10.180  21.160  1.00  0.00     0.000 C 
BRANCH  10  11
ATOM     11  C   UNL     1      -1.346  -9.936  20.847  1.00  0.00     0.000 C 
BRANCH  11  12
ATOM     12  C   UNL     1      -0.351 -10.735  21.708  1.00  0.00     0.000 C 
BRANCH  12  13
ATOM     13  C   UNL     1       0.915 -11.148  20.937  1.00  0.00     0.000 C 
BRANCH  13  14
ATOM     14  C   UNL     1       0.611 -12.114  19.780  1.00  0.00     0.002 C 
BRANCH  14  15
ATOM     15  C   UNL     1       1.865 -12.482  18.971  1.00  0.00     0.028 C 
BRANCH  15  16
ATOM     16  C   UNL     1       2.164 -11.443  17.888  1.00  0.00     0.156 C 
BRANCH  16  17
ATOM     17  O   UNL     1       2.895 -12.029  16.845  1.00  0.00    -0.396 OA
ATOM     18  H   UNL     1       3.827 -12.107  17.174  1.00  0.00     0.210 HD
ENDBRANCH  16  17
ENDBRANCH  15  16
ENDBRANCH  14  15
ENDBRANCH  13  14
ENDBRANCH  12  13
ENDBRANCH  11  12
ENDBRANCH  10  11
ENDBRANCH   1  10
TORSDOF 15
ENDMDL
MODEL 4
REMARK VINA RESULT:    -4.338      2.613      6.415
REMARK INTER + INTRA:          -9.346
REMARK INTER:                  -8.032
REMARK INTRA:                  -1.314
REMARK UNBOUND:                -1.332
REMARK SMILES CCCCCCCCCCCCCCCCO
REMARK SMILES IDX 9 1 8 2 7 3 6 4 5 5 4 6 3 7 2 8 1 9 10 10 11 11 12 12 13 13
REMARK SMILES IDX 14 14 15 15 16 16 17 17
REMARK H PARENT 17 18
REMARK Flexibility Score: inf
ROOT
ATOM      1  C   UNL     1      -0.081 -10.809  21.435  1.00  0.00     0.000 C 
ENDROOT
BRANCH   1   2
ATOM      2  C   UNL     1       1.250 -11.042  20.698  1.00  0.00    -0.000 C 
BRANCH   2   3
ATOM      3  C   UNL     1       1.218 -12.244  19.729  1.00  0.00    -0.000 C 
BRANCH   3   4
ATOM      4  C   UNL     1       1.366 -11.806  18.261  1.00  0.00    -0.000 C 
BRANCH   4   5
ATOM      5  C   UNL     1       2.147 -10.492  18.113  1.00  0.00    -0.000 C 
BRANCH   5   6
ATOM      6  C   UNL     1       3.614 -10.720  17.704  1.00  0.00    -0.000 C 
BRANCH   6   7
ATOM      7  C   UNL     1       3.919 -12.191  17.371  1.00  0.00    -0.000 C 
BRANCH   7   8
ATOM      8  C   UNL     1       5.362 -12.459  16.904  1.00  0.00    -0.003 C 
ATOM      9  C   UNL     1       5.458 -12.784  15.415  1.00  0.00     0.004 C 
ENDBRANCH   7   8
ENDBRANCH   6   7
ENDBRANCH   5   6
ENDBRANCH   4   5
ENDBRANCH   3   4
ENDBRANCH   2   3
ENDBRANCH   1   2
BRANCH   1  10
ATOM     10  C   UNL     1      -1.128 -10.102  20.561  1.00  0.00     0.000 C 
BRANCH  10  11
ATOM     11  C   UNL     1      -2.576 -10.433  20.969  1.00  0.00     0.000 C 
BRANCH  11  12
ATOM     12  C   UNL     1      -2.803 -11.861  21.500  1.00  0.00     0.000 C 
BRANCH  12  13
ATOM     13  C   UNL     1      -2.961 -12.902  20.377  1.00  0.00     0.000 C 
BRANCH  13  14
ATOM     14  C   UNL     1      -2.253 -14.227  20.698  1.00  0.00     0.002 C 
BRANCH  14  15
ATOM     15  C   UNL     1      -1.705 -14.926  19.443  1.00  0.00     0.028 C 
BRANCH  15  16
ATOM     16  C   UNL     1      -1.285 -16.368  19.736  1.00  0.00     0.156 C 
BRANCH  16  17
ATOM     17  O   UNL     1      -0.077 -16.659  19.089  1.00  0.00    -0.396 OA
ATOM     18  H   UNL     1       0.063 -17.636  19.197  1.00  0.00     0.210 HD
ENDBRANCH  16  17
ENDBRANCH  15  16
ENDBRANCH  14  15
ENDBRANCH  13  14
ENDBRANCH  12  13
ENDBRANCH  11  12
ENDBRANCH  10  11
ENDBRANCH   1  10
TORSDOF 15
ENDMDL
MODEL 5
REMARK VINA RESULT:    -4.250      2.374      6.919
REMARK INTER + INTRA:          -9.184
REMARK INTER:                  -8.078
REMARK INTRA:                  -1.106
REMARK UNBOUND:                -1.332
REMARK SMILES CCCCCCCCCCCCCCCCO
REMARK SMILES IDX 9 1 8 2 7 3 6 4 5 5 4 6 3 7 2 8 1 9 10 10 11 11 12 12 13 13
REMARK SMILES IDX 14 14 15 15 16 16 17 17
REMARK H PARENT 17 18
REMARK Flexibility Score: inf
ROOT
ATOM      1  C   UNL     1      -3.374 -13.130  20.126  1.00  0.00     0.000 C 
ENDROOT
BRANCH   1   2
ATOM      2  C   UNL     1      -3.440 -12.139  21.302  1.00  0.00    -0.000 C 
BRANCH   2   3
ATOM      3  C   UNL     1      -3.586 -10.666  20.861  1.00  0.00    -0.000 C 
BRANCH   3   4
ATOM      4  C   UNL     1      -2.463  -9.779  21.429  1.00  0.00    -0.000 C 
BRANCH   4   5
ATOM      5  C   UNL     1      -1.063 -10.333  21.124  1.00  0.00    -0.000 C 
BRANCH   5   6
ATOM      6  C   UNL     1      -0.353  -9.558  19.999  1.00  0.00    -0.000 C 
BRANCH   6   7
ATOM      7  C   UNL     1       0.911 -10.273  19.489  1.00  0.00    -0.000 C 
BRANCH   7   8
ATOM      8  C   UNL     1       1.250 -11.584  20.221  1.00  0.00    -0.003 C 
ATOM      9  C   UNL     1       1.408 -12.773  19.275  1.00  0.00     0.004 C 
ENDBRANCH   7   8
ENDBRANCH   6   7
ENDBRANCH   5   6
ENDBRANCH   4   5
ENDBRANCH   3   4
ENDBRANCH   2   3
ENDBRANCH   1   2
BRANCH   1  10
ATOM     10  C   UNL     1      -2.042 -13.893  20.064  1.00  0.00     0.000 C 
BRANCH  10  11
ATOM     11  C   UNL     1      -2.170 -15.275  19.396  1.00  0.00     0.000 C 
BRANCH  11  12
ATOM     12  C   UNL     1      -1.705 -16.468  20.252  1.00  0.00     0.000 C 
BRANCH  12  13
ATOM     13  C   UNL     1      -2.813 -17.022  21.165  1.00  0.00     0.000 C 
BRANCH  13  14
ATOM     14  C   UNL     1      -3.563 -18.203  20.530  1.00  0.00     0.002 C 
BRANCH  14  15
ATOM     15  C   UNL     1      -4.326 -19.046  21.566  1.00  0.00     0.028 C 
BRANCH  15  16
ATOM     16  C   UNL     1      -3.584 -19.107  22.902  1.00  0.00     0.156 C 
BRANCH  16  17
ATOM     17  O   UNL     1      -2.616 -20.119  22.871  1.00  0.00    -0.396 OA
ATOM     18  H   UNL     1      -3.066 -20.917  22.490  1.00  0.00     0.210 HD
ENDBRANCH  16  17
ENDBRANCH  15  16
ENDBRANCH  14  15
ENDBRANCH  13  14
ENDBRANCH  12  13
ENDBRANCH  11  12
ENDBRANCH  10  11
ENDBRANCH   1  10
TORSDOF 15
ENDMDL
MODEL 6
REMARK VINA RESULT:    -4.212      4.377      8.193
REMARK INTER + INTRA:          -9.115
REMARK INTER:                  -8.055
REMARK INTRA:                  -1.060
REMARK UNBOUND:                -1.332
REMARK SMILES CCCCCCCCCCCCCCCCO
REMARK SMILES IDX 9 1 8 2 7 3 6 4 5 5 4 6 3 7 2 8 1 9 10 10 11 11 12 12 13 13
REMARK SMILES IDX 14 14 15 15 16 16 17 17
REMARK H PARENT 17 18
REMARK Flexibility Score: inf
ROOT
ATOM      1  C   UNL     1       3.090 -11.124  17.519  1.00  0.00     0.000 C 
ENDROOT
BRANCH   1   2
ATOM      2  C   UNL     1       3.708  -9.777  17.933  1.00  0.00    -0.000 C 
BRANCH   2   3
ATOM      3  C   UNL     1       5.237  -9.837  18.144  1.00  0.00    -0.000 C 
BRANCH   3   4
ATOM      4  C   UNL     1       6.010  -9.576  16.838  1.00  0.00    -0.000 C 
BRANCH   4   5
ATOM      5  C   UNL     1       6.691 -10.840  16.294  1.00  0.00    -0.000 C 
BRANCH   5   6
ATOM      6  C   UNL     1       6.730 -11.982  17.325  1.00  0.00    -0.000 C 
BRANCH   6   7
ATOM      7  C   UNL     1       6.107 -13.286  16.796  1.00  0.00    -0.000 C 
BRANCH   7   8
ATOM      8  C   UNL     1       5.407 -13.157  15.431  1.00  0.00    -0.003 C 
ATOM      9  C   UNL     1       5.529 -14.417  14.575  1.00  0.00     0.004 C 
ENDBRANCH   7   8
ENDBRANCH   6   7
ENDBRANCH   5   6
ENDBRANCH   4   5
ENDBRANCH   3   4
ENDBRANCH   2   3
ENDBRANCH   1   2
BRANCH   1  10
ATOM     10  C   UNL     1       1.657 -11.307  18.042  1.00  0.00     0.000 C 
BRANCH  10  11
ATOM     11  C   UNL     1       1.599 -11.581  19.557  1.00  0.00     0.000 C 
BRANCH  11  12
ATOM     12  C   UNL     1       0.259 -12.131  20.078  1.00  0.00     0.000 C 
BRANCH  12  13
ATOM     13  C   UNL     1      -0.149 -13.456  19.410  1.00  0.00     0.000 C 
BRANCH  13  14
ATOM     14  C   UNL     1      -1.370 -14.103  20.081  1.00  0.00     0.002 C 
BRANCH  14  15
ATOM     15  C   UNL     1      -1.930 -15.288  19.276  1.00  0.00     0.028 C 
BRANCH  15  16
ATOM     16  C   UNL     1      -2.149 -16.518  20.159  1.00  0.00     0.156 C 
BRANCH  16  17
ATOM     17  O   UNL     1      -2.632 -16.131  21.416  1.00  0.00    -0.396 OA
ATOM     18  H   UNL     1      -1.840 -15.835  21.935  1.00  0.00     0.210 HD
ENDBRANCH  16  17
ENDBRANCH  15  16
ENDBRANCH  14  15
ENDBRANCH  13  14
ENDBRANCH  12  13
ENDBRANCH  11  12
ENDBRANCH  10  11
ENDBRANCH   1  10
TORSDOF 15
ENDMDL
MODEL 7
REMARK VINA RESULT:    -4.193      3.210      7.028
REMARK INTER + INTRA:          -9.079
REMARK INTER:                  -8.002
REMARK INTRA:                  -1.077
REMARK UNBOUND:                -1.332
REMARK SMILES CCCCCCCCCCCCCCCCO
REMARK SMILES IDX 9 1 8 2 7 3 6 4 5 5 4 6 3 7 2 8 1 9 10 10 11 11 12 12 13 13
REMARK SMILES IDX 14 14 15 15 16 16 17 17
REMARK H PARENT 17 18
REMARK Flexibility Score: inf
ROOT
ATOM      1  C   UNL     1       0.033 -10.811  20.248  1.00  0.00     0.000 C 
ENDROOT
BRANCH   1   2
ATOM      2  C   UNL     1       1.360 -11.535  19.956  1.00  0.00    -0.000 C 
BRANCH   2   3
ATOM      3  C   UNL     1       1.632 -11.745  18.451  1.00  0.00    -0.000 C 
BRANCH   3   4
ATOM      4  C   UNL     1       2.320 -10.525  17.813  1.00  0.00    -0.000 C 
BRANCH   4   5
ATOM      5  C   UNL     1       3.829 -10.733  17.618  1.00  0.00    -0.000 C 
BRANCH   5   6
ATOM      6  C   UNL     1       4.177 -12.171  17.191  1.00  0.00    -0.000 C 
BRANCH   6   7
ATOM      7  C   UNL     1       5.599 -12.294  16.615  1.00  0.00    -0.000 C 
BRANCH   7   8
ATOM      8  C   UNL     1       6.638 -11.358  17.259  1.00  0.00    -0.003 C 
ATOM      9  C   UNL     1       7.721 -12.108  18.032  1.00  0.00     0.004 C 
ENDBRANCH   7   8
ENDBRANCH   6   7
ENDBRANCH   5   6
ENDBRANCH   4   5
ENDBRANCH   3   4
ENDBRANCH   2   3
ENDBRANCH   1   2
BRANCH   1  10
ATOM     10  C   UNL     1      -0.282 -10.727  21.749  1.00  0.00     0.000 C 
BRANCH  10  11
ATOM     11  C   UNL     1      -1.735 -11.112  22.083  1.00  0.00     0.000 C 
BRANCH  11  12
ATOM     12  C   UNL     1      -2.544 -11.713  20.919  1.00  0.00     0.000 C 
BRANCH  12  13
ATOM     13  C   UNL     1      -2.792 -13.223  21.076  1.00  0.00     0.000 C 
BRANCH  13  14
ATOM     14  C   UNL     1      -2.518 -14.003  19.781  1.00  0.00     0.002 C 
BRANCH  14  15
ATOM     15  C   UNL     1      -1.114 -14.631  19.753  1.00  0.00     0.028 C 
BRANCH  15  16
ATOM     16  C   UNL     1      -1.179 -16.160  19.726  1.00  0.00     0.156 C 
BRANCH  16  17
ATOM     17  O   UNL     1      -0.072 -16.678  19.042  1.00  0.00    -0.396 OA
ATOM     18  H   UNL     1       0.676 -16.682  19.694  1.00  0.00     0.210 HD
ENDBRANCH  16  17
ENDBRANCH  15  16
ENDBRANCH  14  15
ENDBRANCH  13  14
ENDBRANCH  12  13
ENDBRANCH  11  12
ENDBRANCH  10  11
ENDBRANCH   1  10
TORSDOF 15
ENDMDL
MODEL 8
REMARK VINA RESULT:    -4.162      2.645      4.030
REMARK INTER + INTRA:          -9.022
REMARK INTER:                  -8.169
REMARK INTRA:                  -0.852
REMARK UNBOUND:                -1.332
REMARK SMILES CCCCCCCCCCCCCCCCO
REMARK SMILES IDX 9 1 8 2 7 3 6 4 5 5 4 6 3 7 2 8 1 9 10 10 11 11 12 12 13 13
REMARK SMILES IDX 14 14 15 15 16 16 17 17
REMARK H PARENT 17 18
REMARK Flexibility Score: inf
ROOT
ATOM      1  C   UNL     1       0.904 -11.865  20.208  1.00  0.00     0.000 C 
ENDROOT
BRANCH   1   2
ATOM      2  C   UNL     1       0.641 -12.811  19.022  1.00  0.00    -0.000 C 
BRANCH   2   3
ATOM      3  C   UNL     1      -0.111 -14.101  19.416  1.00  0.00    -0.000 C 
BRANCH   3   4
ATOM      4  C   UNL     1      -1.636 -13.945  19.275  1.00  0.00    -0.000 C 
BRANCH   4   5
ATOM      5  C   UNL     1      -2.414 -14.840  20.251  1.00  0.00    -0.000 C 
BRANCH   5   6
ATOM      6  C   UNL     1      -2.511 -16.297  19.767  1.00  0.00    -0.000 C 
BRANCH   6   7
ATOM      7  C   UNL     1      -2.534 -17.310  20.926  1.00  0.00    -0.000 C 
BRANCH   7   8
ATOM      8  C   UNL     1      -3.691 -18.324  20.873  1.00  0.00    -0.003 C 
ATOM      9  C   UNL     1      -3.983 -18.970  22.226  1.00  0.00     0.004 C 
ENDBRANCH   7   8
ENDBRANCH   6   7
ENDBRANCH   5   6
ENDBRANCH   4   5
ENDBRANCH   3   4
ENDBRANCH   2   3
ENDBRANCH   1   2
BRANCH   1  10
ATOM     10  C   UNL     1       1.036 -10.396  19.779  1.00  0.00     0.000 C 
BRANCH  10  11
ATOM     11  C   UNL     1       1.267 -10.228  18.265  1.00  0.00     0.000 C 
BRANCH  11  12
ATOM     12  C   UNL     1       2.576  -9.521  17.871  1.00  0.00     0.000 C 
BRANCH  12  13
ATOM     13  C   UNL     1       3.792 -10.465  17.867  1.00  0.00     0.000 C 
BRANCH  13  14
ATOM     14  C   UNL     1       3.486 -11.818  17.205  1.00  0.00     0.002 C 
BRANCH  14  15
ATOM     15  C   UNL     1       4.733 -12.705  17.066  1.00  0.00     0.028 C 
BRANCH  15  16
ATOM     16  C   UNL     1       5.105 -12.932  15.599  1.00  0.00     0.156 C 
BRANCH  16  17
ATOM     17  O   UNL     1       4.442 -14.063  15.103  1.00  0.00    -0.396 OA
ATOM     18  H   UNL     1       3.763 -13.724  14.463  1.00  0.00     0.210 HD
ENDBRANCH  16  17
ENDBRANCH  15  16
ENDBRANCH  14  15
ENDBRANCH  13  14
ENDBRANCH  12  13
ENDBRANCH  11  12
ENDBRANCH  10  11
ENDBRANCH   1  10
TORSDOF 15
ENDMDL
