MODEL 1
REMARK VINA RESULT:    -4.122      0.000      0.000
REMARK INTER + INTRA:          -9.577
REMARK INTER:                  -7.496
REMARK INTRA:                  -2.080
REMARK UNBOUND:                -2.080
REMARK SMILES CCCCCCCCCCCCCC[C@H](C)C(=O)[O-]
REMARK SMILES IDX 9 1 10 2 11 3 12 4 13 5 14 6 15 7 16 8 17 9 18 10 19 11 8 12
REMARK SMILES IDX 7 13 6 14 5 15 4 16 3 17 2 18 1 19
REMARK H PARENT
REMARK Flexibility Score: inf
ROOT
ATOM      1  C   UNL     1      12.686  20.409  21.282  1.00  0.00     0.000 C 
ENDROOT
BRANCH   1   2
ATOM      2  C   UNL     1      13.635  19.319  21.809  1.00  0.00     0.000 C 
BRANCH   2   3
ATOM      3  C   UNL     1      13.387  18.992  23.292  1.00  0.00     0.000 C 
BRANCH   3   4
ATOM      4  C   UNL     1      14.445  18.040  23.881  1.00  0.00     0.000 C 
BRANCH   4   5
ATOM      5  C   UNL     1      15.116  18.531  25.177  1.00  0.00     0.001 C 
BRANCH   5   6
ATOM      6  C   UNL     1      14.592  17.804  26.433  1.00  0.00     0.009 C 
BRANCH   6   7
ATOM      7  C   UNL     1      13.158  18.205  26.844  1.00  0.00     0.032 C 
ATOM      8  C   UNL     1      13.121  19.497  27.671  1.00  0.00     0.014 C 
BRANCH   7   9
ATOM      9  C   UNL     1      12.443  17.076  27.541  1.00  0.00     0.044 C 
ATOM     10  O   UNL     1      12.427  15.929  27.021  1.00  0.00    -0.550 OA
ATOM     11  O   UNL     1      11.838  17.272  28.778  1.00  0.00    -0.550 OA
ENDBRANCH   7   9
ENDBRANCH   6   7
ENDBRANCH   5   6
ENDBRANCH   4   5
ENDBRANCH   3   4
ENDBRANCH   2   3
ENDBRANCH   1   2
BRANCH   1  12
ATOM     12  C   UNL     1      13.435  21.544  20.564  1.00  0.00     0.000 C 
BRANCH  12  13
ATOM     13  C   UNL     1      14.823  21.818  21.169  1.00  0.00    -0.000 C 
BRANCH  13  14
ATOM     14  C   UNL     1      14.783  22.705  22.432  1.00  0.00    -0.000 C 
BRANCH  14  15
ATOM     15  C   UNL     1      15.459  22.027  23.638  1.00  0.00    -0.000 C 
BRANCH  15  16
ATOM     16  C   UNL     1      16.986  21.942  23.491  1.00  0.00    -0.000 C 
BRANCH  16  17
ATOM     17  C   UNL     1      17.493  20.495  23.408  1.00  0.00    -0.000 C 
BRANCH  17  18
ATOM     18  C   UNL     1      17.829  20.115  21.961  1.00  0.00    -0.003 C 
ATOM     19  C   UNL     1      17.321  18.715  21.627  1.00  0.00     0.004 C 
ENDBRANCH  17  18
ENDBRANCH  16  17
ENDBRANCH  15  16
ENDBRANCH  14  15
ENDBRANCH  13  14
ENDBRANCH  12  13
ENDBRANCH   1  12
TORSDOF 14
ENDMDL
MODEL 2
REMARK VINA RESULT:    -4.039      4.904      7.395
REMARK INTER + INTRA:          -9.426
REMARK INTER:                  -7.521
REMARK INTRA:                  -1.905
REMARK UNBOUND:                -2.080
REMARK SMILES CCCCCCCCCCCCCC[C@H](C)C(=O)[O-]
REMARK SMILES IDX 9 1 10 2 11 3 12 4 13 5 14 6 15 7 16 8 17 9 18 10 19 11 8 12
REMARK SMILES IDX 7 13 6 14 5 15 4 16 3 17 2 18 1 19
REMARK H PARENT
REMARK Flexibility Score: inf
ROOT
ATOM      1  C   UNL     1      14.842  20.183  21.558  1.00  0.00     0.000 C 
ENDROOT
BRANCH   1   2
ATOM      2  C   UNL     1      13.800  21.115  22.198  1.00  0.00     0.000 C 
BRANCH   2   3
ATOM      3  C   UNL     1      13.892  22.555  21.663  1.00  0.00     0.000 C 
BRANCH   3   4
ATOM      4  C   UNL     1      14.440  22.626  20.226  1.00  0.00     0.000 C 
BRANCH   4   5
ATOM      5  C   UNL     1      13.368  22.666  19.120  1.00  0.00     0.001 C 
BRANCH   5   6
ATOM      6  C   UNL     1      12.411  23.868  19.259  1.00  0.00     0.009 C 
BRANCH   6   7
ATOM      7  C   UNL     1      10.916  23.505  19.119  1.00  0.00     0.032 C 
ATOM      8  C   UNL     1      10.698  22.170  18.393  1.00  0.00     0.014 C 
BRANCH   7   9
ATOM      9  C   UNL     1      10.130  24.621  18.482  1.00  0.00     0.044 C 
ATOM     10  O   UNL     1       9.319  25.291  19.175  1.00  0.00    -0.550 OA
ATOM     11  O   UNL     1      10.322  24.956  17.145  1.00  0.00    -0.550 OA
ENDBRANCH   7   9
ENDBRANCH   6   7
ENDBRANCH   5   6
ENDBRANCH   4   5
ENDBRANCH   3   4
ENDBRANCH   2   3
ENDBRANCH   1   2
BRANCH   1  12
ATOM     12  C   UNL     1      15.470  19.216  22.575  1.00  0.00     0.000 C 
BRANCH  12  13
ATOM     13  C   UNL     1      16.446  19.914  23.538  1.00  0.00    -0.000 C 
BRANCH  13  14
ATOM     14  C   UNL     1      17.553  20.717  22.823  1.00  0.00    -0.000 C 
BRANCH  14  15
ATOM     15  C   UNL     1      17.744  22.116  23.436  1.00  0.00    -0.000 C 
BRANCH  15  16
ATOM     16  C   UNL     1      16.511  22.593  24.218  1.00  0.00    -0.000 C 
BRANCH  16  17
ATOM     17  C   UNL     1      16.217  24.086  24.006  1.00  0.00    -0.000 C 
BRANCH  17  18
ATOM     18  C   UNL     1      15.035  24.539  24.872  1.00  0.00    -0.003 C 
ATOM     19  C   UNL     1      14.151  23.358  25.260  1.00  0.00     0.004 C 
ENDBRANCH  17  18
ENDBRANCH  16  17
ENDBRANCH  15  16
ENDBRANCH  14  15
ENDBRANCH  13  14
ENDBRANCH  12  13
ENDBRANCH   1  12
TORSDOF 14
ENDMDL
MODEL 3
REMARK VINA RESULT:    -4.006      3.349      7.843
REMARK INTER + INTRA:          -9.365
REMARK INTER:                  -7.753
REMARK INTRA:                  -1.612
REMARK UNBOUND:                -2.080
REMARK SMILES CCCCCCCCCCCCCC[C@H](C)C(=O)[O-]
REMARK SMILES IDX 9 1 10 2 11 3 12 4 13 5 14 6 15 7 16 8 17 9 18 10 19 11 8 12
REMARK SMILES IDX 7 13 6 14 5 15 4 16 3 17 2 18 1 19
REMARK H PARENT
REMARK Flexibility Score: inf
ROOT
ATOM      1  C   UNL     1      12.041  16.290  28.468  1.00  0.00     0.000 C 
ENDROOT
BRANCH   1   2
ATOM      2  C   UNL     1      11.483  17.224  27.382  1.00  0.00     0.000 C 
BRANCH   2   3
ATOM      3  C   UNL     1      12.593  17.978  26.629  1.00  0.00     0.000 C 
BRANCH   3   4
ATOM      4  C   UNL     1      13.961  17.279  26.721  1.00  0.00     0.000 C 
BRANCH   4   5
ATOM      5  C   UNL     1      15.127  18.035  26.055  1.00  0.00     0.001 C 
BRANCH   5   6
ATOM      6  C   UNL     1      14.838  18.404  24.586  1.00  0.00     0.009 C 
BRANCH   6   7
ATOM      7  C   UNL     1      15.480  19.732  24.129  1.00  0.00     0.032 C 
ATOM      8  C   UNL     1      14.501  20.913  24.191  1.00  0.00     0.014 C 
BRANCH   7   9
ATOM      9  C   UNL     1      16.114  19.605  22.768  1.00  0.00     0.044 C 
ATOM     10  O   UNL     1      16.810  20.550  22.311  1.00  0.00    -0.550 OA
ATOM     11  O   UNL     1      15.981  18.436  22.026  1.00  0.00    -0.550 OA
ENDBRANCH   7   9
ENDBRANCH   6   7
ENDBRANCH   5   6
ENDBRANCH   4   5
ENDBRANCH   3   4
ENDBRANCH   2   3
ENDBRANCH   1   2
BRANCH   1  12
ATOM     12  C   UNL     1      10.948  15.773  29.418  1.00  0.00     0.000 C 
BRANCH  12  13
ATOM     13  C   UNL     1      11.430  15.657  30.875  1.00  0.00    -0.000 C 
BRANCH  13  14
ATOM     14  C   UNL     1      11.785  17.013  31.519  1.00  0.00    -0.000 C 
BRANCH  14  15
ATOM     15  C   UNL     1      10.577  17.966  31.569  1.00  0.00    -0.000 C 
BRANCH  15  16
ATOM     16  C   UNL     1      10.915  19.379  31.072  1.00  0.00    -0.000 C 
BRANCH  16  17
ATOM     17  C   UNL     1      12.244  19.435  30.305  1.00  0.00    -0.000 C 
BRANCH  17  18
ATOM     18  C   UNL     1      12.623  20.882  29.969  1.00  0.00    -0.003 C 
ATOM     19  C   UNL     1      12.595  21.125  28.463  1.00  0.00     0.004 C 
ENDBRANCH  17  18
ENDBRANCH  16  17
ENDBRANCH  15  16
ENDBRANCH  14  15
ENDBRANCH  13  14
ENDBRANCH  12  13
ENDBRANCH   1  12
TORSDOF 14
ENDMDL
MODEL 4
REMARK VINA RESULT:    -4.000      4.080      9.327
REMARK INTER + INTRA:          -9.355
REMARK INTER:                  -7.925
REMARK INTRA:                  -1.430
REMARK UNBOUND:                -2.080
REMARK SMILES CCCCCCCCCCCCCC[C@H](C)C(=O)[O-]
REMARK SMILES IDX 9 1 10 2 11 3 12 4 13 5 14 6 15 7 16 8 17 9 18 10 19 11 8 12
REMARK SMILES IDX 7 13 6 14 5 15 4 16 3 17 2 18 1 19
REMARK H PARENT
REMARK Flexibility Score: inf
ROOT
ATOM      1  C   UNL     1      11.764  15.959  29.358  1.00  0.00     0.000 C 
ENDROOT
BRANCH   1   2
ATOM      2  C   UNL     1      11.387  17.387  28.930  1.00  0.00     0.000 C 
BRANCH   2   3
ATOM      3  C   UNL     1      12.029  17.787  27.590  1.00  0.00     0.000 C 
BRANCH   3   4
ATOM      4  C   UNL     1      13.105  16.791  27.120  1.00  0.00     0.000 C 
BRANCH   4   5
ATOM      5  C   UNL     1      14.427  17.430  26.654  1.00  0.00     0.001 C 
BRANCH   5   6
ATOM      6  C   UNL     1      14.210  18.658  25.746  1.00  0.00     0.009 C 
BRANCH   6   7
ATOM      7  C   UNL     1      15.104  18.680  24.487  1.00  0.00     0.032 C 
ATOM      8  C   UNL     1      15.489  20.104  24.061  1.00  0.00     0.014 C 
BRANCH   7   9
ATOM      9  C   UNL     1      14.486  17.906  23.351  1.00  0.00     0.044 C 
ATOM     10  O   UNL     1      13.308  17.474  23.456  1.00  0.00    -0.550 OA
ATOM     11  O   UNL     1      15.182  17.704  22.164  1.00  0.00    -0.550 OA
ENDBRANCH   7   9
ENDBRANCH   6   7
ENDBRANCH   5   6
ENDBRANCH   4   5
ENDBRANCH   3   4
ENDBRANCH   2   3
ENDBRANCH   1   2
BRANCH   1  12
ATOM     12  C   UNL     1      12.050  15.852  30.865  1.00  0.00     0.000 C 
BRANCH  12  13
ATOM     13  C   UNL     1      11.622  17.109  31.644  1.00  0.00    -0.000 C 
BRANCH  13  14
ATOM     14  C   UNL     1      10.578  16.828  32.745  1.00  0.00    -0.000 C 
BRANCH  14  15
ATOM     15  C   UNL     1       9.136  16.930  32.216  1.00  0.00    -0.000 C 
BRANCH  15  16
ATOM     16  C   UNL     1       8.501  15.556  31.957  1.00  0.00    -0.000 C 
BRANCH  16  17
ATOM     17  C   UNL     1       9.277  14.410  32.623  1.00  0.00    -0.000 C 
BRANCH  17  18
ATOM     18  C   UNL     1       9.101  13.102  31.840  1.00  0.00    -0.003 C 
ATOM     19  C   UNL     1       9.514  13.274  30.381  1.00  0.00     0.004 C 
ENDBRANCH  17  18
ENDBRANCH  16  17
ENDBRANCH  15  16
ENDBRANCH  14  15
ENDBRANCH  13  14
ENDBRANCH  12  13
ENDBRANCH   1  12
TORSDOF 14
ENDMDL
MODEL 5
REMARK VINA RESULT:    -3.996      3.245      5.874
REMARK INTER + INTRA:          -9.348
REMARK INTER:                  -7.741
REMARK INTRA:                  -1.607
REMARK UNBOUND:                -2.080
REMARK SMILES CCCCCCCCCCCCCC[C@H](C)C(=O)[O-]
REMARK SMILES IDX 9 1 10 2 11 3 12 4 13 5 14 6 15 7 16 8 17 9 18 10 19 11 8 12
REMARK SMILES IDX 7 13 6 14 5 15 4 16 3 17 2 18 1 19
REMARK H PARENT
REMARK Flexibility Score: inf
ROOT
ATOM      1  C   UNL     1      15.865  22.310  23.783  1.00  0.00     0.000 C 
ENDROOT
BRANCH   1   2
ATOM      2  C   UNL     1      16.932  21.472  23.059  1.00  0.00     0.000 C 
BRANCH   2   3
ATOM      3  C   UNL     1      16.881  19.987  23.457  1.00  0.00     0.000 C 
BRANCH   3   4
ATOM      4  C   UNL     1      15.566  19.597  24.156  1.00  0.00     0.000 C 
BRANCH   4   5
ATOM      5  C   UNL     1      14.810  18.417  23.516  1.00  0.00     0.001 C 
BRANCH   5   6
ATOM      6  C   UNL     1      15.492  17.896  22.234  1.00  0.00     0.009 C 
BRANCH   6   7
ATOM      7  C   UNL     1      14.581  17.898  20.988  1.00  0.00     0.032 C 
ATOM      8  C   UNL     1      13.244  18.611  21.235  1.00  0.00     0.014 C 
BRANCH   7   9
ATOM      9  C   UNL     1      14.377  16.506  20.446  1.00  0.00     0.044 C 
ATOM     10  O   UNL     1      14.879  15.520  21.047  1.00  0.00    -0.550 OA
ATOM     11  O   UNL     1      13.599  16.289  19.313  1.00  0.00    -0.550 OA
ENDBRANCH   7   9
ENDBRANCH   6   7
ENDBRANCH   5   6
ENDBRANCH   4   5
ENDBRANCH   3   4
ENDBRANCH   2   3
ENDBRANCH   1   2
BRANCH   1  12
ATOM     12  C   UNL     1      14.953  23.072  22.807  1.00  0.00     0.000 C 
BRANCH  12  13
ATOM     13  C   UNL     1      14.149  22.136  21.888  1.00  0.00    -0.000 C 
BRANCH  13  14
ATOM     14  C   UNL     1      14.749  21.995  20.472  1.00  0.00    -0.000 C 
BRANCH  14  15
ATOM     15  C   UNL     1      14.176  23.036  19.494  1.00  0.00    -0.000 C 
BRANCH  15  16
ATOM     16  C   UNL     1      12.660  22.891  19.294  1.00  0.00    -0.000 C 
BRANCH  16  17
ATOM     17  C   UNL     1      11.906  24.213  19.503  1.00  0.00    -0.000 C 
BRANCH  17  18
ATOM     18  C   UNL     1      10.437  24.077  19.084  1.00  0.00    -0.003 C 
ATOM     19  C   UNL     1      10.221  24.582  17.661  1.00  0.00     0.004 C 
ENDBRANCH  17  18
ENDBRANCH  16  17
ENDBRANCH  15  16
ENDBRANCH  14  15
ENDBRANCH  13  14
ENDBRANCH  12  13
ENDBRANCH   1  12
TORSDOF 14
ENDMDL
MODEL 6
REMARK VINA RESULT:    -3.994      3.968      8.862
REMARK INTER + INTRA:          -9.344
REMARK INTER:                  -8.272
REMARK INTRA:                  -1.072
REMARK UNBOUND:                -2.080
REMARK SMILES CCCCCCCCCCCCCC[C@H](C)C(=O)[O-]
REMARK SMILES IDX 9 1 10 2 11 3 12 4 13 5 14 6 15 7 16 8 17 9 18 10 19 11 8 12
REMARK SMILES IDX 7 13 6 14 5 15 4 16 3 17 2 18 1 19
REMARK H PARENT
REMARK Flexibility Score: inf
ROOT
ATOM      1  C   UNL     1      12.127  16.239  27.484  1.00  0.00     0.000 C 
ENDROOT
BRANCH   1   2
ATOM      2  C   UNL     1      12.981  17.449  27.071  1.00  0.00     0.000 C 
BRANCH   2   3
ATOM      3  C   UNL     1      14.428  17.055  26.724  1.00  0.00     0.000 C 
BRANCH   3   4
ATOM      4  C   UNL     1      15.200  18.180  26.010  1.00  0.00     0.000 C 
BRANCH   4   5
ATOM      5  C   UNL     1      14.553  18.694  24.711  1.00  0.00     0.001 C 
BRANCH   5   6
ATOM      6  C   UNL     1      15.202  19.994  24.194  1.00  0.00     0.009 C 
BRANCH   6   7
ATOM      7  C   UNL     1      16.501  19.775  23.388  1.00  0.00     0.032 C 
ATOM      8  C   UNL     1      17.468  20.963  23.493  1.00  0.00     0.014 C 
BRANCH   7   9
ATOM      9  C   UNL     1      16.211  19.418  21.952  1.00  0.00     0.044 C 
ATOM     10  O   UNL     1      15.328  20.050  21.316  1.00  0.00    -0.550 OA
ATOM     11  O   UNL     1      16.942  18.429  21.302  1.00  0.00    -0.550 OA
ENDBRANCH   7   9
ENDBRANCH   6   7
ENDBRANCH   5   6
ENDBRANCH   4   5
ENDBRANCH   3   4
ENDBRANCH   2   3
ENDBRANCH   1   2
BRANCH   1  12
ATOM     12  C   UNL     1      11.721  16.283  28.966  1.00  0.00     0.000 C 
BRANCH  12  13
ATOM     13  C   UNL     1      11.449  17.712  29.468  1.00  0.00    -0.000 C 
BRANCH  13  14
ATOM     14  C   UNL     1      11.318  17.815  31.002  1.00  0.00    -0.000 C 
BRANCH  14  15
ATOM     15  C   UNL     1      11.932  16.600  31.720  1.00  0.00    -0.000 C 
BRANCH  15  16
ATOM     16  C   UNL     1      10.957  15.936  32.703  1.00  0.00    -0.000 C 
BRANCH  16  17
ATOM     17  C   UNL     1       9.558  15.731  32.102  1.00  0.00    -0.000 C 
BRANCH  17  18
ATOM     18  C   UNL     1       9.174  14.247  32.102  1.00  0.00    -0.003 C 
ATOM     19  C   UNL     1       9.888  13.493  30.984  1.00  0.00     0.004 C 
ENDBRANCH  17  18
ENDBRANCH  16  17
ENDBRANCH  15  16
ENDBRANCH  14  15
ENDBRANCH  13  14
ENDBRANCH  12  13
ENDBRANCH   1  12
TORSDOF 14
ENDMDL
MODEL 7
REMARK VINA RESULT:    -3.986      1.979      3.657
REMARK INTER + INTRA:          -9.330
REMARK INTER:                  -7.715
REMARK INTRA:                  -1.614
REMARK UNBOUND:                -2.080
REMARK SMILES CCCCCCCCCCCCCC[C@H](C)C(=O)[O-]
REMARK SMILES IDX 9 1 10 2 11 3 12 4 13 5 14 6 15 7 16 8 17 9 18 10 19 11 8 12
REMARK SMILES IDX 7 13 6 14 5 15 4 16 3 17 2 18 1 19
REMARK H PARENT
REMARK Flexibility Score: inf
ROOT
ATOM      1  C   UNL     1      15.296  18.502  25.107  1.00  0.00     0.000 C 
ENDROOT
BRANCH   1   2
ATOM      2  C   UNL     1      14.956  17.740  26.398  1.00  0.00     0.000 C 
BRANCH   2   3
ATOM      3  C   UNL     1      13.505  17.975  26.853  1.00  0.00     0.000 C 
BRANCH   3   4
ATOM      4  C   UNL     1      12.742  16.665  27.124  1.00  0.00     0.000 C 
BRANCH   4   5
ATOM      5  C   UNL     1      12.061  16.579  28.503  1.00  0.00     0.001 C 
BRANCH   5   6
ATOM      6  C   UNL     1      11.264  17.852  28.857  1.00  0.00     0.009 C 
BRANCH   6   7
ATOM      7  C   UNL     1      11.766  18.581  30.122  1.00  0.00     0.032 C 
ATOM      8  C   UNL     1      10.820  18.405  31.318  1.00  0.00     0.014 C 
BRANCH   7   9
ATOM      9  C   UNL     1      12.056  20.034  29.850  1.00  0.00     0.044 C 
ATOM     10  O   UNL     1      11.231  20.724  29.193  1.00  0.00    -0.550 OA
ATOM     11  O   UNL     1      13.201  20.640  30.356  1.00  0.00    -0.550 OA
ENDBRANCH   7   9
ENDBRANCH   6   7
ENDBRANCH   5   6
ENDBRANCH   4   5
ENDBRANCH   3   4
ENDBRANCH   2   3
ENDBRANCH   1   2
BRANCH   1  12
ATOM     12  C   UNL     1      14.221  18.331  24.021  1.00  0.00     0.000 C 
BRANCH  12  13
ATOM     13  C   UNL     1      13.781  19.669  23.403  1.00  0.00    -0.000 C 
BRANCH  13  14
ATOM     14  C   UNL     1      14.406  20.903  24.087  1.00  0.00    -0.000 C 
BRANCH  14  15
ATOM     15  C   UNL     1      15.399  21.636  23.167  1.00  0.00    -0.000 C 
BRANCH  15  16
ATOM     16  C   UNL     1      16.846  21.562  23.676  1.00  0.00    -0.000 C 
BRANCH  16  17
ATOM     17  C   UNL     1      17.780  20.828  22.703  1.00  0.00    -0.000 C 
BRANCH  17  18
ATOM     18  C   UNL     1      16.984  20.182  21.562  1.00  0.00    -0.003 C 
ATOM     19  C   UNL     1      17.180  18.669  21.541  1.00  0.00     0.004 C 
ENDBRANCH  17  18
ENDBRANCH  16  17
ENDBRANCH  15  16
ENDBRANCH  14  15
ENDBRANCH  13  14
ENDBRANCH  12  13
ENDBRANCH   1  12
TORSDOF 14
ENDMDL
MODEL 8
REMARK VINA RESULT:    -3.956      2.496      4.357
REMARK INTER + INTRA:          -9.274
REMARK INTER:                  -7.857
REMARK INTRA:                  -1.417
REMARK UNBOUND:                -2.080
REMARK SMILES CCCCCCCCCCCCCC[C@H](C)C(=O)[O-]
REMARK SMILES IDX 9 1 10 2 11 3 12 4 13 5 14 6 15 7 16 8 17 9 18 10 19 11 8 12
REMARK SMILES IDX 7 13 6 14 5 15 4 16 3 17 2 18 1 19
REMARK H PARENT
REMARK Flexibility Score: inf
ROOT
ATOM      1  C   UNL     1      15.177  18.641  24.940  1.00  0.00     0.000 C 
ENDROOT
BRANCH   1   2
ATOM      2  C   UNL     1      14.962  18.056  26.345  1.00  0.00     0.000 C 
BRANCH   2   3
ATOM      3  C   UNL     1      13.574  17.411  26.506  1.00  0.00     0.000 C 
BRANCH   3   4
ATOM      4  C   UNL     1      12.582  18.308  27.270  1.00  0.00     0.000 C 
BRANCH   4   5
ATOM      5  C   UNL     1      13.171  19.627  27.804  1.00  0.00     0.001 C 
BRANCH   5   6
ATOM      6  C   UNL     1      12.569  20.044  29.161  1.00  0.00     0.009 C 
BRANCH   6   7
ATOM      7  C   UNL     1      11.776  21.368  29.121  1.00  0.00     0.032 C 
ATOM      8  C   UNL     1      12.316  22.347  28.069  1.00  0.00     0.014 C 
BRANCH   7   9
ATOM      9  C   UNL     1      11.691  22.007  30.484  1.00  0.00     0.044 C 
ATOM     10  O   UNL     1      12.513  21.682  31.380  1.00  0.00    -0.550 OA
ATOM     11  O   UNL     1      10.744  22.991  30.752  1.00  0.00    -0.550 OA
ENDBRANCH   7   9
ENDBRANCH   6   7
ENDBRANCH   5   6
ENDBRANCH   4   5
ENDBRANCH   3   4
ENDBRANCH   2   3
ENDBRANCH   1   2
BRANCH   1  12
ATOM     12  C   UNL     1      14.208  18.051  23.901  1.00  0.00     0.000 C 
BRANCH  12  13
ATOM     13  C   UNL     1      14.930  17.492  22.663  1.00  0.00    -0.000 C 
BRANCH  13  14
ATOM     14  C   UNL     1      15.330  18.575  21.638  1.00  0.00    -0.000 C 
BRANCH  14  15
ATOM     15  C   UNL     1      16.857  18.722  21.517  1.00  0.00    -0.000 C 
BRANCH  15  16
ATOM     16  C   UNL     1      17.328  20.174  21.687  1.00  0.00    -0.000 C 
BRANCH  16  17
ATOM     17  C   UNL     1      17.835  20.470  23.107  1.00  0.00    -0.000 C 
BRANCH  17  18
ATOM     18  C   UNL     1      17.249  21.785  23.635  1.00  0.00    -0.003 C 
ATOM     19  C   UNL     1      15.791  21.946  23.216  1.00  0.00     0.004 C 
ENDBRANCH  17  18
ENDBRANCH  16  17
ENDBRANCH  15  16
ENDBRANCH  14  15
ENDBRANCH  13  14
ENDBRANCH  12  13
ENDBRANCH   1  12
TORSDOF 14
ENDMDL
MODEL 9
REMARK VINA RESULT:    -3.911      4.854      8.555
REMARK INTER + INTRA:          -9.193
REMARK INTER:                  -7.220
REMARK INTRA:                  -1.973
REMARK UNBOUND:                -2.080
REMARK SMILES CCCCCCCCCCCCCC[C@H](C)C(=O)[O-]
REMARK SMILES IDX 9 1 10 2 11 3 12 4 13 5 14 6 15 7 16 8 17 9 18 10 19 11 8 12
REMARK SMILES IDX 7 13 6 14 5 15 4 16 3 17 2 18 1 19
REMARK H PARENT
REMARK Flexibility Score: inf
ROOT
ATOM      1  C   UNL     1      11.750  16.776  27.244  1.00  0.00     0.000 C 
ENDROOT
BRANCH   1   2
ATOM      2  C   UNL     1      13.274  16.634  27.101  1.00  0.00     0.000 C 
BRANCH   2   3
ATOM      3  C   UNL     1      13.954  17.962  26.725  1.00  0.00     0.000 C 
BRANCH   3   4
ATOM      4  C   UNL     1      13.024  19.178  26.882  1.00  0.00     0.000 C 
BRANCH   4   5
ATOM      5  C   UNL     1      13.235  20.001  28.167  1.00  0.00     0.001 C 
BRANCH   5   6
ATOM      6  C   UNL     1      12.068  20.967  28.457  1.00  0.00     0.009 C 
BRANCH   6   7
ATOM      7  C   UNL     1      12.111  21.606  29.862  1.00  0.00     0.032 C 
ATOM      8  C   UNL     1      13.441  21.353  30.585  1.00  0.00     0.014 C 
BRANCH   7   9
ATOM      9  C   UNL     1      10.932  21.185  30.701  1.00  0.00     0.044 C 
ATOM     10  O   UNL     1      11.102  20.874  31.909  1.00  0.00    -0.550 OA
ATOM     11  O   UNL     1       9.645  21.181  30.172  1.00  0.00    -0.550 OA
ENDBRANCH   7   9
ENDBRANCH   6   7
ENDBRANCH   5   6
ENDBRANCH   4   5
ENDBRANCH   3   4
ENDBRANCH   2   3
ENDBRANCH   1   2
BRANCH   1  12
ATOM     12  C   UNL     1      11.267  16.522  28.682  1.00  0.00     0.000 C 
BRANCH  12  13
ATOM     13  C   UNL     1      10.525  17.729  29.284  1.00  0.00    -0.000 C 
BRANCH  13  14
ATOM     14  C   UNL     1      10.177  17.559  30.778  1.00  0.00    -0.000 C 
BRANCH  14  15
ATOM     15  C   UNL     1      11.411  17.196  31.623  1.00  0.00    -0.000 C 
BRANCH  15  16
ATOM     16  C   UNL     1      11.257  15.851  32.349  1.00  0.00    -0.000 C 
BRANCH  16  17
ATOM     17  C   UNL     1       9.788  15.473  32.592  1.00  0.00    -0.000 C 
BRANCH  17  18
ATOM     18  C   UNL     1       9.531  14.008  32.221  1.00  0.00    -0.003 C 
ATOM     19  C   UNL     1       9.888  13.739  30.762  1.00  0.00     0.004 C 
ENDBRANCH  17  18
ENDBRANCH  16  17
ENDBRANCH  15  16
ENDBRANCH  14  15
ENDBRANCH  13  14
ENDBRANCH  12  13
ENDBRANCH   1  12
TORSDOF 14
ENDMDL
