MODEL 1
REMARK VINA RESULT:    -2.809      0.000      0.000
REMARK INTER + INTRA:          -3.531
REMARK INTER:                  -3.466
REMARK INTRA:                  -0.065
REMARK UNBOUND:                -0.065
REMARK SMILES CCCCCC(=O)[O-]
REMARK SMILES IDX 4 1 5 2 6 3 7 4 8 5 3 6 2 7 1 8
REMARK H PARENT
REMARK Flexibility Score: inf
ROOT
ATOM      1  C   UNL     1      67.077  55.452  10.071  1.00  0.00     0.006 C 
ENDROOT
BRANCH   1   2
ATOM      2  C   UNL     1      66.189  56.392  10.892  1.00  0.00     0.053 C 
BRANCH   2   3
ATOM      3  C   UNL     1      65.523  57.394  10.002  1.00  0.00     0.041 C 
ATOM      4  O   UNL     1      64.913  58.376  10.502  1.00  0.00    -0.550 OA
ATOM      5  O   UNL     1      65.619  57.272   8.623  1.00  0.00    -0.550 OA
ENDBRANCH   2   3
ENDBRANCH   1   2
BRANCH   1   6
ATOM      6  C   UNL     1      68.307  55.015  10.876  1.00  0.00     0.000 C 
BRANCH   6   7
ATOM      7  C   UNL     1      69.563  55.007   9.998  1.00  0.00    -0.003 C 
ATOM      8  C   UNL     1      70.726  55.712  10.693  1.00  0.00     0.004 C 
ENDBRANCH   6   7
ENDBRANCH   1   6
TORSDOF 4
ENDMDL
MODEL 2
REMARK VINA RESULT:    -2.450      2.662      5.017
REMARK INTER + INTRA:          -3.088
REMARK INTER:                  -3.039
REMARK INTRA:                  -0.049
REMARK UNBOUND:                -0.065
REMARK SMILES CCCCCC(=O)[O-]
REMARK SMILES IDX 4 1 5 2 6 3 7 4 8 5 3 6 2 7 1 8
REMARK H PARENT
REMARK Flexibility Score: inf
ROOT
ATOM      1  C   UNL     1      65.589  57.160   9.874  1.00  0.00     0.006 C 
ENDROOT
BRANCH   1   2
ATOM      2  C   UNL     1      66.346  56.438  10.993  1.00  0.00     0.053 C 
BRANCH   2   3
ATOM      3  C   UNL     1      66.857  55.117  10.513  1.00  0.00     0.041 C 
ATOM      4  O   UNL     1      66.372  54.048  10.969  1.00  0.00    -0.550 OA
ATOM      5  O   UNL     1      67.833  55.065   9.527  1.00  0.00    -0.550 OA
ENDBRANCH   2   3
ENDBRANCH   1   2
BRANCH   1   6
ATOM      6  C   UNL     1      64.442  58.005  10.442  1.00  0.00     0.000 C 
BRANCH   6   7
ATOM      7  C   UNL     1      63.116  57.660   9.757  1.00  0.00    -0.003 C 
ATOM      8  C   UNL     1      61.964  58.470  10.347  1.00  0.00     0.004 C 
ENDBRANCH   6   7
ENDBRANCH   1   6
TORSDOF 4
ENDMDL
MODEL 3
REMARK VINA RESULT:    -2.388      2.990      4.633
REMARK INTER + INTRA:          -3.012
REMARK INTER:                  -2.896
REMARK INTRA:                  -0.116
REMARK UNBOUND:                -0.065
REMARK SMILES CCCCCC(=O)[O-]
REMARK SMILES IDX 4 1 5 2 6 3 7 4 8 5 3 6 2 7 1 8
REMARK H PARENT
REMARK Flexibility Score: inf
ROOT
ATOM      1  C   UNL     1      67.245  55.065  10.746  1.00  0.00     0.006 C 
ENDROOT
BRANCH   1   2
ATOM      2  C   UNL     1      68.463  54.999   9.820  1.00  0.00     0.053 C 
BRANCH   2   3
ATOM      3  C   UNL     1      69.728  54.969  10.619  1.00  0.00     0.041 C 
ATOM      4  O   UNL     1      70.143  53.885  11.106  1.00  0.00    -0.550 OA
ATOM      5  O   UNL     1      70.474  56.129  10.783  1.00  0.00    -0.550 OA
ENDBRANCH   2   3
ENDBRANCH   1   2
BRANCH   1   6
ATOM      6  C   UNL     1      66.920  56.516  11.125  1.00  0.00     0.000 C 
BRANCH   6   7
ATOM      7  C   UNL     1      65.425  56.805  10.956  1.00  0.00    -0.003 C 
ATOM      8  C   UNL     1      65.182  57.827   9.849  1.00  0.00     0.004 C 
ENDBRANCH   6   7
ENDBRANCH   1   6
TORSDOF 4
ENDMDL
MODEL 4
REMARK VINA RESULT:    -2.019      3.221      5.333
REMARK INTER + INTRA:          -2.556
REMARK INTER:                  -2.343
REMARK INTRA:                  -0.213
REMARK UNBOUND:                -0.065
REMARK SMILES CCCCCC(=O)[O-]
REMARK SMILES IDX 4 1 5 2 6 3 7 4 8 5 3 6 2 7 1 8
REMARK H PARENT
REMARK Flexibility Score: inf
ROOT
ATOM      1  C   UNL     1      63.130  58.398  10.242  1.00  0.00     0.006 C 
ENDROOT
BRANCH   1   2
ATOM      2  C   UNL     1      64.492  58.151  10.897  1.00  0.00     0.053 C 
BRANCH   2   3
ATOM      3  C   UNL     1      65.382  57.374   9.978  1.00  0.00     0.041 C 
ATOM      4  O   UNL     1      65.353  57.590   8.738  1.00  0.00    -0.550 OA
ATOM      5  O   UNL     1      66.279  56.449  10.496  1.00  0.00    -0.550 OA
ENDBRANCH   2   3
ENDBRANCH   1   2
BRANCH   1   6
ATOM      6  C   UNL     1      62.019  57.641  10.980  1.00  0.00     0.000 C 
BRANCH   6   7
ATOM      7  C   UNL     1      61.882  56.211  10.447  1.00  0.00    -0.003 C 
ATOM      8  C   UNL     1      61.881  56.189   8.921  1.00  0.00     0.004 C 
ENDBRANCH   6   7
ENDBRANCH   1   6
TORSDOF 4
ENDMDL
MODEL 5
REMARK VINA RESULT:    -1.646      7.008      7.682
REMARK INTER + INTRA:          -2.096
REMARK INTER:                  -1.972
REMARK INTRA:                  -0.124
REMARK UNBOUND:                -0.065
REMARK SMILES CCCCCC(=O)[O-]
REMARK SMILES IDX 4 1 5 2 6 3 7 4 8 5 3 6 2 7 1 8
REMARK H PARENT
REMARK Flexibility Score: inf
ROOT
ATOM      1  C   UNL     1      65.611  49.329  10.940  1.00  0.00     0.006 C 
ENDROOT
BRANCH   1   2
ATOM      2  C   UNL     1      64.110  49.577  11.113  1.00  0.00     0.053 C 
BRANCH   2   3
ATOM      3  C   UNL     1      63.323  48.408  10.610  1.00  0.00     0.041 C 
ATOM      4  O   UNL     1      63.760  47.237  10.767  1.00  0.00    -0.550 OA
ATOM      5  O   UNL     1      62.086  48.607  10.013  1.00  0.00    -0.550 OA
ENDBRANCH   2   3
ENDBRANCH   1   2
BRANCH   1   6
ATOM      6  C   UNL     1      66.388  50.650  10.917  1.00  0.00     0.000 C 
BRANCH   6   7
ATOM      7  C   UNL     1      65.497  51.803  10.443  1.00  0.00    -0.003 C 
ATOM      8  C   UNL     1      65.893  53.117  11.111  1.00  0.00     0.004 C 
ENDBRANCH   6   7
ENDBRANCH   1   6
TORSDOF 4
ENDMDL
MODEL 6
REMARK VINA RESULT:    -1.557      1.883      2.717
REMARK INTER + INTRA:          -1.987
REMARK INTER:                  -1.840
REMARK INTRA:                  -0.147
REMARK UNBOUND:                -0.065
REMARK SMILES CCCCCC(=O)[O-]
REMARK SMILES IDX 4 1 5 2 6 3 7 4 8 5 3 6 2 7 1 8
REMARK H PARENT
REMARK Flexibility Score: inf
ROOT
ATOM      1  C   UNL     1      66.370  56.328   9.946  1.00  0.00     0.006 C 
ENDROOT
BRANCH   1   2
ATOM      2  C   UNL     1      65.674  57.475  10.685  1.00  0.00     0.053 C 
BRANCH   2   3
ATOM      3  C   UNL     1      64.244  57.584  10.257  1.00  0.00     0.041 C 
ATOM      4  O   UNL     1      63.931  58.319   9.284  1.00  0.00    -0.550 OA
ATOM      5  O   UNL     1      63.267  56.837  10.900  1.00  0.00    -0.550 OA
ENDBRANCH   2   3
ENDBRANCH   1   2
BRANCH   1   6
ATOM      6  C   UNL     1      67.294  55.547  10.888  1.00  0.00     0.000 C 
BRANCH   6   7
ATOM      7  C   UNL     1      66.954  54.053  10.876  1.00  0.00    -0.003 C 
ATOM      8  C   UNL     1      65.466  53.824  11.125  1.00  0.00     0.004 C 
ENDBRANCH   6   7
ENDBRANCH   1   6
TORSDOF 4
ENDMDL
MODEL 7
REMARK VINA RESULT:    -1.304      2.563      3.370
REMARK INTER + INTRA:          -1.674
REMARK INTER:                  -1.609
REMARK INTRA:                  -0.065
REMARK UNBOUND:                -0.065
REMARK SMILES CCCCCC(=O)[O-]
REMARK SMILES IDX 4 1 5 2 6 3 7 4 8 5 3 6 2 7 1 8
REMARK H PARENT
REMARK Flexibility Score: inf
ROOT
ATOM      1  C   UNL     1      66.961  54.251  10.589  1.00  0.00     0.006 C 
ENDROOT
BRANCH   1   2
ATOM      2  C   UNL     1      66.698  55.684  11.060  1.00  0.00     0.053 C 
BRANCH   2   3
ATOM      3  C   UNL     1      66.180  56.520   9.932  1.00  0.00     0.041 C 
ATOM      4  O   UNL     1      65.349  57.440  10.156  1.00  0.00    -0.550 OA
ATOM      5  O   UNL     1      66.652  56.317   8.643  1.00  0.00    -0.550 OA
ENDBRANCH   2   3
ENDBRANCH   1   2
BRANCH   1   6
ATOM      6  C   UNL     1      65.889  53.292  11.121  1.00  0.00     0.000 C 
BRANCH   6   7
ATOM      7  C   UNL     1      65.825  52.017  10.273  1.00  0.00    -0.003 C 
ATOM      8  C   UNL     1      65.446  50.808  11.125  1.00  0.00     0.004 C 
ENDBRANCH   6   7
ENDBRANCH   1   6
TORSDOF 4
ENDMDL
MODEL 8
REMARK VINA RESULT:    -1.032      3.996      4.832
REMARK INTER + INTRA:          -1.339
REMARK INTER:                  -1.293
REMARK INTRA:                  -0.046
REMARK UNBOUND:                -0.065
REMARK SMILES CCCCCC(=O)[O-]
REMARK SMILES IDX 4 1 5 2 6 3 7 4 8 5 3 6 2 7 1 8
REMARK H PARENT
REMARK Flexibility Score: inf
ROOT
ATOM      1  C   UNL     1      66.296  52.691  10.384  1.00  0.00     0.006 C 
ENDROOT
BRANCH   1   2
ATOM      2  C   UNL     1      66.113  54.033  11.100  1.00  0.00     0.053 C 
BRANCH   2   3
ATOM      3  C   UNL     1      67.113  55.031  10.606  1.00  0.00     0.041 C 
ATOM      4  O   UNL     1      68.341  54.854  10.819  1.00  0.00    -0.550 OA
ATOM      5  O   UNL     1      66.692  56.130   9.868  1.00  0.00    -0.550 OA
ENDBRANCH   2   3
ENDBRANCH   1   2
BRANCH   1   6
ATOM      6  C   UNL     1      65.559  51.568  11.124  1.00  0.00     0.000 C 
BRANCH   6   7
ATOM      7  C   UNL     1      65.717  50.232  10.390  1.00  0.00    -0.003 C 
ATOM      8  C   UNL     1      64.659  49.228  10.841  1.00  0.00     0.004 C 
ENDBRANCH   6   7
ENDBRANCH   1   6
TORSDOF 4
ENDMDL
