MODEL 1
REMARK VINA RESULT:    -4.788      0.000      0.000
REMARK INTER + INTRA:          -4.788
REMARK INTER:                  -4.788
REMARK INTRA:                   0.000
REMARK UNBOUND:                 0.000
REMARK SMILES CC(C)=C1CC[C@@H](C)CC1=O
REMARK SMILES IDX 8 1 7 2 6 3 5 4 4 5 2 6 1 7 3 8 10 9 11 10 9 11
REMARK H PARENT
REMARK Flexibility Score: inf
ROOT
ATOM      1  C   UNL     1      53.119  19.084  -3.602  1.00  0.00     0.008 C 
ATOM      2  C   UNL     1      54.623  19.050  -3.283  1.00  0.00    -0.006 C 
ATOM      3  C   UNL     1      55.399  18.123  -4.235  1.00  0.00     0.008 C 
ATOM      4  C   UNL     1      55.036  16.640  -4.061  1.00  0.00     0.039 C 
ATOM      5  C   UNL     1      55.070  16.187  -2.607  1.00  0.00    -0.006 C 
ATOM      6  C   UNL     1      55.378  14.898  -2.276  1.00  0.00    -0.070 C 
ATOM      7  C   UNL     1      55.470  14.447  -0.837  1.00  0.00     0.039 C 
ATOM      8  C   UNL     1      55.678  13.867  -3.339  1.00  0.00     0.039 C 
ATOM      9  C   UNL     1      54.636  17.190  -1.591  1.00  0.00     0.159 C 
ATOM     10  O   UNL     1      54.046  16.839  -0.535  1.00  0.00    -0.295 OA
ATOM     11  C   UNL     1      54.887  18.653  -1.823  1.00  0.00     0.084 C 
ENDROOT
TORSDOF 0
ENDMDL
MODEL 2
REMARK VINA RESULT:    -4.655      1.705      4.319
REMARK INTER + INTRA:          -4.655
REMARK INTER:                  -4.655
REMARK INTRA:                   0.000
REMARK UNBOUND:                 0.000
REMARK SMILES CC(C)=C1CC[C@@H](C)CC1=O
REMARK SMILES IDX 8 1 7 2 6 3 5 4 4 5 2 6 1 7 3 8 10 9 11 10 9 11
REMARK H PARENT
REMARK Flexibility Score: inf
ROOT
ATOM      1  C   UNL     1      53.168  13.916  -2.040  1.00  0.00     0.008 C 
ATOM      2  C   UNL     1      54.686  14.108  -2.193  1.00  0.00    -0.006 C 
ATOM      3  C   UNL     1      55.261  15.073  -1.141  1.00  0.00     0.008 C 
ATOM      4  C   UNL     1      54.771  16.518  -1.318  1.00  0.00     0.039 C 
ATOM      5  C   UNL     1      54.911  17.022  -2.749  1.00  0.00    -0.006 C 
ATOM      6  C   UNL     1      55.121  18.346  -3.014  1.00  0.00    -0.070 C 
ATOM      7  C   UNL     1      55.318  18.853  -4.423  1.00  0.00     0.039 C 
ATOM      8  C   UNL     1      55.202  19.365  -1.901  1.00  0.00     0.039 C 
ATOM      9  C   UNL     1      54.690  16.017  -3.829  1.00  0.00     0.159 C 
ATOM     10  O   UNL     1      54.182  16.345  -4.934  1.00  0.00    -0.295 OA
ATOM     11  C   UNL     1      55.061  14.579  -3.607  1.00  0.00     0.084 C 
ENDROOT
TORSDOF 0
ENDMDL
MODEL 3
REMARK VINA RESULT:    -4.576      1.641      2.560
REMARK INTER + INTRA:          -4.576
REMARK INTER:                  -4.576
REMARK INTRA:                   0.000
REMARK UNBOUND:                 0.000
REMARK SMILES CC(C)=C1CC[C@@H](C)CC1=O
REMARK SMILES IDX 8 1 7 2 6 3 5 4 4 5 2 6 1 7 3 8 10 9 11 10 9 11
REMARK H PARENT
REMARK Flexibility Score: inf
ROOT
ATOM      1  C   UNL     1      55.894  18.991  -4.553  1.00  0.00     0.008 C 
ATOM      2  C   UNL     1      54.467  18.707  -4.055  1.00  0.00    -0.006 C 
ATOM      3  C   UNL     1      54.317  18.958  -2.544  1.00  0.00     0.008 C 
ATOM      4  C   UNL     1      55.120  17.969  -1.686  1.00  0.00     0.039 C 
ATOM      5  C   UNL     1      54.896  16.516  -2.089  1.00  0.00    -0.006 C 
ATOM      6  C   UNL     1      54.987  15.507  -1.172  1.00  0.00    -0.070 C 
ATOM      7  C   UNL     1      54.713  14.068  -1.543  1.00  0.00     0.039 C 
ATOM      8  C   UNL     1      55.331  15.790   0.272  1.00  0.00     0.039 C 
ATOM      9  C   UNL     1      54.694  16.257  -3.544  1.00  0.00     0.159 C 
ATOM     10  O   UNL     1      55.096  15.190  -4.081  1.00  0.00    -0.295 OA
ATOM     11  C   UNL     1      54.013  17.282  -4.404  1.00  0.00     0.084 C 
ENDROOT
TORSDOF 0
ENDMDL
MODEL 4
REMARK VINA RESULT:    -4.564      2.491      3.296
REMARK INTER + INTRA:          -4.564
REMARK INTER:                  -4.564
REMARK INTRA:                   0.000
REMARK UNBOUND:                 0.000
REMARK SMILES CC(C)=C1CC[C@@H](C)CC1=O
REMARK SMILES IDX 8 1 7 2 6 3 5 4 4 5 2 6 1 7 3 8 10 9 11 10 9 11
REMARK H PARENT
REMARK Flexibility Score: inf
ROOT
ATOM      1  C   UNL     1      56.119  19.106  -4.983  1.00  0.00     0.008 C 
ATOM      2  C   UNL     1      54.860  19.003  -4.106  1.00  0.00    -0.006 C 
ATOM      3  C   UNL     1      55.042  18.018  -2.938  1.00  0.00     0.008 C 
ATOM      4  C   UNL     1      55.191  16.559  -3.397  1.00  0.00     0.039 C 
ATOM      5  C   UNL     1      54.114  16.136  -4.389  1.00  0.00    -0.006 C 
ATOM      6  C   UNL     1      53.686  14.841  -4.457  1.00  0.00    -0.070 C 
ATOM      7  C   UNL     1      52.581  14.417  -5.395  1.00  0.00     0.039 C 
ATOM      8  C   UNL     1      54.277  13.773  -3.566  1.00  0.00     0.039 C 
ATOM      9  C   UNL     1      53.649  17.182  -5.347  1.00  0.00     0.159 C 
ATOM     10  O   UNL     1      53.288  16.884  -6.516  1.00  0.00    -0.295 OA
ATOM     11  C   UNL     1      53.620  18.625  -4.931  1.00  0.00     0.084 C 
ENDROOT
TORSDOF 0
ENDMDL
MODEL 5
REMARK VINA RESULT:    -4.563      2.439      5.138
REMARK INTER + INTRA:          -4.563
REMARK INTER:                  -4.563
REMARK INTRA:                   0.000
REMARK UNBOUND:                 0.000
REMARK SMILES CC(C)=C1CC[C@@H](C)CC1=O
REMARK SMILES IDX 8 1 7 2 6 3 5 4 4 5 2 6 1 7 3 8 10 9 11 10 9 11
REMARK H PARENT
REMARK Flexibility Score: inf
ROOT
ATOM      1  C   UNL     1      55.078  16.556  -3.517  1.00  0.00     0.008 C 
ATOM      2  C   UNL     1      55.469  18.029  -3.727  1.00  0.00    -0.006 C 
ATOM      3  C   UNL     1      55.004  18.926  -2.567  1.00  0.00     0.008 C 
ATOM      4  C   UNL     1      53.476  19.048  -2.475  1.00  0.00     0.039 C 
ATOM      5  C   UNL     1      52.825  19.391  -3.809  1.00  0.00    -0.006 C 
ATOM      6  C   UNL     1      51.664  20.108  -3.866  1.00  0.00    -0.070 C 
ATOM      7  C   UNL     1      51.037  20.504  -5.182  1.00  0.00     0.039 C 
ATOM      8  C   UNL     1      50.969  20.573  -2.607  1.00  0.00     0.039 C 
ATOM      9  C   UNL     1      53.460  18.802  -5.025  1.00  0.00     0.159 C 
ATOM     10  O   UNL     1      52.772  18.475  -6.028  1.00  0.00    -0.295 OA
ATOM     11  C   UNL     1      54.944  18.573  -5.064  1.00  0.00     0.084 C 
ENDROOT
TORSDOF 0
ENDMDL
MODEL 6
REMARK VINA RESULT:    -4.560      1.795      2.145
REMARK INTER + INTRA:          -4.560
REMARK INTER:                  -4.560
REMARK INTRA:                   0.000
REMARK UNBOUND:                 0.000
REMARK SMILES CC(C)=C1CC[C@@H](C)CC1=O
REMARK SMILES IDX 8 1 7 2 6 3 5 4 4 5 2 6 1 7 3 8 10 9 11 10 9 11
REMARK H PARENT
REMARK Flexibility Score: inf
ROOT
ATOM      1  C   UNL     1      53.360  19.787  -5.264  1.00  0.00     0.008 C 
ATOM      2  C   UNL     1      54.562  18.835  -5.384  1.00  0.00    -0.006 C 
ATOM      3  C   UNL     1      54.130  17.362  -5.495  1.00  0.00     0.008 C 
ATOM      4  C   UNL     1      53.470  16.830  -4.214  1.00  0.00     0.039 C 
ATOM      5  C   UNL     1      54.279  17.135  -2.959  1.00  0.00    -0.006 C 
ATOM      6  C   UNL     1      54.240  16.306  -1.875  1.00  0.00    -0.070 C 
ATOM      7  C   UNL     1      55.078  16.565  -0.644  1.00  0.00     0.039 C 
ATOM      8  C   UNL     1      53.379  15.063  -1.869  1.00  0.00     0.039 C 
ATOM      9  C   UNL     1      55.009  18.436  -2.943  1.00  0.00     0.159 C 
ATOM     10  O   UNL     1      55.177  19.079  -1.873  1.00  0.00    -0.295 OA
ATOM     11  C   UNL     1      55.549  19.013  -4.221  1.00  0.00     0.084 C 
ENDROOT
TORSDOF 0
ENDMDL
MODEL 7
REMARK VINA RESULT:    -4.405      1.273      3.763
REMARK INTER + INTRA:          -4.405
REMARK INTER:                  -4.405
REMARK INTRA:                   0.000
REMARK UNBOUND:                 0.000
REMARK SMILES CC(C)=C1CC[C@@H](C)CC1=O
REMARK SMILES IDX 8 1 7 2 6 3 5 4 4 5 2 6 1 7 3 8 10 9 11 10 9 11
REMARK H PARENT
REMARK Flexibility Score: inf
ROOT
ATOM      1  C   UNL     1      55.196  13.436  -2.948  1.00  0.00     0.008 C 
ATOM      2  C   UNL     1      53.874  14.221  -2.959  1.00  0.00    -0.006 C 
ATOM      3  C   UNL     1      53.699  15.051  -4.243  1.00  0.00     0.008 C 
ATOM      4  C   UNL     1      54.713  16.199  -4.359  1.00  0.00     0.039 C 
ATOM      5  C   UNL     1      54.802  17.044  -3.094  1.00  0.00    -0.006 C 
ATOM      6  C   UNL     1      55.125  18.369  -3.151  1.00  0.00    -0.070 C 
ATOM      7  C   UNL     1      55.164  19.233  -1.912  1.00  0.00     0.039 C 
ATOM      8  C   UNL     1      55.426  19.047  -4.469  1.00  0.00     0.039 C 
ATOM      9  C   UNL     1      54.635  16.318  -1.801  1.00  0.00     0.159 C 
ATOM     10  O   UNL     1      55.250  16.681  -0.763  1.00  0.00    -0.295 OA
ATOM     11  C   UNL     1      53.734  15.120  -1.721  1.00  0.00     0.084 C 
ENDROOT
TORSDOF 0
ENDMDL
MODEL 8
REMARK VINA RESULT:    -4.347      2.516      5.146
REMARK INTER + INTRA:          -4.347
REMARK INTER:                  -4.347
REMARK INTRA:                   0.000
REMARK UNBOUND:                 0.000
REMARK SMILES CC(C)=C1CC[C@@H](C)CC1=O
REMARK SMILES IDX 8 1 7 2 6 3 5 4 4 5 2 6 1 7 3 8 10 9 11 10 9 11
REMARK H PARENT
REMARK Flexibility Score: inf
ROOT
ATOM      1  C   UNL     1      54.806  17.266  -2.541  1.00  0.00     0.008 C 
ATOM      2  C   UNL     1      55.193  17.175  -4.027  1.00  0.00    -0.006 C 
ATOM      3  C   UNL     1      55.666  18.526  -4.589  1.00  0.00     0.008 C 
ATOM      4  C   UNL     1      54.548  19.578  -4.651  1.00  0.00     0.039 C 
ATOM      5  C   UNL     1      53.276  19.055  -5.307  1.00  0.00    -0.006 C 
ATOM      6  C   UNL     1      52.439  19.891  -5.990  1.00  0.00    -0.070 C 
ATOM      7  C   UNL     1      51.204  19.379  -6.694  1.00  0.00     0.039 C 
ATOM      8  C   UNL     1      52.730  21.369  -6.105  1.00  0.00     0.039 C 
ATOM      9  C   UNL     1      52.946  17.621  -5.061  1.00  0.00     0.159 C 
ATOM     10  O   UNL     1      51.752  17.228  -4.986  1.00  0.00    -0.295 OA
ATOM     11  C   UNL     1      54.047  16.615  -4.882  1.00  0.00     0.084 C 
ENDROOT
TORSDOF 0
ENDMDL
