MODEL 1
REMARK VINA RESULT:    -8.597      0.000      0.000
REMARK INTER + INTRA:         -15.248
REMARK INTER:                 -14.125
REMARK INTRA:                  -1.123
REMARK UNBOUND:                -1.123
REMARK SMILES COc1ccc([C@H]2CC(=O)c3c(O)cc(O[C@H]4O[C@H](CO[C@@H]5O[C@H](C)[C@H](O)[C@H](O)[C@@H]5O)[C@H](O)[C@H](O)[C@@H]4O)cc3O2)cc1O
REMARK SMILES IDX 19 1 32 2 34 3 36 4 17 5 18 6 20 7 21 8 22 9 25 10 24 11
REMARK SMILES IDX 26 12 23 13 28 14 30 15 27 16 29 18 31 20 33 22 35 24 16 26
REMARK SMILES IDX 15 27 14 28 38 29 12 30 39 31 11 32 40 33 9 34 7 35 10 36
REMARK SMILES IDX 8 37 13 38 6 40 41 41 5 42 42 43 4 44 3 45 43 46 2 48 1 49
REMARK SMILES IDX 37 50
REMARK H PARENT 27 17 29 19 31 21 33 23 35 25 13 39 43 47 37 51
REMARK Flexibility Score: inf
ROOT
ATOM      1  C   UNL     1      -0.605  12.350  25.457  1.00  0.00     0.180 C 
ATOM      2  C   UNL     1       0.264  11.548  26.385  1.00  0.00     0.177 C 
ATOM      3  C   UNL     1       1.403  11.176  25.415  1.00  0.00     0.180 C 
ATOM      4  C   UNL     1       2.228  12.438  24.934  1.00  0.00     0.214 C 
ATOM      5  C   UNL     1       1.497  13.834  25.339  1.00  0.00     0.339 C 
ATOM      6  O   UNL     1      -0.025  13.755  25.489  1.00  0.00    -0.332 OA
ENDROOT
BRANCH   1   7
ATOM      7  C   UNL     1      -2.160  11.812  25.164  1.00  0.00     0.198 C 
BRANCH   7   8
ATOM      8  O   UNL     1      -2.169  10.503  24.624  1.00  0.00    -0.347 OA
BRANCH   8   9
ATOM      9  C   UNL     1      -2.520  10.497  23.248  1.00  0.00     0.281 C 
ATOM     10  C   UNL     1      -5.124   8.587  23.004  1.00  0.00     0.041 C 
ATOM     11  C   UNL     1      -4.578   9.799  22.122  1.00  0.00     0.150 C 
ATOM     12  C   UNL     1      -3.694   9.291  20.779  1.00  0.00     0.174 C 
ATOM     13  O   UNL     1      -3.905  10.804  23.053  1.00  0.00    -0.344 OA
ATOM     14  C   UNL     1      -2.084   9.158  21.023  1.00  0.00     0.179 C 
ATOM     15  C   UNL     1      -1.979   9.120  22.595  1.00  0.00     0.202 C 
BRANCH  12  16
ATOM     16  O   UNL     1      -4.178   8.098  20.220  1.00  0.00    -0.388 OA
ATOM     17  H   UNL     1      -3.740   7.848  19.281  1.00  0.00     0.211 HD
ENDBRANCH  12  16
BRANCH  14  18
ATOM     18  O   UNL     1      -1.266   8.075  20.635  1.00  0.00    -0.387 OA
ATOM     19  H   UNL     1      -1.223   7.374  21.388  1.00  0.00     0.211 HD
ENDBRANCH  14  18
BRANCH  15  20
ATOM     20  O   UNL     1      -2.014   7.778  23.121  1.00  0.00    -0.385 OA
ATOM     21  H   UNL     1      -1.074   7.447  23.342  1.00  0.00     0.211 HD
ENDBRANCH  15  20
ENDBRANCH   8   9
ENDBRANCH   7   8
ENDBRANCH   1   7
BRANCH   2  22
ATOM     22  O   UNL     1       0.622  12.263  27.547  1.00  0.00    -0.387 OA
ATOM     23  H   UNL     1       0.935  13.168  27.271  1.00  0.00     0.211 HD
ENDBRANCH   2  22
BRANCH   3  24
ATOM     24  O   UNL     1       2.214  10.089  25.958  1.00  0.00    -0.387 OA
ATOM     25  H   UNL     1       1.581   9.856  26.679  1.00  0.00     0.211 HD
ENDBRANCH   3  24
BRANCH   5  26
ATOM     26  O   UNL     1       2.199  15.048  24.804  1.00  0.00    -0.462 OA
BRANCH  26  27
ATOM     27  C   UNL     1       1.918  16.478  24.971  1.00  0.00     0.130 A 
ATOM     28  C   UNL     1       2.224  17.239  26.156  1.00  0.00     0.093 A 
ATOM     29  C   UNL     1       1.420  17.336  23.945  1.00  0.00     0.094 A 
ATOM     30  C   UNL     1       1.709  18.481  26.484  1.00  0.00     0.133 A 
ATOM     31  C   UNL     1       1.689  18.689  24.228  1.00  0.00     0.138 A 
ATOM     32  C   UNL     1       1.237  19.250  25.414  1.00  0.00     0.102 A 
ATOM     33  O   UNL     1       2.829  19.367  23.702  1.00  0.00    -0.484 OA
ATOM     34  C   UNL     1       1.481  20.716  25.413  1.00  0.00     0.174 C 
ATOM     35  C   UNL     1       3.751  20.046  24.666  1.00  0.00     0.211 C 
ATOM     36  O   UNL     1       0.574  21.439  24.937  1.00  0.00    -0.294 OA
ATOM     37  C   UNL     1       2.897  21.106  25.412  1.00  0.00     0.131 C 
BRANCH  30  38
ATOM     38  O   UNL     1       1.883  18.965  27.762  1.00  0.00    -0.507 OA
ATOM     39  H   UNL     1       1.173  18.998  28.473  1.00  0.00     0.293 HD
ENDBRANCH  30  38
BRANCH  35  40
ATOM     40  C   UNL     1       4.966  20.688  24.157  1.00  0.00    -0.003 A 
ATOM     41  C   UNL     1       5.012  21.209  22.812  1.00  0.00     0.057 A 
ATOM     42  C   UNL     1       6.190  20.745  24.904  1.00  0.00     0.011 A 
ATOM     43  C   UNL     1       6.159  21.920  22.411  1.00  0.00     0.158 A 
ATOM     44  C   UNL     1       7.306  21.381  24.434  1.00  0.00     0.051 A 
ATOM     45  C   UNL     1       7.281  22.104  23.254  1.00  0.00     0.160 A 
BRANCH  43  46
ATOM     46  O   UNL     1       6.118  22.500  21.131  1.00  0.00    -0.504 OA
ATOM     47  H   UNL     1       6.414  21.981  20.303  1.00  0.00     0.293 HD
ENDBRANCH  43  46
BRANCH  45  48
ATOM     48  O   UNL     1       8.295  22.967  22.824  1.00  0.00    -0.493 OA
ATOM     49  C   UNL     1       9.690  22.525  22.680  1.00  0.00     0.278 C 
ENDBRANCH  45  48
ENDBRANCH  35  40
ENDBRANCH  26  27
ENDBRANCH   5  26
BRANCH   4  50
ATOM     50  O   UNL     1       3.392  12.341  25.662  1.00  0.00    -0.384 OA
ATOM     51  H   UNL     1       3.916  11.623  25.243  1.00  0.00     0.211 HD
ENDBRANCH   4  50
TORSDOF 15
ENDMDL
MODEL 2
REMARK VINA RESULT:    -8.364      2.554      5.105
REMARK INTER + INTRA:         -14.866
REMARK INTER:                 -13.566
REMARK INTRA:                  -1.300
REMARK UNBOUND:                -1.123
REMARK SMILES COc1ccc([C@H]2CC(=O)c3c(O)cc(O[C@H]4O[C@H](CO[C@@H]5O[C@H](C)[C@H](O)[C@H](O)[C@@H]5O)[C@H](O)[C@H](O)[C@@H]4O)cc3O2)cc1O
REMARK SMILES IDX 19 1 32 2 34 3 36 4 17 5 18 6 20 7 21 8 22 9 25 10 24 11
REMARK SMILES IDX 26 12 23 13 28 14 30 15 27 16 29 18 31 20 33 22 35 24 16 26
REMARK SMILES IDX 15 27 14 28 38 29 12 30 39 31 11 32 40 33 9 34 7 35 10 36
REMARK SMILES IDX 8 37 13 38 6 40 41 41 5 42 42 43 4 44 3 45 43 46 2 48 1 49
REMARK SMILES IDX 37 50
REMARK H PARENT 27 17 29 19 31 21 33 23 35 25 13 39 43 47 37 51
REMARK Flexibility Score: inf
ROOT
ATOM      1  C   UNL     1      -0.318  11.071  25.498  1.00  0.00     0.180 C 
ATOM      2  C   UNL     1      -1.400  11.970  26.030  1.00  0.00     0.177 C 
ATOM      3  C   UNL     1      -0.755  12.387  27.366  1.00  0.00     0.180 C 
ATOM      4  C   UNL     1       0.552  13.255  27.166  1.00  0.00     0.214 C 
ATOM      5  C   UNL     1       1.059  13.244  25.620  1.00  0.00     0.339 C 
ATOM      6  O   UNL     1       0.668  12.004  24.812  1.00  0.00    -0.332 OA
ENDROOT
BRANCH   1   7
ATOM      7  C   UNL     1      -0.688   9.467  25.215  1.00  0.00     0.198 C 
BRANCH   7   8
ATOM      8  O   UNL     1      -2.075   9.279  24.999  1.00  0.00    -0.347 OA
BRANCH   8   9
ATOM      9  C   UNL     1      -2.467   9.656  23.687  1.00  0.00     0.281 C 
ATOM     10  C   UNL     1      -5.120   7.923  23.019  1.00  0.00     0.041 C 
ATOM     11  C   UNL     1      -4.573   9.323  22.486  1.00  0.00     0.150 C 
ATOM     12  C   UNL     1      -3.740   9.193  21.025  1.00  0.00     0.174 C 
ATOM     13  O   UNL     1      -3.850  10.023  23.633  1.00  0.00    -0.344 OA
ATOM     14  C   UNL     1      -2.127   8.976  21.167  1.00  0.00     0.179 C 
ATOM     15  C   UNL     1      -1.977   8.505  22.663  1.00  0.00     0.202 C 
BRANCH  12  16
ATOM     16  O   UNL     1      -4.267   8.206  20.176  1.00  0.00    -0.388 OA
ATOM     17  H   UNL     1      -5.284   8.366  19.901  1.00  0.00     0.211 HD
ENDBRANCH  12  16
BRANCH  14  18
ATOM     18  O   UNL     1      -1.346   8.030  20.468  1.00  0.00    -0.387 OA
ATOM     19  H   UNL     1      -1.914   7.561  19.749  1.00  0.00     0.211 HD
ENDBRANCH  14  18
BRANCH  15  20
ATOM     20  O   UNL     1      -2.027   7.071  22.801  1.00  0.00    -0.385 OA
ATOM     21  H   UNL     1      -1.283   6.736  23.416  1.00  0.00     0.211 HD
ENDBRANCH  15  20
ENDBRANCH   8   9
ENDBRANCH   7   8
ENDBRANCH   1   7
BRANCH   2  22
ATOM     22  O   UNL     1      -1.737  13.004  25.131  1.00  0.00    -0.387 OA
ATOM     23  H   UNL     1      -2.726  13.000  25.010  1.00  0.00     0.211 HD
ENDBRANCH   2  22
BRANCH   3  24
ATOM     24  O   UNL     1      -1.748  12.979  28.260  1.00  0.00    -0.387 OA
ATOM     25  H   UNL     1      -1.632  13.901  27.925  1.00  0.00     0.211 HD
ENDBRANCH   3  24
BRANCH   5  26
ATOM     26  O   UNL     1       2.357  13.971  25.415  1.00  0.00    -0.462 OA
BRANCH  26  27
ATOM     27  C   UNL     1       2.647  15.398  25.239  1.00  0.00     0.130 A 
ATOM     28  C   UNL     1       2.914  16.028  23.970  1.00  0.00     0.093 A 
ATOM     29  C   UNL     1       2.583  16.378  26.275  1.00  0.00     0.094 A 
ATOM     30  C   UNL     1       3.492  17.271  23.781  1.00  0.00     0.133 A 
ATOM     31  C   UNL     1       2.443  17.677  25.749  1.00  0.00     0.138 A 
ATOM     32  C   UNL     1       3.385  18.164  24.855  1.00  0.00     0.102 A 
ATOM     33  O   UNL     1       1.173  18.310  25.605  1.00  0.00    -0.484 OA
ATOM     34  C   UNL     1       3.132  19.602  24.578  1.00  0.00     0.174 C 
ATOM     35  C   UNL     1       0.796  18.831  24.253  1.00  0.00     0.211 C 
ATOM     36  O   UNL     1       3.690  20.430  25.336  1.00  0.00    -0.294 OA
ATOM     37  C   UNL     1       1.873  19.883  23.877  1.00  0.00     0.131 C 
BRANCH  30  38
ATOM     38  O   UNL     1       3.927  17.627  22.524  1.00  0.00    -0.507 OA
ATOM     39  H   UNL     1       3.484  17.366  21.660  1.00  0.00     0.293 HD
ENDBRANCH  30  38
BRANCH  35  40
ATOM     40  C   UNL     1      -0.532  19.422  24.064  1.00  0.00    -0.003 A 
ATOM     41  C   UNL     1      -1.306  19.121  22.883  1.00  0.00     0.057 A 
ATOM     42  C   UNL     1      -1.091  20.392  24.962  1.00  0.00     0.011 A 
ATOM     43  C   UNL     1      -2.621  19.618  22.804  1.00  0.00     0.158 A 
ATOM     44  C   UNL     1      -2.346  20.906  24.796  1.00  0.00     0.051 A 
ATOM     45  C   UNL     1      -3.195  20.433  23.809  1.00  0.00     0.160 A 
BRANCH  43  46
ATOM     46  O   UNL     1      -3.375  19.216  21.689  1.00  0.00    -0.504 OA
ATOM     47  H   UNL     1      -3.840  18.307  21.661  1.00  0.00     0.293 HD
ENDBRANCH  43  46
BRANCH  45  48
ATOM     48  O   UNL     1      -4.559  20.732  23.718  1.00  0.00    -0.493 OA
ATOM     49  C   UNL     1      -5.045  22.097  23.469  1.00  0.00     0.278 C 
ENDBRANCH  45  48
ENDBRANCH  35  40
ENDBRANCH  26  27
ENDBRANCH   5  26
BRANCH   4  50
ATOM     50  O   UNL     1       0.125  14.530  27.464  1.00  0.00    -0.384 OA
ATOM     51  H   UNL     1      -0.620  14.718  26.850  1.00  0.00     0.211 HD
ENDBRANCH   4  50
TORSDOF 15
ENDMDL
MODEL 3
REMARK VINA RESULT:    -8.261      3.557     11.844
REMARK INTER + INTRA:         -14.696
REMARK INTER:                 -13.430
REMARK INTRA:                  -1.266
REMARK UNBOUND:                -1.123
REMARK SMILES COc1ccc([C@H]2CC(=O)c3c(O)cc(O[C@H]4O[C@H](CO[C@@H]5O[C@H](C)[C@H](O)[C@H](O)[C@@H]5O)[C@H](O)[C@H](O)[C@@H]4O)cc3O2)cc1O
REMARK SMILES IDX 19 1 32 2 34 3 36 4 17 5 18 6 20 7 21 8 22 9 25 10 24 11
REMARK SMILES IDX 26 12 23 13 28 14 30 15 27 16 29 18 31 20 33 22 35 24 16 26
REMARK SMILES IDX 15 27 14 28 38 29 12 30 39 31 11 32 40 33 9 34 7 35 10 36
REMARK SMILES IDX 8 37 13 38 6 40 41 41 5 42 42 43 4 44 3 45 43 46 2 48 1 49
REMARK SMILES IDX 37 50
REMARK H PARENT 27 17 29 19 31 21 33 23 35 25 13 39 43 47 37 51
REMARK Flexibility Score: inf
ROOT
ATOM      1  C   UNL     1       1.992  16.570  25.172  1.00  0.00     0.180 C 
ATOM      2  C   UNL     1       2.856  16.383  23.955  1.00  0.00     0.177 C 
ATOM      3  C   UNL     1       4.047  15.644  24.596  1.00  0.00     0.180 C 
ATOM      4  C   UNL     1       3.651  14.213  25.143  1.00  0.00     0.214 C 
ATOM      5  C   UNL     1       2.039  13.995  25.166  1.00  0.00     0.339 C 
ATOM      6  O   UNL     1       1.208  15.273  25.301  1.00  0.00    -0.332 OA
ENDROOT
BRANCH   1   7
ATOM      7  C   UNL     1       1.622  18.127  25.650  1.00  0.00     0.198 C 
BRANCH   7   8
ATOM      8  O   UNL     1       1.351  18.966  24.542  1.00  0.00    -0.347 OA
BRANCH   8   9
ATOM      9  C   UNL     1       1.942  20.249  24.687  1.00  0.00     0.281 C 
ATOM     10  C   UNL     1       2.540  21.296  21.681  1.00  0.00     0.041 C 
ATOM     11  C   UNL     1       2.283  22.049  23.063  1.00  0.00     0.150 C 
ATOM     12  C   UNL     1       3.708  22.505  23.841  1.00  0.00     0.174 C 
ATOM     13  O   UNL     1       1.284  21.229  23.876  1.00  0.00    -0.344 OA
ATOM     14  C   UNL     1       4.292  21.414  24.908  1.00  0.00     0.179 C 
ATOM     15  C   UNL     1       3.540  20.094  24.491  1.00  0.00     0.202 C 
BRANCH  12  16
ATOM     16  O   UNL     1       4.728  22.874  22.950  1.00  0.00    -0.388 OA
ATOM     17  H   UNL     1       5.698  22.536  23.235  1.00  0.00     0.211 HD
ENDBRANCH  12  16
BRANCH  14  18
ATOM     18  O   UNL     1       5.632  20.982  25.013  1.00  0.00    -0.387 OA
ATOM     19  H   UNL     1       6.138  21.173  24.136  1.00  0.00     0.211 HD
ENDBRANCH  14  18
BRANCH  15  20
ATOM     20  O   UNL     1       4.276  19.315  23.527  1.00  0.00    -0.385 OA
ATOM     21  H   UNL     1       5.282  19.437  23.650  1.00  0.00     0.211 HD
ENDBRANCH  15  20
ENDBRANCH   8   9
ENDBRANCH   7   8
ENDBRANCH   1   7
BRANCH   2  22
ATOM     22  O   UNL     1       2.181  15.723  22.907  1.00  0.00    -0.387 OA
ATOM     23  H   UNL     1       2.322  16.245  22.070  1.00  0.00     0.211 HD
ENDBRANCH   2  22
BRANCH   3  24
ATOM     24  O   UNL     1       5.205  15.656  23.705  1.00  0.00    -0.387 OA
ATOM     25  H   UNL     1       4.827  15.014  23.057  1.00  0.00     0.211 HD
ENDBRANCH   3  24
BRANCH   5  26
ATOM     26  O   UNL     1       1.626  12.688  25.779  1.00  0.00    -0.462 OA
BRANCH  26  27
ATOM     27  C   UNL     1       0.335  11.992  25.792  1.00  0.00     0.130 A 
ATOM     28  C   UNL     1       0.129  10.659  26.300  1.00  0.00     0.093 A 
ATOM     29  C   UNL     1      -0.911  12.579  25.419  1.00  0.00     0.094 A 
ATOM     30  C   UNL     1      -0.968   9.853  26.055  1.00  0.00     0.133 A 
ATOM     31  C   UNL     1      -1.999  11.869  25.962  1.00  0.00     0.138 A 
ATOM     32  C   UNL     1      -2.146  10.517  25.689  1.00  0.00     0.102 A 
ATOM     33  O   UNL     1      -2.628  12.252  27.185  1.00  0.00    -0.484 OA
ATOM     34  C   UNL     1      -3.446  10.026  26.214  1.00  0.00     0.174 C 
ATOM     35  C   UNL     1      -2.741  11.225  28.269  1.00  0.00     0.211 C 
ATOM     36  O   UNL     1      -4.432  10.103  25.443  1.00  0.00    -0.294 OA
ATOM     37  C   UNL     1      -3.573  10.056  27.677  1.00  0.00     0.131 C 
BRANCH  30  38
ATOM     38  O   UNL     1      -0.908   8.516  26.385  1.00  0.00    -0.507 OA
ATOM     39  H   UNL     1      -0.521   8.144  27.234  1.00  0.00     0.293 HD
ENDBRANCH  30  38
BRANCH  35  40
ATOM     40  C   UNL     1      -3.318  11.614  29.559  1.00  0.00    -0.003 A 
ATOM     41  C   UNL     1      -2.682  11.223  30.794  1.00  0.00     0.057 A 
ATOM     42  C   UNL     1      -4.573  12.300  29.677  1.00  0.00     0.011 A 
ATOM     43  C   UNL     1      -3.208  11.720  32.001  1.00  0.00     0.158 A 
ATOM     44  C   UNL     1      -5.081  12.692  30.884  1.00  0.00     0.051 A 
ATOM     45  C   UNL     1      -4.356  12.547  32.055  1.00  0.00     0.160 A 
BRANCH  43  46
ATOM     46  O   UNL     1      -2.498  11.400  33.171  1.00  0.00    -0.504 OA
ATOM     47  H   UNL     1      -2.945  11.428  34.089  1.00  0.00     0.293 HD
ENDBRANCH  43  46
BRANCH  45  48
ATOM     48  O   UNL     1      -4.697  13.126  33.283  1.00  0.00    -0.493 OA
ATOM     49  C   UNL     1      -4.878  14.576  33.440  1.00  0.00     0.278 C 
ENDBRANCH  45  48
ENDBRANCH  35  40
ENDBRANCH  26  27
ENDBRANCH   5  26
BRANCH   4  50
ATOM     50  O   UNL     1       4.182  13.364  24.198  1.00  0.00    -0.384 OA
ATOM     51  H   UNL     1       4.770  12.746  24.687  1.00  0.00     0.211 HD
ENDBRANCH   4  50
TORSDOF 15
ENDMDL
MODEL 4
REMARK VINA RESULT:    -7.896      3.946     12.608
REMARK INTER + INTRA:         -14.097
REMARK INTER:                 -12.904
REMARK INTRA:                  -1.193
REMARK UNBOUND:                -1.123
REMARK SMILES COc1ccc([C@H]2CC(=O)c3c(O)cc(O[C@H]4O[C@H](CO[C@@H]5O[C@H](C)[C@H](O)[C@H](O)[C@@H]5O)[C@H](O)[C@H](O)[C@@H]4O)cc3O2)cc1O
REMARK SMILES IDX 19 1 32 2 34 3 36 4 17 5 18 6 20 7 21 8 22 9 25 10 24 11
REMARK SMILES IDX 26 12 23 13 28 14 30 15 27 16 29 18 31 20 33 22 35 24 16 26
REMARK SMILES IDX 15 27 14 28 38 29 12 30 39 31 11 32 40 33 9 34 7 35 10 36
REMARK SMILES IDX 8 37 13 38 6 40 41 41 5 42 42 43 4 44 3 45 43 46 2 48 1 49
REMARK SMILES IDX 37 50
REMARK H PARENT 27 17 29 19 31 21 33 23 35 25 13 39 43 47 37 51
REMARK Flexibility Score: inf
ROOT
ATOM      1  C   UNL     1      10.274  21.406  23.225  1.00  0.00     0.180 C 
ATOM      2  C   UNL     1      10.147  21.402  24.723  1.00  0.00     0.177 C 
ATOM      3  C   UNL     1       9.317  22.686  24.915  1.00  0.00     0.180 C 
ATOM      4  C   UNL     1       7.864  22.569  24.298  1.00  0.00     0.214 C 
ATOM      5  C   UNL     1       7.706  21.250  23.360  1.00  0.00     0.339 C 
ATOM      6  O   UNL     1       9.001  20.743  22.720  1.00  0.00    -0.332 OA
ENDROOT
BRANCH   1   7
ATOM      7  C   UNL     1      11.803  21.493  22.559  1.00  0.00     0.198 C 
BRANCH   7   8
ATOM      8  O   UNL     1      12.812  21.424  23.550  1.00  0.00    -0.347 OA
BRANCH   8   9
ATOM      9  C   UNL     1      13.703  20.341  23.329  1.00  0.00     0.281 C 
ATOM     10  C   UNL     1      12.074  18.202  21.522  1.00  0.00     0.041 C 
ATOM     11  C   UNL     1      13.629  18.509  21.708  1.00  0.00     0.150 C 
ATOM     12  C   UNL     1      14.377  17.477  22.811  1.00  0.00     0.174 C 
ATOM     13  O   UNL     1      13.798  20.008  21.939  1.00  0.00    -0.344 OA
ATOM     14  C   UNL     1      14.410  18.020  24.352  1.00  0.00     0.179 C 
ATOM     15  C   UNL     1      13.305  19.144  24.341  1.00  0.00     0.202 C 
BRANCH  12  16
ATOM     16  O   UNL     1      13.853  16.174  22.791  1.00  0.00    -0.388 OA
ATOM     17  H   UNL     1      13.934  15.658  23.719  1.00  0.00     0.211 HD
ENDBRANCH  12  16
BRANCH  14  18
ATOM     18  O   UNL     1      14.081  17.279  25.507  1.00  0.00    -0.387 OA
ATOM     19  H   UNL     1      13.166  17.576  25.873  1.00  0.00     0.211 HD
ENDBRANCH  14  18
BRANCH  15  20
ATOM     20  O   UNL     1      12.003  18.646  24.707  1.00  0.00    -0.385 OA
ATOM     21  H   UNL     1      12.029  18.190  25.620  1.00  0.00     0.211 HD
ENDBRANCH  15  20
ENDBRANCH   8   9
ENDBRANCH   7   8
ENDBRANCH   1   7
BRANCH   2  22
ATOM     22  O   UNL     1       9.593  20.202  25.218  1.00  0.00    -0.387 OA
ATOM     23  H   UNL     1       9.117  20.408  26.069  1.00  0.00     0.211 HD
ENDBRANCH   2  22
BRANCH   3  24
ATOM     24  O   UNL     1       9.352  23.124  26.308  1.00  0.00    -0.387 OA
ATOM     25  H   UNL     1       8.496  22.700  26.558  1.00  0.00     0.211 HD
ENDBRANCH   3  24
BRANCH   5  26
ATOM     26  O   UNL     1       6.373  21.166  22.673  1.00  0.00    -0.462 OA
BRANCH  26  27
ATOM     27  C   UNL     1       5.033  20.890  23.199  1.00  0.00     0.130 A 
ATOM     28  C   UNL     1       3.885  20.573  22.386  1.00  0.00     0.093 A 
ATOM     29  C   UNL     1       4.706  20.775  24.583  1.00  0.00     0.094 A 
ATOM     30  C   UNL     1       2.562  20.615  22.790  1.00  0.00     0.133 A 
ATOM     31  C   UNL     1       3.507  20.062  24.774  1.00  0.00     0.138 A 
ATOM     32  C   UNL     1       2.339  20.502  24.168  1.00  0.00     0.102 A 
ATOM     33  O   UNL     1       3.486  18.663  25.052  1.00  0.00    -0.484 OA
ATOM     34  C   UNL     1       1.181  19.706  24.651  1.00  0.00     0.174 C 
ATOM     35  C   UNL     1       2.668  17.781  24.162  1.00  0.00     0.211 C 
ATOM     36  O   UNL     1       0.593  20.128  25.674  1.00  0.00    -0.294 OA
ATOM     37  C   UNL     1       1.205  18.288  24.272  1.00  0.00     0.131 C 
BRANCH  30  38
ATOM     38  O   UNL     1       1.566  20.546  21.840  1.00  0.00    -0.507 OA
ATOM     39  H   UNL     1       0.865  21.248  21.681  1.00  0.00     0.293 HD
ENDBRANCH  30  38
BRANCH  35  40
ATOM     40  C   UNL     1       2.687  16.333  24.383  1.00  0.00    -0.003 A 
ATOM     41  C   UNL     1       3.844  15.550  24.020  1.00  0.00     0.057 A 
ATOM     42  C   UNL     1       1.550  15.601  24.866  1.00  0.00     0.011 A 
ATOM     43  C   UNL     1       3.860  14.184  24.361  1.00  0.00     0.158 A 
ATOM     44  C   UNL     1       1.593  14.256  25.106  1.00  0.00     0.051 A 
ATOM     45  C   UNL     1       2.774  13.541  25.003  1.00  0.00     0.160 A 
BRANCH  43  46
ATOM     46  O   UNL     1       5.046  13.485  24.084  1.00  0.00    -0.504 OA
ATOM     47  H   UNL     1       5.064  12.465  24.036  1.00  0.00     0.293 HD
ENDBRANCH  43  46
BRANCH  45  48
ATOM     48  O   UNL     1       2.955  12.228  25.451  1.00  0.00    -0.493 OA
ATOM     49  C   UNL     1       1.836  11.282  25.573  1.00  0.00     0.278 C 
ENDBRANCH  45  48
ENDBRANCH  35  40
ENDBRANCH  26  27
ENDBRANCH   5  26
BRANCH   4  50
ATOM     50  O   UNL     1       7.069  22.399  25.409  1.00  0.00    -0.384 OA
ATOM     51  H   UNL     1       6.740  23.294  25.648  1.00  0.00     0.211 HD
ENDBRANCH   4  50
TORSDOF 15
ENDMDL
MODEL 5
REMARK VINA RESULT:    -7.796      1.702      2.231
REMARK INTER + INTRA:         -13.933
REMARK INTER:                 -12.695
REMARK INTRA:                  -1.237
REMARK UNBOUND:                -1.123
REMARK SMILES COc1ccc([C@H]2CC(=O)c3c(O)cc(O[C@H]4O[C@H](CO[C@@H]5O[C@H](C)[C@H](O)[C@H](O)[C@@H]5O)[C@H](O)[C@H](O)[C@@H]4O)cc3O2)cc1O
REMARK SMILES IDX 19 1 32 2 34 3 36 4 17 5 18 6 20 7 21 8 22 9 25 10 24 11
REMARK SMILES IDX 26 12 23 13 28 14 30 15 27 16 29 18 31 20 33 22 35 24 16 26
REMARK SMILES IDX 15 27 14 28 38 29 12 30 39 31 11 32 40 33 9 34 7 35 10 36
REMARK SMILES IDX 8 37 13 38 6 40 41 41 5 42 42 43 4 44 3 45 43 46 2 48 1 49
REMARK SMILES IDX 37 50
REMARK H PARENT 27 17 29 19 31 21 33 23 35 25 13 39 43 47 37 51
REMARK Flexibility Score: inf
ROOT
ATOM      1  C   UNL     1      -0.674  12.748  25.610  1.00  0.00     0.180 C 
ATOM      2  C   UNL     1      -0.018  11.681  26.441  1.00  0.00     0.177 C 
ATOM      3  C   UNL     1       1.026  11.170  25.429  1.00  0.00     0.180 C 
ATOM      4  C   UNL     1       2.117  12.261  25.080  1.00  0.00     0.214 C 
ATOM      5  C   UNL     1       1.705  13.734  25.635  1.00  0.00     0.339 C 
ATOM      6  O   UNL     1       0.202  13.979  25.787  1.00  0.00    -0.332 OA
ENDROOT
BRANCH   1   7
ATOM      7  C   UNL     1      -2.304  12.601  25.272  1.00  0.00     0.198 C 
BRANCH   7   8
ATOM      8  O   UNL     1      -2.527  12.188  23.936  1.00  0.00    -0.347 OA
BRANCH   8   9
ATOM      9  C   UNL     1      -2.554  10.774  23.812  1.00  0.00     0.281 C 
ATOM     10  C   UNL     1      -4.934  10.110  21.718  1.00  0.00     0.041 C 
ATOM     11  C   UNL     1      -3.607   9.332  22.138  1.00  0.00     0.150 C 
ATOM     12  C   UNL     1      -3.879   8.145  23.305  1.00  0.00     0.174 C 
ATOM     13  O   UNL     1      -2.522  10.362  22.441  1.00  0.00    -0.344 OA
ATOM     14  C   UNL     1      -3.698   8.643  24.852  1.00  0.00     0.179 C 
ATOM     15  C   UNL     1      -3.772  10.211  24.716  1.00  0.00     0.202 C 
BRANCH  12  16
ATOM     16  O   UNL     1      -5.125   7.511  23.166  1.00  0.00    -0.388 OA
ATOM     17  H   UNL     1      -5.672   7.810  22.303  1.00  0.00     0.211 HD
ENDBRANCH  12  16
BRANCH  14  18
ATOM     18  O   UNL     1      -4.582   8.386  25.921  1.00  0.00    -0.387 OA
ATOM     19  H   UNL     1      -5.518   8.154  25.562  1.00  0.00     0.211 HD
ENDBRANCH  14  18
BRANCH  15  20
ATOM     20  O   UNL     1      -5.111  10.719  24.871  1.00  0.00    -0.385 OA
ATOM     21  H   UNL     1      -5.234  11.152  25.788  1.00  0.00     0.211 HD
ENDBRANCH  15  20
ENDBRANCH   8   9
ENDBRANCH   7   8
ENDBRANCH   1   7
BRANCH   2  22
ATOM     22  O   UNL     1       0.469  12.173  27.671  1.00  0.00    -0.387 OA
ATOM     23  H   UNL     1       1.445  12.344  27.571  1.00  0.00     0.211 HD
ENDBRANCH   2  22
BRANCH   3  24
ATOM     24  O   UNL     1       1.568   9.880  25.848  1.00  0.00    -0.387 OA
ATOM     25  H   UNL     1       0.820   9.346  25.487  1.00  0.00     0.211 HD
ENDBRANCH   3  24
BRANCH   5  26
ATOM     26  O   UNL     1       2.667  14.812  25.228  1.00  0.00    -0.462 OA
BRANCH  26  27
ATOM     27  C   UNL     1       2.452  16.225  24.901  1.00  0.00     0.130 A 
ATOM     28  C   UNL     1       2.225  17.265  25.874  1.00  0.00     0.093 A 
ATOM     29  C   UNL     1       2.559  16.785  23.593  1.00  0.00     0.094 A 
ATOM     30  C   UNL     1       1.714  18.525  25.618  1.00  0.00     0.133 A 
ATOM     31  C   UNL     1       2.768  18.177  23.642  1.00  0.00     0.138 A 
ATOM     32  C   UNL     1       1.859  18.989  24.305  1.00  0.00     0.102 A 
ATOM     33  O   UNL     1       4.070  18.757  23.574  1.00  0.00    -0.484 OA
ATOM     34  C   UNL     1       2.187  20.420  24.075  1.00  0.00     0.174 C 
ATOM     35  C   UNL     1       4.483  19.690  24.670  1.00  0.00     0.211 C 
ATOM     36  O   UNL     1       1.667  20.965  23.073  1.00  0.00    -0.294 OA
ATOM     37  C   UNL     1       3.464  20.861  24.651  1.00  0.00     0.131 C 
BRANCH  30  38
ATOM     38  O   UNL     1       1.306  19.312  26.673  1.00  0.00    -0.507 OA
ATOM     39  H   UNL     1       0.438  19.213  27.170  1.00  0.00     0.293 HD
ENDBRANCH  30  38
BRANCH  35  40
ATOM     40  C   UNL     1       5.840  20.242  24.660  1.00  0.00    -0.003 A 
ATOM     41  C   UNL     1       6.121  21.509  25.292  1.00  0.00     0.057 A 
ATOM     42  C   UNL     1       6.928  19.628  23.952  1.00  0.00     0.011 A 
ATOM     43  C   UNL     1       7.460  21.939  25.358  1.00  0.00     0.158 A 
ATOM     44  C   UNL     1       8.198  20.132  23.983  1.00  0.00     0.051 A 
ATOM     45  C   UNL     1       8.531  21.204  24.795  1.00  0.00     0.160 A 
BRANCH  43  46
ATOM     46  O   UNL     1       7.702  23.124  26.073  1.00  0.00    -0.504 OA
ATOM     47  H   UNL     1       8.328  23.141  26.880  1.00  0.00     0.293 HD
ENDBRANCH  43  46
BRANCH  45  48
ATOM     48  O   UNL     1       9.837  21.628  25.062  1.00  0.00    -0.493 OA
ATOM     49  C   UNL     1      10.968  20.690  25.118  1.00  0.00     0.278 C 
ENDBRANCH  45  48
ENDBRANCH  35  40
ENDBRANCH  26  27
ENDBRANCH   5  26
BRANCH   4  50
ATOM     50  O   UNL     1       3.219  11.833  25.786  1.00  0.00    -0.384 OA
ATOM     51  H   UNL     1       2.878  11.498  26.645  1.00  0.00     0.211 HD
ENDBRANCH   4  50
TORSDOF 15
ENDMDL
MODEL 6
REMARK VINA RESULT:    -7.778      4.027     12.846
REMARK INTER + INTRA:         -13.904
REMARK INTER:                 -12.093
REMARK INTRA:                  -1.811
REMARK UNBOUND:                -1.123
REMARK SMILES COc1ccc([C@H]2CC(=O)c3c(O)cc(O[C@H]4O[C@H](CO[C@@H]5O[C@H](C)[C@H](O)[C@H](O)[C@@H]5O)[C@H](O)[C@H](O)[C@@H]4O)cc3O2)cc1O
REMARK SMILES IDX 19 1 32 2 34 3 36 4 17 5 18 6 20 7 21 8 22 9 25 10 24 11
REMARK SMILES IDX 26 12 23 13 28 14 30 15 27 16 29 18 31 20 33 22 35 24 16 26
REMARK SMILES IDX 15 27 14 28 38 29 12 30 39 31 11 32 40 33 9 34 7 35 10 36
REMARK SMILES IDX 8 37 13 38 6 40 41 41 5 42 42 43 4 44 3 45 43 46 2 48 1 49
REMARK SMILES IDX 37 50
REMARK H PARENT 27 17 29 19 31 21 33 23 35 25 13 39 43 47 37 51
REMARK Flexibility Score: inf
ROOT
ATOM      1  C   UNL     1      11.796  19.455  23.585  1.00  0.00     0.180 C 
ATOM      2  C   UNL     1      11.674  19.840  25.034  1.00  0.00     0.177 C 
ATOM      3  C   UNL     1      11.512  21.365  24.883  1.00  0.00     0.180 C 
ATOM      4  C   UNL     1      10.166  21.763  24.153  1.00  0.00     0.214 C 
ATOM      5  C   UNL     1       9.434  20.475  23.481  1.00  0.00     0.339 C 
ATOM      6  O   UNL     1      10.364  19.324  23.091  1.00  0.00    -0.332 OA
ENDROOT
BRANCH   1   7
ATOM      7  C   UNL     1      13.204  18.712  23.078  1.00  0.00     0.198 C 
BRANCH   7   8
ATOM      8  O   UNL     1      13.026  18.038  21.845  1.00  0.00    -0.347 OA
BRANCH   8   9
ATOM      9  C   UNL     1      13.540  18.782  20.751  1.00  0.00     0.281 C 
ATOM     10  C   UNL     1      12.808  21.878  21.360  1.00  0.00     0.041 C 
ATOM     11  C   UNL     1      13.956  21.181  20.499  1.00  0.00     0.150 C 
ATOM     12  C   UNL     1      13.586  21.092  18.856  1.00  0.00     0.174 C 
ATOM     13  O   UNL     1      14.350  19.879  21.190  1.00  0.00    -0.344 OA
ATOM     14  C   UNL     1      12.839  19.715  18.390  1.00  0.00     0.179 C 
ATOM     15  C   UNL     1      12.313  19.134  19.757  1.00  0.00     0.202 C 
BRANCH  12  16
ATOM     16  O   UNL     1      12.850  22.196  18.396  1.00  0.00    -0.388 OA
ATOM     17  H   UNL     1      11.859  21.959  18.083  1.00  0.00     0.211 HD
ENDBRANCH  12  16
BRANCH  14  18
ATOM     18  O   UNL     1      11.701  19.620  17.560  1.00  0.00    -0.387 OA
ATOM     19  H   UNL     1      10.852  19.509  18.130  1.00  0.00     0.211 HD
ENDBRANCH  14  18
BRANCH  15  20
ATOM     20  O   UNL     1      10.976  19.572  20.069  1.00  0.00    -0.385 OA
ATOM     21  H   UNL     1      10.557  20.063  19.278  1.00  0.00     0.211 HD
ENDBRANCH  15  20
ENDBRANCH   8   9
ENDBRANCH   7   8
ENDBRANCH   1   7
BRANCH   2  22
ATOM     22  O   UNL     1      10.637  19.147  25.694  1.00  0.00    -0.387 OA
ATOM     23  H   UNL     1      10.638  19.427  26.650  1.00  0.00     0.211 HD
ENDBRANCH   2  22
BRANCH   3  24
ATOM     24  O   UNL     1      11.734  22.040  26.159  1.00  0.00    -0.387 OA
ATOM     25  H   UNL     1      12.681  22.259  25.981  1.00  0.00     0.211 HD
ENDBRANCH   3  24
BRANCH   5  26
ATOM     26  O   UNL     1       8.209  20.835  22.689  1.00  0.00    -0.462 OA
BRANCH  26  27
ATOM     27  C   UNL     1       6.791  20.857  23.061  1.00  0.00     0.130 A 
ATOM     28  C   UNL     1       5.698  20.775  22.125  1.00  0.00     0.093 A 
ATOM     29  C   UNL     1       6.299  20.839  24.400  1.00  0.00     0.094 A 
ATOM     30  C   UNL     1       4.378  21.102  22.380  1.00  0.00     0.133 A 
ATOM     31  C   UNL     1       4.962  20.398  24.454  1.00  0.00     0.138 A 
ATOM     32  C   UNL     1       3.987  21.063  23.724  1.00  0.00     0.102 A 
ATOM     33  O   UNL     1       4.616  19.040  24.720  1.00  0.00    -0.484 OA
ATOM     34  C   UNL     1       2.641  20.539  24.071  1.00  0.00     0.174 C 
ATOM     35  C   UNL     1       3.732  18.335  23.739  1.00  0.00     0.211 C 
ATOM     36  O   UNL     1       2.048  21.094  25.026  1.00  0.00    -0.294 OA
ATOM     37  C   UNL     1       2.406  19.140  23.690  1.00  0.00     0.131 C 
BRANCH  30  38
ATOM     38  O   UNL     1       3.500  21.227  21.326  1.00  0.00    -0.507 OA
ATOM     39  H   UNL     1       3.745  21.525  20.398  1.00  0.00     0.293 HD
ENDBRANCH  30  38
BRANCH  35  40
ATOM     40  C   UNL     1       3.420  16.919  23.953  1.00  0.00    -0.003 A 
ATOM     41  C   UNL     1       4.468  15.927  23.940  1.00  0.00     0.057 A 
ATOM     42  C   UNL     1       2.078  16.426  24.084  1.00  0.00     0.011 A 
ATOM     43  C   UNL     1       4.133  14.599  24.267  1.00  0.00     0.158 A 
ATOM     44  C   UNL     1       1.802  15.109  24.322  1.00  0.00     0.051 A 
ATOM     45  C   UNL     1       2.811  14.192  24.565  1.00  0.00     0.160 A 
BRANCH  43  46
ATOM     46  O   UNL     1       5.200  13.687  24.344  1.00  0.00    -0.504 OA
ATOM     47  H   UNL     1       5.038  12.691  24.500  1.00  0.00     0.293 HD
ENDBRANCH  43  46
BRANCH  45  48
ATOM     48  O   UNL     1       2.611  12.892  25.043  1.00  0.00    -0.493 OA
ATOM     49  C   UNL     1       1.402  12.509  25.787  1.00  0.00     0.278 C 
ENDBRANCH  45  48
ENDBRANCH  35  40
ENDBRANCH  26  27
ENDBRANCH   5  26
BRANCH   4  50
ATOM     50  O   UNL     1       9.374  22.210  25.187  1.00  0.00    -0.384 OA
ATOM     51  H   UNL     1       9.963  22.737  25.772  1.00  0.00     0.211 HD
ENDBRANCH   4  50
TORSDOF 15
ENDMDL
MODEL 7
REMARK VINA RESULT:    -7.612      2.570      4.192
REMARK INTER + INTRA:         -13.630
REMARK INTER:                 -12.181
REMARK INTRA:                  -1.448
REMARK UNBOUND:                -1.123
REMARK SMILES COc1ccc([C@H]2CC(=O)c3c(O)cc(O[C@H]4O[C@H](CO[C@@H]5O[C@H](C)[C@H](O)[C@H](O)[C@@H]5O)[C@H](O)[C@H](O)[C@@H]4O)cc3O2)cc1O
REMARK SMILES IDX 19 1 32 2 34 3 36 4 17 5 18 6 20 7 21 8 22 9 25 10 24 11
REMARK SMILES IDX 26 12 23 13 28 14 30 15 27 16 29 18 31 20 33 22 35 24 16 26
REMARK SMILES IDX 15 27 14 28 38 29 12 30 39 31 11 32 40 33 9 34 7 35 10 36
REMARK SMILES IDX 8 37 13 38 6 40 41 41 5 42 42 43 4 44 3 45 43 46 2 48 1 49
REMARK SMILES IDX 37 50
REMARK H PARENT 27 17 29 19 31 21 33 23 35 25 13 39 43 47 37 51
REMARK Flexibility Score: inf
ROOT
ATOM      1  C   UNL     1      -0.571  12.070  25.563  1.00  0.00     0.180 C 
ATOM      2  C   UNL     1       0.466  11.560  26.525  1.00  0.00     0.177 C 
ATOM      3  C   UNL     1       1.588  11.206  25.530  1.00  0.00     0.180 C 
ATOM      4  C   UNL     1       2.179  12.481  24.801  1.00  0.00     0.214 C 
ATOM      5  C   UNL     1       1.265  13.803  25.053  1.00  0.00     0.339 C 
ATOM      6  O   UNL     1      -0.214  13.531  25.338  1.00  0.00    -0.332 OA
ENDROOT
BRANCH   1   7
ATOM      7  C   UNL     1      -2.038  11.275  25.483  1.00  0.00     0.198 C 
BRANCH   7   8
ATOM      8  O   UNL     1      -3.068  12.009  26.119  1.00  0.00    -0.347 OA
BRANCH   8   9
ATOM      9  C   UNL     1      -3.455  11.424  27.354  1.00  0.00     0.281 C 
ATOM     10  C   UNL     1      -5.105  13.713  28.945  1.00  0.00     0.041 C 
ATOM     11  C   UNL     1      -5.125  12.119  29.003  1.00  0.00     0.150 C 
ATOM     12  C   UNL     1      -4.179  11.493  30.251  1.00  0.00     0.174 C 
ATOM     13  O   UNL     1      -4.857  11.584  27.599  1.00  0.00    -0.344 OA
ATOM     14  C   UNL     1      -2.637  11.143  29.840  1.00  0.00     0.179 C 
ATOM     15  C   UNL     1      -2.448  11.954  28.503  1.00  0.00     0.202 C 
BRANCH  12  16
ATOM     16  O   UNL     1      -4.180  12.300  31.401  1.00  0.00    -0.388 OA
ATOM     17  H   UNL     1      -3.863  13.303  31.230  1.00  0.00     0.211 HD
ENDBRANCH  12  16
BRANCH  14  18
ATOM     18  O   UNL     1      -1.479  11.485  30.571  1.00  0.00    -0.387 OA
ATOM     19  H   UNL     1      -0.844  12.049  29.990  1.00  0.00     0.211 HD
ENDBRANCH  14  18
BRANCH  15  20
ATOM     20  O   UNL     1      -1.926  13.279  28.725  1.00  0.00    -0.385 OA
ATOM     21  H   UNL     1      -1.080  13.436  28.176  1.00  0.00     0.211 HD
ENDBRANCH  15  20
ENDBRANCH   8   9
ENDBRANCH   7   8
ENDBRANCH   1   7
BRANCH   2  22
ATOM     22  O   UNL     1       0.776  12.495  27.535  1.00  0.00    -0.387 OA
ATOM     23  H   UNL     1       1.543  12.139  28.062  1.00  0.00     0.211 HD
ENDBRANCH   2  22
BRANCH   3  24
ATOM     24  O   UNL     1       2.590  10.348  26.160  1.00  0.00    -0.387 OA
ATOM     25  H   UNL     1       3.301  11.033  26.171  1.00  0.00     0.211 HD
ENDBRANCH   3  24
BRANCH   5  26
ATOM     26  O   UNL     1       1.738  15.005  24.288  1.00  0.00    -0.462 OA
BRANCH  26  27
ATOM     27  C   UNL     1       1.655  16.437  24.592  1.00  0.00     0.130 A 
ATOM     28  C   UNL     1       2.034  17.030  25.850  1.00  0.00     0.093 A 
ATOM     29  C   UNL     1       1.308  17.453  23.651  1.00  0.00     0.094 A 
ATOM     30  C   UNL     1       1.689  18.294  26.294  1.00  0.00     0.133 A 
ATOM     31  C   UNL     1       1.756  18.720  24.069  1.00  0.00     0.138 A 
ATOM     32  C   UNL     1       1.357  19.222  25.299  1.00  0.00     0.102 A 
ATOM     33  O   UNL     1       2.993  19.277  23.627  1.00  0.00    -0.484 OA
ATOM     34  C   UNL     1       1.803  20.632  25.447  1.00  0.00     0.174 C 
ATOM     35  C   UNL     1       3.975  19.723  24.665  1.00  0.00     0.211 C 
ATOM     36  O   UNL     1       1.019  21.519  25.034  1.00  0.00    -0.294 OA
ATOM     37  C   UNL     1       3.259  20.816  25.501  1.00  0.00     0.131 C 
BRANCH  30  38
ATOM     38  O   UNL     1       1.896  18.623  27.616  1.00  0.00    -0.507 OA
ATOM     39  H   UNL     1       1.277  19.178  28.180  1.00  0.00     0.293 HD
ENDBRANCH  30  38
BRANCH  35  40
ATOM     40  C   UNL     1       5.281  20.232  24.236  1.00  0.00    -0.003 A 
ATOM     41  C   UNL     1       6.498  19.587  24.668  1.00  0.00     0.057 A 
ATOM     42  C   UNL     1       5.436  21.433  23.466  1.00  0.00     0.011 A 
ATOM     43  C   UNL     1       7.719  20.041  24.135  1.00  0.00     0.158 A 
ATOM     44  C   UNL     1       6.657  21.876  23.039  1.00  0.00     0.051 A 
ATOM     45  C   UNL     1       7.805  21.127  23.231  1.00  0.00     0.160 A 
BRANCH  43  46
ATOM     46  O   UNL     1       8.868  19.318  24.501  1.00  0.00    -0.504 OA
ATOM     47  H   UNL     1       9.411  19.568  25.329  1.00  0.00     0.293 HD
ENDBRANCH  43  46
BRANCH  45  48
ATOM     48  O   UNL     1       9.041  21.390  22.630  1.00  0.00    -0.493 OA
ATOM     49  C   UNL     1       9.445  22.746  22.232  1.00  0.00     0.278 C 
ENDBRANCH  45  48
ENDBRANCH  35  40
ENDBRANCH  26  27
ENDBRANCH   5  26
BRANCH   4  50
ATOM     50  O   UNL     1       3.385  12.670  25.437  1.00  0.00    -0.384 OA
ATOM     51  H   UNL     1       4.058  12.753  24.726  1.00  0.00     0.211 HD
ENDBRANCH   4  50
TORSDOF 15
ENDMDL
MODEL 8
REMARK VINA RESULT:    -7.611      1.475      1.943
REMARK INTER + INTRA:         -13.629
REMARK INTER:                 -12.347
REMARK INTRA:                  -1.281
REMARK UNBOUND:                -1.123
REMARK SMILES COc1ccc([C@H]2CC(=O)c3c(O)cc(O[C@H]4O[C@H](CO[C@@H]5O[C@H](C)[C@H](O)[C@H](O)[C@@H]5O)[C@H](O)[C@H](O)[C@@H]4O)cc3O2)cc1O
REMARK SMILES IDX 19 1 32 2 34 3 36 4 17 5 18 6 20 7 21 8 22 9 25 10 24 11
REMARK SMILES IDX 26 12 23 13 28 14 30 15 27 16 29 18 31 20 33 22 35 24 16 26
REMARK SMILES IDX 15 27 14 28 38 29 12 30 39 31 11 32 40 33 9 34 7 35 10 36
REMARK SMILES IDX 8 37 13 38 6 40 41 41 5 42 42 43 4 44 3 45 43 46 2 48 1 49
REMARK SMILES IDX 37 50
REMARK H PARENT 27 17 29 19 31 21 33 23 35 25 13 39 43 47 37 51
REMARK Flexibility Score: inf
ROOT
ATOM      1  C   UNL     1      -0.188  11.134  25.524  1.00  0.00     0.180 C 
ATOM      2  C   UNL     1      -1.351  11.765  26.238  1.00  0.00     0.177 C 
ATOM      3  C   UNL     1      -0.643  12.228  27.526  1.00  0.00     0.180 C 
ATOM      4  C   UNL     1       0.436  13.353  27.255  1.00  0.00     0.214 C 
ATOM      5  C   UNL     1       0.745  13.531  25.668  1.00  0.00     0.339 C 
ATOM      6  O   UNL     1       0.508  12.284  24.812  1.00  0.00    -0.332 OA
ENDROOT
BRANCH   1   7
ATOM      7  C   UNL     1      -0.270   9.507  25.157  1.00  0.00     0.198 C 
BRANCH   7   8
ATOM      8  O   UNL     1      -1.599   9.096  24.889  1.00  0.00    -0.347 OA
BRANCH   8   9
ATOM      9  C   UNL     1      -2.056   9.561  23.627  1.00  0.00     0.281 C 
ATOM     10  C   UNL     1      -4.880   8.065  23.099  1.00  0.00     0.041 C 
ATOM     11  C   UNL     1      -4.266   9.442  22.581  1.00  0.00     0.150 C 
ATOM     12  C   UNL     1      -3.557   9.316  21.056  1.00  0.00     0.174 C 
ATOM     13  O   UNL     1      -3.406  10.034  23.694  1.00  0.00    -0.344 OA
ATOM     14  C   UNL     1      -1.959   8.971  21.063  1.00  0.00     0.179 C 
ATOM     15  C   UNL     1      -1.736   8.423  22.523  1.00  0.00     0.202 C 
BRANCH  12  16
ATOM     16  O   UNL     1      -4.222   8.410  20.213  1.00  0.00    -0.388 OA
ATOM     17  H   UNL     1      -4.911   7.773  20.716  1.00  0.00     0.211 HD
ENDBRANCH  12  16
BRANCH  14  18
ATOM     18  O   UNL     1      -1.310   8.001  20.269  1.00  0.00    -0.387 OA
ATOM     19  H   UNL     1      -1.835   7.844  19.398  1.00  0.00     0.211 HD
ENDBRANCH  14  18
BRANCH  15  20
ATOM     20  O   UNL     1      -1.888   6.992  22.609  1.00  0.00    -0.385 OA
ATOM     21  H   UNL     1      -1.145   6.578  23.174  1.00  0.00     0.211 HD
ENDBRANCH  15  20
ENDBRANCH   8   9
ENDBRANCH   7   8
ENDBRANCH   1   7
BRANCH   2  22
ATOM     22  O   UNL     1      -1.989  12.758  25.464  1.00  0.00    -0.387 OA
ATOM     23  H   UNL     1      -2.945  12.801  25.742  1.00  0.00     0.211 HD
ENDBRANCH   2  22
BRANCH   3  24
ATOM     24  O   UNL     1      -1.617  12.557  28.564  1.00  0.00    -0.387 OA
ATOM     25  H   UNL     1      -1.729  11.628  28.880  1.00  0.00     0.211 HD
ENDBRANCH   3  24
BRANCH   5  26
ATOM     26  O   UNL     1       1.842  14.516  25.383  1.00  0.00    -0.462 OA
BRANCH  26  27
ATOM     27  C   UNL     1       1.799  15.951  25.085  1.00  0.00     0.130 A 
ATOM     28  C   UNL     1       1.963  16.995  26.065  1.00  0.00     0.093 A 
ATOM     29  C   UNL     1       1.712  16.509  23.775  1.00  0.00     0.094 A 
ATOM     30  C   UNL     1       1.625  18.327  25.903  1.00  0.00     0.133 A 
ATOM     31  C   UNL     1       2.155  17.846  23.753  1.00  0.00     0.138 A 
ATOM     32  C   UNL     1       1.557  18.785  24.581  1.00  0.00     0.102 A 
ATOM     33  O   UNL     1       3.489  18.203  23.394  1.00  0.00    -0.484 OA
ATOM     34  C   UNL     1       2.060  20.145  24.260  1.00  0.00     0.174 C 
ATOM     35  C   UNL     1       4.277  19.035  24.358  1.00  0.00     0.211 C 
ATOM     36  O   UNL     1       1.434  20.787  23.384  1.00  0.00    -0.294 OA
ATOM     37  C   UNL     1       3.487  20.358  24.538  1.00  0.00     0.131 C 
BRANCH  30  38
ATOM     38  O   UNL     1       1.591  19.152  27.006  1.00  0.00    -0.507 OA
ATOM     39  H   UNL     1       0.771  19.611  27.363  1.00  0.00     0.293 HD
ENDBRANCH  30  38
BRANCH  35  40
ATOM     40  C   UNL     1       5.673  19.354  24.045  1.00  0.00    -0.003 A 
ATOM     41  C   UNL     1       5.993  20.422  23.127  1.00  0.00     0.057 A 
ATOM     42  C   UNL     1       6.779  18.582  24.535  1.00  0.00     0.011 A 
ATOM     43  C   UNL     1       7.347  20.766  22.951  1.00  0.00     0.158 A 
ATOM     44  C   UNL     1       8.078  18.914  24.268  1.00  0.00     0.051 A 
ATOM     45  C   UNL     1       8.403  20.082  23.600  1.00  0.00     0.160 A 
BRANCH  43  46
ATOM     46  O   UNL     1       7.607  21.877  22.131  1.00  0.00    -0.504 OA
ATOM     47  H   UNL     1       7.420  22.829  22.450  1.00  0.00     0.293 HD
ENDBRANCH  43  46
BRANCH  45  48
ATOM     48  O   UNL     1       9.695  20.609  23.493  1.00  0.00    -0.493 OA
ATOM     49  C   UNL     1      10.451  21.073  24.666  1.00  0.00     0.278 C 
ENDBRANCH  45  48
ENDBRANCH  35  40
ENDBRANCH  26  27
ENDBRANCH   5  26
BRANCH   4  50
ATOM     50  O   UNL     1      -0.191  14.496  27.697  1.00  0.00    -0.384 OA
ATOM     51  H   UNL     1      -1.121  14.239  27.888  1.00  0.00     0.211 HD
ENDBRANCH   4  50
TORSDOF 15
ENDMDL
MODEL 9
REMARK VINA RESULT:    -7.600      1.966     11.759
REMARK INTER + INTRA:         -13.611
REMARK INTER:                 -12.504
REMARK INTRA:                  -1.106
REMARK UNBOUND:                -1.123
REMARK SMILES COc1ccc([C@H]2CC(=O)c3c(O)cc(O[C@H]4O[C@H](CO[C@@H]5O[C@H](C)[C@H](O)[C@H](O)[C@@H]5O)[C@H](O)[C@H](O)[C@@H]4O)cc3O2)cc1O
REMARK SMILES IDX 19 1 32 2 34 3 36 4 17 5 18 6 20 7 21 8 22 9 25 10 24 11
REMARK SMILES IDX 26 12 23 13 28 14 30 15 27 16 29 18 31 20 33 22 35 24 16 26
REMARK SMILES IDX 15 27 14 28 38 29 12 30 39 31 11 32 40 33 9 34 7 35 10 36
REMARK SMILES IDX 8 37 13 38 6 40 41 41 5 42 42 43 4 44 3 45 43 46 2 48 1 49
REMARK SMILES IDX 37 50
REMARK H PARENT 27 17 29 19 31 21 33 23 35 25 13 39 43 47 37 51
REMARK Flexibility Score: inf
ROOT
ATOM      1  C   UNL     1       2.477  17.299  24.329  1.00  0.00     0.180 C 
ATOM      2  C   UNL     1       2.707  16.211  23.317  1.00  0.00     0.177 C 
ATOM      3  C   UNL     1       3.664  15.310  24.121  1.00  0.00     0.180 C 
ATOM      4  C   UNL     1       2.970  14.664  25.388  1.00  0.00     0.214 C 
ATOM      5  C   UNL     1       1.522  15.338  25.698  1.00  0.00     0.339 C 
ATOM      6  O   UNL     1       1.355  16.781  25.216  1.00  0.00    -0.332 OA
ENDROOT
BRANCH   1   7
ATOM      7  C   UNL     1       2.932  18.857  23.936  1.00  0.00     0.198 C 
BRANCH   7   8
ATOM      8  O   UNL     1       3.352  19.585  25.076  1.00  0.00    -0.347 OA
BRANCH   8   9
ATOM      9  C   UNL     1       4.334  20.559  24.756  1.00  0.00     0.281 C 
ATOM     10  C   UNL     1       5.043  20.112  21.627  1.00  0.00     0.041 C 
ATOM     11  C   UNL     1       5.132  21.379  22.592  1.00  0.00     0.150 C 
ATOM     12  C   UNL     1       6.675  21.615  23.229  1.00  0.00     0.174 C 
ATOM     13  O   UNL     1       3.977  21.306  23.587  1.00  0.00    -0.344 OA
ATOM     14  C   UNL     1       6.944  20.895  24.672  1.00  0.00     0.179 C 
ATOM     15  C   UNL     1       5.780  19.835  24.746  1.00  0.00     0.202 C 
BRANCH  12  16
ATOM     16  O   UNL     1       7.700  21.260  22.337  1.00  0.00    -0.388 OA
ATOM     17  H   UNL     1       7.499  20.381  21.770  1.00  0.00     0.211 HD
ENDBRANCH  12  16
BRANCH  14  18
ATOM     18  O   UNL     1       8.076  20.130  25.027  1.00  0.00    -0.387 OA
ATOM     19  H   UNL     1       8.867  20.357  24.408  1.00  0.00     0.211 HD
ENDBRANCH  14  18
BRANCH  15  20
ATOM     20  O   UNL     1       6.161  18.553  24.208  1.00  0.00    -0.385 OA
ATOM     21  H   UNL     1       6.502  17.934  24.945  1.00  0.00     0.211 HD
ENDBRANCH  15  20
ENDBRANCH   8   9
ENDBRANCH   7   8
ENDBRANCH   1   7
BRANCH   2  22
ATOM     22  O   UNL     1       1.505  15.626  22.865  1.00  0.00    -0.387 OA
ATOM     23  H   UNL     1       0.945  16.344  22.461  1.00  0.00     0.211 HD
ENDBRANCH   2  22
BRANCH   3  24
ATOM     24  O   UNL     1       4.338  14.354  23.245  1.00  0.00    -0.387 OA
ATOM     25  H   UNL     1       5.228  14.463  23.660  1.00  0.00     0.211 HD
ENDBRANCH   3  24
BRANCH   5  26
ATOM     26  O   UNL     1       0.884  14.822  26.956  1.00  0.00    -0.462 OA
BRANCH  26  27
ATOM     27  C   UNL     1       0.015  13.666  27.194  1.00  0.00     0.130 A 
ATOM     28  C   UNL     1      -1.421  13.730  27.306  1.00  0.00     0.093 A 
ATOM     29  C   UNL     1       0.454  12.308  27.223  1.00  0.00     0.094 A 
ATOM     30  C   UNL     1      -2.244  12.750  27.832  1.00  0.00     0.133 A 
ATOM     31  C   UNL     1      -0.612  11.415  26.999  1.00  0.00     0.138 A 
ATOM     32  C   UNL     1      -1.726  11.449  27.825  1.00  0.00     0.102 A 
ATOM     33  O   UNL     1      -0.906  10.886  25.707  1.00  0.00    -0.484 OA
ATOM     34  C   UNL     1      -2.630  10.312  27.513  1.00  0.00     0.174 C 
ATOM     35  C   UNL     1      -2.293  11.063  25.172  1.00  0.00     0.211 C 
ATOM     36  O   UNL     1      -2.428   9.242  28.133  1.00  0.00    -0.294 OA
ATOM     37  C   UNL     1      -3.241  10.358  26.178  1.00  0.00     0.131 C 
BRANCH  30  38
ATOM     38  O   UNL     1      -3.556  13.055  28.118  1.00  0.00    -0.507 OA
ATOM     39  H   UNL     1      -3.933  13.984  28.196  1.00  0.00     0.293 HD
ENDBRANCH  30  38
BRANCH  35  40
ATOM     40  C   UNL     1      -2.599  10.591  23.819  1.00  0.00    -0.003 A 
ATOM     41  C   UNL     1      -1.931   9.431  23.279  1.00  0.00     0.057 A 
ATOM     42  C   UNL     1      -3.480  11.291  22.928  1.00  0.00     0.011 A 
ATOM     43  C   UNL     1      -2.345   8.948  22.023  1.00  0.00     0.158 A 
ATOM     44  C   UNL     1      -3.788  10.819  21.683  1.00  0.00     0.051 A 
ATOM     45  C   UNL     1      -3.353   9.577  21.253  1.00  0.00     0.160 A 
BRANCH  43  46
ATOM     46  O   UNL     1      -1.743   7.757  21.581  1.00  0.00    -0.504 OA
ATOM     47  H   UNL     1      -0.825   7.468  21.922  1.00  0.00     0.293 HD
ENDBRANCH  43  46
BRANCH  45  48
ATOM     48  O   UNL     1      -3.809   8.925  20.102  1.00  0.00    -0.493 OA
ATOM     49  C   UNL     1      -5.125   8.271  20.043  1.00  0.00     0.278 C 
ENDBRANCH  45  48
ENDBRANCH  35  40
ENDBRANCH  26  27
ENDBRANCH   5  26
BRANCH   4  50
ATOM     50  O   UNL     1       2.758  13.362  24.995  1.00  0.00    -0.384 OA
ATOM     51  H   UNL     1       3.164  13.278  24.103  1.00  0.00     0.211 HD
ENDBRANCH   4  50
TORSDOF 15
ENDMDL
