MODEL 1
REMARK VINA RESULT:    -3.410      0.000      0.000
REMARK INTER + INTRA:          -4.565
REMARK INTER:                  -4.208
REMARK INTRA:                  -0.357
REMARK UNBOUND:                -0.357
REMARK SMILES O=c1c(O)c(-c2cc(O)c(O)c(O)c2)oc2cc(O)cc(O)c12
REMARK SMILES IDX 5 1 3 2 2 3 1 4 23 5 21 6 20 7 18 8 17 9 16 10 15 11 6 12
REMARK SMILES IDX 7 13 8 14 14 15 10 16 12 17 9 18 11 20 13 22 4 24 22 26
REMARK SMILES IDX 19 28
REMARK H PARENT 9 19 11 21 13 23 4 25 22 27 19 29
REMARK Flexibility Score: inf
ROOT
ATOM      1  C   UNL     1    -126.866  39.785  15.962  1.00  0.00     0.180 A 
ATOM      2  C   UNL     1    -126.863  38.599  16.721  1.00  0.00     0.208 A 
ATOM      3  C   UNL     1    -127.984  38.296  17.512  1.00  0.00     0.238 A 
ATOM      4  O   UNL     1    -127.997  37.231  18.188  1.00  0.00    -0.285 OA
ATOM      5  C   UNL     1    -129.073  39.191  17.547  1.00  0.00     0.111 A 
ATOM      6  C   UNL     1    -130.238  38.962  18.319  1.00  0.00     0.134 A 
ATOM      7  C   UNL     1    -131.276  39.904  18.309  1.00  0.00     0.093 A 
ATOM      8  C   UNL     1    -131.174  41.067  17.542  1.00  0.00     0.123 A 
ATOM      9  C   UNL     1    -130.028  41.298  16.776  1.00  0.00     0.094 A 
ATOM     10  C   UNL     1    -128.982  40.370  16.772  1.00  0.00     0.146 A 
ATOM     11  O   UNL     1    -127.906  40.612  16.032  1.00  0.00    -0.452 OA
ENDROOT
BRANCH   1  12
ATOM     12  C   UNL     1    -125.731  40.164  15.091  1.00  0.00     0.029 A 
ATOM     13  C   UNL     1    -124.664  40.901  15.627  1.00  0.00     0.062 A 
ATOM     14  C   UNL     1    -123.588  41.290  14.819  1.00  0.00     0.162 A 
ATOM     15  C   UNL     1    -125.726  39.851  13.720  1.00  0.00     0.062 A 
ATOM     16  C   UNL     1    -123.580  40.956  13.455  1.00  0.00     0.200 A 
ATOM     17  C   UNL     1    -124.652  40.240  12.907  1.00  0.00     0.162 A 
BRANCH  14  18
ATOM     18  O   UNL     1    -122.527  42.010  15.367  1.00  0.00    -0.504 OA
ATOM     19  H   UNL     1    -121.705  42.243  14.822  1.00  0.00     0.293 HD
ENDBRANCH  14  18
BRANCH  16  20
ATOM     20  O   UNL     1    -122.519  41.330  12.630  1.00  0.00    -0.502 OA
ATOM     21  H   UNL     1    -121.856  40.657  12.266  1.00  0.00     0.293 HD
ENDBRANCH  16  20
BRANCH  17  22
ATOM     22  O   UNL     1    -124.647  39.922  11.550  1.00  0.00    -0.504 OA
ATOM     23  H   UNL     1    -125.368  40.260  10.923  1.00  0.00     0.293 HD
ENDBRANCH  17  22
ENDBRANCH   1  12
BRANCH   2  24
ATOM     24  O   UNL     1    -125.750  37.755  16.707  1.00  0.00    -0.502 OA
ATOM     25  H   UNL     1    -125.827  36.758  16.539  1.00  0.00     0.293 HD
ENDBRANCH   2  24
BRANCH   6  26
ATOM     26  O   UNL     1    -130.370  37.810  19.097  1.00  0.00    -0.507 OA
ATOM     27  H   UNL     1    -131.275  37.404  19.298  1.00  0.00     0.293 HD
ENDBRANCH   6  26
BRANCH   8  28
ATOM     28  O   UNL     1    -132.220  41.989  17.549  1.00  0.00    -0.508 OA
ATOM     29  H   UNL     1    -133.012  41.885  18.172  1.00  0.00     0.293 HD
ENDBRANCH   8  28
TORSDOF 7
ENDMDL
MODEL 2
REMARK VINA RESULT:    -3.400      0.119      1.752
REMARK INTER + INTRA:          -4.552
REMARK INTER:                  -4.196
REMARK INTRA:                  -0.356
REMARK UNBOUND:                -0.357
REMARK SMILES O=c1c(O)c(-c2cc(O)c(O)c(O)c2)oc2cc(O)cc(O)c12
REMARK SMILES IDX 5 1 3 2 2 3 1 4 23 5 21 6 20 7 18 8 17 9 16 10 15 11 6 12
REMARK SMILES IDX 7 13 8 14 14 15 10 16 12 17 9 18 11 20 13 22 4 24 22 26
REMARK SMILES IDX 19 28
REMARK H PARENT 9 19 11 21 13 23 4 25 22 27 19 29
REMARK Flexibility Score: inf
ROOT
ATOM      1  C   UNL     1    -126.874  39.776  16.039  1.00  0.00     0.180 A 
ATOM      2  C   UNL     1    -126.863  38.598  16.811  1.00  0.00     0.208 A 
ATOM      3  C   UNL     1    -127.985  38.294  17.600  1.00  0.00     0.238 A 
ATOM      4  O   UNL     1    -127.991  37.237  18.288  1.00  0.00    -0.285 OA
ATOM      5  C   UNL     1    -129.082  39.179  17.621  1.00  0.00     0.111 A 
ATOM      6  C   UNL     1    -130.247  38.949  18.392  1.00  0.00     0.134 A 
ATOM      7  C   UNL     1    -131.294  39.881  18.366  1.00  0.00     0.093 A 
ATOM      8  C   UNL     1    -131.199  41.037  17.587  1.00  0.00     0.123 A 
ATOM      9  C   UNL     1    -130.052  41.269  16.823  1.00  0.00     0.094 A 
ATOM     10  C   UNL     1    -128.998  40.350  16.833  1.00  0.00     0.146 A 
ATOM     11  O   UNL     1    -127.921  40.594  16.095  1.00  0.00    -0.452 OA
ENDROOT
BRANCH   1  12
ATOM     12  C   UNL     1    -125.739  40.155  15.168  1.00  0.00     0.029 A 
ATOM     13  C   UNL     1    -125.721  39.730  13.831  1.00  0.00     0.062 A 
ATOM     14  C   UNL     1    -124.648  40.058  12.991  1.00  0.00     0.162 A 
ATOM     15  C   UNL     1    -124.646  40.885  15.668  1.00  0.00     0.062 A 
ATOM     16  C   UNL     1    -123.570  40.805  13.493  1.00  0.00     0.200 A 
ATOM     17  C   UNL     1    -123.569  41.213  14.833  1.00  0.00     0.162 A 
BRANCH  14  18
ATOM     18  O   UNL     1    -124.649  39.641  11.661  1.00  0.00    -0.504 OA
ATOM     19  H   UNL     1    -123.842  39.195  11.243  1.00  0.00     0.293 HD
ENDBRANCH  14  18
BRANCH  16  20
ATOM     20  O   UNL     1    -122.491  41.145  12.677  1.00  0.00    -0.502 OA
ATOM     21  H   UNL     1    -121.956  41.993  12.816  1.00  0.00     0.293 HD
ENDBRANCH  16  20
BRANCH  17  22
ATOM     22  O   UNL     1    -122.490  41.942  15.330  1.00  0.00    -0.504 OA
ATOM     23  H   UNL     1    -122.563  42.480  16.186  1.00  0.00     0.293 HD
ENDBRANCH  17  22
ENDBRANCH   1  12
BRANCH   2  24
ATOM     24  O   UNL     1    -125.742  37.764  16.811  1.00  0.00    -0.502 OA
ATOM     25  H   UNL     1    -125.632  37.003  17.472  1.00  0.00     0.293 HD
ENDBRANCH   2  24
BRANCH   6  26
ATOM     26  O   UNL     1    -130.372  37.804  19.181  1.00  0.00    -0.507 OA
ATOM     27  H   UNL     1    -129.563  37.283  19.496  1.00  0.00     0.293 HD
ENDBRANCH   6  26
BRANCH   8  28
ATOM     28  O   UNL     1    -132.254  41.948  17.579  1.00  0.00    -0.508 OA
ATOM     29  H   UNL     1    -132.284  42.717  16.920  1.00  0.00     0.293 HD
ENDBRANCH   8  28
TORSDOF 7
ENDMDL
MODEL 3
REMARK VINA RESULT:    -3.363      1.634      3.276
REMARK INTER + INTRA:          -4.506
REMARK INTER:                  -4.140
REMARK INTRA:                  -0.366
REMARK UNBOUND:                -0.357
REMARK SMILES O=c1c(O)c(-c2cc(O)c(O)c(O)c2)oc2cc(O)cc(O)c12
REMARK SMILES IDX 5 1 3 2 2 3 1 4 23 5 21 6 20 7 18 8 17 9 16 10 15 11 6 12
REMARK SMILES IDX 7 13 8 14 14 15 10 16 12 17 9 18 11 20 13 22 4 24 22 26
REMARK SMILES IDX 19 28
REMARK H PARENT 9 19 11 21 13 23 4 25 22 27 19 29
REMARK Flexibility Score: inf
ROOT
ATOM      1  C   UNL     1    -127.190  40.205  15.555  1.00  0.00     0.180 A 
ATOM      2  C   UNL     1    -128.079  40.928  14.736  1.00  0.00     0.208 A 
ATOM      3  C   UNL     1    -129.404  41.108  15.166  1.00  0.00     0.238 A 
ATOM      4  O   UNL     1    -130.206  41.762  14.446  1.00  0.00    -0.285 OA
ATOM      5  C   UNL     1    -129.821  40.545  16.389  1.00  0.00     0.111 A 
ATOM      6  C   UNL     1    -131.139  40.676  16.892  1.00  0.00     0.134 A 
ATOM      7  C   UNL     1    -131.480  40.080  18.115  1.00  0.00     0.093 A 
ATOM      8  C   UNL     1    -130.532  39.357  18.843  1.00  0.00     0.123 A 
ATOM      9  C   UNL     1    -129.230  39.225  18.352  1.00  0.00     0.094 A 
ATOM     10  C   UNL     1    -128.869  39.813  17.136  1.00  0.00     0.146 A 
ATOM     11  O   UNL     1    -127.624  39.676  16.696  1.00  0.00    -0.452 OA
ENDROOT
BRANCH   1  12
ATOM     12  C   UNL     1    -125.774  39.989  15.180  1.00  0.00     0.029 A 
ATOM     13  C   UNL     1    -125.409  38.812  14.509  1.00  0.00     0.062 A 
ATOM     14  C   UNL     1    -124.072  38.574  14.162  1.00  0.00     0.162 A 
ATOM     15  C   UNL     1    -124.776  40.913  15.534  1.00  0.00     0.062 A 
ATOM     16  C   UNL     1    -123.083  39.512  14.501  1.00  0.00     0.200 A 
ATOM     17  C   UNL     1    -123.437  40.679  15.191  1.00  0.00     0.162 A 
BRANCH  14  18
ATOM     18  O   UNL     1    -123.724  37.407  13.483  1.00  0.00    -0.504 OA
ATOM     19  H   UNL     1    -123.646  36.517  13.961  1.00  0.00     0.293 HD
ENDBRANCH  14  18
BRANCH  16  20
ATOM     20  O   UNL     1    -121.746  39.299  14.165  1.00  0.00    -0.502 OA
ATOM     21  H   UNL     1    -121.471  38.912  13.270  1.00  0.00     0.293 HD
ENDBRANCH  16  20
BRANCH  17  22
ATOM     22  O   UNL     1    -122.450  41.600  15.538  1.00  0.00    -0.504 OA
ATOM     23  H   UNL     1    -121.480  41.327  15.635  1.00  0.00     0.293 HD
ENDBRANCH  17  22
ENDBRANCH   1  12
BRANCH   2  24
ATOM     24  O   UNL     1    -127.653  41.432  13.505  1.00  0.00    -0.502 OA
ATOM     25  H   UNL     1    -128.264  41.963  12.895  1.00  0.00     0.293 HD
ENDBRANCH   2  24
BRANCH   6  26
ATOM     26  O   UNL     1    -132.109  41.392  16.188  1.00  0.00    -0.507 OA
ATOM     27  H   UNL     1    -132.963  40.954  15.864  1.00  0.00     0.293 HD
ENDBRANCH   6  26
BRANCH   8  28
ATOM     28  O   UNL     1    -130.897  38.773  20.055  1.00  0.00    -0.508 OA
ATOM     29  H   UNL     1    -131.652  39.149  20.617  1.00  0.00     0.293 HD
ENDBRANCH   8  28
TORSDOF 7
ENDMDL
MODEL 4
REMARK VINA RESULT:    -3.340      2.238      3.656
REMARK INTER + INTRA:          -4.479
REMARK INTER:                  -4.125
REMARK INTRA:                  -0.354
REMARK UNBOUND:                -0.357
REMARK SMILES O=c1c(O)c(-c2cc(O)c(O)c(O)c2)oc2cc(O)cc(O)c12
REMARK SMILES IDX 5 1 3 2 2 3 1 4 23 5 21 6 20 7 18 8 17 9 16 10 15 11 6 12
REMARK SMILES IDX 7 13 8 14 14 15 10 16 12 17 9 18 11 20 13 22 4 24 22 26
REMARK SMILES IDX 19 28
REMARK H PARENT 9 19 11 21 13 23 4 25 22 27 19 29
REMARK Flexibility Score: inf
ROOT
ATOM      1  C   UNL     1    -128.279  39.019  16.736  1.00  0.00     0.180 A 
ATOM      2  C   UNL     1    -129.071  39.678  17.697  1.00  0.00     0.208 A 
ATOM      3  C   UNL     1    -129.930  38.917  18.506  1.00  0.00     0.238 A 
ATOM      4  O   UNL     1    -130.636  39.494  19.376  1.00  0.00    -0.285 OA
ATOM      5  C   UNL     1    -129.998  37.520  18.327  1.00  0.00     0.111 A 
ATOM      6  C   UNL     1    -130.839  36.681  19.098  1.00  0.00     0.134 A 
ATOM      7  C   UNL     1    -130.858  35.300  18.854  1.00  0.00     0.093 A 
ATOM      8  C   UNL     1    -130.053  34.742  17.858  1.00  0.00     0.123 A 
ATOM      9  C   UNL     1    -129.219  35.565  17.095  1.00  0.00     0.094 A 
ATOM     10  C   UNL     1    -129.185  36.944  17.323  1.00  0.00     0.146 A 
ATOM     11  O   UNL     1    -128.381  37.702  16.586  1.00  0.00    -0.452 OA
ENDROOT
BRANCH   1  12
ATOM     12  C   UNL     1    -127.336  39.750  15.860  1.00  0.00     0.029 A 
ATOM     13  C   UNL     1    -126.003  39.915  16.264  1.00  0.00     0.062 A 
ATOM     14  C   UNL     1    -125.095  40.621  15.462  1.00  0.00     0.162 A 
ATOM     15  C   UNL     1    -127.763  40.334  14.654  1.00  0.00     0.062 A 
ATOM     16  C   UNL     1    -125.525  41.184  14.249  1.00  0.00     0.200 A 
ATOM     17  C   UNL     1    -126.860  41.043  13.849  1.00  0.00     0.162 A 
BRANCH  14  18
ATOM     18  O   UNL     1    -123.770  40.767  15.869  1.00  0.00    -0.504 OA
ATOM     19  H   UNL     1    -123.531  41.137  16.781  1.00  0.00     0.293 HD
ENDBRANCH  14  18
BRANCH  16  20
ATOM     20  O   UNL     1    -124.640  41.889  13.433  1.00  0.00    -0.502 OA
ATOM     21  H   UNL     1    -123.737  41.516  13.169  1.00  0.00     0.293 HD
ENDBRANCH  16  20
BRANCH  17  22
ATOM     22  O   UNL     1    -127.285  41.614  12.651  1.00  0.00    -0.504 OA
ATOM     23  H   UNL     1    -126.634  41.822  11.902  1.00  0.00     0.293 HD
ENDBRANCH  17  22
ENDBRANCH   1  12
BRANCH   2  24
ATOM     24  O   UNL     1    -129.021  41.069  17.819  1.00  0.00    -0.502 OA
ATOM     25  H   UNL     1    -129.510  41.688  17.182  1.00  0.00     0.293 HD
ENDBRANCH   2  24
BRANCH   6  26
ATOM     26  O   UNL     1    -131.656  37.208  20.100  1.00  0.00    -0.507 OA
ATOM     27  H   UNL     1    -131.819  38.204  20.186  1.00  0.00     0.293 HD
ENDBRANCH   6  26
BRANCH   8  28
ATOM     28  O   UNL     1    -130.090  33.367  17.635  1.00  0.00    -0.508 OA
ATOM     29  H   UNL     1    -129.495  32.927  16.943  1.00  0.00     0.293 HD
ENDBRANCH   8  28
TORSDOF 7
ENDMDL
MODEL 5
REMARK VINA RESULT:    -3.335      8.990     14.056
REMARK INTER + INTRA:          -4.471
REMARK INTER:                  -4.143
REMARK INTRA:                  -0.329
REMARK UNBOUND:                -0.357
REMARK SMILES O=c1c(O)c(-c2cc(O)c(O)c(O)c2)oc2cc(O)cc(O)c12
REMARK SMILES IDX 5 1 3 2 2 3 1 4 23 5 21 6 20 7 18 8 17 9 16 10 15 11 6 12
REMARK SMILES IDX 7 13 8 14 14 15 10 16 12 17 9 18 11 20 13 22 4 24 22 26
REMARK SMILES IDX 19 28
REMARK H PARENT 9 19 11 21 13 23 4 25 22 27 19 29
REMARK Flexibility Score: inf
ROOT
ATOM      1  C   UNL     1    -123.824  39.795   4.423  1.00  0.00     0.180 A 
ATOM      2  C   UNL     1    -123.795  38.567   3.733  1.00  0.00     0.208 A 
ATOM      3  C   UNL     1    -122.683  38.266   2.931  1.00  0.00     0.238 A 
ATOM      4  O   UNL     1    -122.641  37.165   2.317  1.00  0.00    -0.285 OA
ATOM      5  C   UNL     1    -121.635  39.202   2.814  1.00  0.00     0.111 A 
ATOM      6  C   UNL     1    -120.481  38.978   2.024  1.00  0.00     0.134 A 
ATOM      7  C   UNL     1    -119.485  39.962   1.952  1.00  0.00     0.093 A 
ATOM      8  C   UNL     1    -119.618  41.162   2.653  1.00  0.00     0.123 A 
ATOM      9  C   UNL     1    -120.754  41.389   3.436  1.00  0.00     0.094 A 
ATOM     10  C   UNL     1    -121.758  40.420   3.522  1.00  0.00     0.146 A 
ATOM     11  O   UNL     1    -122.824  40.659   4.277  1.00  0.00    -0.452 OA
ENDROOT
BRANCH   1  12
ATOM     12  C   UNL     1    -124.953  40.176   5.302  1.00  0.00     0.029 A 
ATOM     13  C   UNL     1    -126.124  40.701   4.735  1.00  0.00     0.062 A 
ATOM     14  C   UNL     1    -127.198  41.089   5.547  1.00  0.00     0.162 A 
ATOM     15  C   UNL     1    -124.854  40.077   6.701  1.00  0.00     0.062 A 
ATOM     16  C   UNL     1    -127.100  40.968   6.943  1.00  0.00     0.200 A 
ATOM     17  C   UNL     1    -125.925  40.466   7.518  1.00  0.00     0.162 A 
BRANCH  14  18
ATOM     18  O   UNL     1    -128.362  41.597   4.971  1.00  0.00    -0.504 OA
ATOM     19  H   UNL     1    -129.237  41.087   5.003  1.00  0.00     0.293 HD
ENDBRANCH  14  18
BRANCH  16  20
ATOM     20  O   UNL     1    -128.156  41.346   7.772  1.00  0.00    -0.502 OA
ATOM     21  H   UNL     1    -129.111  41.061   7.592  1.00  0.00     0.293 HD
ENDBRANCH  16  20
BRANCH  17  22
ATOM     22  O   UNL     1    -125.827  40.360   8.904  1.00  0.00    -0.504 OA
ATOM     23  H   UNL     1    -125.053  40.768   9.414  1.00  0.00     0.293 HD
ENDBRANCH  17  22
ENDBRANCH   1  12
BRANCH   2  24
ATOM     24  O   UNL     1    -124.870  37.679   3.826  1.00  0.00    -0.502 OA
ATOM     25  H   UNL     1    -125.797  37.978   4.106  1.00  0.00     0.293 HD
ENDBRANCH   2  24
BRANCH   6  26
ATOM     26  O   UNL     1    -120.319  37.789   1.310  1.00  0.00    -0.507 OA
ATOM     27  H   UNL     1    -119.402  37.402   1.120  1.00  0.00     0.293 HD
ENDBRANCH   6  26
BRANCH   8  28
ATOM     28  O   UNL     1    -118.613  42.125   2.564  1.00  0.00    -0.508 OA
ATOM     29  H   UNL     1    -118.830  43.113   2.513  1.00  0.00     0.293 HD
ENDBRANCH   8  28
TORSDOF 7
ENDMDL
MODEL 6
REMARK VINA RESULT:    -3.321      2.138      3.459
REMARK INTER + INTRA:          -4.455
REMARK INTER:                  -4.091
REMARK INTRA:                  -0.364
REMARK UNBOUND:                -0.357
REMARK SMILES O=c1c(O)c(-c2cc(O)c(O)c(O)c2)oc2cc(O)cc(O)c12
REMARK SMILES IDX 5 1 3 2 2 3 1 4 23 5 21 6 20 7 18 8 17 9 16 10 15 11 6 12
REMARK SMILES IDX 7 13 8 14 14 15 10 16 12 17 9 18 11 20 13 22 4 24 22 26
REMARK SMILES IDX 19 28
REMARK H PARENT 9 19 11 21 13 23 4 25 22 27 19 29
REMARK Flexibility Score: inf
ROOT
ATOM      1  C   UNL     1    -127.678  40.155  15.358  1.00  0.00     0.180 A 
ATOM      2  C   UNL     1    -128.206  39.746  14.117  1.00  0.00     0.208 A 
ATOM      3  C   UNL     1    -129.578  39.920  13.873  1.00  0.00     0.238 A 
ATOM      4  O   UNL     1    -130.059  39.567  12.761  1.00  0.00    -0.285 OA
ATOM      5  C   UNL     1    -130.399  40.475  14.875  1.00  0.00     0.111 A 
ATOM      6  C   UNL     1    -131.790  40.680  14.711  1.00  0.00     0.134 A 
ATOM      7  C   UNL     1    -132.542  41.230  15.759  1.00  0.00     0.093 A 
ATOM      8  C   UNL     1    -131.931  41.579  16.966  1.00  0.00     0.123 A 
ATOM      9  C   UNL     1    -130.557  41.381  17.134  1.00  0.00     0.094 A 
ATOM     10  C   UNL     1    -129.790  40.835  16.100  1.00  0.00     0.146 A 
ATOM     11  O   UNL     1    -128.486  40.661  16.285  1.00  0.00    -0.452 OA
ENDROOT
BRANCH   1  12
ATOM     12  C   UNL     1    -126.240  40.022  15.683  1.00  0.00     0.029 A 
ATOM     13  C   UNL     1    -125.800  38.918  16.429  1.00  0.00     0.062 A 
ATOM     14  C   UNL     1    -124.447  38.780  16.769  1.00  0.00     0.162 A 
ATOM     15  C   UNL     1    -125.313  41.010  15.310  1.00  0.00     0.062 A 
ATOM     16  C   UNL     1    -123.523  39.761  16.374  1.00  0.00     0.200 A 
ATOM     17  C   UNL     1    -123.959  40.878  15.649  1.00  0.00     0.162 A 
BRANCH  14  18
ATOM     18  O   UNL     1    -124.020  37.672  17.499  1.00  0.00    -0.504 OA
ATOM     19  H   UNL     1    -123.291  37.745  18.198  1.00  0.00     0.293 HD
ENDBRANCH  14  18
BRANCH  16  20
ATOM     20  O   UNL     1    -122.171  39.645  16.698  1.00  0.00    -0.502 OA
ATOM     21  H   UNL     1    -121.570  40.454  16.802  1.00  0.00     0.293 HD
ENDBRANCH  16  20
BRANCH  17  22
ATOM     22  O   UNL     1    -123.040  41.855  15.271  1.00  0.00    -0.504 OA
ATOM     23  H   UNL     1    -122.494  41.771  14.422  1.00  0.00     0.293 HD
ENDBRANCH  17  22
ENDBRANCH   1  12
BRANCH   2  24
ATOM     24  O   UNL     1    -127.379  39.152  13.160  1.00  0.00    -0.502 OA
ATOM     25  H   UNL     1    -127.353  38.150  13.013  1.00  0.00     0.293 HD
ENDBRANCH   2  24
BRANCH   6  26
ATOM     26  O   UNL     1    -132.430  40.341  13.517  1.00  0.00    -0.507 OA
ATOM     27  H   UNL     1    -131.913  40.019  12.708  1.00  0.00     0.293 HD
ENDBRANCH   6  26
BRANCH   8  28
ATOM     28  O   UNL     1    -132.700  42.124  17.993  1.00  0.00    -0.508 OA
ATOM     29  H   UNL     1    -133.690  41.925  18.075  1.00  0.00     0.293 HD
ENDBRANCH   8  28
TORSDOF 7
ENDMDL
MODEL 7
REMARK VINA RESULT:    -3.284     10.261     14.240
REMARK INTER + INTRA:          -4.409
REMARK INTER:                  -4.044
REMARK INTRA:                  -0.365
REMARK UNBOUND:                -0.357
REMARK SMILES O=c1c(O)c(-c2cc(O)c(O)c(O)c2)oc2cc(O)cc(O)c12
REMARK SMILES IDX 5 1 3 2 2 3 1 4 23 5 21 6 20 7 18 8 17 9 16 10 15 11 6 12
REMARK SMILES IDX 7 13 8 14 14 15 10 16 12 17 9 18 11 20 13 22 4 24 22 26
REMARK SMILES IDX 19 28
REMARK H PARENT 9 19 11 21 13 23 4 25 22 27 19 29
REMARK Flexibility Score: inf
ROOT
ATOM      1  C   UNL     1    -122.988  40.231   4.740  1.00  0.00     0.180 A 
ATOM      2  C   UNL     1    -122.157  41.054   5.526  1.00  0.00     0.208 A 
ATOM      3  C   UNL     1    -120.878  41.381   5.047  1.00  0.00     0.238 A 
ATOM      4  O   UNL     1    -120.129  42.125   5.738  1.00  0.00    -0.285 OA
ATOM      5  C   UNL     1    -120.445  40.865   3.809  1.00  0.00     0.111 A 
ATOM      6  C   UNL     1    -119.171  41.143   3.257  1.00  0.00     0.134 A 
ATOM      7  C   UNL     1    -118.810  40.585   2.022  1.00  0.00     0.093 A 
ATOM      8  C   UNL     1    -119.696  39.756   1.330  1.00  0.00     0.123 A 
ATOM      9  C   UNL     1    -120.956  39.479   1.868  1.00  0.00     0.094 A 
ATOM     10  C   UNL     1    -121.335  40.027   3.097  1.00  0.00     0.146 A 
ATOM     11  O   UNL     1    -122.540  39.751   3.584  1.00  0.00    -0.452 OA
ENDROOT
BRANCH   1  12
ATOM     12  C   UNL     1    -124.355  39.858   5.167  1.00  0.00     0.029 A 
ATOM     13  C   UNL     1    -124.550  38.687   5.916  1.00  0.00     0.062 A 
ATOM     14  C   UNL     1    -125.836  38.300   6.315  1.00  0.00     0.162 A 
ATOM     15  C   UNL     1    -125.473  40.622   4.789  1.00  0.00     0.062 A 
ATOM     16  C   UNL     1    -126.946  39.080   5.950  1.00  0.00     0.200 A 
ATOM     17  C   UNL     1    -126.763  40.238   5.184  1.00  0.00     0.162 A 
BRANCH  14  18
ATOM     18  O   UNL     1    -126.015  37.142   7.070  1.00  0.00    -0.504 OA
ATOM     19  H   UNL     1    -126.736  36.466   6.845  1.00  0.00     0.293 HD
ENDBRANCH  14  18
BRANCH  16  20
ATOM     20  O   UNL     1    -128.236  38.716   6.337  1.00  0.00    -0.502 OA
ATOM     21  H   UNL     1    -128.409  38.082   7.107  1.00  0.00     0.293 HD
ENDBRANCH  16  20
BRANCH  17  22
ATOM     22  O   UNL     1    -127.868  41.001   4.813  1.00  0.00    -0.504 OA
ATOM     23  H   UNL     1    -128.674  41.098   5.419  1.00  0.00     0.293 HD
ENDBRANCH  17  22
ENDBRANCH   1  12
BRANCH   2  24
ATOM     24  O   UNL     1    -122.592  41.510   6.773  1.00  0.00    -0.502 OA
ATOM     25  H   UNL     1    -123.574  41.592   7.008  1.00  0.00     0.293 HD
ENDBRANCH   2  24
BRANCH   6  26
ATOM     26  O   UNL     1    -118.263  41.966   3.926  1.00  0.00    -0.507 OA
ATOM     27  H   UNL     1    -118.362  42.180   4.910  1.00  0.00     0.293 HD
ENDBRANCH   6  26
BRANCH   8  28
ATOM     28  O   UNL     1    -119.313  39.214   0.104  1.00  0.00    -0.508 OA
ATOM     29  H   UNL     1    -119.189  39.795  -0.716  1.00  0.00     0.293 HD
ENDBRANCH   8  28
TORSDOF 7
ENDMDL
MODEL 8
REMARK VINA RESULT:    -3.256     11.063     12.068
REMARK INTER + INTRA:          -4.375
REMARK INTER:                  -4.214
REMARK INTRA:                  -0.160
REMARK UNBOUND:                -0.357
REMARK SMILES O=c1c(O)c(-c2cc(O)c(O)c(O)c2)oc2cc(O)cc(O)c12
REMARK SMILES IDX 5 1 3 2 2 3 1 4 23 5 21 6 20 7 18 8 17 9 16 10 15 11 6 12
REMARK SMILES IDX 7 13 8 14 14 15 10 16 12 17 9 18 11 20 13 22 4 24 22 26
REMARK SMILES IDX 19 28
REMARK H PARENT 9 19 11 21 13 23 4 25 22 27 19 29
REMARK Flexibility Score: inf
ROOT
ATOM      1  C   UNL     1    -123.932  39.851   4.413  1.00  0.00     0.180 A 
ATOM      2  C   UNL     1    -124.181  38.513   4.050  1.00  0.00     0.208 A 
ATOM      3  C   UNL     1    -125.506  38.049   4.033  1.00  0.00     0.238 A 
ATOM      4  O   UNL     1    -125.742  36.856   3.699  1.00  0.00    -0.285 OA
ATOM      5  C   UNL     1    -126.553  38.919   4.401  1.00  0.00     0.111 A 
ATOM      6  C   UNL     1    -127.914  38.530   4.415  1.00  0.00     0.134 A 
ATOM      7  C   UNL     1    -128.898  39.452   4.801  1.00  0.00     0.093 A 
ATOM      8  C   UNL     1    -128.548  40.752   5.173  1.00  0.00     0.123 A 
ATOM      9  C   UNL     1    -127.206  41.143   5.160  1.00  0.00     0.094 A 
ATOM     10  C   UNL     1    -126.210  40.239   4.776  1.00  0.00     0.146 A 
ATOM     11  O   UNL     1    -124.943  40.638   4.768  1.00  0.00    -0.452 OA
ENDROOT
BRANCH   1  12
ATOM     12  C   UNL     1    -122.565  40.419   4.436  1.00  0.00     0.029 A 
ATOM     13  C   UNL     1    -122.078  40.999   5.617  1.00  0.00     0.062 A 
ATOM     14  C   UNL     1    -120.795  41.563   5.659  1.00  0.00     0.162 A 
ATOM     15  C   UNL     1    -121.764  40.441   3.281  1.00  0.00     0.062 A 
ATOM     16  C   UNL     1    -119.993  41.562   4.506  1.00  0.00     0.200 A 
ATOM     17  C   UNL     1    -120.481  41.005   3.318  1.00  0.00     0.162 A 
BRANCH  14  18
ATOM     18  O   UNL     1    -120.317  42.124   6.842  1.00  0.00    -0.504 OA
ATOM     19  H   UNL     1    -119.325  42.210   7.027  1.00  0.00     0.293 HD
ENDBRANCH  14  18
BRANCH  16  20
ATOM     20  O   UNL     1    -118.712  42.115   4.524  1.00  0.00    -0.502 OA
ATOM     21  H   UNL     1    -118.290  42.470   5.373  1.00  0.00     0.293 HD
ENDBRANCH  16  20
BRANCH  17  22
ATOM     22  O   UNL     1    -119.686  41.019   2.173  1.00  0.00    -0.504 OA
ATOM     23  H   UNL     1    -119.833  41.696   1.433  1.00  0.00     0.293 HD
ENDBRANCH  17  22
ENDBRANCH   1  12
BRANCH   2  24
ATOM     24  O   UNL     1    -123.121  37.658   3.738  1.00  0.00    -0.502 OA
ATOM     25  H   UNL     1    -122.895  37.398   2.785  1.00  0.00     0.293 HD
ENDBRANCH   2  24
BRANCH   6  26
ATOM     26  O   UNL     1    -128.296  37.237   4.050  1.00  0.00    -0.507 OA
ATOM     27  H   UNL     1    -128.174  36.892   3.106  1.00  0.00     0.293 HD
ENDBRANCH   6  26
BRANCH   8  28
ATOM     28  O   UNL     1    -129.545  41.649   5.553  1.00  0.00    -0.508 OA
ATOM     29  H   UNL     1    -129.380  42.649   5.568  1.00  0.00     0.293 HD
ENDBRANCH   8  28
TORSDOF 7
ENDMDL
MODEL 9
REMARK VINA RESULT:    -3.256      2.733      4.334
REMARK INTER + INTRA:          -4.374
REMARK INTER:                  -4.039
REMARK INTRA:                  -0.335
REMARK UNBOUND:                -0.357
REMARK SMILES O=c1c(O)c(-c2cc(O)c(O)c(O)c2)oc2cc(O)cc(O)c12
REMARK SMILES IDX 5 1 3 2 2 3 1 4 23 5 21 6 20 7 18 8 17 9 16 10 15 11 6 12
REMARK SMILES IDX 7 13 8 14 14 15 10 16 12 17 9 18 11 20 13 22 4 24 22 26
REMARK SMILES IDX 19 28
REMARK H PARENT 9 19 11 21 13 23 4 25 22 27 19 29
REMARK Flexibility Score: inf
ROOT
ATOM      1  C   UNL     1    -128.243  40.216  15.615  1.00  0.00     0.180 A 
ATOM      2  C   UNL     1    -129.147  40.771  16.542  1.00  0.00     0.208 A 
ATOM      3  C   UNL     1    -130.436  41.121  16.107  1.00  0.00     0.238 A 
ATOM      4  O   UNL     1    -131.257  41.608  16.930  1.00  0.00    -0.285 OA
ATOM      5  C   UNL     1    -130.789  40.932  14.755  1.00  0.00     0.111 A 
ATOM      6  C   UNL     1    -132.065  41.262  14.235  1.00  0.00     0.134 A 
ATOM      7  C   UNL     1    -132.338  41.053  12.876  1.00  0.00     0.093 A 
ATOM      8  C   UNL     1    -131.364  40.522  12.028  1.00  0.00     0.123 A 
ATOM      9  C   UNL     1    -130.103  40.193  12.535  1.00  0.00     0.094 A 
ATOM     10  C   UNL     1    -129.812  40.392  13.888  1.00  0.00     0.146 A 
ATOM     11  O   UNL     1    -128.607  40.067  14.345  1.00  0.00    -0.452 OA
ENDROOT
BRANCH   1  12
ATOM     12  C   UNL     1    -126.875  39.804  16.001  1.00  0.00     0.029 A 
ATOM     13  C   UNL     1    -125.784  40.611  15.644  1.00  0.00     0.062 A 
ATOM     14  C   UNL     1    -124.476  40.234  15.978  1.00  0.00     0.162 A 
ATOM     15  C   UNL     1    -126.638  38.590  16.669  1.00  0.00     0.062 A 
ATOM     16  C   UNL     1    -124.250  39.029  16.664  1.00  0.00     0.200 A 
ATOM     17  C   UNL     1    -125.331  38.206  17.004  1.00  0.00     0.162 A 
BRANCH  14  18
ATOM     18  O   UNL     1    -123.402  41.051  15.630  1.00  0.00    -0.504 OA
ATOM     19  H   UNL     1    -123.542  41.967  15.221  1.00  0.00     0.293 HD
ENDBRANCH  14  18
BRANCH  16  20
ATOM     20  O   UNL     1    -122.958  38.632  17.010  1.00  0.00    -0.502 OA
ATOM     21  H   UNL     1    -122.680  38.482  17.972  1.00  0.00     0.293 HD
ENDBRANCH  16  20
BRANCH  17  22
ATOM     22  O   UNL     1    -125.101  37.005  17.672  1.00  0.00    -0.504 OA
ATOM     23  H   UNL     1    -124.344  36.905  18.338  1.00  0.00     0.293 HD
ENDBRANCH  17  22
ENDBRANCH   1  12
BRANCH   2  24
ATOM     24  O   UNL     1    -128.754  40.993  17.864  1.00  0.00    -0.502 OA
ATOM     25  H   UNL     1    -129.418  41.018  18.630  1.00  0.00     0.293 HD
ENDBRANCH   2  24
BRANCH   6  26
ATOM     26  O   UNL     1    -133.059  41.796  15.057  1.00  0.00    -0.507 OA
ATOM     27  H   UNL     1    -133.070  42.776  15.313  1.00  0.00     0.293 HD
ENDBRANCH   6  26
BRANCH   8  28
ATOM     28  O   UNL     1    -131.660  40.324  10.680  1.00  0.00    -0.508 OA
ATOM     29  H   UNL     1    -131.548  41.066   9.999  1.00  0.00     0.293 HD
ENDBRANCH   8  28
TORSDOF 7
ENDMDL
