MODEL 1
REMARK VINA RESULT:    -3.759      0.000      0.000
REMARK INTER + INTRA:         -15.804
REMARK INTER:                  -9.912
REMARK INTRA:                  -5.892
REMARK UNBOUND:                -5.892
REMARK SMILES CCCCCCCCCCCCCCCCCCCCCCCCCCCCCC(=O)[O-]
REMARK SMILES IDX 16 1 17 2 18 3 19 4 20 5 21 6 22 7 23 8 24 9 25 10 26 11
REMARK SMILES IDX 27 12 28 13 29 14 30 15 31 16 32 17 15 18 14 19 13 20 12 21
REMARK SMILES IDX 11 22 10 23 9 24 8 25 7 26 6 27 5 28 4 29 3 30 2 31 1 32
REMARK H PARENT
REMARK Flexibility Score: inf
ROOT
ATOM      1  C   UNL     1     -22.776   4.725  20.373  1.00  0.00     0.000 C 
ENDROOT
BRANCH   1   2
ATOM      2  C   UNL     1     -22.637   6.003  21.217  1.00  0.00     0.000 C 
BRANCH   2   3
ATOM      3  C   UNL     1     -23.926   6.832  21.170  1.00  0.00     0.000 C 
BRANCH   3   4
ATOM      4  C   UNL     1     -23.787   8.016  20.201  1.00  0.00     0.000 C 
BRANCH   4   5
ATOM      5  C   UNL     1     -22.321   8.348  19.867  1.00  0.00     0.000 C 
BRANCH   5   6
ATOM      6  C   UNL     1     -21.951   8.257  18.371  1.00  0.00     0.000 C 
BRANCH   6   7
ATOM      7  C   UNL     1     -22.550   7.054  17.620  1.00  0.00     0.000 C 
BRANCH   7   8
ATOM      8  C   UNL     1     -21.494   6.237  16.863  1.00  0.00     0.000 C 
BRANCH   8   9
ATOM      9  C   UNL     1     -20.424   7.152  16.256  1.00  0.00     0.000 C 
BRANCH   9  10
ATOM     10  C   UNL     1     -19.058   6.454  16.212  1.00  0.00     0.000 C 
BRANCH  10  11
ATOM     11  C   UNL     1     -18.564   6.013  17.601  1.00  0.00     0.000 C 
BRANCH  11  12
ATOM     12  C   UNL     1     -18.426   7.172  18.611  1.00  0.00     0.000 C 
BRANCH  12  13
ATOM     13  C   UNL     1     -18.992   6.806  19.994  1.00  0.00     0.006 C 
BRANCH  13  14
ATOM     14  C   UNL     1     -17.888   6.458  21.002  1.00  0.00     0.053 C 
BRANCH  14  15
ATOM     15  C   UNL     1     -17.936   5.016  21.407  1.00  0.00     0.041 C 
ATOM     16  O   UNL     1     -17.292   4.153  20.753  1.00  0.00    -0.550 OA
ATOM     17  O   UNL     1     -18.707   4.622  22.494  1.00  0.00    -0.550 OA
ENDBRANCH  14  15
ENDBRANCH  13  14
ENDBRANCH  12  13
ENDBRANCH  11  12
ENDBRANCH  10  11
ENDBRANCH   9  10
ENDBRANCH   8   9
ENDBRANCH   7   8
ENDBRANCH   6   7
ENDBRANCH   5   6
ENDBRANCH   4   5
ENDBRANCH   3   4
ENDBRANCH   2   3
ENDBRANCH   1   2
BRANCH   1  18
ATOM     18  C   UNL     1     -21.427   4.038  20.108  1.00  0.00     0.000 C 
BRANCH  18  19
ATOM     19  C   UNL     1     -21.468   2.525  20.363  1.00  0.00     0.000 C 
BRANCH  19  20
ATOM     20  C   UNL     1     -20.047   1.946  20.441  1.00  0.00     0.000 C 
BRANCH  20  21
ATOM     21  C   UNL     1     -20.033   0.466  20.861  1.00  0.00     0.000 C 
BRANCH  21  22
ATOM     22  C   UNL     1     -21.258  -0.305  20.340  1.00  0.00     0.000 C 
BRANCH  22  23
ATOM     23  C   UNL     1     -22.177  -0.789  21.474  1.00  0.00     0.000 C 
BRANCH  23  24
ATOM     24  C   UNL     1     -23.662  -0.533  21.180  1.00  0.00    -0.000 C 
BRANCH  24  25
ATOM     25  C   UNL     1     -24.322   0.251  22.324  1.00  0.00    -0.000 C 
BRANCH  25  26
ATOM     26  C   UNL     1     -24.575   1.724  21.964  1.00  0.00    -0.000 C 
BRANCH  26  27
ATOM     27  C   UNL     1     -25.255   2.504  23.104  1.00  0.00    -0.000 C 
BRANCH  27  28
ATOM     28  C   UNL     1     -24.436   3.723  23.566  1.00  0.00    -0.000 C 
BRANCH  28  29
ATOM     29  C   UNL     1     -23.318   3.409  24.576  1.00  0.00    -0.000 C 
BRANCH  29  30
ATOM     30  C   UNL     1     -21.911   3.643  24.000  1.00  0.00    -0.000 C 
BRANCH  30  31
ATOM     31  C   UNL     1     -21.069   2.358  23.961  1.00  0.00    -0.003 C 
ATOM     32  C   UNL     1     -21.723   1.204  24.721  1.00  0.00     0.004 C 
ENDBRANCH  30  31
ENDBRANCH  29  30
ENDBRANCH  28  29
ENDBRANCH  27  28
ENDBRANCH  26  27
ENDBRANCH  25  26
ENDBRANCH  24  25
ENDBRANCH  23  24
ENDBRANCH  22  23
ENDBRANCH  21  22
ENDBRANCH  20  21
ENDBRANCH  19  20
ENDBRANCH  18  19
ENDBRANCH   1  18
TORSDOF 28
ENDMDL
MODEL 2
REMARK VINA RESULT:    -3.495      2.171      7.536
REMARK INTER + INTRA:         -15.108
REMARK INTER:                  -9.485
REMARK INTRA:                  -5.623
REMARK UNBOUND:                -5.892
REMARK SMILES CCCCCCCCCCCCCCCCCCCCCCCCCCCCCC(=O)[O-]
REMARK SMILES IDX 16 1 17 2 18 3 19 4 20 5 21 6 22 7 23 8 24 9 25 10 26 11
REMARK SMILES IDX 27 12 28 13 29 14 30 15 31 16 32 17 15 18 14 19 13 20 12 21
REMARK SMILES IDX 11 22 10 23 9 24 8 25 7 26 6 27 5 28 4 29 3 30 2 31 1 32
REMARK H PARENT
REMARK Flexibility Score: inf
ROOT
ATOM      1  C   UNL     1     -22.821   5.425  21.568  1.00  0.00     0.000 C 
ENDROOT
BRANCH   1   2
ATOM      2  C   UNL     1     -22.552   4.455  20.406  1.00  0.00     0.000 C 
BRANCH   2   3
ATOM      3  C   UNL     1     -21.179   4.722  19.778  1.00  0.00     0.000 C 
BRANCH   3   4
ATOM      4  C   UNL     1     -20.193   3.590  20.105  1.00  0.00     0.000 C 
BRANCH   4   5
ATOM      5  C   UNL     1     -19.571   3.723  21.508  1.00  0.00     0.000 C 
BRANCH   5   6
ATOM      6  C   UNL     1     -18.624   2.576  21.920  1.00  0.00     0.000 C 
BRANCH   6   7
ATOM      7  C   UNL     1     -18.834   1.251  21.164  1.00  0.00     0.000 C 
BRANCH   7   8
ATOM      8  C   UNL     1     -19.775   0.287  21.899  1.00  0.00     0.000 C 
BRANCH   8   9
ATOM      9  C   UNL     1     -21.118   0.168  21.169  1.00  0.00     0.000 C 
BRANCH   9  10
ATOM     10  C   UNL     1     -22.214   0.963  21.892  1.00  0.00     0.000 C 
BRANCH  10  11
ATOM     11  C   UNL     1     -23.546   0.986  21.122  1.00  0.00     0.000 C 
BRANCH  11  12
ATOM     12  C   UNL     1     -24.695   1.679  21.884  1.00  0.00     0.000 C 
BRANCH  12  13
ATOM     13  C   UNL     1     -24.187   2.473  23.100  1.00  0.00     0.006 C 
BRANCH  13  14
ATOM     14  C   UNL     1     -25.334   3.037  23.949  1.00  0.00     0.053 C 
BRANCH  14  15
ATOM     15  C   UNL     1     -24.836   3.973  25.008  1.00  0.00     0.041 C 
ATOM     16  O   UNL     1     -25.549   4.942  25.382  1.00  0.00    -0.550 OA
ATOM     17  O   UNL     1     -23.577   3.789  25.568  1.00  0.00    -0.550 OA
ENDBRANCH  14  15
ENDBRANCH  13  14
ENDBRANCH  12  13
ENDBRANCH  11  12
ENDBRANCH  10  11
ENDBRANCH   9  10
ENDBRANCH   8   9
ENDBRANCH   7   8
ENDBRANCH   6   7
ENDBRANCH   5   6
ENDBRANCH   4   5
ENDBRANCH   3   4
ENDBRANCH   2   3
ENDBRANCH   1   2
BRANCH   1  18
ATOM     18  C   UNL     1     -24.177   6.137  21.448  1.00  0.00     0.000 C 
BRANCH  18  19
ATOM     19  C   UNL     1     -24.043   7.609  21.031  1.00  0.00     0.000 C 
BRANCH  19  20
ATOM     20  C   UNL     1     -23.695   7.724  19.539  1.00  0.00     0.000 C 
BRANCH  20  21
ATOM     21  C   UNL     1     -22.457   8.601  19.287  1.00  0.00     0.000 C 
BRANCH  21  22
ATOM     22  C   UNL     1     -21.645   8.137  18.065  1.00  0.00     0.000 C 
BRANCH  22  23
ATOM     23  C   UNL     1     -22.261   6.905  17.381  1.00  0.00     0.000 C 
BRANCH  23  24
ATOM     24  C   UNL     1     -21.295   6.234  16.394  1.00  0.00    -0.000 C 
BRANCH  24  25
ATOM     25  C   UNL     1     -20.082   7.135  16.115  1.00  0.00    -0.000 C 
BRANCH  25  26
ATOM     26  C   UNL     1     -18.748   6.373  16.185  1.00  0.00    -0.000 C 
BRANCH  26  27
ATOM     27  C   UNL     1     -18.461   5.808  17.587  1.00  0.00    -0.000 C 
BRANCH  27  28
ATOM     28  C   UNL     1     -18.199   6.908  18.632  1.00  0.00    -0.000 C 
BRANCH  28  29
ATOM     29  C   UNL     1     -17.471   6.436  19.904  1.00  0.00    -0.000 C 
BRANCH  29  30
ATOM     30  C   UNL     1     -17.759   7.330  21.122  1.00  0.00    -0.000 C 
BRANCH  30  31
ATOM     31  C   UNL     1     -19.098   8.074  21.004  1.00  0.00    -0.003 C 
ATOM     32  C   UNL     1     -20.141   7.567  22.000  1.00  0.00     0.004 C 
ENDBRANCH  30  31
ENDBRANCH  29  30
ENDBRANCH  28  29
ENDBRANCH  27  28
ENDBRANCH  26  27
ENDBRANCH  25  26
ENDBRANCH  24  25
ENDBRANCH  23  24
ENDBRANCH  22  23
ENDBRANCH  21  22
ENDBRANCH  20  21
ENDBRANCH  19  20
ENDBRANCH  18  19
ENDBRANCH   1  18
TORSDOF 28
ENDMDL
MODEL 3
REMARK VINA RESULT:    -3.460      1.518      6.974
REMARK INTER + INTRA:         -15.017
REMARK INTER:                  -9.695
REMARK INTRA:                  -5.322
REMARK UNBOUND:                -5.892
REMARK SMILES CCCCCCCCCCCCCCCCCCCCCCCCCCCCCC(=O)[O-]
REMARK SMILES IDX 16 1 17 2 18 3 19 4 20 5 21 6 22 7 23 8 24 9 25 10 26 11
REMARK SMILES IDX 27 12 28 13 29 14 30 15 31 16 32 17 15 18 14 19 13 20 12 21
REMARK SMILES IDX 11 22 10 23 9 24 8 25 7 26 6 27 5 28 4 29 3 30 2 31 1 32
REMARK H PARENT
REMARK Flexibility Score: inf
ROOT
ATOM      1  C   UNL     1     -23.562   5.346  21.761  1.00  0.00     0.000 C 
ENDROOT
BRANCH   1   2
ATOM      2  C   UNL     1     -22.956   4.399  20.713  1.00  0.00     0.000 C 
BRANCH   2   3
ATOM      3  C   UNL     1     -23.096   2.936  21.151  1.00  0.00     0.000 C 
BRANCH   3   4
ATOM      4  C   UNL     1     -23.942   2.820  22.428  1.00  0.00     0.000 C 
BRANCH   4   5
ATOM      5  C   UNL     1     -25.058   1.765  22.314  1.00  0.00     0.000 C 
BRANCH   5   6
ATOM      6  C   UNL     1     -25.057   0.684  23.415  1.00  0.00     0.000 C 
BRANCH   6   7
ATOM      7  C   UNL     1     -24.242  -0.581  23.090  1.00  0.00     0.000 C 
BRANCH   7   8
ATOM      8  C   UNL     1     -24.138  -0.853  21.583  1.00  0.00     0.000 C 
BRANCH   8   9
ATOM      9  C   UNL     1     -22.673  -0.882  21.132  1.00  0.00     0.000 C 
BRANCH   9  10
ATOM     10  C   UNL     1     -21.722  -0.674  22.319  1.00  0.00     0.000 C 
BRANCH  10  11
ATOM     11  C   UNL     1     -20.530   0.238  21.982  1.00  0.00     0.000 C 
BRANCH  11  12
ATOM     12  C   UNL     1     -20.437   0.614  20.487  1.00  0.00     0.000 C 
BRANCH  12  13
ATOM     13  C   UNL     1     -19.035   0.352  19.911  1.00  0.00     0.006 C 
BRANCH  13  14
ATOM     14  C   UNL     1     -18.278   1.652  19.604  1.00  0.00     0.053 C 
BRANCH  14  15
ATOM     15  C   UNL     1     -17.030   1.778  20.423  1.00  0.00     0.041 C 
ATOM     16  O   UNL     1     -15.901   1.721  19.869  1.00  0.00    -0.550 OA
ATOM     17  O   UNL     1     -17.113   1.940  21.801  1.00  0.00    -0.550 OA
ENDBRANCH  14  15
ENDBRANCH  13  14
ENDBRANCH  12  13
ENDBRANCH  11  12
ENDBRANCH  10  11
ENDBRANCH   9  10
ENDBRANCH   8   9
ENDBRANCH   7   8
ENDBRANCH   6   7
ENDBRANCH   5   6
ENDBRANCH   4   5
ENDBRANCH   3   4
ENDBRANCH   2   3
ENDBRANCH   1   2
BRANCH   1  18
ATOM     18  C   UNL     1     -24.027   6.681  21.160  1.00  0.00     0.000 C 
BRANCH  18  19
ATOM     19  C   UNL     1     -22.870   7.513  20.588  1.00  0.00     0.000 C 
BRANCH  19  20
ATOM     20  C   UNL     1     -23.268   8.153  19.248  1.00  0.00     0.000 C 
BRANCH  20  21
ATOM     21  C   UNL     1     -22.272   7.833  18.121  1.00  0.00     0.000 C 
BRANCH  21  22
ATOM     22  C   UNL     1     -22.362   6.371  17.652  1.00  0.00     0.000 C 
BRANCH  22  23
ATOM     23  C   UNL     1     -21.413   6.068  16.481  1.00  0.00     0.000 C 
BRANCH  23  24
ATOM     24  C   UNL     1     -20.313   7.129  16.324  1.00  0.00    -0.000 C 
BRANCH  24  25
ATOM     25  C   UNL     1     -18.932   6.472  16.189  1.00  0.00    -0.000 C 
BRANCH  25  26
ATOM     26  C   UNL     1     -18.312   6.108  17.549  1.00  0.00    -0.000 C 
BRANCH  26  27
ATOM     27  C   UNL     1     -18.551   7.189  18.617  1.00  0.00    -0.000 C 
BRANCH  27  28
ATOM     28  C   UNL     1     -19.336   6.665  19.833  1.00  0.00    -0.000 C 
BRANCH  28  29
ATOM     29  C   UNL     1     -19.492   5.134  19.896  1.00  0.00    -0.000 C 
BRANCH  29  30
ATOM     30  C   UNL     1     -19.428   4.587  21.332  1.00  0.00    -0.000 C 
BRANCH  30  31
ATOM     31  C   UNL     1     -19.307   5.701  22.382  1.00  0.00    -0.003 C 
ATOM     32  C   UNL     1     -20.286   5.524  23.543  1.00  0.00     0.004 C 
ENDBRANCH  30  31
ENDBRANCH  29  30
ENDBRANCH  28  29
ENDBRANCH  27  28
ENDBRANCH  26  27
ENDBRANCH  25  26
ENDBRANCH  24  25
ENDBRANCH  23  24
ENDBRANCH  22  23
ENDBRANCH  21  22
ENDBRANCH  20  21
ENDBRANCH  19  20
ENDBRANCH  18  19
ENDBRANCH   1  18
TORSDOF 28
ENDMDL
MODEL 4
REMARK VINA RESULT:    -3.454      1.832      4.017
REMARK INTER + INTRA:         -14.999
REMARK INTER:                  -9.181
REMARK INTRA:                  -5.819
REMARK UNBOUND:                -5.892
REMARK SMILES CCCCCCCCCCCCCCCCCCCCCCCCCCCCCC(=O)[O-]
REMARK SMILES IDX 16 1 17 2 18 3 19 4 20 5 21 6 22 7 23 8 24 9 25 10 26 11
REMARK SMILES IDX 27 12 28 13 29 14 30 15 31 16 32 17 15 18 14 19 13 20 12 21
REMARK SMILES IDX 11 22 10 23 9 24 8 25 7 26 6 27 5 28 4 29 3 30 2 31 1 32
REMARK H PARENT
REMARK Flexibility Score: inf
ROOT
ATOM      1  C   UNL     1     -21.818   4.441  19.866  1.00  0.00     0.000 C 
ENDROOT
BRANCH   1   2
ATOM      2  C   UNL     1     -21.262   5.359  18.766  1.00  0.00     0.000 C 
BRANCH   2   3
ATOM      3  C   UNL     1     -22.394   6.126  18.070  1.00  0.00     0.000 C 
BRANCH   3   4
ATOM      4  C   UNL     1     -21.909   7.496  17.572  1.00  0.00     0.000 C 
BRANCH   4   5
ATOM      5  C   UNL     1     -22.203   8.634  18.566  1.00  0.00     0.000 C 
BRANCH   5   6
ATOM      6  C   UNL     1     -23.183   8.277  19.704  1.00  0.00     0.000 C 
BRANCH   6   7
ATOM      7  C   UNL     1     -22.570   8.265  21.116  1.00  0.00     0.000 C 
BRANCH   7   8
ATOM      8  C   UNL     1     -21.171   8.894  21.165  1.00  0.00     0.000 C 
BRANCH   8   9
ATOM      9  C   UNL     1     -20.165   7.942  21.823  1.00  0.00     0.000 C 
BRANCH   9  10
ATOM     10  C   UNL     1     -18.757   8.135  21.241  1.00  0.00     0.000 C 
BRANCH  10  11
ATOM     11  C   UNL     1     -18.750   8.236  19.706  1.00  0.00     0.000 C 
BRANCH  11  12
ATOM     12  C   UNL     1     -18.378   6.917  18.996  1.00  0.00     0.000 C 
BRANCH  12  13
ATOM     13  C   UNL     1     -17.807   5.875  19.973  1.00  0.00     0.006 C 
BRANCH  13  14
ATOM     14  C   UNL     1     -16.458   5.313  19.505  1.00  0.00     0.053 C 
BRANCH  14  15
ATOM     15  C   UNL     1     -15.466   6.400  19.228  1.00  0.00     0.041 C 
ATOM     16  O   UNL     1     -14.947   6.508  18.086  1.00  0.00    -0.550 OA
ATOM     17  O   UNL     1     -15.099   7.283  20.237  1.00  0.00    -0.550 OA
ENDBRANCH  14  15
ENDBRANCH  13  14
ENDBRANCH  12  13
ENDBRANCH  11  12
ENDBRANCH  10  11
ENDBRANCH   9  10
ENDBRANCH   8   9
ENDBRANCH   7   8
ENDBRANCH   6   7
ENDBRANCH   5   6
ENDBRANCH   4   5
ENDBRANCH   3   4
ENDBRANCH   2   3
ENDBRANCH   1   2
BRANCH   1  18
ATOM     18  C   UNL     1     -21.172   4.696  21.237  1.00  0.00     0.000 C 
BRANCH  18  19
ATOM     19  C   UNL     1     -22.188   4.682  22.388  1.00  0.00     0.000 C 
BRANCH  19  20
ATOM     20  C   UNL     1     -23.600   5.001  21.872  1.00  0.00     0.000 C 
BRANCH  20  21
ATOM     21  C   UNL     1     -24.658   4.970  22.988  1.00  0.00     0.000 C 
BRANCH  21  22
ATOM     22  C   UNL     1     -24.455   3.795  23.960  1.00  0.00     0.000 C 
BRANCH  22  23
ATOM     23  C   UNL     1     -25.683   2.873  24.035  1.00  0.00     0.000 C 
BRANCH  23  24
ATOM     24  C   UNL     1     -25.499   1.580  23.228  1.00  0.00    -0.000 C 
BRANCH  24  25
ATOM     25  C   UNL     1     -24.021   1.364  22.867  1.00  0.00    -0.000 C 
BRANCH  25  26
ATOM     26  C   UNL     1     -23.782   1.321  21.349  1.00  0.00    -0.000 C 
BRANCH  26  27
ATOM     27  C   UNL     1     -23.354  -0.073  20.856  1.00  0.00    -0.000 C 
BRANCH  27  28
ATOM     28  C   UNL     1     -21.829  -0.281  20.904  1.00  0.00    -0.000 C 
BRANCH  28  29
ATOM     29  C   UNL     1     -20.992   0.990  20.675  1.00  0.00    -0.000 C 
BRANCH  29  30
ATOM     30  C   UNL     1     -19.848   1.142  21.693  1.00  0.00    -0.000 C 
BRANCH  30  31
ATOM     31  C   UNL     1     -18.703   2.021  21.165  1.00  0.00    -0.003 C 
ATOM     32  C   UNL     1     -18.634   2.042  19.639  1.00  0.00     0.004 C 
ENDBRANCH  30  31
ENDBRANCH  29  30
ENDBRANCH  28  29
ENDBRANCH  27  28
ENDBRANCH  26  27
ENDBRANCH  25  26
ENDBRANCH  24  25
ENDBRANCH  23  24
ENDBRANCH  22  23
ENDBRANCH  21  22
ENDBRANCH  20  21
ENDBRANCH  19  20
ENDBRANCH  18  19
ENDBRANCH   1  18
TORSDOF 28
ENDMDL
MODEL 5
REMARK VINA RESULT:    -3.451      1.073      3.181
REMARK INTER + INTRA:         -14.992
REMARK INTER:                  -9.197
REMARK INTRA:                  -5.795
REMARK UNBOUND:                -5.892
REMARK SMILES CCCCCCCCCCCCCCCCCCCCCCCCCCCCCC(=O)[O-]
REMARK SMILES IDX 16 1 17 2 18 3 19 4 20 5 21 6 22 7 23 8 24 9 25 10 26 11
REMARK SMILES IDX 27 12 28 13 29 14 30 15 31 16 32 17 15 18 14 19 13 20 12 21
REMARK SMILES IDX 11 22 10 23 9 24 8 25 7 26 6 27 5 28 4 29 3 30 2 31 1 32
REMARK H PARENT
REMARK Flexibility Score: inf
ROOT
ATOM      1  C   UNL     1     -24.011   6.709  21.115  1.00  0.00     0.000 C 
ENDROOT
BRANCH   1   2
ATOM      2  C   UNL     1     -23.727   7.992  20.315  1.00  0.00     0.000 C 
BRANCH   2   3
ATOM      3  C   UNL     1     -22.219   8.192  20.121  1.00  0.00     0.000 C 
BRANCH   3   4
ATOM      4  C   UNL     1     -21.875   8.395  18.637  1.00  0.00     0.000 C 
BRANCH   4   5
ATOM      5  C   UNL     1     -22.494   7.318  17.726  1.00  0.00     0.000 C 
BRANCH   5   6
ATOM      6  C   UNL     1     -21.483   6.362  17.058  1.00  0.00     0.000 C 
BRANCH   6   7
ATOM      7  C   UNL     1     -20.434   7.042  16.160  1.00  0.00     0.000 C 
BRANCH   7   8
ATOM      8  C   UNL     1     -19.000   6.592  16.471  1.00  0.00     0.000 C 
BRANCH   8   9
ATOM      9  C   UNL     1     -18.818   6.341  17.972  1.00  0.00     0.000 C 
BRANCH   9  10
ATOM     10  C   UNL     1     -18.290   7.595  18.684  1.00  0.00     0.000 C 
BRANCH  10  11
ATOM     11  C   UNL     1     -18.540   7.572  20.203  1.00  0.00     0.000 C 
BRANCH  11  12
ATOM     12  C   UNL     1     -17.409   8.221  21.030  1.00  0.00     0.000 C 
BRANCH  12  13
ATOM     13  C   UNL     1     -16.890   7.283  22.133  1.00  0.00     0.006 C 
BRANCH  13  14
ATOM     14  C   UNL     1     -17.317   5.826  21.911  1.00  0.00     0.053 C 
BRANCH  14  15
ATOM     15  C   UNL     1     -16.273   5.044  21.175  1.00  0.00     0.041 C 
ATOM     16  O   UNL     1     -15.102   4.966  21.632  1.00  0.00    -0.550 OA
ATOM     17  O   UNL     1     -16.587   4.417  19.975  1.00  0.00    -0.550 OA
ENDBRANCH  14  15
ENDBRANCH  13  14
ENDBRANCH  12  13
ENDBRANCH  11  12
ENDBRANCH  10  11
ENDBRANCH   9  10
ENDBRANCH   8   9
ENDBRANCH   7   8
ENDBRANCH   6   7
ENDBRANCH   5   6
ENDBRANCH   4   5
ENDBRANCH   3   4
ENDBRANCH   2   3
ENDBRANCH   1   2
BRANCH   1  18
ATOM     18  C   UNL     1     -22.773   5.810  21.256  1.00  0.00     0.000 C 
BRANCH  18  19
ATOM     19  C   UNL     1     -22.837   4.563  20.363  1.00  0.00     0.000 C 
BRANCH  19  20
ATOM     20  C   UNL     1     -21.438   4.188  19.848  1.00  0.00     0.000 C 
BRANCH  20  21
ATOM     21  C   UNL     1     -20.342   4.406  20.903  1.00  0.00     0.000 C 
BRANCH  21  22
ATOM     22  C   UNL     1     -19.877   3.089  21.551  1.00  0.00     0.000 C 
BRANCH  22  23
ATOM     23  C   UNL     1     -19.801   3.181  23.084  1.00  0.00     0.000 C 
BRANCH  23  24
ATOM     24  C   UNL     1     -21.146   3.564  23.718  1.00  0.00    -0.000 C 
BRANCH  24  25
ATOM     25  C   UNL     1     -22.201   2.477  23.466  1.00  0.00    -0.000 C 
BRANCH  25  26
ATOM     26  C   UNL     1     -23.639   2.994  23.637  1.00  0.00    -0.000 C 
BRANCH  26  27
ATOM     27  C   UNL     1     -24.656   2.209  22.791  1.00  0.00    -0.000 C 
BRANCH  27  28
ATOM     28  C   UNL     1     -24.018   1.535  21.563  1.00  0.00    -0.000 C 
BRANCH  28  29
ATOM     29  C   UNL     1     -24.075  -0.004  21.563  1.00  0.00    -0.000 C 
BRANCH  29  30
ATOM     30  C   UNL     1     -23.097  -0.637  20.558  1.00  0.00    -0.000 C 
BRANCH  30  31
ATOM     31  C   UNL     1     -21.736   0.075  20.532  1.00  0.00    -0.003 C 
ATOM     32  C   UNL     1     -20.757  -0.492  21.560  1.00  0.00     0.004 C 
ENDBRANCH  30  31
ENDBRANCH  29  30
ENDBRANCH  28  29
ENDBRANCH  27  28
ENDBRANCH  26  27
ENDBRANCH  25  26
ENDBRANCH  24  25
ENDBRANCH  23  24
ENDBRANCH  22  23
ENDBRANCH  21  22
ENDBRANCH  20  21
ENDBRANCH  19  20
ENDBRANCH  18  19
ENDBRANCH   1  18
TORSDOF 28
ENDMDL
MODEL 6
REMARK VINA RESULT:    -3.450      2.062      7.294
REMARK INTER + INTRA:         -14.989
REMARK INTER:                  -9.288
REMARK INTRA:                  -5.702
REMARK UNBOUND:                -5.892
REMARK SMILES CCCCCCCCCCCCCCCCCCCCCCCCCCCCCC(=O)[O-]
REMARK SMILES IDX 16 1 17 2 18 3 19 4 20 5 21 6 22 7 23 8 24 9 25 10 26 11
REMARK SMILES IDX 27 12 28 13 29 14 30 15 31 16 32 17 15 18 14 19 13 20 12 21
REMARK SMILES IDX 11 22 10 23 9 24 8 25 7 26 6 27 5 28 4 29 3 30 2 31 1 32
REMARK H PARENT
REMARK Flexibility Score: inf
ROOT
ATOM      1  C   UNL     1     -23.915   6.824  21.020  1.00  0.00     0.000 C 
ENDROOT
BRANCH   1   2
ATOM      2  C   UNL     1     -23.166   5.529  21.373  1.00  0.00     0.000 C 
BRANCH   2   3
ATOM      3  C   UNL     1     -22.620   4.851  20.110  1.00  0.00     0.000 C 
BRANCH   3   4
ATOM      4  C   UNL     1     -22.239   3.389  20.389  1.00  0.00     0.000 C 
BRANCH   4   5
ATOM      5  C   UNL     1     -21.804   3.150  21.847  1.00  0.00     0.000 C 
BRANCH   5   6
ATOM      6  C   UNL     1     -20.729   2.061  22.043  1.00  0.00     0.000 C 
BRANCH   6   7
ATOM      7  C   UNL     1     -20.125   1.496  20.744  1.00  0.00     0.000 C 
BRANCH   7   8
ATOM      8  C   UNL     1     -20.652   0.097  20.399  1.00  0.00     0.000 C 
BRANCH   8   9
ATOM      9  C   UNL     1     -21.117  -0.640  21.660  1.00  0.00     0.000 C 
BRANCH   9  10
ATOM     10  C   UNL     1     -22.537  -1.197  21.486  1.00  0.00     0.000 C 
BRANCH  10  11
ATOM     11  C   UNL     1     -23.572  -0.109  21.150  1.00  0.00     0.000 C 
BRANCH  11  12
ATOM     12  C   UNL     1     -24.503   0.250  22.327  1.00  0.00     0.000 C 
BRANCH  12  13
ATOM     13  C   UNL     1     -25.016   1.698  22.239  1.00  0.00     0.006 C 
BRANCH  13  14
ATOM     14  C   UNL     1     -25.657   2.171  23.550  1.00  0.00     0.053 C 
BRANCH  14  15
ATOM     15  C   UNL     1     -24.884   3.290  24.178  1.00  0.00     0.041 C 
ATOM     16  O   UNL     1     -23.920   3.040  24.948  1.00  0.00    -0.550 OA
ATOM     17  O   UNL     1     -25.241   4.610  23.928  1.00  0.00    -0.550 OA
ENDBRANCH  14  15
ENDBRANCH  13  14
ENDBRANCH  12  13
ENDBRANCH  11  12
ENDBRANCH  10  11
ENDBRANCH   9  10
ENDBRANCH   8   9
ENDBRANCH   7   8
ENDBRANCH   6   7
ENDBRANCH   5   6
ENDBRANCH   4   5
ENDBRANCH   3   4
ENDBRANCH   2   3
ENDBRANCH   1   2
BRANCH   1  18
ATOM     18  C   UNL     1     -22.969   8.005  20.755  1.00  0.00     0.000 C 
BRANCH  18  19
ATOM     19  C   UNL     1     -23.098   8.566  19.332  1.00  0.00     0.000 C 
BRANCH  19  20
ATOM     20  C   UNL     1     -21.940   8.080  18.447  1.00  0.00     0.000 C 
BRANCH  20  21
ATOM     21  C   UNL     1     -22.393   7.066  17.383  1.00  0.00     0.000 C 
BRANCH  21  22
ATOM     22  C   UNL     1     -21.221   6.251  16.809  1.00  0.00     0.000 C 
BRANCH  22  23
ATOM     23  C   UNL     1     -20.008   6.216  17.754  1.00  0.00     0.000 C 
BRANCH  23  24
ATOM     24  C   UNL     1     -18.678   6.423  17.014  1.00  0.00    -0.000 C 
BRANCH  24  25
ATOM     25  C   UNL     1     -17.605   6.983  17.959  1.00  0.00    -0.000 C 
BRANCH  25  26
ATOM     26  C   UNL     1     -18.154   8.061  18.908  1.00  0.00    -0.000 C 
BRANCH  26  27
ATOM     27  C   UNL     1     -18.003   7.678  20.390  1.00  0.00    -0.000 C 
BRANCH  27  28
ATOM     28  C   UNL     1     -19.355   7.519  21.108  1.00  0.00    -0.000 C 
BRANCH  28  29
ATOM     29  C   UNL     1     -19.563   6.165  21.811  1.00  0.00    -0.000 C 
BRANCH  29  30
ATOM     30  C   UNL     1     -18.701   5.042  21.209  1.00  0.00    -0.000 C 
BRANCH  30  31
ATOM     31  C   UNL     1     -17.803   4.364  22.255  1.00  0.00    -0.003 C 
ATOM     32  C   UNL     1     -18.390   4.430  23.665  1.00  0.00     0.004 C 
ENDBRANCH  30  31
ENDBRANCH  29  30
ENDBRANCH  28  29
ENDBRANCH  27  28
ENDBRANCH  26  27
ENDBRANCH  25  26
ENDBRANCH  24  25
ENDBRANCH  23  24
ENDBRANCH  22  23
ENDBRANCH  21  22
ENDBRANCH  20  21
ENDBRANCH  19  20
ENDBRANCH  18  19
ENDBRANCH   1  18
TORSDOF 28
ENDMDL
MODEL 7
REMARK VINA RESULT:    -3.436      2.303      7.927
REMARK INTER + INTRA:         -14.952
REMARK INTER:                  -9.575
REMARK INTRA:                  -5.377
REMARK UNBOUND:                -5.892
REMARK SMILES CCCCCCCCCCCCCCCCCCCCCCCCCCCCCC(=O)[O-]
REMARK SMILES IDX 16 1 17 2 18 3 19 4 20 5 21 6 22 7 23 8 24 9 25 10 26 11
REMARK SMILES IDX 27 12 28 13 29 14 30 15 31 16 32 17 15 18 14 19 13 20 12 21
REMARK SMILES IDX 11 22 10 23 9 24 8 25 7 26 6 27 5 28 4 29 3 30 2 31 1 32
REMARK H PARENT
REMARK Flexibility Score: inf
ROOT
ATOM      1  C   UNL     1     -19.596   3.934  21.725  1.00  0.00     0.000 C 
ENDROOT
BRANCH   1   2
ATOM      2  C   UNL     1     -20.344   3.386  22.951  1.00  0.00     0.000 C 
BRANCH   2   3
ATOM      3  C   UNL     1     -20.511   1.864  22.854  1.00  0.00     0.000 C 
BRANCH   3   4
ATOM      4  C   UNL     1     -20.212   1.365  21.432  1.00  0.00     0.000 C 
BRANCH   4   5
ATOM      5  C   UNL     1     -21.485   1.013  20.641  1.00  0.00     0.000 C 
BRANCH   5   6
ATOM      6  C   UNL     1     -22.119  -0.351  20.987  1.00  0.00     0.000 C 
BRANCH   6   7
ATOM      7  C   UNL     1     -23.656  -0.356  21.071  1.00  0.00     0.000 C 
BRANCH   7   8
ATOM      8  C   UNL     1     -24.231   0.972  21.579  1.00  0.00     0.000 C 
BRANCH   8   9
ATOM      9  C   UNL     1     -24.805   0.816  22.992  1.00  0.00     0.000 C 
BRANCH   9  10
ATOM     10  C   UNL     1     -24.019   1.658  24.007  1.00  0.00     0.000 C 
BRANCH  10  11
ATOM     11  C   UNL     1     -23.895   3.135  23.593  1.00  0.00     0.000 C 
BRANCH  11  12
ATOM     12  C   UNL     1     -25.197   3.945  23.776  1.00  0.00     0.000 C 
BRANCH  12  13
ATOM     13  C   UNL     1     -25.616   4.042  25.253  1.00  0.00     0.006 C 
BRANCH  13  14
ATOM     14  C   UNL     1     -24.537   4.703  26.122  1.00  0.00     0.053 C 
BRANCH  14  15
ATOM     15  C   UNL     1     -24.087   3.803  27.232  1.00  0.00     0.041 C 
ATOM     16  O   UNL     1     -24.795   2.821  27.578  1.00  0.00    -0.550 OA
ATOM     17  O   UNL     1     -22.894   4.061  27.899  1.00  0.00    -0.550 OA
ENDBRANCH  14  15
ENDBRANCH  13  14
ENDBRANCH  12  13
ENDBRANCH  11  12
ENDBRANCH  10  11
ENDBRANCH   9  10
ENDBRANCH   8   9
ENDBRANCH   7   8
ENDBRANCH   6   7
ENDBRANCH   5   6
ENDBRANCH   4   5
ENDBRANCH   3   4
ENDBRANCH   2   3
ENDBRANCH   1   2
BRANCH   1  18
ATOM     18  C   UNL     1     -20.359   5.066  21.020  1.00  0.00     0.000 C 
BRANCH  18  19
ATOM     19  C   UNL     1     -21.312   4.555  19.930  1.00  0.00     0.000 C 
BRANCH  19  20
ATOM     20  C   UNL     1     -22.777   4.733  20.358  1.00  0.00     0.000 C 
BRANCH  20  21
ATOM     21  C   UNL     1     -22.952   5.827  21.425  1.00  0.00     0.000 C 
BRANCH  21  22
ATOM     22  C   UNL     1     -24.103   6.794  21.094  1.00  0.00     0.000 C 
BRANCH  22  23
ATOM     23  C   UNL     1     -23.693   7.872  20.077  1.00  0.00     0.000 C 
BRANCH  23  24
ATOM     24  C   UNL     1     -22.233   8.316  20.244  1.00  0.00    -0.000 C 
BRANCH  24  25
ATOM     25  C   UNL     1     -21.559   8.514  18.878  1.00  0.00    -0.000 C 
BRANCH  25  26
ATOM     26  C   UNL     1     -21.957   7.435  17.858  1.00  0.00    -0.000 C 
BRANCH  26  27
ATOM     27  C   UNL     1     -21.174   7.549  16.539  1.00  0.00    -0.000 C 
BRANCH  27  28
ATOM     28  C   UNL     1     -20.176   6.395  16.334  1.00  0.00    -0.000 C 
BRANCH  28  29
ATOM     29  C   UNL     1     -18.732   6.698  16.773  1.00  0.00    -0.000 C 
BRANCH  29  30
ATOM     30  C   UNL     1     -18.197   5.687  17.803  1.00  0.00    -0.000 C 
BRANCH  30  31
ATOM     31  C   UNL     1     -17.675   6.366  19.078  1.00  0.00    -0.003 C 
ATOM     32  C   UNL     1     -17.939   7.872  19.093  1.00  0.00     0.004 C 
ENDBRANCH  30  31
ENDBRANCH  29  30
ENDBRANCH  28  29
ENDBRANCH  27  28
ENDBRANCH  26  27
ENDBRANCH  25  26
ENDBRANCH  24  25
ENDBRANCH  23  24
ENDBRANCH  22  23
ENDBRANCH  21  22
ENDBRANCH  20  21
ENDBRANCH  19  20
ENDBRANCH  18  19
ENDBRANCH   1  18
TORSDOF 28
ENDMDL
MODEL 8
REMARK VINA RESULT:    -3.429      1.315      6.998
REMARK INTER + INTRA:         -14.934
REMARK INTER:                  -8.966
REMARK INTRA:                  -5.968
REMARK UNBOUND:                -5.892
REMARK SMILES CCCCCCCCCCCCCCCCCCCCCCCCCCCCCC(=O)[O-]
REMARK SMILES IDX 16 1 17 2 18 3 19 4 20 5 21 6 22 7 23 8 24 9 25 10 26 11
REMARK SMILES IDX 27 12 28 13 29 14 30 15 31 16 32 17 15 18 14 19 13 20 12 21
REMARK SMILES IDX 11 22 10 23 9 24 8 25 7 26 6 27 5 28 4 29 3 30 2 31 1 32
REMARK H PARENT
REMARK Flexibility Score: inf
ROOT
ATOM      1  C   UNL     1     -20.751   3.656  22.206  1.00  0.00     0.000 C 
ENDROOT
BRANCH   1   2
ATOM      2  C   UNL     1     -21.111   2.868  23.476  1.00  0.00     0.000 C 
BRANCH   2   3
ATOM      3  C   UNL     1     -21.606   3.808  24.582  1.00  0.00     0.000 C 
BRANCH   3   4
ATOM      4  C   UNL     1     -23.141   3.866  24.612  1.00  0.00     0.000 C 
BRANCH   4   5
ATOM      5  C   UNL     1     -23.799   2.551  24.154  1.00  0.00     0.000 C 
BRANCH   5   6
ATOM      6  C   UNL     1     -24.885   2.702  23.068  1.00  0.00     0.000 C 
BRANCH   6   7
ATOM      7  C   UNL     1     -24.769   1.723  21.885  1.00  0.00     0.000 C 
BRANCH   7   8
ATOM      8  C   UNL     1     -24.388   0.302  22.321  1.00  0.00     0.000 C 
BRANCH   8   9
ATOM      9  C   UNL     1     -23.424  -0.339  21.317  1.00  0.00     0.000 C 
BRANCH   9  10
ATOM     10  C   UNL     1     -22.308  -1.112  22.035  1.00  0.00     0.000 C 
BRANCH  10  11
ATOM     11  C   UNL     1     -20.913  -0.506  21.804  1.00  0.00     0.000 C 
BRANCH  11  12
ATOM     12  C   UNL     1     -20.639  -0.111  20.338  1.00  0.00     0.000 C 
BRANCH  12  13
ATOM     13  C   UNL     1     -19.172   0.292  20.111  1.00  0.00     0.006 C 
BRANCH  13  14
ATOM     14  C   UNL     1     -18.258  -0.166  21.256  1.00  0.00     0.053 C 
BRANCH  14  15
ATOM     15  C   UNL     1     -17.391   0.948  21.757  1.00  0.00     0.041 C 
ATOM     16  O   UNL     1     -16.297   1.204  21.188  1.00  0.00    -0.550 OA
ATOM     17  O   UNL     1     -17.781   1.692  22.865  1.00  0.00    -0.550 OA
ENDBRANCH  14  15
ENDBRANCH  13  14
ENDBRANCH  12  13
ENDBRANCH  11  12
ENDBRANCH  10  11
ENDBRANCH   9  10
ENDBRANCH   8   9
ENDBRANCH   7   8
ENDBRANCH   6   7
ENDBRANCH   5   6
ENDBRANCH   4   5
ENDBRANCH   3   4
ENDBRANCH   2   3
ENDBRANCH   1   2
BRANCH   1  18
ATOM     18  C   UNL     1     -21.526   3.178  20.969  1.00  0.00     0.000 C 
BRANCH  18  19
ATOM     19  C   UNL     1     -22.540   4.215  20.463  1.00  0.00     0.000 C 
BRANCH  19  20
ATOM     20  C   UNL     1     -22.472   5.500  21.303  1.00  0.00     0.000 C 
BRANCH  20  21
ATOM     21  C   UNL     1     -23.814   6.251  21.344  1.00  0.00     0.000 C 
BRANCH  21  22
ATOM     22  C   UNL     1     -23.722   7.654  20.721  1.00  0.00     0.000 C 
BRANCH  22  23
ATOM     23  C   UNL     1     -22.272   8.084  20.446  1.00  0.00     0.000 C 
BRANCH  23  24
ATOM     24  C   UNL     1     -22.031   8.434  18.970  1.00  0.00    -0.000 C 
BRANCH  24  25
ATOM     25  C   UNL     1     -22.790   7.470  18.046  1.00  0.00    -0.000 C 
BRANCH  25  26
ATOM     26  C   UNL     1     -21.872   6.420  17.400  1.00  0.00    -0.000 C 
BRANCH  26  27
ATOM     27  C   UNL     1     -20.763   7.051  16.541  1.00  0.00    -0.000 C 
BRANCH  27  28
ATOM     28  C   UNL     1     -19.358   6.538  16.906  1.00  0.00    -0.000 C 
BRANCH  28  29
ATOM     29  C   UNL     1     -18.676   7.283  18.068  1.00  0.00    -0.000 C 
BRANCH  29  30
ATOM     30  C   UNL     1     -18.685   6.479  19.380  1.00  0.00    -0.000 C 
BRANCH  30  31
ATOM     31  C   UNL     1     -18.997   4.991  19.156  1.00  0.00    -0.003 C 
ATOM     32  C   UNL     1     -17.932   4.071  19.750  1.00  0.00     0.004 C 
ENDBRANCH  30  31
ENDBRANCH  29  30
ENDBRANCH  28  29
ENDBRANCH  27  28
ENDBRANCH  26  27
ENDBRANCH  25  26
ENDBRANCH  24  25
ENDBRANCH  23  24
ENDBRANCH  22  23
ENDBRANCH  21  22
ENDBRANCH  20  21
ENDBRANCH  19  20
ENDBRANCH  18  19
ENDBRANCH   1  18
TORSDOF 28
ENDMDL
MODEL 9
REMARK VINA RESULT:    -3.425      2.301      7.922
REMARK INTER + INTRA:         -14.924
REMARK INTER:                  -9.227
REMARK INTRA:                  -5.698
REMARK UNBOUND:                -5.892
REMARK SMILES CCCCCCCCCCCCCCCCCCCCCCCCCCCCCC(=O)[O-]
REMARK SMILES IDX 16 1 17 2 18 3 19 4 20 5 21 6 22 7 23 8 24 9 25 10 26 11
REMARK SMILES IDX 27 12 28 13 29 14 30 15 31 16 32 17 15 18 14 19 13 20 12 21
REMARK SMILES IDX 11 22 10 23 9 24 8 25 7 26 6 27 5 28 4 29 3 30 2 31 1 32
REMARK H PARENT
REMARK Flexibility Score: inf
ROOT
ATOM      1  C   UNL     1     -21.768   3.895  20.052  1.00  0.00     0.000 C 
ENDROOT
BRANCH   1   2
ATOM      2  C   UNL     1     -21.049   3.366  21.303  1.00  0.00     0.000 C 
BRANCH   2   3
ATOM      3  C   UNL     1     -19.680   2.776  20.939  1.00  0.00     0.000 C 
BRANCH   3   4
ATOM      4  C   UNL     1     -18.703   2.879  22.119  1.00  0.00     0.000 C 
BRANCH   4   5
ATOM      5  C   UNL     1     -18.530   1.547  22.873  1.00  0.00     0.000 C 
BRANCH   5   6
ATOM      6  C   UNL     1     -19.461   1.354  24.088  1.00  0.00     0.000 C 
BRANCH   6   7
ATOM      7  C   UNL     1     -20.730   0.525  23.815  1.00  0.00     0.000 C 
BRANCH   7   8
ATOM      8  C   UNL     1     -20.436  -0.799  23.098  1.00  0.00     0.000 C 
BRANCH   8   9
ATOM      9  C   UNL     1     -21.619  -1.220  22.218  1.00  0.00     0.000 C 
BRANCH   9  10
ATOM     10  C   UNL     1     -21.689  -0.373  20.939  1.00  0.00     0.000 C 
BRANCH  10  11
ATOM     11  C   UNL     1     -23.092   0.199  20.674  1.00  0.00     0.000 C 
BRANCH  11  12
ATOM     12  C   UNL     1     -23.960   0.337  21.943  1.00  0.00     0.000 C 
BRANCH  12  13
ATOM     13  C   UNL     1     -24.622   1.722  22.043  1.00  0.00     0.006 C 
BRANCH  13  14
ATOM     14  C   UNL     1     -24.123   2.521  23.254  1.00  0.00     0.053 C 
BRANCH  14  15
ATOM     15  C   UNL     1     -25.245   2.916  24.164  1.00  0.00     0.041 C 
ATOM     16  O   UNL     1     -26.125   2.075  24.487  1.00  0.00    -0.550 OA
ATOM     17  O   UNL     1     -25.332   4.219  24.641  1.00  0.00    -0.550 OA
ENDBRANCH  14  15
ENDBRANCH  13  14
ENDBRANCH  12  13
ENDBRANCH  11  12
ENDBRANCH  10  11
ENDBRANCH   9  10
ENDBRANCH   8   9
ENDBRANCH   7   8
ENDBRANCH   6   7
ENDBRANCH   5   6
ENDBRANCH   4   5
ENDBRANCH   3   4
ENDBRANCH   2   3
ENDBRANCH   1   2
BRANCH   1  18
ATOM     18  C   UNL     1     -23.124   4.542  20.374  1.00  0.00     0.000 C 
BRANCH  18  19
ATOM     19  C   UNL     1     -23.025   5.630  21.452  1.00  0.00     0.000 C 
BRANCH  19  20
ATOM     20  C   UNL     1     -23.831   6.875  21.047  1.00  0.00     0.000 C 
BRANCH  20  21
ATOM     21  C   UNL     1     -22.935   8.029  20.568  1.00  0.00     0.000 C 
BRANCH  21  22
ATOM     22  C   UNL     1     -23.127   8.342  19.074  1.00  0.00     0.000 C 
BRANCH  22  23
ATOM     23  C   UNL     1     -21.986   7.786  18.204  1.00  0.00     0.000 C 
BRANCH  23  24
ATOM     24  C   UNL     1     -22.375   6.487  17.483  1.00  0.00    -0.000 C 
BRANCH  24  25
ATOM     25  C   UNL     1     -21.353   6.139  16.391  1.00  0.00    -0.000 C 
BRANCH  25  26
ATOM     26  C   UNL     1     -20.151   7.098  16.375  1.00  0.00    -0.000 C 
BRANCH  26  27
ATOM     27  C   UNL     1     -18.803   6.358  16.326  1.00  0.00    -0.000 C 
BRANCH  27  28
ATOM     28  C   UNL     1     -17.810   6.853  17.393  1.00  0.00    -0.000 C 
BRANCH  28  29
ATOM     29  C   UNL     1     -18.456   7.363  18.695  1.00  0.00    -0.000 C 
BRANCH  29  30
ATOM     30  C   UNL     1     -18.841   6.225  19.656  1.00  0.00    -0.000 C 
BRANCH  30  31
ATOM     31  C   UNL     1     -19.555   6.735  20.917  1.00  0.00    -0.003 C 
ATOM     32  C   UNL     1     -19.326   8.227  21.159  1.00  0.00     0.004 C 
ENDBRANCH  30  31
ENDBRANCH  29  30
ENDBRANCH  28  29
ENDBRANCH  27  28
ENDBRANCH  26  27
ENDBRANCH  25  26
ENDBRANCH  24  25
ENDBRANCH  23  24
ENDBRANCH  22  23
ENDBRANCH  21  22
ENDBRANCH  20  21
ENDBRANCH  19  20
ENDBRANCH  18  19
ENDBRANCH   1  18
TORSDOF 28
ENDMDL
