MODEL 1
REMARK VINA RESULT:    -4.333      0.000      0.000
REMARK INTER + INTRA:         -12.113
REMARK INTER:                  -9.147
REMARK INTRA:                  -2.967
REMARK UNBOUND:                -2.967
REMARK SMILES CCC(=O)CCCCC[C@H]1NC(=O)[C@@H]2CCCCN2C(=O)[C@@H]([C@H](C)CC)NC(=O)[C@H](Cc2cn(OC)c3ccccc23)NC1=O
REMARK SMILES IDX 9 1 10 2 44 3 43 4 45 6 30 7 28 8 27 9 29 11 22 12 23 14
REMARK SMILES IDX 24 15 25 16 26 17 31 18 32 19 33 20 42 21 34 22 37 23 41 24
REMARK SMILES IDX 38 25 40 26 39 27 35 28 36 29 11 30 12 31 13 33 14 34 19 35
REMARK SMILES IDX 15 36 18 37 16 38 17 39 20 40 21 41 8 43 7 44 6 45 5 46 3 47
REMARK SMILES IDX 4 48 2 49 1 50
REMARK H PARENT 43 5 27 10 11 32
REMARK Flexibility Score: 80.00
ROOT
ATOM      1  C   UNL     1      60.435  22.039  51.509  1.00  0.00     0.035 C 
ENDROOT
BRANCH   1   2
ATOM      2  C   UNL     1      60.297  23.411  50.824  1.00  0.00     0.171 C 
BRANCH   2   3
ATOM      3  C   UNL     1      61.507  24.265  51.082  1.00  0.00     0.243 C 
ATOM      4  N   UNL     1      61.991  25.156  50.067  1.00  0.00    -0.342 N 
ATOM      5  H   UNL     1      61.648  24.998  49.094  1.00  0.00     0.164 HD
ATOM      6  O   UNL     1      62.052  24.249  52.220  1.00  0.00    -0.273 OA
BRANCH   4   7
ATOM      7  C   UNL     1      62.465  26.497  50.414  1.00  0.00     0.175 C 
BRANCH   7   8
ATOM      8  C   UNL     1      61.274  27.419  50.501  1.00  0.00     0.243 C 
ATOM      9  N   UNL     1      60.731  27.736  51.791  1.00  0.00    -0.342 N 
ATOM     10  H   UNL     1      61.310  27.526  52.636  1.00  0.00     0.164 HD
ATOM     11  O   UNL     1      60.672  27.795  49.459  1.00  0.00    -0.273 OA
BRANCH   9  12
ATOM     12  C   UNL     1      59.368  28.252  51.958  1.00  0.00     0.174 CG0
ATOM     13  G   UNL     1      58.445  27.142  52.420  1.00  0.00     0.000 G0
BRANCH  12  14
ATOM     14  C   UNL     1      59.368  29.499  52.887  1.00  0.00     0.018 C 
ATOM     15  C   UNL     1      58.405  30.599  52.401  1.00  0.00     0.010 C 
BRANCH  14  16
ATOM     16  C   UNL     1      60.800  30.047  53.095  1.00  0.00     0.002 C 
ATOM     17  C   UNL     1      60.920  31.533  52.753  1.00  0.00     0.004 C 
ENDBRANCH  14  16
ENDBRANCH  12  14
ENDBRANCH   9  12
ENDBRANCH   7   8
BRANCH   7  18
ATOM     18  C   UNL     1      63.592  26.973  49.466  1.00  0.00     0.073 C 
BRANCH  18  19
ATOM     19  C   UNL     1      64.469  28.071  50.010  1.00  0.00    -0.016 A 
ATOM     20  C   UNL     1      65.687  27.915  50.669  1.00  0.00     0.134 A 
ATOM     21  C   UNL     1      64.216  29.436  50.009  1.00  0.00     0.006 A 
ATOM     22  N   UNL     1      66.169  29.127  51.039  1.00  0.00    -0.191 N 
ATOM     23  C   UNL     1      65.273  30.042  50.641  1.00  0.00     0.087 A 
ATOM     24  C   UNL     1      63.146  30.176  49.504  1.00  0.00     0.011 A 
ATOM     25  C   UNL     1      65.334  31.427  50.808  1.00  0.00     0.030 A 
ATOM     26  C   UNL     1      63.181  31.574  49.656  1.00  0.00     0.001 A 
ATOM     27  C   UNL     1      64.270  32.196  50.306  1.00  0.00     0.002 A 
BRANCH  22  28
ATOM     28  O   UNL     1      67.352  29.397  51.703  1.00  0.00    -0.417 OA
ATOM     29  C   UNL     1      68.395  30.159  51.118  1.00  0.00     0.313 C 
ENDBRANCH  22  28
ENDBRANCH  18  19
ENDBRANCH   7  18
ENDBRANCH   4   7
ENDBRANCH   2   3
BRANCH   2  30
ATOM     30  N   UNL     1      59.106  24.109  51.314  1.00  0.00    -0.343 N 
ATOM     31  C   UNL     1      58.322  24.981  50.485  1.00  0.00     0.243 C 
ATOM     32  H   UNL     1      58.868  24.039  52.327  1.00  0.00     0.164 HD
ATOM     33  O   UNL     1      58.703  25.250  49.313  1.00  0.00    -0.273 OA
BRANCH  31  34
ATOM     34  C   UNL     1      57.027  25.564  51.009  1.00  0.00     0.174 C 
ATOM     35  N   UNL     1      57.207  26.860  51.700  1.00  0.00    -0.329 N 
ATOM     36  C   UNL     1      56.020  25.718  49.852  1.00  0.00     0.035 C 
ATOM     37  C   UNL     1      55.984  27.528  52.167  1.00  0.00     0.120 C 
ATOM     38  C   UNL     1      54.717  26.359  50.339  1.00  0.00     0.004 C 
ATOM     39  C   UNL     1      54.999  27.704  51.012  1.00  0.00     0.022 C 
BRANCH  35  40
ATOM     40  C   UNL     1      58.415  27.146  52.425  1.00  0.00     0.246 CG0
ATOM     41  O   UNL     1      58.676  26.492  53.470  1.00  0.00    -0.272 OA
ATOM     42  G   UNL     1      59.355  28.239  51.959  1.00  0.00     0.000 G0
ENDBRANCH  35  40
ENDBRANCH  31  34
ENDBRANCH   2  30
ENDBRANCH   1   2
BRANCH   1  43
ATOM     43  C   UNL     1      60.987  20.982  50.540  1.00  0.00     0.003 C 
BRANCH  43  44
ATOM     44  C   UNL     1      60.444  19.575  50.829  1.00  0.00     0.001 C 
BRANCH  44  45
ATOM     45  C   UNL     1      59.461  19.095  49.747  1.00  0.00     0.008 C 
BRANCH  45  46
ATOM     46  C   UNL     1      58.657  17.865  50.197  1.00  0.00     0.075 C 
BRANCH  46  47
ATOM     47  C   UNL     1      57.328  18.203  50.835  1.00  0.00     0.132 C 
ATOM     48  O   UNL     1      56.345  18.426  50.145  1.00  0.00    -0.300 OA
BRANCH  47  49
ATOM     49  C   UNL     1      57.218  18.321  52.333  1.00  0.00     0.072 C 
ATOM     50  C   UNL     1      58.333  17.545  53.028  1.00  0.00     0.012 C 
ENDBRANCH  47  49
ENDBRANCH  46  47
ENDBRANCH  45  46
ENDBRANCH  44  45
ENDBRANCH  43  44
ENDBRANCH   1  43
TORSDOF 12
ENDMDL
MODEL 2
REMARK VINA RESULT:    -4.274      8.248     12.995
REMARK INTER + INTRA:         -11.988
REMARK INTER:                  -8.351
REMARK INTRA:                  -3.637
REMARK UNBOUND:                -2.967
REMARK SMILES CCC(=O)CCCCC[C@H]1NC(=O)[C@@H]2CCCCN2C(=O)[C@@H]([C@H](C)CC)NC(=O)[C@H](Cc2cn(OC)c3ccccc23)NC1=O
REMARK SMILES IDX 9 1 10 2 44 3 43 4 45 6 30 7 28 8 27 9 29 11 22 12 23 14
REMARK SMILES IDX 24 15 25 16 26 17 31 18 32 19 33 20 42 21 34 22 37 23 41 24
REMARK SMILES IDX 38 25 40 26 39 27 35 28 36 29 11 30 12 31 13 33 14 34 19 35
REMARK SMILES IDX 15 36 18 37 16 38 17 39 20 40 21 41 8 43 7 44 6 45 5 46 3 47
REMARK SMILES IDX 4 48 2 49 1 50
REMARK H PARENT 43 5 27 10 11 32
REMARK Flexibility Score: 80.00
ROOT
ATOM      1  C   UNL     1      68.212  28.881  60.065  1.00  0.00     0.035 C 
ENDROOT
BRANCH   1   2
ATOM      2  C   UNL     1      66.782  29.176  60.556  1.00  0.00     0.171 C 
BRANCH   2   3
ATOM      3  C   UNL     1      65.859  28.032  60.242  1.00  0.00     0.243 C 
ATOM      4  N   UNL     1      64.790  27.700  61.140  1.00  0.00    -0.342 N 
ATOM      5  H   UNL     1      64.841  28.095  62.105  1.00  0.00     0.164 HD
ATOM      6  O   UNL     1      65.983  27.410  59.152  1.00  0.00    -0.273 OA
BRANCH   4   7
ATOM      7  C   UNL     1      63.472  27.325  60.626  1.00  0.00     0.175 C 
BRANCH   7   8
ATOM      8  C   UNL     1      62.665  28.581  60.409  1.00  0.00     0.243 C 
ATOM      9  N   UNL     1      62.489  29.074  59.073  1.00  0.00    -0.342 N 
ATOM     10  H   UNL     1      62.708  28.432  58.276  1.00  0.00     0.164 HD
ATOM     11  O   UNL     1      62.270  29.270  61.388  1.00  0.00    -0.273 OA
BRANCH   9  12
ATOM     12  C   UNL     1      62.107  30.463  58.799  1.00  0.00     0.174 CG0
ATOM     13  G   UNL     1      63.328  31.270  58.405  1.00  0.00     0.000 G0
BRANCH  12  14
ATOM     14  C   UNL     1      60.954  30.515  57.757  1.00  0.00     0.018 C 
ATOM     15  C   UNL     1      59.791  31.421  58.205  1.00  0.00     0.010 C 
BRANCH  14  16
ATOM     16  C   UNL     1      60.461  29.095  57.390  1.00  0.00     0.002 C 
ATOM     17  C   UNL     1      59.180  28.706  58.127  1.00  0.00     0.004 C 
ENDBRANCH  14  16
ENDBRANCH  12  14
ENDBRANCH   9  12
ENDBRANCH   7   8
BRANCH   7  18
ATOM     18  C   UNL     1      62.790  26.255  61.514  1.00  0.00     0.073 C 
BRANCH  18  19
ATOM     19  C   UNL     1      61.340  25.989  61.202  1.00  0.00    -0.016 A 
ATOM     20  C   UNL     1      60.282  25.981  62.108  1.00  0.00     0.134 A 
ATOM     21  C   UNL     1      60.786  25.650  59.975  1.00  0.00     0.006 A 
ATOM     22  N   UNL     1      59.129  25.672  61.466  1.00  0.00    -0.191 N 
ATOM     23  C   UNL     1      59.441  25.468  60.178  1.00  0.00     0.087 A 
ATOM     24  C   UNL     1      61.362  25.492  58.714  1.00  0.00     0.011 A 
ATOM     25  C   UNL     1      58.581  25.119  59.135  1.00  0.00     0.030 A 
ATOM     26  C   UNL     1      60.519  25.143  57.644  1.00  0.00     0.001 A 
ATOM     27  C   UNL     1      59.136  24.957  57.854  1.00  0.00     0.002 A 
BRANCH  22  28
ATOM     28  O   UNL     1      57.860  25.573  62.011  1.00  0.00    -0.417 OA
ATOM     29  C   UNL     1      57.006  26.696  62.154  1.00  0.00     0.313 C 
ENDBRANCH  22  28
ENDBRANCH  18  19
ENDBRANCH   7  18
ENDBRANCH   4   7
ENDBRANCH   2   3
BRANCH   2  30
ATOM     30  N   UNL     1      66.266  30.393  59.924  1.00  0.00    -0.343 N 
ATOM     31  C   UNL     1      65.321  31.261  60.568  1.00  0.00     0.243 C 
ATOM     32  H   UNL     1      66.530  30.591  58.934  1.00  0.00     0.164 HD
ATOM     33  O   UNL     1      64.825  30.938  61.682  1.00  0.00    -0.273 OA
BRANCH  31  34
ATOM     34  C   UNL     1      64.932  32.573  59.920  1.00  0.00     0.174 C 
ATOM     35  N   UNL     1      63.697  32.481  59.109  1.00  0.00    -0.329 N 
ATOM     36  C   UNL     1      64.774  33.660  61.001  1.00  0.00     0.035 C 
ATOM     37  C   UNL     1      63.210  33.733  58.514  1.00  0.00     0.120 C 
ATOM     38  C   UNL     1      64.324  34.988  60.384  1.00  0.00     0.004 C 
ATOM     39  C   UNL     1      63.028  34.800  59.592  1.00  0.00     0.022 C 
BRANCH  35  40
ATOM     40  C   UNL     1      63.357  31.265  58.422  1.00  0.00     0.246 CG0
ATOM     41  O   UNL     1      64.088  30.866  57.477  1.00  0.00    -0.272 OA
ATOM     42  G   UNL     1      62.120  30.480  58.808  1.00  0.00     0.000 G0
ENDBRANCH  35  40
ENDBRANCH  31  34
ENDBRANCH   2  30
ENDBRANCH   1   2
BRANCH   1  43
ATOM     43  C   UNL     1      68.539  29.668  58.788  1.00  0.00     0.003 C 
BRANCH  43  44
ATOM     44  C   UNL     1      69.164  28.788  57.695  1.00  0.00     0.001 C 
BRANCH  44  45
ATOM     45  C   UNL     1      70.335  27.943  58.226  1.00  0.00     0.008 C 
BRANCH  45  46
ATOM     46  C   UNL     1      71.693  28.630  58.006  1.00  0.00     0.075 C 
BRANCH  46  47
ATOM     47  C   UNL     1      72.414  28.982  59.289  1.00  0.00     0.132 C 
ATOM     48  O   UNL     1      73.453  28.416  59.593  1.00  0.00    -0.300 OA
BRANCH  47  49
ATOM     49  C   UNL     1      71.825  29.998  60.232  1.00  0.00     0.072 C 
ATOM     50  C   UNL     1      72.475  29.911  61.609  1.00  0.00     0.012 C 
ENDBRANCH  47  49
ENDBRANCH  46  47
ENDBRANCH  45  46
ENDBRANCH  44  45
ENDBRANCH  43  44
ENDBRANCH   1  43
TORSDOF 12
ENDMDL
MODEL 3
REMARK VINA RESULT:    -4.262      8.369     13.156
REMARK INTER + INTRA:         -11.963
REMARK INTER:                  -8.767
REMARK INTRA:                  -3.195
REMARK UNBOUND:                -2.967
REMARK SMILES CCC(=O)CCCCC[C@H]1NC(=O)[C@@H]2CCCCN2C(=O)[C@@H]([C@H](C)CC)NC(=O)[C@H](Cc2cn(OC)c3ccccc23)NC1=O
REMARK SMILES IDX 9 1 10 2 44 3 43 4 45 6 30 7 28 8 27 9 29 11 22 12 23 14
REMARK SMILES IDX 24 15 25 16 26 17 31 18 32 19 33 20 42 21 34 22 37 23 41 24
REMARK SMILES IDX 38 25 40 26 39 27 35 28 36 29 11 30 12 31 13 33 14 34 19 35
REMARK SMILES IDX 15 36 18 37 16 38 17 39 20 40 21 41 8 43 7 44 6 45 5 46 3 47
REMARK SMILES IDX 4 48 2 49 1 50
REMARK H PARENT 43 5 27 10 11 32
REMARK Flexibility Score: 80.00
ROOT
ATOM      1  C   UNL     1      67.371  27.547  59.908  1.00  0.00     0.035 C 
ENDROOT
BRANCH   1   2
ATOM      2  C   UNL     1      66.095  28.164  60.511  1.00  0.00     0.171 C 
BRANCH   2   3
ATOM      3  C   UNL     1      64.914  27.255  60.312  1.00  0.00     0.243 C 
ATOM      4  N   UNL     1      63.861  27.217  61.285  1.00  0.00    -0.342 N 
ATOM      5  H   UNL     1      64.067  27.626  62.224  1.00  0.00     0.164 HD
ATOM      6  O   UNL     1      64.817  26.580  59.251  1.00  0.00    -0.273 OA
BRANCH   4   7
ATOM      7  C   UNL     1      62.460  27.140  60.869  1.00  0.00     0.175 C 
BRANCH   7   8
ATOM      8  C   UNL     1      61.962  28.538  60.598  1.00  0.00     0.243 C 
ATOM      9  N   UNL     1      61.846  28.985  59.239  1.00  0.00    -0.342 N 
ATOM     10  H   UNL     1      61.871  28.267  58.479  1.00  0.00     0.164 HD
ATOM     11  O   UNL     1      61.784  29.353  61.543  1.00  0.00    -0.273 OA
BRANCH   9  12
ATOM     12  C   UNL     1      61.788  30.408  58.890  1.00  0.00     0.174 CG0
ATOM     13  G   UNL     1      63.161  30.899  58.479  1.00  0.00     0.000 G0
BRANCH  12  14
ATOM     14  C   UNL     1      60.683  30.663  57.826  1.00  0.00     0.018 C 
ATOM     15  C   UNL     1      59.704  31.776  58.244  1.00  0.00     0.010 C 
BRANCH  14  16
ATOM     16  C   UNL     1      59.939  29.357  57.461  1.00  0.00     0.002 C 
ATOM     17  C   UNL     1      58.471  29.374  57.889  1.00  0.00     0.004 C 
ENDBRANCH  14  16
ENDBRANCH  12  14
ENDBRANCH   9  12
ENDBRANCH   7   8
BRANCH   7  18
ATOM     18  C   UNL     1      61.605  26.323  61.868  1.00  0.00     0.073 C 
BRANCH  18  19
ATOM     19  C   UNL     1      60.391  25.653  61.280  1.00  0.00    -0.016 A 
ATOM     20  C   UNL     1      60.377  24.528  60.457  1.00  0.00     0.134 A 
ATOM     21  C   UNL     1      59.065  26.050  61.394  1.00  0.00     0.006 A 
ATOM     22  N   UNL     1      59.103  24.236  60.099  1.00  0.00    -0.191 N 
ATOM     23  C   UNL     1      58.315  25.162  60.665  1.00  0.00     0.087 A 
ATOM     24  C   UNL     1      58.476  27.113  62.079  1.00  0.00     0.011 A 
ATOM     25  C   UNL     1      56.927  25.274  60.574  1.00  0.00     0.030 A 
ATOM     26  C   UNL     1      57.079  27.251  62.007  1.00  0.00     0.001 A 
ATOM     27  C   UNL     1      56.308  26.336  61.257  1.00  0.00     0.002 A 
BRANCH  22  28
ATOM     28  O   UNL     1      58.670  23.191  59.301  1.00  0.00    -0.417 OA
ATOM     29  C   UNL     1      58.496  21.875  59.801  1.00  0.00     0.313 C 
ENDBRANCH  22  28
ENDBRANCH  18  19
ENDBRANCH   7  18
ENDBRANCH   4   7
ENDBRANCH   2   3
BRANCH   2  30
ATOM     30  N   UNL     1      65.811  29.460  59.889  1.00  0.00    -0.343 N 
ATOM     31  C   UNL     1      65.164  30.532  60.591  1.00  0.00     0.243 C 
ATOM     32  H   UNL     1      66.007  29.578  58.871  1.00  0.00     0.164 HD
ATOM     33  O   UNL     1      64.727  30.348  61.760  1.00  0.00    -0.273 OA
BRANCH  31  34
ATOM     34  C   UNL     1      65.022  31.890  59.938  1.00  0.00     0.174 C 
ATOM     35  N   UNL     1      63.774  32.036  59.158  1.00  0.00    -0.329 N 
ATOM     36  C   UNL     1      65.107  32.994  61.010  1.00  0.00     0.035 C 
ATOM     37  C   UNL     1      63.526  33.355  58.560  1.00  0.00     0.120 C 
ATOM     38  C   UNL     1      64.911  34.380  60.389  1.00  0.00     0.004 C 
ATOM     39  C   UNL     1      63.583  34.444  59.630  1.00  0.00     0.022 C 
BRANCH  35  40
ATOM     40  C   UNL     1      63.185  30.906  58.493  1.00  0.00     0.246 CG0
ATOM     41  O   UNL     1      63.824  30.332  57.571  1.00  0.00    -0.272 OA
ATOM     42  G   UNL     1      61.801  30.420  58.873  1.00  0.00     0.000 G0
ENDBRANCH  35  40
ENDBRANCH  31  34
ENDBRANCH   2  30
ENDBRANCH   1   2
BRANCH   1  43
ATOM     43  C   UNL     1      68.480  27.412  60.964  1.00  0.00     0.003 C 
BRANCH  43  44
ATOM     44  C   UNL     1      69.140  28.757  61.302  1.00  0.00     0.001 C 
BRANCH  44  45
ATOM     45  C   UNL     1      70.648  28.760  60.997  1.00  0.00     0.008 C 
BRANCH  45  46
ATOM     46  C   UNL     1      70.940  29.062  59.518  1.00  0.00     0.075 C 
BRANCH  46  47
ATOM     47  C   UNL     1      70.750  30.515  59.141  1.00  0.00     0.132 C 
ATOM     48  O   UNL     1      71.491  31.377  59.591  1.00  0.00    -0.300 OA
BRANCH  47  49
ATOM     49  C   UNL     1      69.606  30.920  58.248  1.00  0.00     0.072 C 
ATOM     50  C   UNL     1      69.890  32.251  57.561  1.00  0.00     0.012 C 
ENDBRANCH  47  49
ENDBRANCH  46  47
ENDBRANCH  45  46
ENDBRANCH  44  45
ENDBRANCH  43  44
ENDBRANCH   1  43
TORSDOF 12
ENDMDL
MODEL 4
REMARK VINA RESULT:    -4.244      1.550      2.108
REMARK INTER + INTRA:         -11.925
REMARK INTER:                  -8.581
REMARK INTRA:                  -3.343
REMARK UNBOUND:                -2.967
REMARK SMILES CCC(=O)CCCCC[C@H]1NC(=O)[C@@H]2CCCCN2C(=O)[C@@H]([C@H](C)CC)NC(=O)[C@H](Cc2cn(OC)c3ccccc23)NC1=O
REMARK SMILES IDX 9 1 10 2 44 3 43 4 45 6 30 7 28 8 27 9 29 11 22 12 23 14
REMARK SMILES IDX 24 15 25 16 26 17 31 18 32 19 33 20 42 21 34 22 37 23 41 24
REMARK SMILES IDX 38 25 40 26 39 27 35 28 36 29 11 30 12 31 13 33 14 34 19 35
REMARK SMILES IDX 15 36 18 37 16 38 17 39 20 40 21 41 8 43 7 44 6 45 5 46 3 47
REMARK SMILES IDX 4 48 2 49 1 50
REMARK H PARENT 43 5 27 10 11 32
REMARK Flexibility Score: 80.00
ROOT
ATOM      1  C   UNL     1      61.934  22.602  50.852  1.00  0.00     0.035 C 
ENDROOT
BRANCH   1   2
ATOM      2  C   UNL     1      61.494  23.989  50.346  1.00  0.00     0.171 C 
BRANCH   2   3
ATOM      3  C   UNL     1      62.519  25.035  50.686  1.00  0.00     0.243 C 
ATOM      4  N   UNL     1      62.748  26.136  49.796  1.00  0.00    -0.342 N 
ATOM      5  H   UNL     1      62.384  26.043  48.822  1.00  0.00     0.164 HD
ATOM      6  O   UNL     1      63.126  24.980  51.790  1.00  0.00    -0.273 OA
BRANCH   4   7
ATOM      7  C   UNL     1      62.960  27.488  50.317  1.00  0.00     0.175 C 
BRANCH   7   8
ATOM      8  C   UNL     1      61.615  28.137  50.532  1.00  0.00     0.243 C 
ATOM      9  N   UNL     1      61.074  28.196  51.860  1.00  0.00    -0.342 N 
ATOM     10  H   UNL     1      61.718  28.017  52.664  1.00  0.00     0.164 HD
ATOM     11  O   UNL     1      60.909  28.494  49.551  1.00  0.00    -0.273 OA
BRANCH   9  12
ATOM     12  C   UNL     1      59.644  28.406  52.110  1.00  0.00     0.174 CG0
ATOM     13  G   UNL     1      58.981  27.093  52.469  1.00  0.00     0.000 G0
BRANCH  12  14
ATOM     14  C   UNL     1      59.436  29.528  53.167  1.00  0.00     0.018 C 
ATOM     15  C   UNL     1      58.480  30.633  52.677  1.00  0.00     0.010 C 
BRANCH  14  16
ATOM     16  C   UNL     1      60.786  30.112  53.643  1.00  0.00     0.002 C 
ATOM     17  C   UNL     1      61.017  31.542  53.153  1.00  0.00     0.004 C 
ENDBRANCH  14  16
ENDBRANCH  12  14
ENDBRANCH   9  12
ENDBRANCH   7   8
BRANCH   7  18
ATOM     18  C   UNL     1      63.944  28.297  49.439  1.00  0.00     0.073 C 
BRANCH  18  19
ATOM     19  C   UNL     1      64.054  29.761  49.777  1.00  0.00    -0.016 A 
ATOM     20  C   UNL     1      63.967  30.830  48.887  1.00  0.00     0.134 A 
ATOM     21  C   UNL     1      64.315  30.327  51.017  1.00  0.00     0.006 A 
ATOM     22  N   UNL     1      64.146  31.998  49.551  1.00  0.00    -0.191 N 
ATOM     23  C   UNL     1      64.360  31.687  50.839  1.00  0.00     0.087 A 
ATOM     24  C   UNL     1      64.513  29.749  52.272  1.00  0.00     0.011 A 
ATOM     25  C   UNL     1      64.602  32.560  51.900  1.00  0.00     0.030 A 
ATOM     26  C   UNL     1      64.756  30.605  53.361  1.00  0.00     0.001 A 
ATOM     27  C   UNL     1      64.801  32.004  53.175  1.00  0.00     0.002 A 
BRANCH  22  28
ATOM     28  O   UNL     1      64.121  33.279  49.028  1.00  0.00    -0.417 OA
ATOM     29  C   UNL     1      65.183  33.801  48.246  1.00  0.00     0.313 C 
ENDBRANCH  22  28
ENDBRANCH  18  19
ENDBRANCH   7  18
ENDBRANCH   4   7
ENDBRANCH   2   3
BRANCH   2  30
ATOM     30  N   UNL     1      60.210  24.367  50.943  1.00  0.00    -0.343 N 
ATOM     31  C   UNL     1      59.237  25.162  50.249  1.00  0.00     0.243 C 
ATOM     32  H   UNL     1      60.033  24.122  51.942  1.00  0.00     0.164 HD
ATOM     33  O   UNL     1      59.509  25.648  49.118  1.00  0.00    -0.273 OA
BRANCH  31  34
ATOM     34  C   UNL     1      57.875  25.403  50.866  1.00  0.00     0.174 C 
ATOM     35  N   UNL     1      57.821  26.620  51.707  1.00  0.00    -0.329 N 
ATOM     36  C   UNL     1      56.808  25.480  49.757  1.00  0.00     0.035 C 
ATOM     37  C   UNL     1      56.511  26.965  52.275  1.00  0.00     0.120 C 
ATOM     38  C   UNL     1      55.426  25.780  50.344  1.00  0.00     0.004 C 
ATOM     39  C   UNL     1      55.461  27.068  51.170  1.00  0.00     0.022 C 
BRANCH  35  40
ATOM     40  C   UNL     1      58.978  27.062  52.437  1.00  0.00     0.246 CG0
ATOM     41  O   UNL     1      59.436  26.338  53.361  1.00  0.00    -0.272 OA
ATOM     42  G   UNL     1      59.629  28.393  52.123  1.00  0.00     0.000 G0
ENDBRANCH  35  40
ENDBRANCH  31  34
ENDBRANCH   2  30
ENDBRANCH   1   2
BRANCH   1  43
ATOM     43  C   UNL     1      60.724  21.735  51.232  1.00  0.00     0.003 C 
BRANCH  43  44
ATOM     44  C   UNL     1      60.412  20.663  50.178  1.00  0.00     0.001 C 
BRANCH  44  45
ATOM     45  C   UNL     1      60.356  19.249  50.782  1.00  0.00     0.008 C 
BRANCH  45  46
ATOM     46  C   UNL     1      58.925  18.838  51.166  1.00  0.00     0.075 C 
BRANCH  46  47
ATOM     47  C   UNL     1      58.460  17.556  50.511  1.00  0.00     0.132 C 
ATOM     48  O   UNL     1      57.293  17.414  50.182  1.00  0.00    -0.300 OA
BRANCH  47  49
ATOM     49  C   UNL     1      59.427  16.419  50.309  1.00  0.00     0.072 C 
ATOM     50  C   UNL     1      59.444  15.964  48.853  1.00  0.00     0.012 C 
ENDBRANCH  47  49
ENDBRANCH  46  47
ENDBRANCH  45  46
ENDBRANCH  44  45
ENDBRANCH  43  44
ENDBRANCH   1  43
TORSDOF 12
ENDMDL
MODEL 5
REMARK VINA RESULT:    -4.166      2.041      2.765
REMARK INTER + INTRA:         -11.761
REMARK INTER:                  -9.064
REMARK INTRA:                  -2.697
REMARK UNBOUND:                -2.967
REMARK SMILES CCC(=O)CCCCC[C@H]1NC(=O)[C@@H]2CCCCN2C(=O)[C@@H]([C@H](C)CC)NC(=O)[C@H](Cc2cn(OC)c3ccccc23)NC1=O
REMARK SMILES IDX 9 1 10 2 44 3 43 4 45 6 30 7 28 8 27 9 29 11 22 12 23 14
REMARK SMILES IDX 24 15 25 16 26 17 31 18 32 19 33 20 42 21 34 22 37 23 41 24
REMARK SMILES IDX 38 25 40 26 39 27 35 28 36 29 11 30 12 31 13 33 14 34 19 35
REMARK SMILES IDX 15 36 18 37 16 38 17 39 20 40 21 41 8 43 7 44 6 45 5 46 3 47
REMARK SMILES IDX 4 48 2 49 1 50
REMARK H PARENT 43 5 27 10 11 32
REMARK Flexibility Score: 80.00
ROOT
ATOM      1  C   UNL     1      60.751  21.985  51.061  1.00  0.00     0.035 C 
ENDROOT
BRANCH   1   2
ATOM      2  C   UNL     1      60.532  23.385  50.458  1.00  0.00     0.171 C 
BRANCH   2   3
ATOM      3  C   UNL     1      61.719  24.272  50.714  1.00  0.00     0.243 C 
ATOM      4  N   UNL     1      62.090  25.274  49.757  1.00  0.00    -0.342 N 
ATOM      5  H   UNL     1      61.686  25.188  48.798  1.00  0.00     0.164 HD
ATOM      6  O   UNL     1      62.344  24.180  51.806  1.00  0.00    -0.273 OA
BRANCH   4   7
ATOM      7  C   UNL     1      62.528  26.601  50.196  1.00  0.00     0.175 C 
BRANCH   7   8
ATOM      8  C   UNL     1      61.310  27.470  50.386  1.00  0.00     0.243 C 
ATOM      9  N   UNL     1      60.830  27.715  51.716  1.00  0.00    -0.342 N 
ATOM     10  H   UNL     1      61.463  27.497  52.518  1.00  0.00     0.164 HD
ATOM     11  O   UNL     1      60.636  27.861  49.395  1.00  0.00    -0.273 OA
BRANCH   9  12
ATOM     12  C   UNL     1      59.459  28.169  51.978  1.00  0.00     0.174 CG0
ATOM     13  G   UNL     1      58.590  26.993  52.374  1.00  0.00     0.000 G0
BRANCH  12  14
ATOM     14  C   UNL     1      59.459  29.330  53.012  1.00  0.00     0.018 C 
ATOM     15  C   UNL     1      58.566  30.508  52.580  1.00  0.00     0.010 C 
BRANCH  14  16
ATOM     16  C   UNL     1      60.898  29.795  53.338  1.00  0.00     0.002 C 
ATOM     17  C   UNL     1      61.205  31.191  52.794  1.00  0.00     0.004 C 
ENDBRANCH  14  16
ENDBRANCH  12  14
ENDBRANCH   9  12
ENDBRANCH   7   8
BRANCH   7  18
ATOM     18  C   UNL     1      63.611  27.189  49.260  1.00  0.00     0.073 C 
BRANCH  18  19
ATOM     19  C   UNL     1      64.887  26.392  49.170  1.00  0.00    -0.016 A 
ATOM     20  C   UNL     1      65.391  25.516  50.130  1.00  0.00     0.134 A 
ATOM     21  C   UNL     1      65.827  26.410  48.149  1.00  0.00     0.006 A 
ATOM     22  N   UNL     1      66.575  25.007  49.711  1.00  0.00    -0.191 N 
ATOM     23  C   UNL     1      66.836  25.555  48.514  1.00  0.00     0.087 A 
ATOM     24  C   UNL     1      65.866  27.110  46.942  1.00  0.00     0.011 A 
ATOM     25  C   UNL     1      67.948  25.338  47.699  1.00  0.00     0.030 A 
ATOM     26  C   UNL     1      66.973  26.909  46.099  1.00  0.00     0.001 A 
ATOM     27  C   UNL     1      68.009  26.028  46.476  1.00  0.00     0.002 A 
BRANCH  22  28
ATOM     28  O   UNL     1      67.383  24.098  50.372  1.00  0.00    -0.417 OA
ATOM     29  C   UNL     1      68.346  24.496  51.334  1.00  0.00     0.313 C 
ENDBRANCH  22  28
ENDBRANCH  18  19
ENDBRANCH   7  18
ENDBRANCH   4   7
ENDBRANCH   2   3
BRANCH   2  30
ATOM     30  N   UNL     1      59.337  24.009  51.032  1.00  0.00    -0.343 N 
ATOM     31  C   UNL     1      58.516  24.931  50.301  1.00  0.00     0.243 C 
ATOM     32  H   UNL     1      59.124  23.842  52.040  1.00  0.00     0.164 HD
ATOM     33  O   UNL     1      58.865  25.312  49.150  1.00  0.00    -0.273 OA
BRANCH  31  34
ATOM     34  C   UNL     1      57.220  25.434  50.901  1.00  0.00     0.174 C 
ATOM     35  N   UNL     1      57.379  26.691  51.666  1.00  0.00    -0.329 N 
ATOM     36  C   UNL     1      56.170  25.621  49.789  1.00  0.00     0.035 C 
ATOM     37  C   UNL     1      56.151  27.285  52.212  1.00  0.00     0.120 C 
ATOM     38  C   UNL     1      54.863  26.184  50.357  1.00  0.00     0.004 C 
ATOM     39  C   UNL     1      55.122  27.495  51.102  1.00  0.00     0.022 C 
BRANCH  35  40
ATOM     40  C   UNL     1      58.601  26.976  52.368  1.00  0.00     0.246 CG0
ATOM     41  O   UNL     1      58.947  26.235  53.327  1.00  0.00    -0.272 OA
ATOM     42  G   UNL     1      59.454  28.167  51.983  1.00  0.00     0.000 G0
ENDBRANCH  35  40
ENDBRANCH  31  34
ENDBRANCH   2  30
ENDBRANCH   1   2
BRANCH   1  43
ATOM     43  C   UNL     1      59.480  21.469  51.753  1.00  0.00     0.003 C 
BRANCH  43  44
ATOM     44  C   UNL     1      59.706  20.140  52.488  1.00  0.00     0.001 C 
BRANCH  44  45
ATOM     45  C   UNL     1      59.265  18.927  51.651  1.00  0.00     0.008 C 
BRANCH  45  46
ATOM     46  C   UNL     1      57.977  18.287  52.192  1.00  0.00     0.075 C 
BRANCH  46  47
ATOM     47  C   UNL     1      56.769  18.499  51.305  1.00  0.00     0.132 C 
ATOM     48  O   UNL     1      56.792  18.163  50.131  1.00  0.00    -0.300 OA
BRANCH  47  49
ATOM     49  C   UNL     1      55.542  19.182  51.852  1.00  0.00     0.072 C 
ATOM     50  C   UNL     1      55.433  18.988  53.361  1.00  0.00     0.012 C 
ENDBRANCH  47  49
ENDBRANCH  46  47
ENDBRANCH  45  46
ENDBRANCH  44  45
ENDBRANCH  43  44
ENDBRANCH   1  43
TORSDOF 12
ENDMDL
MODEL 6
REMARK VINA RESULT:    -3.943      8.772     13.586
REMARK INTER + INTRA:         -11.290
REMARK INTER:                  -8.619
REMARK INTRA:                  -2.671
REMARK UNBOUND:                -2.967
REMARK SMILES CCC(=O)CCCCC[C@H]1NC(=O)[C@@H]2CCCCN2C(=O)[C@@H]([C@H](C)CC)NC(=O)[C@H](Cc2cn(OC)c3ccccc23)NC1=O
REMARK SMILES IDX 9 1 10 2 44 3 43 4 45 6 30 7 28 8 27 9 29 11 22 12 23 14
REMARK SMILES IDX 24 15 25 16 26 17 31 18 32 19 33 20 42 21 34 22 37 23 41 24
REMARK SMILES IDX 38 25 40 26 39 27 35 28 36 29 11 30 12 31 13 33 14 34 19 35
REMARK SMILES IDX 15 36 18 37 16 38 17 39 20 40 21 41 8 43 7 44 6 45 5 46 3 47
REMARK SMILES IDX 4 48 2 49 1 50
REMARK H PARENT 43 5 27 10 11 32
REMARK Flexibility Score: 80.00
ROOT
ATOM      1  C   UNL     1      67.534  27.737  60.604  1.00  0.00     0.035 C 
ENDROOT
BRANCH   1   2
ATOM      2  C   UNL     1      66.141  28.324  60.897  1.00  0.00     0.171 C 
BRANCH   2   3
ATOM      3  C   UNL     1      65.058  27.346  60.534  1.00  0.00     0.243 C 
ATOM      4  N   UNL     1      63.889  27.226  61.357  1.00  0.00    -0.342 N 
ATOM      5  H   UNL     1      63.941  27.632  62.318  1.00  0.00     0.164 HD
ATOM      6  O   UNL     1      65.147  26.683  59.465  1.00  0.00    -0.273 OA
BRANCH   4   7
ATOM      7  C   UNL     1      62.564  27.067  60.756  1.00  0.00     0.175 C 
BRANCH   7   8
ATOM      8  C   UNL     1      62.037  28.432  60.387  1.00  0.00     0.243 C 
ATOM      9  N   UNL     1      62.172  28.888  59.033  1.00  0.00    -0.342 N 
ATOM     10  H   UNL     1      62.401  28.184  58.294  1.00  0.00     0.164 HD
ATOM     11  O   UNL     1      61.614  29.221  61.275  1.00  0.00    -0.273 OA
BRANCH   9  12
ATOM     12  C   UNL     1      62.089  30.309  58.678  1.00  0.00     0.174 CG0
ATOM     13  G   UNL     1      63.463  30.833  58.310  1.00  0.00     0.000 G0
BRANCH  12  14
ATOM     14  C   UNL     1      61.013  30.534  57.578  1.00  0.00     0.018 C 
ATOM     15  C   UNL     1      60.236  31.850  57.770  1.00  0.00     0.010 C 
BRANCH  14  16
ATOM     16  C   UNL     1      60.061  29.320  57.465  1.00  0.00     0.002 C 
ATOM     17  C   UNL     1      58.643  29.636  57.942  1.00  0.00     0.004 C 
ENDBRANCH  14  16
ENDBRANCH  12  14
ENDBRANCH   9  12
ENDBRANCH   7   8
BRANCH   7  18
ATOM     18  C   UNL     1      61.623  26.222  61.648  1.00  0.00     0.073 C 
BRANCH  18  19
ATOM     19  C   UNL     1      61.517  24.767  61.274  1.00  0.00    -0.016 A 
ATOM     20  C   UNL     1      60.476  24.161  60.573  1.00  0.00     0.134 A 
ATOM     21  C   UNL     1      62.397  23.743  61.596  1.00  0.00     0.006 A 
ATOM     22  N   UNL     1      60.714  22.832  60.452  1.00  0.00    -0.191 N 
ATOM     23  C   UNL     1      61.875  22.584  61.077  1.00  0.00     0.087 A 
ATOM     24  C   UNL     1      63.603  23.749  62.298  1.00  0.00     0.011 A 
ATOM     25  C   UNL     1      62.523  21.357  61.221  1.00  0.00     0.030 A 
ATOM     26  C   UNL     1      64.280  22.527  62.457  1.00  0.00     0.001 A 
ATOM     27  C   UNL     1      63.741  21.336  61.922  1.00  0.00     0.002 A 
BRANCH  22  28
ATOM     28  O   UNL     1      59.926  21.888  59.816  1.00  0.00    -0.417 OA
ATOM     29  C   UNL     1      59.866  21.777  58.403  1.00  0.00     0.313 C 
ENDBRANCH  22  28
ENDBRANCH  18  19
ENDBRANCH   7  18
ENDBRANCH   4   7
ENDBRANCH   2   3
BRANCH   2  30
ATOM     30  N   UNL     1      65.938  29.563  60.140  1.00  0.00    -0.343 N 
ATOM     31  C   UNL     1      65.179  30.669  60.651  1.00  0.00     0.243 C 
ATOM     32  H   UNL     1      66.287  29.609  59.158  1.00  0.00     0.164 HD
ATOM     33  O   UNL     1      64.570  30.563  61.751  1.00  0.00    -0.273 OA
BRANCH  31  34
ATOM     34  C   UNL     1      65.122  31.970  59.880  1.00  0.00     0.174 C 
ATOM     35  N   UNL     1      63.979  32.045  58.943  1.00  0.00    -0.329 N 
ATOM     36  C   UNL     1      65.077  33.156  60.863  1.00  0.00     0.035 C 
ATOM     37  C   UNL     1      63.810  33.311  58.216  1.00  0.00     0.120 C 
ATOM     38  C   UNL     1      64.962  34.487  60.114  1.00  0.00     0.004 C 
ATOM     39  C   UNL     1      63.738  34.481  59.195  1.00  0.00     0.022 C 
BRANCH  35  40
ATOM     40  C   UNL     1      63.474  30.861  58.302  1.00  0.00     0.246 CG0
ATOM     41  O   UNL     1      64.167  30.299  57.413  1.00  0.00    -0.272 OA
ATOM     42  G   UNL     1      62.112  30.306  58.667  1.00  0.00     0.000 G0
ENDBRANCH  35  40
ENDBRANCH  31  34
ENDBRANCH   2  30
ENDBRANCH   1   2
BRANCH   1  43
ATOM     43  C   UNL     1      68.617  28.827  60.625  1.00  0.00     0.003 C 
BRANCH  43  44
ATOM     44  C   UNL     1      70.030  28.252  60.796  1.00  0.00     0.001 C 
BRANCH  44  45
ATOM     45  C   UNL     1      71.082  29.349  61.031  1.00  0.00     0.008 C 
BRANCH  45  46
ATOM     46  C   UNL     1      71.302  30.219  59.783  1.00  0.00     0.075 C 
BRANCH  46  47
ATOM     47  C   UNL     1      72.403  31.245  59.940  1.00  0.00     0.132 C 
ATOM     48  O   UNL     1      73.575  30.900  59.977  1.00  0.00    -0.300 OA
BRANCH  47  49
ATOM     49  C   UNL     1      72.059  32.702  60.106  1.00  0.00     0.072 C 
ATOM     50  C   UNL     1      71.859  33.378  58.753  1.00  0.00     0.012 C 
ENDBRANCH  47  49
ENDBRANCH  46  47
ENDBRANCH  45  46
ENDBRANCH  44  45
ENDBRANCH  43  44
ENDBRANCH   1  43
TORSDOF 12
ENDMDL
MODEL 7
REMARK VINA RESULT:    -3.876      7.968     11.872
REMARK INTER + INTRA:         -11.147
REMARK INTER:                  -8.154
REMARK INTRA:                  -2.993
REMARK UNBOUND:                -2.967
REMARK SMILES CCC(=O)CCCCC[C@H]1NC(=O)[C@@H]2CCCCN2C(=O)[C@@H]([C@H](C)CC)NC(=O)[C@H](Cc2cn(OC)c3ccccc23)NC1=O
REMARK SMILES IDX 9 1 10 2 44 3 43 4 45 6 30 7 28 8 27 9 29 11 22 12 23 14
REMARK SMILES IDX 24 15 25 16 26 17 31 18 32 19 33 20 42 21 34 22 37 23 41 24
REMARK SMILES IDX 38 25 40 26 39 27 35 28 36 29 11 30 12 31 13 33 14 34 19 35
REMARK SMILES IDX 15 36 18 37 16 38 17 39 20 40 21 41 8 43 7 44 6 45 5 46 3 47
REMARK SMILES IDX 4 48 2 49 1 50
REMARK H PARENT 43 5 27 10 11 32
REMARK Flexibility Score: 80.00
ROOT
ATOM      1  C   UNL     1      64.714  33.069  59.706  1.00  0.00     0.035 C 
ENDROOT
BRANCH   1   2
ATOM      2  C   UNL     1      64.803  31.600  60.160  1.00  0.00     0.171 C 
BRANCH   2   3
ATOM      3  C   UNL     1      66.083  30.968  59.688  1.00  0.00     0.243 C 
ATOM      4  N   UNL     1      66.725  29.961  60.483  1.00  0.00    -0.342 N 
ATOM      5  H   UNL     1      66.427  29.881  61.480  1.00  0.00     0.164 HD
ATOM      6  O   UNL     1      66.551  31.274  58.558  1.00  0.00    -0.273 OA
BRANCH   4   7
ATOM      7  C   UNL     1      67.324  28.782  59.854  1.00  0.00     0.175 C 
BRANCH   7   8
ATOM      8  C   UNL     1      66.248  27.744  59.656  1.00  0.00     0.243 C 
ATOM      9  N   UNL     1      65.662  27.587  58.356  1.00  0.00    -0.342 N 
ATOM     10  H   UNL     1      66.155  28.011  57.537  1.00  0.00     0.164 HD
ATOM     11  O   UNL     1      65.765  27.121  60.640  1.00  0.00    -0.273 OA
BRANCH   9  12
ATOM     12  C   UNL     1      64.361  26.937  58.160  1.00  0.00     0.174 CG0
ATOM     13  G   UNL     1      63.274  27.983  58.018  1.00  0.00     0.000 G0
BRANCH  12  14
ATOM     14  C   UNL     1      64.428  25.932  56.976  1.00  0.00     0.018 C 
ATOM     15  C   UNL     1      64.169  24.479  57.417  1.00  0.00     0.010 C 
BRANCH  14  16
ATOM     16  C   UNL     1      65.760  26.063  56.199  1.00  0.00     0.002 C 
ATOM     17  C   UNL     1      65.684  27.088  55.067  1.00  0.00     0.004 C 
ENDBRANCH  14  16
ENDBRANCH  12  14
ENDBRANCH   9  12
ENDBRANCH   7   8
BRANCH   7  18
ATOM     18  C   UNL     1      68.573  28.290  60.624  1.00  0.00     0.073 C 
BRANCH  18  19
ATOM     19  C   UNL     1      69.874  28.384  59.869  1.00  0.00    -0.016 A 
ATOM     20  C   UNL     1      70.180  27.766  58.659  1.00  0.00     0.134 A 
ATOM     21  C   UNL     1      71.028  29.054  60.251  1.00  0.00     0.006 A 
ATOM     22  N   UNL     1      71.455  28.057  58.303  1.00  0.00    -0.191 N 
ATOM     23  C   UNL     1      71.965  28.832  59.272  1.00  0.00     0.087 A 
ATOM     24  C   UNL     1      71.317  29.831  61.373  1.00  0.00     0.011 A 
ATOM     25  C   UNL     1      73.249  29.374  59.347  1.00  0.00     0.030 A 
ATOM     26  C   UNL     1      72.602  30.392  61.475  1.00  0.00     0.001 A 
ATOM     27  C   UNL     1      73.564  30.164  60.466  1.00  0.00     0.002 A 
BRANCH  22  28
ATOM     28  O   UNL     1      72.130  27.643  57.167  1.00  0.00    -0.417 OA
ATOM     29  C   UNL     1      72.295  26.274  56.838  1.00  0.00     0.313 C 
ENDBRANCH  22  28
ENDBRANCH  18  19
ENDBRANCH   7  18
ENDBRANCH   4   7
ENDBRANCH   2   3
BRANCH   2  30
ATOM     30  N   UNL     1      63.670  30.834  59.635  1.00  0.00    -0.343 N 
ATOM     31  C   UNL     1      63.070  29.745  60.353  1.00  0.00     0.243 C 
ATOM     32  H   UNL     1      63.341  31.031  58.664  1.00  0.00     0.164 HD
ATOM     33  O   UNL     1      63.578  29.348  61.438  1.00  0.00    -0.273 OA
BRANCH  31  34
ATOM     34  C   UNL     1      61.817  29.083  59.820  1.00  0.00     0.174 C 
ATOM     35  N   UNL     1      62.097  27.973  58.882  1.00  0.00    -0.329 N 
ATOM     36  C   UNL     1      60.957  28.577  60.994  1.00  0.00     0.035 C 
ATOM     37  C   UNL     1      60.932  27.229  58.383  1.00  0.00     0.120 C 
ATOM     38  C   UNL     1      59.707  27.851  60.487  1.00  0.00     0.004 C 
ATOM     39  C   UNL     1      60.096  26.705  59.550  1.00  0.00     0.022 C 
BRANCH  35  40
ATOM     40  C   UNL     1      63.256  28.002  58.031  1.00  0.00     0.246 CG0
ATOM     41  O   UNL     1      63.350  28.897  57.150  1.00  0.00    -0.272 OA
ATOM     42  G   UNL     1      64.343  26.956  58.170  1.00  0.00     0.000 G0
ENDBRANCH  35  40
ENDBRANCH  31  34
ENDBRANCH   2  30
ENDBRANCH   1   2
BRANCH   1  43
ATOM     43  C   UNL     1      63.598  33.269  58.670  1.00  0.00     0.003 C 
BRANCH  43  44
ATOM     44  C   UNL     1      62.884  34.619  58.824  1.00  0.00     0.001 C 
BRANCH  44  45
ATOM     45  C   UNL     1      61.353  34.470  58.859  1.00  0.00     0.008 C 
BRANCH  45  46
ATOM     46  C   UNL     1      60.909  33.005  58.720  1.00  0.00     0.075 C 
BRANCH  46  47
ATOM     47  C   UNL     1      59.490  32.840  58.224  1.00  0.00     0.132 C 
ATOM     48  O   UNL     1      58.671  33.735  58.370  1.00  0.00    -0.300 OA
BRANCH  47  49
ATOM     49  C   UNL     1      59.057  31.543  57.591  1.00  0.00     0.072 C 
ATOM     50  C   UNL     1      57.541  31.489  57.431  1.00  0.00     0.012 C 
ENDBRANCH  47  49
ENDBRANCH  46  47
ENDBRANCH  45  46
ENDBRANCH  44  45
ENDBRANCH  43  44
ENDBRANCH   1  43
TORSDOF 12
ENDMDL
MODEL 8
REMARK VINA RESULT:    -3.841      6.644     10.938
REMARK INTER + INTRA:         -11.074
REMARK INTER:                  -7.376
REMARK INTRA:                  -3.698
REMARK UNBOUND:                -2.967
REMARK SMILES CCC(=O)CCCCC[C@H]1NC(=O)[C@@H]2CCCCN2C(=O)[C@@H]([C@H](C)CC)NC(=O)[C@H](Cc2cn(OC)c3ccccc23)NC1=O
REMARK SMILES IDX 9 1 10 2 44 3 43 4 45 6 30 7 28 8 27 9 29 11 22 12 23 14
REMARK SMILES IDX 24 15 25 16 26 17 31 18 32 19 33 20 42 21 34 22 37 23 41 24
REMARK SMILES IDX 38 25 40 26 39 27 35 28 36 29 11 30 12 31 13 33 14 34 19 35
REMARK SMILES IDX 15 36 18 37 16 38 17 39 20 40 21 41 8 43 7 44 6 45 5 46 3 47
REMARK SMILES IDX 4 48 2 49 1 50
REMARK H PARENT 43 5 27 10 11 32
REMARK Flexibility Score: 80.00
ROOT
ATOM      1  C   UNL     1      62.286  33.591  57.908  1.00  0.00     0.035 C 
ENDROOT
BRANCH   1   2
ATOM      2  C   UNL     1      60.957  32.814  57.948  1.00  0.00     0.171 C 
BRANCH   2   3
ATOM      3  C   UNL     1      61.197  31.333  57.844  1.00  0.00     0.243 C 
ATOM      4  N   UNL     1      60.297  30.411  58.474  1.00  0.00    -0.342 N 
ATOM      5  H   UNL     1      59.651  30.797  59.198  1.00  0.00     0.164 HD
ATOM      6  O   UNL     1      62.152  30.902  57.141  1.00  0.00    -0.273 OA
BRANCH   4   7
ATOM      7  C   UNL     1      59.902  29.173  57.800  1.00  0.00     0.175 C 
BRANCH   7   8
ATOM      8  C   UNL     1      58.752  29.477  56.872  1.00  0.00     0.243 C 
ATOM      9  N   UNL     1      59.015  29.663  55.474  1.00  0.00    -0.342 N 
ATOM     10  H   UNL     1      59.938  29.347  55.098  1.00  0.00     0.164 HD
ATOM     11  O   UNL     1      57.599  29.706  57.329  1.00  0.00    -0.273 OA
BRANCH   9  12
ATOM     12  C   UNL     1      58.074  30.361  54.591  1.00  0.00     0.174 CG0
ATOM     13  G   UNL     1      58.462  31.821  54.468  1.00  0.00     0.000 G0
BRANCH  12  14
ATOM     14  C   UNL     1      57.958  29.623  53.227  1.00  0.00     0.018 C 
ATOM     15  C   UNL     1      56.512  29.578  52.699  1.00  0.00     0.010 C 
BRANCH  14  16
ATOM     16  C   UNL     1      58.584  28.210  53.296  1.00  0.00     0.002 C 
ATOM     17  C   UNL     1      58.339  27.392  52.027  1.00  0.00     0.004 C 
ENDBRANCH  14  16
ENDBRANCH  12  14
ENDBRANCH   9  12
ENDBRANCH   7   8
BRANCH   7  18
ATOM     18  C   UNL     1      59.645  28.025  58.806  1.00  0.00     0.073 C 
BRANCH  18  19
ATOM     19  C   UNL     1      60.876  27.298  59.282  1.00  0.00    -0.016 A 
ATOM     20  C   UNL     1      62.071  27.138  58.583  1.00  0.00     0.134 A 
ATOM     21  C   UNL     1      61.044  26.607  60.474  1.00  0.00     0.006 A 
ATOM     22  N   UNL     1      62.938  26.400  59.317  1.00  0.00    -0.191 N 
ATOM     23  C   UNL     1      62.310  26.078  60.458  1.00  0.00     0.087 A 
ATOM     24  C   UNL     1      60.184  26.409  61.555  1.00  0.00     0.011 A 
ATOM     25  C   UNL     1      62.803  25.320  61.521  1.00  0.00     0.030 A 
ATOM     26  C   UNL     1      60.655  25.651  62.642  1.00  0.00     0.001 A 
ATOM     27  C   UNL     1      61.958  25.108  62.624  1.00  0.00     0.002 A 
BRANCH  22  28
ATOM     28  O   UNL     1      64.228  26.031  58.979  1.00  0.00    -0.417 OA
ATOM     29  C   UNL     1      64.506  24.914  58.150  1.00  0.00     0.313 C 
ENDBRANCH  22  28
ENDBRANCH  18  19
ENDBRANCH   7  18
ENDBRANCH   4   7
ENDBRANCH   2   3
BRANCH   2  30
ATOM     30  N   UNL     1      60.086  33.235  56.847  1.00  0.00    -0.343 N 
ATOM     31  C   UNL     1      58.657  33.290  56.967  1.00  0.00     0.243 C 
ATOM     32  H   UNL     1      60.515  33.419  55.914  1.00  0.00     0.164 HD
ATOM     33  O   UNL     1      58.094  32.874  58.017  1.00  0.00    -0.273 OA
BRANCH  31  34
ATOM     34  C   UNL     1      57.822  33.863  55.841  1.00  0.00     0.174 C 
ATOM     35  N   UNL     1      57.527  32.881  54.774  1.00  0.00    -0.329 N 
ATOM     36  C   UNL     1      56.510  34.439  56.408  1.00  0.00     0.035 C 
ATOM     37  C   UNL     1      56.654  33.341  53.685  1.00  0.00     0.120 C 
ATOM     38  C   UNL     1      55.617  34.977  55.286  1.00  0.00     0.004 C 
ATOM     39  C   UNL     1      55.342  33.886  54.248  1.00  0.00     0.022 C 
BRANCH  35  40
ATOM     40  C   UNL     1      58.463  31.838  54.453  1.00  0.00     0.246 CG0
ATOM     41  O   UNL     1      59.603  32.148  54.017  1.00  0.00    -0.272 OA
ATOM     42  G   UNL     1      58.080  30.381  54.611  1.00  0.00     0.000 G0
ENDBRANCH  35  40
ENDBRANCH  31  34
ENDBRANCH   2  30
ENDBRANCH   1   2
BRANCH   1  43
ATOM     43  C   UNL     1      62.486  34.424  59.184  1.00  0.00     0.003 C 
BRANCH  43  44
ATOM     44  C   UNL     1      63.816  34.116  59.888  1.00  0.00     0.001 C 
BRANCH  44  45
ATOM     45  C   UNL     1      64.383  32.742  59.490  1.00  0.00     0.008 C 
BRANCH  45  46
ATOM     46  C   UNL     1      65.125  32.062  60.651  1.00  0.00     0.075 C 
BRANCH  46  47
ATOM     47  C   UNL     1      65.149  30.552  60.561  1.00  0.00     0.132 C 
ATOM     48  O   UNL     1      66.204  29.940  60.640  1.00  0.00    -0.300 OA
BRANCH  47  49
ATOM     49  C   UNL     1      63.872  29.790  60.316  1.00  0.00     0.072 C 
ATOM     50  C   UNL     1      63.220  29.376  61.631  1.00  0.00     0.012 C 
ENDBRANCH  47  49
ENDBRANCH  46  47
ENDBRANCH  45  46
ENDBRANCH  44  45
ENDBRANCH  43  44
ENDBRANCH   1  43
TORSDOF 12
ENDMDL
MODEL 9
REMARK VINA RESULT:    -3.769      2.343      7.032
REMARK INTER + INTRA:         -10.922
REMARK INTER:                  -8.328
REMARK INTRA:                  -2.594
REMARK UNBOUND:                -2.967
REMARK SMILES CCC(=O)CCCCC[C@H]1NC(=O)[C@@H]2CCCCN2C(=O)[C@@H]([C@H](C)CC)NC(=O)[C@H](Cc2cn(OC)c3ccccc23)NC1=O
REMARK SMILES IDX 9 1 10 2 44 3 43 4 45 6 30 7 28 8 27 9 29 11 22 12 23 14
REMARK SMILES IDX 24 15 25 16 26 17 31 18 32 19 33 20 42 21 34 22 37 23 41 24
REMARK SMILES IDX 38 25 40 26 39 27 35 28 36 29 11 30 12 31 13 33 14 34 19 35
REMARK SMILES IDX 15 36 18 37 16 38 17 39 20 40 21 41 8 43 7 44 6 45 5 46 3 47
REMARK SMILES IDX 4 48 2 49 1 50
REMARK H PARENT 43 5 27 10 11 32
REMARK Flexibility Score: 80.00
ROOT
ATOM      1  C   UNL     1      61.587  23.135  50.087  1.00  0.00     0.035 C 
ENDROOT
BRANCH   1   2
ATOM      2  C   UNL     1      62.150  24.422  50.718  1.00  0.00     0.171 C 
BRANCH   2   3
ATOM      3  C   UNL     1      61.114  25.512  50.732  1.00  0.00     0.243 C 
ATOM      4  N   UNL     1      61.006  26.389  51.861  1.00  0.00    -0.342 N 
ATOM      5  H   UNL     1      61.473  26.086  52.745  1.00  0.00     0.164 HD
ATOM      6  O   UNL     1      60.389  25.697  49.716  1.00  0.00    -0.273 OA
BRANCH   4   7
ATOM      7  C   UNL     1      60.764  27.821  51.675  1.00  0.00     0.175 C 
BRANCH   7   8
ATOM      8  C   UNL     1      62.086  28.503  51.424  1.00  0.00     0.243 C 
ATOM      9  N   UNL     1      62.486  28.771  50.072  1.00  0.00    -0.342 N 
ATOM     10  H   UNL     1      61.759  28.715  49.321  1.00  0.00     0.164 HD
ATOM     11  O   UNL     1      62.895  28.708  52.368  1.00  0.00    -0.273 OA
BRANCH   9  12
ATOM     12  C   UNL     1      63.884  29.025  49.708  1.00  0.00     0.174 CG0
ATOM     13  G   UNL     1      64.431  27.864  48.903  1.00  0.00     0.000 G0
BRANCH  12  14
ATOM     14  C   UNL     1      64.020  30.403  49.001  1.00  0.00     0.018 C 
ATOM     15  C   UNL     1      65.399  31.051  49.226  1.00  0.00     0.010 C 
BRANCH  14  16
ATOM     16  C   UNL     1      62.870  31.357  49.399  1.00  0.00     0.002 C 
ATOM     17  C   UNL     1      63.255  32.304  50.536  1.00  0.00     0.004 C 
ENDBRANCH  14  16
ENDBRANCH  12  14
ENDBRANCH   9  12
ENDBRANCH   7   8
BRANCH   7  18
ATOM     18  C   UNL     1      59.930  28.420  52.833  1.00  0.00     0.073 C 
BRANCH  18  19
ATOM     19  C   UNL     1      58.492  28.725  52.500  1.00  0.00    -0.016 A 
ATOM     20  C   UNL     1      57.839  29.944  52.670  1.00  0.00     0.134 A 
ATOM     21  C   UNL     1      57.531  27.850  52.013  1.00  0.00     0.006 A 
ATOM     22  N   UNL     1      56.544  29.830  52.289  1.00  0.00    -0.191 N 
ATOM     23  C   UNL     1      56.362  28.559  51.896  1.00  0.00     0.087 A 
ATOM     24  C   UNL     1      57.602  26.499  51.670  1.00  0.00     0.011 A 
ATOM     25  C   UNL     1      55.188  27.970  51.426  1.00  0.00     0.030 A 
ATOM     26  C   UNL     1      56.435  25.879  51.190  1.00  0.00     0.001 A 
ATOM     27  C   UNL     1      55.233  26.611  51.070  1.00  0.00     0.002 A 
BRANCH  22  28
ATOM     28  O   UNL     1      55.572  30.815  52.295  1.00  0.00    -0.417 OA
ATOM     29  C   UNL     1      55.834  32.138  52.736  1.00  0.00     0.313 C 
ENDBRANCH  22  28
ENDBRANCH  18  19
ENDBRANCH   7  18
ENDBRANCH   4   7
ENDBRANCH   2   3
BRANCH   2  30
ATOM     30  N   UNL     1      63.322  24.886  49.970  1.00  0.00    -0.343 N 
ATOM     31  C   UNL     1      64.447  25.514  50.603  1.00  0.00     0.243 C 
ATOM     32  H   UNL     1      63.300  24.837  48.928  1.00  0.00     0.164 HD
ATOM     33  O   UNL     1      64.413  25.776  51.837  1.00  0.00    -0.273 OA
BRANCH  31  34
ATOM     34  C   UNL     1      65.684  25.847  49.796  1.00  0.00     0.174 C 
ATOM     35  N   UNL     1      65.678  27.225  49.258  1.00  0.00    -0.329 N 
ATOM     36  C   UNL     1      66.943  25.621  50.656  1.00  0.00     0.035 C 
ATOM     37  C   UNL     1      66.881  27.649  48.530  1.00  0.00     0.120 C 
ATOM     38  C   UNL     1      68.210  26.003  49.886  1.00  0.00     0.004 C 
ATOM     39  C   UNL     1      68.125  27.451  49.396  1.00  0.00     0.022 C 
BRANCH  35  40
ATOM     40  C   UNL     1      64.444  27.867  48.893  1.00  0.00     0.246 CG0
ATOM     41  O   UNL     1      63.827  27.477  47.866  1.00  0.00    -0.272 OA
ATOM     42  G   UNL     1      63.900  29.018  49.714  1.00  0.00     0.000 G0
ENDBRANCH  35  40
ENDBRANCH  31  34
ENDBRANCH   2  30
ENDBRANCH   1   2
BRANCH   1  43
ATOM     43  C   UNL     1      61.458  22.012  51.128  1.00  0.00     0.003 C 
BRANCH  43  44
ATOM     44  C   UNL     1      61.389  20.618  50.487  1.00  0.00     0.001 C 
BRANCH  44  45
ATOM     45  C   UNL     1      59.943  20.120  50.326  1.00  0.00     0.008 C 
BRANCH  45  46
ATOM     46  C   UNL     1      59.794  18.638  50.706  1.00  0.00     0.075 C 
BRANCH  46  47
ATOM     47  C   UNL     1      59.184  18.415  52.073  1.00  0.00     0.132 C 
ATOM     48  O   UNL     1      58.143  17.788  52.195  1.00  0.00    -0.300 OA
BRANCH  47  49
ATOM     49  C   UNL     1      59.831  19.014  53.294  1.00  0.00     0.072 C 
ATOM     50  C   UNL     1      59.072  20.248  53.769  1.00  0.00     0.012 C 
ENDBRANCH  47  49
ENDBRANCH  46  47
ENDBRANCH  45  46
ENDBRANCH  44  45
ENDBRANCH  43  44
ENDBRANCH   1  43
TORSDOF 12
ENDMDL
