MODEL 1
REMARK VINA RESULT:    -3.516      0.000      0.000
REMARK INTER + INTRA:          -4.968
REMARK INTER:                  -4.750
REMARK INTRA:                  -0.218
REMARK UNBOUND:                -0.218
REMARK SMILES CCCCCCCC(=O)[O-]
REMARK SMILES IDX 5 1 6 2 7 3 8 4 9 5 10 6 4 7 3 8 2 9 1 10
REMARK H PARENT
REMARK Flexibility Score: inf
ROOT
ATOM      1  C   UNL     1     -46.469 -27.666   4.412  1.00  0.00     0.000 C 
ENDROOT
BRANCH   1   2
ATOM      2  C   UNL     1     -46.263 -26.897   3.091  1.00  0.00     0.006 C 
BRANCH   2   3
ATOM      3  C   UNL     1     -46.035 -27.791   1.861  1.00  0.00     0.053 C 
BRANCH   3   4
ATOM      4  C   UNL     1     -45.588 -27.000   0.670  1.00  0.00     0.041 C 
ATOM      5  O   UNL     1     -44.621 -26.198   0.768  1.00  0.00    -0.550 OA
ATOM      6  O   UNL     1     -46.259 -27.126  -0.540  1.00  0.00    -0.550 OA
ENDBRANCH   3   4
ENDBRANCH   2   3
ENDBRANCH   1   2
BRANCH   1   7
ATOM      7  C   UNL     1     -46.078 -26.895   5.687  1.00  0.00     0.000 C 
BRANCH   7   8
ATOM      8  C   UNL     1     -45.342 -27.772   6.714  1.00  0.00    -0.000 C 
BRANCH   8   9
ATOM      9  C   UNL     1     -45.209 -29.232   6.254  1.00  0.00    -0.003 C 
ATOM     10  C   UNL     1     -44.527 -30.121   7.294  1.00  0.00     0.004 C 
ENDBRANCH   8   9
ENDBRANCH   7   8
ENDBRANCH   1   7
TORSDOF 6
ENDMDL
MODEL 2
REMARK VINA RESULT:    -3.459      3.821      5.288
REMARK INTER + INTRA:          -4.891
REMARK INTER:                  -4.569
REMARK INTRA:                  -0.322
REMARK UNBOUND:                -0.218
REMARK SMILES CCCCCCCC(=O)[O-]
REMARK SMILES IDX 5 1 6 2 7 3 8 4 9 5 10 6 4 7 3 8 2 9 1 10
REMARK H PARENT
REMARK Flexibility Score: inf
ROOT
ATOM      1  C   UNL     1     -44.994 -29.117   0.163  1.00  0.00     0.000 C 
ENDROOT
BRANCH   1   2
ATOM      2  C   UNL     1     -45.627 -27.790  -0.306  1.00  0.00     0.006 C 
BRANCH   2   3
ATOM      3  C   UNL     1     -46.639 -27.182   0.678  1.00  0.00     0.053 C 
BRANCH   3   4
ATOM      4  C   UNL     1     -45.973 -26.301   1.691  1.00  0.00     0.041 C 
ATOM      5  O   UNL     1     -45.072 -25.496   1.336  1.00  0.00    -0.550 OA
ATOM      6  O   UNL     1     -46.328 -26.392   3.031  1.00  0.00    -0.550 OA
ENDBRANCH   3   4
ENDBRANCH   2   3
ENDBRANCH   1   2
BRANCH   1   7
ATOM      7  C   UNL     1     -43.503 -29.290  -0.183  1.00  0.00     0.000 C 
BRANCH   7   8
ATOM      8  C   UNL     1     -42.748 -27.953  -0.264  1.00  0.00    -0.000 C 
BRANCH   8   9
ATOM      9  C   UNL     1     -41.223 -28.135  -0.221  1.00  0.00    -0.003 C 
ATOM     10  C   UNL     1     -40.806 -29.558   0.153  1.00  0.00     0.004 C 
ENDBRANCH   8   9
ENDBRANCH   7   8
ENDBRANCH   1   7
TORSDOF 6
ENDMDL
MODEL 3
REMARK VINA RESULT:    -3.445      1.658      2.205
REMARK INTER + INTRA:          -4.872
REMARK INTER:                  -4.620
REMARK INTRA:                  -0.252
REMARK UNBOUND:                -0.218
REMARK SMILES CCCCCCCC(=O)[O-]
REMARK SMILES IDX 5 1 6 2 7 3 8 4 9 5 10 6 4 7 3 8 2 9 1 10
REMARK H PARENT
REMARK Flexibility Score: inf
ROOT
ATOM      1  C   UNL     1     -46.302 -26.505   2.894  1.00  0.00     0.000 C 
ENDROOT
BRANCH   1   2
ATOM      2  C   UNL     1     -45.603 -26.316   1.532  1.00  0.00     0.006 C 
BRANCH   2   3
ATOM      3  C   UNL     1     -45.330 -27.621   0.768  1.00  0.00     0.053 C 
BRANCH   3   4
ATOM      4  C   UNL     1     -44.350 -27.421  -0.348  1.00  0.00     0.041 C 
ATOM      5  O   UNL     1     -43.113 -27.422  -0.113  1.00  0.00    -0.550 OA
ATOM      6  O   UNL     1     -44.806 -27.203  -1.642  1.00  0.00    -0.550 OA
ENDBRANCH   3   4
ENDBRANCH   2   3
ENDBRANCH   1   2
BRANCH   1   7
ATOM      7  C   UNL     1     -46.377 -27.958   3.397  1.00  0.00     0.000 C 
BRANCH   7   8
ATOM      8  C   UNL     1     -46.064 -28.089   4.897  1.00  0.00    -0.000 C 
BRANCH   8   9
ATOM      9  C   UNL     1     -45.966 -26.726   5.599  1.00  0.00    -0.003 C 
ATOM     10  C   UNL     1     -45.454 -26.835   7.036  1.00  0.00     0.004 C 
ENDBRANCH   8   9
ENDBRANCH   7   8
ENDBRANCH   1   7
TORSDOF 6
ENDMDL
MODEL 4
REMARK VINA RESULT:    -3.433      3.444      5.445
REMARK INTER + INTRA:          -4.855
REMARK INTER:                  -4.583
REMARK INTRA:                  -0.272
REMARK UNBOUND:                -0.218
REMARK SMILES CCCCCCCC(=O)[O-]
REMARK SMILES IDX 5 1 6 2 7 3 8 4 9 5 10 6 4 7 3 8 2 9 1 10
REMARK H PARENT
REMARK Flexibility Score: inf
ROOT
ATOM      1  C   UNL     1     -46.414 -27.849   2.786  1.00  0.00     0.000 C 
ENDROOT
BRANCH   1   2
ATOM      2  C   UNL     1     -46.294 -28.044   4.312  1.00  0.00     0.006 C 
BRANCH   2   3
ATOM      3  C   UNL     1     -46.162 -26.740   5.114  1.00  0.00     0.053 C 
BRANCH   3   4
ATOM      4  C   UNL     1     -45.623 -26.983   6.491  1.00  0.00     0.041 C 
ATOM      5  O   UNL     1     -45.614 -26.053   7.341  1.00  0.00    -0.550 OA
ATOM      6  O   UNL     1     -45.102 -28.226   6.824  1.00  0.00    -0.550 OA
ENDBRANCH   3   4
ENDBRANCH   2   3
ENDBRANCH   1   2
BRANCH   1   7
ATOM      7  C   UNL     1     -46.326 -26.390   2.303  1.00  0.00     0.000 C 
BRANCH   7   8
ATOM      8  C   UNL     1     -45.114 -26.133   1.392  1.00  0.00    -0.000 C 
BRANCH   8   9
ATOM      9  C   UNL     1     -44.909 -27.249   0.357  1.00  0.00    -0.003 C 
ATOM     10  C   UNL     1     -43.449 -27.400  -0.071  1.00  0.00     0.004 C 
ENDBRANCH   8   9
ENDBRANCH   7   8
ENDBRANCH   1   7
TORSDOF 6
ENDMDL
MODEL 5
REMARK VINA RESULT:    -3.424      1.847      2.671
REMARK INTER + INTRA:          -4.843
REMARK INTER:                  -4.591
REMARK INTRA:                  -0.252
REMARK UNBOUND:                -0.218
REMARK SMILES CCCCCCCC(=O)[O-]
REMARK SMILES IDX 5 1 6 2 7 3 8 4 9 5 10 6 4 7 3 8 2 9 1 10
REMARK H PARENT
REMARK Flexibility Score: inf
ROOT
ATOM      1  C   UNL     1     -46.201 -26.447   2.573  1.00  0.00     0.000 C 
ENDROOT
BRANCH   1   2
ATOM      2  C   UNL     1     -45.221 -26.248   1.398  1.00  0.00     0.006 C 
BRANCH   2   3
ATOM      3  C   UNL     1     -44.846 -27.540   0.654  1.00  0.00     0.053 C 
BRANCH   3   4
ATOM      4  C   UNL     1     -43.706 -27.327  -0.295  1.00  0.00     0.041 C 
ATOM      5  O   UNL     1     -43.898 -26.749  -1.398  1.00  0.00    -0.550 OA
ATOM      6  O   UNL     1     -42.438 -27.796   0.025  1.00  0.00    -0.550 OA
ENDBRANCH   3   4
ENDBRANCH   2   3
ENDBRANCH   1   2
BRANCH   1   7
ATOM      7  C   UNL     1     -46.307 -27.889   3.102  1.00  0.00     0.000 C 
BRANCH   7   8
ATOM      8  C   UNL     1     -46.414 -27.958   4.635  1.00  0.00    -0.000 C 
BRANCH   8   9
ATOM      9  C   UNL     1     -45.994 -26.645   5.313  1.00  0.00    -0.003 C 
ATOM     10  C   UNL     1     -45.594 -26.835   6.776  1.00  0.00     0.004 C 
ENDBRANCH   8   9
ENDBRANCH   7   8
ENDBRANCH   1   7
TORSDOF 6
ENDMDL
MODEL 6
REMARK VINA RESULT:    -3.419      1.273      2.076
REMARK INTER + INTRA:          -4.836
REMARK INTER:                  -4.478
REMARK INTRA:                  -0.359
REMARK UNBOUND:                -0.218
REMARK SMILES CCCCCCCC(=O)[O-]
REMARK SMILES IDX 5 1 6 2 7 3 8 4 9 5 10 6 4 7 3 8 2 9 1 10
REMARK H PARENT
REMARK Flexibility Score: inf
ROOT
ATOM      1  C   UNL     1     -45.999 -29.162   3.821  1.00  0.00     0.000 C 
ENDROOT
BRANCH   1   2
ATOM      2  C   UNL     1     -46.458 -28.275   2.645  1.00  0.00     0.006 C 
BRANCH   2   3
ATOM      3  C   UNL     1     -46.295 -26.765   2.882  1.00  0.00     0.053 C 
BRANCH   3   4
ATOM      4  C   UNL     1     -46.033 -26.023   1.607  1.00  0.00     0.041 C 
ATOM      5  O   UNL     1     -44.932 -26.157   1.010  1.00  0.00    -0.550 OA
ATOM      6  O   UNL     1     -46.993 -25.160   1.095  1.00  0.00    -0.550 OA
ENDBRANCH   3   4
ENDBRANCH   2   3
ENDBRANCH   1   2
BRANCH   1   7
ATOM      7  C   UNL     1     -46.444 -28.684   5.215  1.00  0.00     0.000 C 
BRANCH   7   8
ATOM      8  C   UNL     1     -45.295 -28.671   6.238  1.00  0.00    -0.000 C 
BRANCH   8   9
ATOM      9  C   UNL     1     -45.261 -27.379   7.068  1.00  0.00    -0.003 C 
ATOM     10  C   UNL     1     -46.149 -26.278   6.488  1.00  0.00     0.004 C 
ENDBRANCH   8   9
ENDBRANCH   7   8
ENDBRANCH   1   7
TORSDOF 6
ENDMDL
MODEL 7
REMARK VINA RESULT:    -3.347      3.075      5.395
REMARK INTER + INTRA:          -4.739
REMARK INTER:                  -4.580
REMARK INTRA:                  -0.159
REMARK UNBOUND:                -0.218
REMARK SMILES CCCCCCCC(=O)[O-]
REMARK SMILES IDX 5 1 6 2 7 3 8 4 9 5 10 6 4 7 3 8 2 9 1 10
REMARK H PARENT
REMARK Flexibility Score: inf
ROOT
ATOM      1  C   UNL     1     -45.444 -26.169   1.531  1.00  0.00     0.000 C 
ENDROOT
BRANCH   1   2
ATOM      2  C   UNL     1     -46.566 -26.426   2.559  1.00  0.00     0.006 C 
BRANCH   2   3
ATOM      3  C   UNL     1     -46.372 -27.688   3.415  1.00  0.00     0.053 C 
BRANCH   3   4
ATOM      4  C   UNL     1     -46.195 -27.358   4.865  1.00  0.00     0.041 C 
ATOM      5  O   UNL     1     -45.524 -28.120   5.611  1.00  0.00    -0.550 OA
ATOM      6  O   UNL     1     -46.799 -26.227   5.399  1.00  0.00    -0.550 OA
ENDBRANCH   3   4
ENDBRANCH   2   3
ENDBRANCH   1   2
BRANCH   1   7
ATOM      7  C   UNL     1     -44.976 -27.409   0.748  1.00  0.00     0.000 C 
BRANCH   7   8
ATOM      8  C   UNL     1     -43.697 -27.154  -0.068  1.00  0.00    -0.000 C 
BRANCH   8   9
ATOM      9  C   UNL     1     -42.893 -28.438  -0.319  1.00  0.00    -0.003 C 
ATOM     10  C   UNL     1     -41.383 -28.224  -0.208  1.00  0.00     0.004 C 
ENDBRANCH   8   9
ENDBRANCH   7   8
ENDBRANCH   1   7
TORSDOF 6
ENDMDL
MODEL 8
REMARK VINA RESULT:    -3.258      1.404      2.252
REMARK INTER + INTRA:          -4.618
REMARK INTER:                  -4.418
REMARK INTRA:                  -0.200
REMARK UNBOUND:                -0.218
REMARK SMILES CCCCCCCC(=O)[O-]
REMARK SMILES IDX 5 1 6 2 7 3 8 4 9 5 10 6 4 7 3 8 2 9 1 10
REMARK H PARENT
REMARK Flexibility Score: inf
ROOT
ATOM      1  C   UNL     1     -46.132 -27.511   2.260  1.00  0.00     0.000 C 
ENDROOT
BRANCH   1   2
ATOM      2  C   UNL     1     -45.562 -26.554   1.193  1.00  0.00     0.006 C 
BRANCH   2   3
ATOM      3  C   UNL     1     -44.306 -27.073   0.474  1.00  0.00     0.053 C 
BRANCH   3   4
ATOM      4  C   UNL     1     -44.649 -27.842  -0.765  1.00  0.00     0.041 C 
ATOM      5  O   UNL     1     -45.394 -27.331  -1.643  1.00  0.00    -0.550 OA
ATOM      6  O   UNL     1     -44.171 -29.135  -0.935  1.00  0.00    -0.550 OA
ENDBRANCH   3   4
ENDBRANCH   2   3
ENDBRANCH   1   2
BRANCH   1   7
ATOM      7  C   UNL     1     -46.865 -26.828   3.429  1.00  0.00     0.000 C 
BRANCH   7   8
ATOM      8  C   UNL     1     -46.129 -26.986   4.770  1.00  0.00    -0.000 C 
BRANCH   8   9
ATOM      9  C   UNL     1     -45.946 -28.457   5.172  1.00  0.00    -0.003 C 
ATOM     10  C   UNL     1     -45.222 -28.621   6.509  1.00  0.00     0.004 C 
ENDBRANCH   8   9
ENDBRANCH   7   8
ENDBRANCH   1   7
TORSDOF 6
ENDMDL
MODEL 9
REMARK VINA RESULT:    -3.161      5.364      6.257
REMARK INTER + INTRA:          -4.488
REMARK INTER:                  -4.220
REMARK INTRA:                  -0.268
REMARK UNBOUND:                -0.218
REMARK SMILES CCCCCCCC(=O)[O-]
REMARK SMILES IDX 5 1 6 2 7 3 8 4 9 5 10 6 4 7 3 8 2 9 1 10
REMARK H PARENT
REMARK Flexibility Score: inf
ROOT
ATOM      1  C   UNL     1     -44.702 -29.357  -1.350  1.00  0.00     0.000 C 
ENDROOT
BRANCH   1   2
ATOM      2  C   UNL     1     -45.818 -28.403  -1.824  1.00  0.00     0.006 C 
BRANCH   2   3
ATOM      3  C   UNL     1     -46.223 -28.575  -3.297  1.00  0.00     0.053 C 
BRANCH   3   4
ATOM      4  C   UNL     1     -45.508 -27.608  -4.191  1.00  0.00     0.041 C 
ATOM      5  O   UNL     1     -45.561 -27.743  -5.442  1.00  0.00    -0.550 OA
ATOM      6  O   UNL     1     -44.758 -26.577  -3.639  1.00  0.00    -0.550 OA
ENDBRANCH   3   4
ENDBRANCH   2   3
ENDBRANCH   1   2
BRANCH   1   7
ATOM      7  C   UNL     1     -43.917 -28.885  -0.113  1.00  0.00     0.000 C 
BRANCH   7   8
ATOM      8  C   UNL     1     -42.989 -27.695  -0.411  1.00  0.00    -0.000 C 
BRANCH   8   9
ATOM      9  C   UNL     1     -41.503 -28.071  -0.318  1.00  0.00    -0.003 C 
ATOM     10  C   UNL     1     -41.283 -29.543   0.030  1.00  0.00     0.004 C 
ENDBRANCH   8   9
ENDBRANCH   7   8
ENDBRANCH   1   7
TORSDOF 6
ENDMDL
