MODEL 1
REMARK VINA RESULT:    -6.655      0.000      0.000
REMARK INTER + INTRA:          -8.294
REMARK INTER:                  -8.017
REMARK INTRA:                  -0.277
REMARK UNBOUND:                -0.277
REMARK SMILES O=c1c(O)c(-c2ccc(O)cc2O)oc2cc(O)cc(O)c12
REMARK SMILES IDX 5 1 3 2 2 3 1 4 22 5 20 6 19 7 17 8 16 9 15 10 14 11 6 12
REMARK SMILES IDX 8 13 7 14 9 15 11 16 12 17 10 18 13 20 4 22 21 24 18 26
REMARK H PARENT 10 19 13 21 4 23 21 25 18 27
REMARK Flexibility Score: inf
ROOT
ATOM      1  C   UNL     1      34.556  10.028 106.426  1.00  0.00     0.184 A 
ATOM      2  C   UNL     1      33.545  10.432 105.540  1.00  0.00     0.208 A 
ATOM      3  C   UNL     1      32.374   9.663 105.448  1.00  0.00     0.238 A 
ATOM      4  O   UNL     1      31.449  10.059 104.693  1.00  0.00    -0.285 OA
ATOM      5  C   UNL     1      32.238   8.492 106.233  1.00  0.00     0.111 A 
ATOM      6  C   UNL     1      31.112   7.615 106.191  1.00  0.00     0.134 A 
ATOM      7  C   UNL     1      31.027   6.557 107.104  1.00  0.00     0.093 A 
ATOM      8  C   UNL     1      32.057   6.306 108.015  1.00  0.00     0.123 A 
ATOM      9  C   UNL     1      33.187   7.121 108.023  1.00  0.00     0.094 A 
ATOM     10  C   UNL     1      33.285   8.205 107.148  1.00  0.00     0.146 A 
ATOM     11  O   UNL     1      34.374   8.963 107.197  1.00  0.00    -0.451 OA
ENDROOT
BRANCH   1  12
ATOM     12  C   UNL     1      35.820  10.783 106.558  1.00  0.00     0.063 A 
ATOM     13  C   UNL     1      37.785  11.746 105.497  1.00  0.00     0.047 A 
ATOM     14  C   UNL     1      36.587  11.032 105.408  1.00  0.00     0.020 A 
ATOM     15  C   UNL     1      38.223  12.233 106.731  1.00  0.00     0.119 A 
ATOM     16  C   UNL     1      37.454  12.011 107.879  1.00  0.00     0.093 A 
ATOM     17  C   UNL     1      36.247  11.300 107.799  1.00  0.00     0.130 A 
BRANCH  15  18
ATOM     18  O   UNL     1      39.421  12.940 106.803  1.00  0.00    -0.508 OA
ATOM     19  H   UNL     1      40.145  12.828 106.102  1.00  0.00     0.293 HD
ENDBRANCH  15  18
BRANCH  17  20
ATOM     20  O   UNL     1      35.465  11.127 108.940  1.00  0.00    -0.507 OA
ATOM     21  H   UNL     1      34.656  11.711 109.124  1.00  0.00     0.293 HD
ENDBRANCH  17  20
ENDBRANCH   1  12
BRANCH   2  22
ATOM     22  O   UNL     1      33.698  11.602 104.792  1.00  0.00    -0.502 OA
ATOM     23  H   UNL     1      33.210  12.460 105.020  1.00  0.00     0.293 HD
ENDBRANCH   2  22
BRANCH   6  24
ATOM     24  O   UNL     1      30.073   7.722 105.262  1.00  0.00    -0.507 OA
ATOM     25  H   UNL     1      30.069   8.354 104.475  1.00  0.00     0.293 HD
ENDBRANCH   6  24
BRANCH   8  26
ATOM     26  O   UNL     1      31.971   5.242 108.909  1.00  0.00    -0.508 OA
ATOM     27  H   UNL     1      31.609   4.338 108.625  1.00  0.00     0.293 HD
ENDBRANCH   8  26
TORSDOF 6
ENDMDL
MODEL 2
REMARK VINA RESULT:    -6.535      1.006      1.494
REMARK INTER + INTRA:          -8.149
REMARK INTER:                  -7.751
REMARK INTRA:                  -0.398
REMARK UNBOUND:                -0.277
REMARK SMILES O=c1c(O)c(-c2ccc(O)cc2O)oc2cc(O)cc(O)c12
REMARK SMILES IDX 5 1 3 2 2 3 1 4 22 5 20 6 19 7 17 8 16 9 15 10 14 11 6 12
REMARK SMILES IDX 8 13 7 14 9 15 11 16 12 17 10 18 13 20 4 22 21 24 18 26
REMARK H PARENT 10 19 13 21 4 23 21 25 18 27
REMARK Flexibility Score: inf
ROOT
ATOM      1  C   UNL     1      34.641  10.546 106.328  1.00  0.00     0.184 A 
ATOM      2  C   UNL     1      33.564  10.896 105.500  1.00  0.00     0.208 A 
ATOM      3  C   UNL     1      32.438  10.060 105.457  1.00  0.00     0.238 A 
ATOM      4  O   UNL     1      31.453  10.407 104.755  1.00  0.00    -0.285 OA
ATOM      5  C   UNL     1      32.412   8.875 106.232  1.00  0.00     0.111 A 
ATOM      6  C   UNL     1      31.340   7.932 106.235  1.00  0.00     0.134 A 
ATOM      7  C   UNL     1      31.365   6.862 107.138  1.00  0.00     0.093 A 
ATOM      8  C   UNL     1      32.454   6.663 107.992  1.00  0.00     0.123 A 
ATOM      9  C   UNL     1      33.532   7.545 107.953  1.00  0.00     0.094 A 
ATOM     10  C   UNL     1      33.520   8.642 107.089  1.00  0.00     0.146 A 
ATOM     11  O   UNL     1      34.564   9.463 107.093  1.00  0.00    -0.451 OA
ENDROOT
BRANCH   1  12
ATOM     12  C   UNL     1      35.863  11.373 106.405  1.00  0.00     0.063 A 
ATOM     13  C   UNL     1      37.051  13.234 107.426  1.00  0.00     0.047 A 
ATOM     14  C   UNL     1      35.909  12.435 107.324  1.00  0.00     0.020 A 
ATOM     15  C   UNL     1      38.165  12.974 106.625  1.00  0.00     0.119 A 
ATOM     16  C   UNL     1      38.138  11.904 105.722  1.00  0.00     0.093 A 
ATOM     17  C   UNL     1      36.999  11.093 105.616  1.00  0.00     0.130 A 
BRANCH  15  18
ATOM     18  O   UNL     1      39.294  13.783 106.736  1.00  0.00    -0.508 OA
ATOM     19  H   UNL     1      39.225  14.794 106.710  1.00  0.00     0.293 HD
ENDBRANCH  15  18
BRANCH  17  20
ATOM     20  O   UNL     1      37.002  10.000 104.750  1.00  0.00    -0.507 OA
ATOM     21  H   UNL     1      37.835   9.441 104.603  1.00  0.00     0.293 HD
ENDBRANCH  17  20
ENDBRANCH   1  12
BRANCH   2  22
ATOM     22  O   UNL     1      33.609  12.082 104.760  1.00  0.00    -0.502 OA
ATOM     23  H   UNL     1      34.431  12.673 104.732  1.00  0.00     0.293 HD
ENDBRANCH   2  22
BRANCH   6  24
ATOM     24  O   UNL     1      30.250   7.986 105.362  1.00  0.00    -0.507 OA
ATOM     25  H   UNL     1      30.125   8.683 104.643  1.00  0.00     0.293 HD
ENDBRANCH   6  24
BRANCH   8  26
ATOM     26  O   UNL     1      32.477   5.587 108.875  1.00  0.00    -0.508 OA
ATOM     27  H   UNL     1      32.538   5.725 109.878  1.00  0.00     0.293 HD
ENDBRANCH   8  26
TORSDOF 6
ENDMDL
MODEL 3
REMARK VINA RESULT:    -6.322      1.075      1.229
REMARK INTER + INTRA:          -7.892
REMARK INTER:                  -7.468
REMARK INTRA:                  -0.424
REMARK UNBOUND:                -0.277
REMARK SMILES O=c1c(O)c(-c2ccc(O)cc2O)oc2cc(O)cc(O)c12
REMARK SMILES IDX 5 1 3 2 2 3 1 4 22 5 20 6 19 7 17 8 16 9 15 10 14 11 6 12
REMARK SMILES IDX 8 13 7 14 9 15 11 16 12 17 10 18 13 20 4 22 21 24 18 26
REMARK H PARENT 10 19 13 21 4 23 21 25 18 27
REMARK Flexibility Score: inf
ROOT
ATOM      1  C   UNL     1      35.342  10.608 106.071  1.00  0.00     0.184 A 
ATOM      2  C   UNL     1      34.242  11.065 105.330  1.00  0.00     0.208 A 
ATOM      3  C   UNL     1      33.010  10.405 105.461  1.00  0.00     0.238 A 
ATOM      4  O   UNL     1      32.014  10.853 104.836  1.00  0.00    -0.285 OA
ATOM      5  C   UNL     1      32.901   9.285 106.320  1.00  0.00     0.111 A 
ATOM      6  C   UNL     1      31.713   8.513 106.500  1.00  0.00     0.134 A 
ATOM      7  C   UNL     1      31.684   7.506 107.472  1.00  0.00     0.093 A 
ATOM      8  C   UNL     1      32.820   7.199 108.226  1.00  0.00     0.123 A 
ATOM      9  C   UNL     1      34.001   7.906 108.016  1.00  0.00     0.094 A 
ATOM     10  C   UNL     1      34.052   8.940 107.078  1.00  0.00     0.146 A 
ATOM     11  O   UNL     1      35.195   9.596 106.918  1.00  0.00    -0.451 OA
ENDROOT
BRANCH   1  12
ATOM     12  C   UNL     1      36.670  11.248 105.966  1.00  0.00     0.063 A 
ATOM     13  C   UNL     1      38.708  11.607 104.688  1.00  0.00     0.047 A 
ATOM     14  C   UNL     1      37.449  11.014 104.821  1.00  0.00     0.020 A 
ATOM     15  C   UNL     1      39.196  12.452 105.687  1.00  0.00     0.119 A 
ATOM     16  C   UNL     1      38.417  12.710 106.822  1.00  0.00     0.093 A 
ATOM     17  C   UNL     1      37.150  12.124 106.962  1.00  0.00     0.130 A 
BRANCH  15  18
ATOM     18  O   UNL     1      40.454  13.032 105.541  1.00  0.00    -0.508 OA
ATOM     19  H   UNL     1      40.620  13.774 104.870  1.00  0.00     0.293 HD
ENDBRANCH  15  18
BRANCH  17  20
ATOM     20  O   UNL     1      36.362  12.427 108.072  1.00  0.00    -0.507 OA
ATOM     21  H   UNL     1      35.369  12.223 108.090  1.00  0.00     0.293 HD
ENDBRANCH  17  20
ENDBRANCH   1  12
BRANCH   2  22
ATOM     22  O   UNL     1      34.373  12.185 104.504  1.00  0.00    -0.502 OA
ATOM     23  H   UNL     1      34.567  13.110 104.869  1.00  0.00     0.293 HD
ENDBRANCH   2  22
BRANCH   6  24
ATOM     24  O   UNL     1      30.553   8.677 105.737  1.00  0.00    -0.507 OA
ATOM     25  H   UNL     1      30.364   9.472 105.143  1.00  0.00     0.293 HD
ENDBRANCH   6  24
BRANCH   8  26
ATOM     26  O   UNL     1      32.786   6.185 109.180  1.00  0.00    -0.508 OA
ATOM     27  H   UNL     1      32.971   6.372 110.160  1.00  0.00     0.293 HD
ENDBRANCH   8  26
TORSDOF 6
ENDMDL
MODEL 4
REMARK VINA RESULT:    -5.794      1.578      7.118
REMARK INTER + INTRA:          -7.256
REMARK INTER:                  -6.866
REMARK INTRA:                  -0.390
REMARK UNBOUND:                -0.277
REMARK SMILES O=c1c(O)c(-c2ccc(O)cc2O)oc2cc(O)cc(O)c12
REMARK SMILES IDX 5 1 3 2 2 3 1 4 22 5 20 6 19 7 17 8 16 9 15 10 14 11 6 12
REMARK SMILES IDX 8 13 7 14 9 15 11 16 12 17 10 18 13 20 4 22 21 24 18 26
REMARK H PARENT 10 19 13 21 4 23 21 25 18 27
REMARK Flexibility Score: inf
ROOT
ATOM      1  C   UNL     1      35.340  10.452 106.687  1.00  0.00     0.184 A 
ATOM      2  C   UNL     1      35.630  11.371 107.706  1.00  0.00     0.208 A 
ATOM      3  C   UNL     1      36.778  12.171 107.594  1.00  0.00     0.238 A 
ATOM      4  O   UNL     1      37.005  13.031 108.484  1.00  0.00    -0.285 OA
ATOM      5  C   UNL     1      37.628  12.029 106.470  1.00  0.00     0.111 A 
ATOM      6  C   UNL     1      38.839  12.759 106.272  1.00  0.00     0.134 A 
ATOM      7  C   UNL     1      39.532  12.630 105.062  1.00  0.00     0.093 A 
ATOM      8  C   UNL     1      39.094  11.750 104.069  1.00  0.00     0.123 A 
ATOM      9  C   UNL     1      37.945  10.989 104.278  1.00  0.00     0.094 A 
ATOM     10  C   UNL     1      37.212  11.121 105.460  1.00  0.00     0.146 A 
ATOM     11  O   UNL     1      36.118  10.385 105.613  1.00  0.00    -0.451 OA
ENDROOT
BRANCH   1  12
ATOM     12  C   UNL     1      34.157   9.568 106.752  1.00  0.00     0.063 A 
ATOM     13  C   UNL     1      32.991   7.735 107.845  1.00  0.00     0.047 A 
ATOM     14  C   UNL     1      34.097   8.584 107.752  1.00  0.00     0.020 A 
ATOM     15  C   UNL     1      31.926   7.867 106.951  1.00  0.00     0.119 A 
ATOM     16  C   UNL     1      31.965   8.860 105.964  1.00  0.00     0.093 A 
ATOM     17  C   UNL     1      33.069   9.721 105.867  1.00  0.00     0.130 A 
BRANCH  15  18
ATOM     18  O   UNL     1      30.832   7.010 107.054  1.00  0.00    -0.508 OA
ATOM     19  H   UNL     1      30.004   7.137 106.483  1.00  0.00     0.293 HD
ENDBRANCH  15  18
BRANCH  17  20
ATOM     20  O   UNL     1      33.075  10.737 104.912  1.00  0.00    -0.507 OA
ATOM     21  H   UNL     1      32.919  10.544 103.929  1.00  0.00     0.293 HD
ENDBRANCH  17  20
ENDBRANCH   1  12
BRANCH   2  22
ATOM     22  O   UNL     1      34.764  11.504 108.795  1.00  0.00    -0.502 OA
ATOM     23  H   UNL     1      35.099  11.663 109.738  1.00  0.00     0.293 HD
ENDBRANCH   2  22
BRANCH   6  24
ATOM     24  O   UNL     1      39.413  13.594 107.234  1.00  0.00    -0.507 OA
ATOM     25  H   UNL     1      39.520  13.358 108.210  1.00  0.00     0.293 HD
ENDBRANCH   6  24
BRANCH   8  26
ATOM     26  O   UNL     1      39.798  11.616 102.875  1.00  0.00    -0.508 OA
ATOM     27  H   UNL     1      40.752  11.948 102.783  1.00  0.00     0.293 HD
ENDBRANCH   8  26
TORSDOF 6
ENDMDL
MODEL 5
REMARK VINA RESULT:    -5.511      1.468      6.386
REMARK INTER + INTRA:          -6.915
REMARK INTER:                  -7.095
REMARK INTRA:                   0.179
REMARK UNBOUND:                -0.277
REMARK SMILES O=c1c(O)c(-c2ccc(O)cc2O)oc2cc(O)cc(O)c12
REMARK SMILES IDX 5 1 3 2 2 3 1 4 22 5 20 6 19 7 17 8 16 9 15 10 14 11 6 12
REMARK SMILES IDX 8 13 7 14 9 15 11 16 12 17 10 18 13 20 4 22 21 24 18 26
REMARK H PARENT 10 19 13 21 4 23 21 25 18 27
REMARK Flexibility Score: inf
ROOT
ATOM      1  C   UNL     1      33.093   9.448 106.203  1.00  0.00     0.184 A 
ATOM      2  C   UNL     1      32.561  10.539 105.498  1.00  0.00     0.208 A 
ATOM      3  C   UNL     1      33.345  11.692 105.337  1.00  0.00     0.238 A 
ATOM      4  O   UNL     1      32.884  12.646 104.659  1.00  0.00    -0.285 OA
ATOM      5  C   UNL     1      34.644  11.743 105.897  1.00  0.00     0.111 A 
ATOM      6  C   UNL     1      35.512  12.876 105.831  1.00  0.00     0.134 A 
ATOM      7  C   UNL     1      36.824  12.769 106.308  1.00  0.00     0.093 A 
ATOM      8  C   UNL     1      37.280  11.592 106.908  1.00  0.00     0.123 A 
ATOM      9  C   UNL     1      36.422  10.502 107.031  1.00  0.00     0.094 A 
ATOM     10  C   UNL     1      35.119  10.565 106.533  1.00  0.00     0.146 A 
ATOM     11  O   UNL     1      34.338   9.498 106.661  1.00  0.00    -0.451 OA
ENDROOT
BRANCH   1  12
ATOM     12  C   UNL     1      32.314   8.211 106.423  1.00  0.00     0.063 A 
ATOM     13  C   UNL     1      30.627   6.650 105.629  1.00  0.00     0.047 A 
ATOM     14  C   UNL     1      31.376   7.816 105.455  1.00  0.00     0.020 A 
ATOM     15  C   UNL     1      30.815   5.856 106.763  1.00  0.00     0.119 A 
ATOM     16  C   UNL     1      31.764   6.228 107.723  1.00  0.00     0.093 A 
ATOM     17  C   UNL     1      32.526   7.394 107.554  1.00  0.00     0.130 A 
BRANCH  15  18
ATOM     18  O   UNL     1      30.057   4.698 106.924  1.00  0.00    -0.508 OA
ATOM     19  H   UNL     1      30.487   3.780 106.925  1.00  0.00     0.293 HD
ENDBRANCH  15  18
BRANCH  17  20
ATOM     20  O   UNL     1      33.503   7.729 108.491  1.00  0.00    -0.507 OA
ATOM     21  H   UNL     1      33.278   7.850 109.473  1.00  0.00     0.293 HD
ENDBRANCH  17  20
ENDBRANCH   1  12
BRANCH   2  22
ATOM     22  O   UNL     1      31.283  10.453 104.940  1.00  0.00    -0.502 OA
ATOM     23  H   UNL     1      30.637  11.234 104.942  1.00  0.00     0.293 HD
ENDBRANCH   2  22
BRANCH   6  24
ATOM     24  O   UNL     1      35.127  14.125 105.335  1.00  0.00    -0.507 OA
ATOM     25  H   UNL     1      34.470  14.267 104.583  1.00  0.00     0.293 HD
ENDBRANCH   6  24
BRANCH   8  26
ATOM     26  O   UNL     1      38.582  11.500 107.393  1.00  0.00    -0.508 OA
ATOM     27  H   UNL     1      38.902  10.683 107.901  1.00  0.00     0.293 HD
ENDBRANCH   8  26
TORSDOF 6
ENDMDL
MODEL 6
REMARK VINA RESULT:    -5.327      1.535      3.046
REMARK INTER + INTRA:          -6.693
REMARK INTER:                  -6.390
REMARK INTRA:                  -0.303
REMARK UNBOUND:                -0.277
REMARK SMILES O=c1c(O)c(-c2ccc(O)cc2O)oc2cc(O)cc(O)c12
REMARK SMILES IDX 5 1 3 2 2 3 1 4 22 5 20 6 19 7 17 8 16 9 15 10 14 11 6 12
REMARK SMILES IDX 8 13 7 14 9 15 11 16 12 17 10 18 13 20 4 22 21 24 18 26
REMARK H PARENT 10 19 13 21 4 23 21 25 18 27
REMARK Flexibility Score: inf
ROOT
ATOM      1  C   UNL     1      34.487  10.133 106.167  1.00  0.00     0.184 A 
ATOM      2  C   UNL     1      34.684   9.514 107.410  1.00  0.00     0.208 A 
ATOM      3  C   UNL     1      33.780   8.524 107.828  1.00  0.00     0.238 A 
ATOM      4  O   UNL     1      33.993   7.934 108.919  1.00  0.00    -0.285 OA
ATOM      5  C   UNL     1      32.683   8.180 107.003  1.00  0.00     0.111 A 
ATOM      6  C   UNL     1      31.682   7.220 107.345  1.00  0.00     0.134 A 
ATOM      7  C   UNL     1      30.714   6.866 106.397  1.00  0.00     0.093 A 
ATOM      8  C   UNL     1      30.671   7.482 105.143  1.00  0.00     0.123 A 
ATOM      9  C   UNL     1      31.608   8.463 104.824  1.00  0.00     0.094 A 
ATOM     10  C   UNL     1      32.607   8.813 105.734  1.00  0.00     0.146 A 
ATOM     11  O   UNL     1      33.487   9.744 105.384  1.00  0.00    -0.451 OA
ENDROOT
BRANCH   1  12
ATOM     12  C   UNL     1      35.391  11.194 105.675  1.00  0.00     0.063 A 
ATOM     13  C   UNL     1      37.635  11.880 105.038  1.00  0.00     0.047 A 
ATOM     14  C   UNL     1      36.754  10.901 105.506  1.00  0.00     0.020 A 
ATOM     15  C   UNL     1      37.164  13.156 104.719  1.00  0.00     0.119 A 
ATOM     16  C   UNL     1      35.803  13.450 104.862  1.00  0.00     0.093 A 
ATOM     17  C   UNL     1      34.910  12.473 105.325  1.00  0.00     0.130 A 
BRANCH  15  18
ATOM     18  O   UNL     1      38.057  14.121 104.258  1.00  0.00    -0.508 OA
ATOM     19  H   UNL     1      38.369  14.881 104.853  1.00  0.00     0.293 HD
ENDBRANCH  15  18
BRANCH  17  20
ATOM     20  O   UNL     1      33.548  12.762 105.416  1.00  0.00    -0.507 OA
ATOM     21  H   UNL     1      33.159  13.613 105.025  1.00  0.00     0.293 HD
ENDBRANCH  17  20
ENDBRANCH   1  12
BRANCH   2  22
ATOM     22  O   UNL     1      35.787   9.860 108.196  1.00  0.00    -0.502 OA
ATOM     23  H   UNL     1      35.713  10.487 108.988  1.00  0.00     0.293 HD
ENDBRANCH   2  22
BRANCH   6  24
ATOM     24  O   UNL     1      31.579   6.612 108.599  1.00  0.00    -0.507 OA
ATOM     25  H   UNL     1      31.632   5.617 108.761  1.00  0.00     0.293 HD
ENDBRANCH   6  24
BRANCH   8  26
ATOM     26  O   UNL     1      29.696   7.135 104.213  1.00  0.00    -0.508 OA
ATOM     27  H   UNL     1      28.712   7.313 104.383  1.00  0.00     0.293 HD
ENDBRANCH   8  26
TORSDOF 6
ENDMDL
MODEL 7
REMARK VINA RESULT:    -5.260      2.511      4.455
REMARK INTER + INTRA:          -6.613
REMARK INTER:                  -6.202
REMARK INTRA:                  -0.410
REMARK UNBOUND:                -0.277
REMARK SMILES O=c1c(O)c(-c2ccc(O)cc2O)oc2cc(O)cc(O)c12
REMARK SMILES IDX 5 1 3 2 2 3 1 4 22 5 20 6 19 7 17 8 16 9 15 10 14 11 6 12
REMARK SMILES IDX 8 13 7 14 9 15 11 16 12 17 10 18 13 20 4 22 21 24 18 26
REMARK H PARENT 10 19 13 21 4 23 21 25 18 27
REMARK Flexibility Score: inf
ROOT
ATOM      1  C   UNL     1      38.018  12.083 105.134  1.00  0.00     0.184 A 
ATOM      2  C   UNL     1      37.190  12.976 104.439  1.00  0.00     0.208 A 
ATOM      3  C   UNL     1      35.803  12.759 104.438  1.00  0.00     0.238 A 
ATOM      4  O   UNL     1      35.061  13.593 103.858  1.00  0.00    -0.285 OA
ATOM      5  C   UNL     1      35.266  11.640 105.119  1.00  0.00     0.111 A 
ATOM      6  C   UNL     1      33.880  11.299 105.151  1.00  0.00     0.134 A 
ATOM      7  C   UNL     1      33.448  10.243 105.963  1.00  0.00     0.093 A 
ATOM      8  C   UNL     1      34.358   9.476 106.695  1.00  0.00     0.123 A 
ATOM      9  C   UNL     1      35.719   9.764 106.623  1.00  0.00     0.094 A 
ATOM     10  C   UNL     1      36.178  10.833 105.850  1.00  0.00     0.146 A 
ATOM     11  O   UNL     1      37.483  11.079 105.819  1.00  0.00    -0.451 OA
ENDROOT
BRANCH   1  12
ATOM     12  C   UNL     1      39.487  12.245 105.161  1.00  0.00     0.063 A 
ATOM     13  C   UNL     1      41.632  11.931 104.059  1.00  0.00     0.047 A 
ATOM     14  C   UNL     1      40.242  11.789 104.068  1.00  0.00     0.020 A 
ATOM     15  C   UNL     1      42.283  12.543 105.133  1.00  0.00     0.119 A 
ATOM     16  C   UNL     1      41.538  13.022 106.216  1.00  0.00     0.093 A 
ATOM     17  C   UNL     1      40.141  12.890 106.232  1.00  0.00     0.130 A 
BRANCH  15  18
ATOM     18  O   UNL     1      43.670  12.674 105.110  1.00  0.00    -0.508 OA
ATOM     19  H   UNL     1      44.279  11.865 105.165  1.00  0.00     0.293 HD
ENDBRANCH  15  18
BRANCH  17  20
ATOM     20  O   UNL     1      39.404  13.414 107.293  1.00  0.00    -0.507 OA
ATOM     21  H   UNL     1      38.400  13.288 107.356  1.00  0.00     0.293 HD
ENDBRANCH  17  20
ENDBRANCH   1  12
BRANCH   2  22
ATOM     22  O   UNL     1      37.745  14.083 103.790  1.00  0.00    -0.502 OA
ATOM     23  H   UNL     1      38.681  14.417 103.991  1.00  0.00     0.293 HD
ENDBRANCH   2  22
BRANCH   6  24
ATOM     24  O   UNL     1      32.901  11.941 104.389  1.00  0.00    -0.507 OA
ATOM     25  H   UNL     1      33.080  12.690 103.737  1.00  0.00     0.293 HD
ENDBRANCH   6  24
BRANCH   8  26
ATOM     26  O   UNL     1      33.921   8.418 107.488  1.00  0.00    -0.508 OA
ATOM     27  H   UNL     1      34.328   8.234 108.398  1.00  0.00     0.293 HD
ENDBRANCH   8  26
TORSDOF 6
ENDMDL
MODEL 8
REMARK VINA RESULT:    -5.256      1.652      6.983
REMARK INTER + INTRA:          -6.608
REMARK INTER:                  -6.815
REMARK INTRA:                   0.208
REMARK UNBOUND:                -0.277
REMARK SMILES O=c1c(O)c(-c2ccc(O)cc2O)oc2cc(O)cc(O)c12
REMARK SMILES IDX 5 1 3 2 2 3 1 4 22 5 20 6 19 7 17 8 16 9 15 10 14 11 6 12
REMARK SMILES IDX 8 13 7 14 9 15 11 16 12 17 10 18 13 20 4 22 21 24 18 26
REMARK H PARENT 10 19 13 21 4 23 21 25 18 27
REMARK Flexibility Score: inf
ROOT
ATOM      1  C   UNL     1      33.874   9.560 106.657  1.00  0.00     0.184 A 
ATOM      2  C   UNL     1      34.645   9.850 107.792  1.00  0.00     0.208 A 
ATOM      3  C   UNL     1      35.542  10.929 107.748  1.00  0.00     0.238 A 
ATOM      4  O   UNL     1      36.191  11.219 108.786  1.00  0.00    -0.285 OA
ATOM      5  C   UNL     1      35.666  11.693 106.562  1.00  0.00     0.111 A 
ATOM      6  C   UNL     1      36.572  12.783 106.390  1.00  0.00     0.134 A 
ATOM      7  C   UNL     1      36.518  13.547 105.219  1.00  0.00     0.093 A 
ATOM      8  C   UNL     1      35.635  13.222 104.185  1.00  0.00     0.123 A 
ATOM      9  C   UNL     1      34.788  12.124 104.319  1.00  0.00     0.094 A 
ATOM     10  C   UNL     1      34.794  11.363 105.490  1.00  0.00     0.146 A 
ATOM     11  O   UNL     1      33.963  10.332 105.580  1.00  0.00    -0.451 OA
ENDROOT
BRANCH   1  12
ATOM     12  C   UNL     1      32.924   8.427 106.632  1.00  0.00     0.063 A 
ATOM     13  C   UNL     1      32.290   6.229 107.456  1.00  0.00     0.047 A 
ATOM     14  C   UNL     1      33.170   7.314 107.452  1.00  0.00     0.020 A 
ATOM     15  C   UNL     1      31.147   6.248 106.654  1.00  0.00     0.119 A 
ATOM     16  C   UNL     1      30.880   7.362 105.849  1.00  0.00     0.093 A 
ATOM     17  C   UNL     1      31.755   8.459 105.843  1.00  0.00     0.130 A 
BRANCH  15  18
ATOM     18  O   UNL     1      30.282   5.156 106.666  1.00  0.00    -0.508 OA
ATOM     19  H   UNL     1      29.331   5.230 106.321  1.00  0.00     0.293 HD
ENDBRANCH  15  18
BRANCH  17  20
ATOM     20  O   UNL     1      31.454   9.584 105.076  1.00  0.00    -0.507 OA
ATOM     21  H   UNL     1      31.474   9.557 104.062  1.00  0.00     0.293 HD
ENDBRANCH  17  20
ENDBRANCH   1  12
BRANCH   2  22
ATOM     22  O   UNL     1      34.489   9.092 108.956  1.00  0.00    -0.502 OA
ATOM     23  H   UNL     1      34.995   9.297 109.809  1.00  0.00     0.293 HD
ENDBRANCH   2  22
BRANCH   6  24
ATOM     24  O   UNL     1      37.554  13.135 107.321  1.00  0.00    -0.507 OA
ATOM     25  H   UNL     1      38.030  12.485 107.927  1.00  0.00     0.293 HD
ENDBRANCH   6  24
BRANCH   8  26
ATOM     26  O   UNL     1      35.599  13.979 103.017  1.00  0.00    -0.508 OA
ATOM     27  H   UNL     1      34.735  14.389 102.676  1.00  0.00     0.293 HD
ENDBRANCH   8  26
TORSDOF 6
ENDMDL
MODEL 9
REMARK VINA RESULT:    -5.042      3.801      8.203
REMARK INTER + INTRA:          -6.350
REMARK INTER:                  -6.193
REMARK INTRA:                  -0.157
REMARK UNBOUND:                -0.277
REMARK SMILES O=c1c(O)c(-c2ccc(O)cc2O)oc2cc(O)cc(O)c12
REMARK SMILES IDX 5 1 3 2 2 3 1 4 22 5 20 6 19 7 17 8 16 9 15 10 14 11 6 12
REMARK SMILES IDX 8 13 7 14 9 15 11 16 12 17 10 18 13 20 4 22 21 24 18 26
REMARK H PARENT 10 19 13 21 4 23 21 25 18 27
REMARK Flexibility Score: inf
ROOT
ATOM      1  C   UNL     1      38.092  12.590 104.882  1.00  0.00     0.184 A 
ATOM      2  C   UNL     1      38.721  13.320 103.862  1.00  0.00     0.208 A 
ATOM      3  C   UNL     1      40.123  13.379 103.834  1.00  0.00     0.238 A 
ATOM      4  O   UNL     1      40.684  13.990 102.887  1.00  0.00    -0.285 OA
ATOM      5  C   UNL     1      40.876  12.720 104.836  1.00  0.00     0.111 A 
ATOM      6  C   UNL     1      42.301  12.747 104.929  1.00  0.00     0.134 A 
ATOM      7  C   UNL     1      42.944  11.953 105.886  1.00  0.00     0.093 A 
ATOM      8  C   UNL     1      42.214  11.183 106.795  1.00  0.00     0.123 A 
ATOM      9  C   UNL     1      40.821  11.197 106.750  1.00  0.00     0.094 A 
ATOM     10  C   UNL     1      40.151  11.951 105.784  1.00  0.00     0.146 A 
ATOM     11  O   UNL     1      38.823  11.927 105.770  1.00  0.00    -0.451 OA
ENDROOT
BRANCH   1  12
ATOM     12  C   UNL     1      36.620  12.502 104.979  1.00  0.00     0.063 A 
ATOM     13  C   UNL     1      34.464  13.626 104.935  1.00  0.00     0.047 A 
ATOM     14  C   UNL     1      35.858  13.675 104.853  1.00  0.00     0.020 A 
ATOM     15  C   UNL     1      33.813  12.406 105.129  1.00  0.00     0.119 A 
ATOM     16  C   UNL     1      34.562  11.227 105.233  1.00  0.00     0.093 A 
ATOM     17  C   UNL     1      35.962  11.265 105.146  1.00  0.00     0.130 A 
BRANCH  15  18
ATOM     18  O   UNL     1      32.423  12.375 105.213  1.00  0.00    -0.508 OA
ATOM     19  H   UNL     1      31.950  12.207 106.094  1.00  0.00     0.293 HD
ENDBRANCH  15  18
BRANCH  17  20
ATOM     20  O   UNL     1      36.694  10.080 105.201  1.00  0.00    -0.507 OA
ATOM     21  H   UNL     1      37.283   9.783 104.430  1.00  0.00     0.293 HD
ENDBRANCH  17  20
ENDBRANCH   1  12
BRANCH   2  22
ATOM     22  O   UNL     1      37.954  13.945 102.875  1.00  0.00    -0.502 OA
ATOM     23  H   UNL     1      36.967  13.756 102.754  1.00  0.00     0.293 HD
ENDBRANCH   2  22
BRANCH   6  24
ATOM     24  O   UNL     1      43.120  13.549 104.130  1.00  0.00    -0.507 OA
ATOM     25  H   UNL     1      42.912  14.501 103.868  1.00  0.00     0.293 HD
ENDBRANCH   6  24
BRANCH   8  26
ATOM     26  O   UNL     1      42.862  10.408 107.753  1.00  0.00    -0.508 OA
ATOM     27  H   UNL     1      43.169  10.803 108.635  1.00  0.00     0.293 HD
ENDBRANCH   8  26
TORSDOF 6
ENDMDL
