MODEL 1
REMARK VINA RESULT:    -8.428      0.000      0.000
REMARK INTER + INTRA:         -10.303
REMARK INTER:                 -10.153
REMARK INTRA:                  -0.150
REMARK UNBOUND:                -0.150
REMARK SMILES Oc1cc(O)c2cc(O)c(-c3ccc(O)c(O)c3)[o+]c2c1
REMARK SMILES IDX 10 1 19 2 20 3 21 4 2 5 3 6 4 7 6 8 7 9 8 10 11 11 12 12
REMARK SMILES IDX 13 13 14 14 18 15 16 16 15 17 17 19 9 21 1 23 5 25
REMARK H PARENT 15 18 17 20 9 22 1 24 5 26
REMARK Flexibility Score: inf
ROOT
ATOM      1  C   UNL     1     -34.395  44.234  40.118  1.00  0.00     0.402 A 
ATOM      2  O   UNL     1     -34.018  42.967  40.273  1.00  0.00    -0.202 OA
ATOM      3  C   UNL     1     -34.356  42.229  41.325  1.00  0.00     0.368 A 
ATOM      4  C   UNL     1     -33.915  40.905  41.397  1.00  0.00     0.162 A 
ATOM      5  C   UNL     1     -34.258  40.106  42.491  1.00  0.00     0.128 A 
ATOM      6  C   UNL     1     -35.046  40.632  43.517  1.00  0.00     0.093 A 
ATOM      7  C   UNL     1     -35.501  41.955  43.468  1.00  0.00     0.136 A 
ATOM      8  C   UNL     1     -35.154  42.772  42.361  1.00  0.00     0.125 A 
ATOM      9  C   UNL     1     -35.553  44.112  42.235  1.00  0.00     0.078 A 
ATOM     10  C   UNL     1     -35.167  44.857  41.116  1.00  0.00     0.223 A 
ENDROOT
BRANCH   1  11
ATOM     11  C   UNL     1     -33.961  44.948  38.895  1.00  0.00     0.087 A 
ATOM     12  C   UNL     1     -32.600  45.160  38.615  1.00  0.00     0.022 A 
ATOM     13  C   UNL     1     -32.215  45.858  37.467  1.00  0.00     0.051 A 
ATOM     14  C   UNL     1     -33.183  46.366  36.591  1.00  0.00     0.157 A 
ATOM     15  C   UNL     1     -34.927  45.478  38.024  1.00  0.00     0.068 A 
ATOM     16  C   UNL     1     -34.547  46.176  36.873  1.00  0.00     0.158 A 
BRANCH  14  17
ATOM     17  O   UNL     1     -32.796  47.059  35.445  1.00  0.00    -0.504 OA
ATOM     18  H   UNL     1     -32.572  46.577  34.583  1.00  0.00     0.293 HD
ENDBRANCH  14  17
BRANCH  16  19
ATOM     19  O   UNL     1     -35.534  46.674  36.024  1.00  0.00    -0.504 OA
ATOM     20  H   UNL     1     -36.232  47.338  36.342  1.00  0.00     0.293 HD
ENDBRANCH  16  19
ENDBRANCH   1  11
BRANCH  10  21
ATOM     21  O   UNL     1     -35.521  46.202  41.014  1.00  0.00    -0.500 OA
ATOM     22  H   UNL     1     -35.425  46.839  41.795  1.00  0.00     0.294 HD
ENDBRANCH  10  21
BRANCH   5  23
ATOM     23  O   UNL     1     -33.821  38.785  42.570  1.00  0.00    -0.507 OA
ATOM     24  H   UNL     1     -34.450  38.034  42.831  1.00  0.00     0.293 HD
ENDBRANCH   5  23
BRANCH   7  25
ATOM     25  O   UNL     1     -36.288  42.405  44.533  1.00  0.00    -0.507 OA
ATOM     26  H   UNL     1     -37.184  42.017  44.784  1.00  0.00     0.293 HD
ENDBRANCH   7  25
TORSDOF 6
ENDMDL
MODEL 2
REMARK VINA RESULT:    -7.819      4.802      6.560
REMARK INTER + INTRA:          -9.569
REMARK INTER:                  -9.347
REMARK INTRA:                  -0.222
REMARK UNBOUND:                -0.150
REMARK SMILES Oc1cc(O)c2cc(O)c(-c3ccc(O)c(O)c3)[o+]c2c1
REMARK SMILES IDX 10 1 19 2 20 3 21 4 2 5 3 6 4 7 6 8 7 9 8 10 11 11 12 12
REMARK SMILES IDX 13 13 14 14 18 15 16 16 15 17 17 19 9 21 1 23 5 25
REMARK H PARENT 15 18 17 20 9 22 1 24 5 26
REMARK Flexibility Score: inf
ROOT
ATOM      1  C   UNL     1     -36.323  39.827  43.376  1.00  0.00     0.402 A 
ATOM      2  O   UNL     1     -36.179  39.405  44.630  1.00  0.00    -0.202 OA
ATOM      3  C   UNL     1     -37.205  39.142  45.433  1.00  0.00     0.368 A 
ATOM      4  C   UNL     1     -36.954  38.700  46.735  1.00  0.00     0.162 A 
ATOM      5  C   UNL     1     -38.014  38.413  47.599  1.00  0.00     0.128 A 
ATOM      6  C   UNL     1     -39.331  38.568  47.160  1.00  0.00     0.093 A 
ATOM      7  C   UNL     1     -39.609  39.009  45.861  1.00  0.00     0.136 A 
ATOM      8  C   UNL     1     -38.537  39.304  44.980  1.00  0.00     0.125 A 
ATOM      9  C   UNL     1     -38.721  39.765  43.666  1.00  0.00     0.078 A 
ATOM     10  C   UNL     1     -37.614  40.040  42.857  1.00  0.00     0.223 A 
ENDROOT
BRANCH   1  11
ATOM     11  C   UNL     1     -35.101  40.077  42.577  1.00  0.00     0.087 A 
ATOM     12  C   UNL     1     -34.233  41.141  42.882  1.00  0.00     0.022 A 
ATOM     13  C   UNL     1     -33.098  41.371  42.100  1.00  0.00     0.051 A 
ATOM     14  C   UNL     1     -32.822  40.556  40.995  1.00  0.00     0.157 A 
ATOM     15  C   UNL     1     -34.831  39.275  41.457  1.00  0.00     0.068 A 
ATOM     16  C   UNL     1     -33.695  39.503  40.671  1.00  0.00     0.158 A 
BRANCH  14  17
ATOM     17  O   UNL     1     -31.688  40.787  40.219  1.00  0.00    -0.504 OA
ATOM     18  H   UNL     1     -31.050  40.040  39.974  1.00  0.00     0.293 HD
ENDBRANCH  14  17
BRANCH  16  19
ATOM     19  O   UNL     1     -33.452  38.676  39.575  1.00  0.00    -0.504 OA
ATOM     20  H   UNL     1     -33.307  39.048  38.643  1.00  0.00     0.293 HD
ENDBRANCH  16  19
ENDBRANCH   1  11
BRANCH  10  21
ATOM     21  O   UNL     1     -37.796  40.544  41.570  1.00  0.00    -0.500 OA
ATOM     22  H   UNL     1     -38.717  40.760  41.207  1.00  0.00     0.294 HD
ENDBRANCH  10  21
BRANCH   5  23
ATOM     23  O   UNL     1     -37.771  37.972  48.898  1.00  0.00    -0.507 OA
ATOM     24  H   UNL     1     -38.528  37.778  49.541  1.00  0.00     0.293 HD
ENDBRANCH   5  23
BRANCH   7  25
ATOM     25  O   UNL     1     -40.954  39.135  45.497  1.00  0.00    -0.507 OA
ATOM     26  H   UNL     1     -41.306  39.006  44.561  1.00  0.00     0.293 HD
ENDBRANCH   7  25
TORSDOF 6
ENDMDL
MODEL 3
REMARK VINA RESULT:    -7.755      4.012      9.246
REMARK INTER + INTRA:          -9.492
REMARK INTER:                  -9.240
REMARK INTRA:                  -0.252
REMARK UNBOUND:                -0.150
REMARK SMILES Oc1cc(O)c2cc(O)c(-c3ccc(O)c(O)c3)[o+]c2c1
REMARK SMILES IDX 10 1 19 2 20 3 21 4 2 5 3 6 4 7 6 8 7 9 8 10 11 11 12 12
REMARK SMILES IDX 13 13 14 14 18 15 16 16 15 17 17 19 9 21 1 23 5 25
REMARK H PARENT 15 18 17 20 9 22 1 24 5 26
REMARK Flexibility Score: inf
ROOT
ATOM      1  C   UNL     1     -37.154  39.449  44.081  1.00  0.00     0.402 A 
ATOM      2  O   UNL     1     -35.858  39.750  44.135  1.00  0.00    -0.202 OA
ATOM      3  C   UNL     1     -35.226  40.425  43.181  1.00  0.00     0.368 A 
ATOM      4  C   UNL     1     -33.863  40.696  43.329  1.00  0.00     0.162 A 
ATOM      5  C   UNL     1     -33.175  41.407  42.342  1.00  0.00     0.128 A 
ATOM      6  C   UNL     1     -33.852  41.850  41.203  1.00  0.00     0.093 A 
ATOM      7  C   UNL     1     -35.217  41.592  41.032  1.00  0.00     0.136 A 
ATOM      8  C   UNL     1     -35.920  40.869  42.029  1.00  0.00     0.125 A 
ATOM      9  C   UNL     1     -37.285  40.552  41.936  1.00  0.00     0.078 A 
ATOM     10  C   UNL     1     -37.910  39.830  42.957  1.00  0.00     0.223 A 
ENDROOT
BRANCH   1  11
ATOM     11  C   UNL     1     -37.746  38.699  45.213  1.00  0.00     0.087 A 
ATOM     12  C   UNL     1     -38.700  39.288  46.061  1.00  0.00     0.022 A 
ATOM     13  C   UNL     1     -39.228  38.568  47.137  1.00  0.00     0.051 A 
ATOM     14  C   UNL     1     -38.800  37.258  47.390  1.00  0.00     0.157 A 
ATOM     15  C   UNL     1     -37.305  37.394  45.483  1.00  0.00     0.068 A 
ATOM     16  C   UNL     1     -37.831  36.670  46.559  1.00  0.00     0.158 A 
BRANCH  14  17
ATOM     17  O   UNL     1     -39.329  36.543  48.462  1.00  0.00    -0.504 OA
ATOM     18  H   UNL     1     -39.920  35.732  48.320  1.00  0.00     0.293 HD
ENDBRANCH  14  17
BRANCH  16  19
ATOM     19  O   UNL     1     -37.380  35.370  46.787  1.00  0.00    -0.504 OA
ATOM     20  H   UNL     1     -36.900  35.110  47.641  1.00  0.00     0.293 HD
ENDBRANCH  16  19
ENDBRANCH   1  11
BRANCH  10  21
ATOM     21  O   UNL     1     -39.253  39.473  42.841  1.00  0.00    -0.500 OA
ATOM     22  H   UNL     1     -39.985  40.169  42.763  1.00  0.00     0.294 HD
ENDBRANCH  10  21
BRANCH   5  23
ATOM     23  O   UNL     1     -31.816  41.681  42.483  1.00  0.00    -0.507 OA
ATOM     24  H   UNL     1     -31.217  41.104  43.062  1.00  0.00     0.293 HD
ENDBRANCH   5  23
BRANCH   7  25
ATOM     25  O   UNL     1     -35.822  42.073  39.866  1.00  0.00    -0.507 OA
ATOM     26  H   UNL     1     -36.082  41.497  39.080  1.00  0.00     0.293 HD
ENDBRANCH   7  25
TORSDOF 6
ENDMDL
MODEL 4
REMARK VINA RESULT:    -7.749      5.416      7.657
REMARK INTER + INTRA:          -9.484
REMARK INTER:                  -9.228
REMARK INTRA:                  -0.256
REMARK UNBOUND:                -0.150
REMARK SMILES Oc1cc(O)c2cc(O)c(-c3ccc(O)c(O)c3)[o+]c2c1
REMARK SMILES IDX 10 1 19 2 20 3 21 4 2 5 3 6 4 7 6 8 7 9 8 10 11 11 12 12
REMARK SMILES IDX 13 13 14 14 18 15 16 16 15 17 17 19 9 21 1 23 5 25
REMARK H PARENT 15 18 17 20 9 22 1 24 5 26
REMARK Flexibility Score: inf
ROOT
ATOM      1  C   UNL     1     -36.963  39.894  44.770  1.00  0.00     0.402 A 
ATOM      2  O   UNL     1     -37.003  39.357  45.987  1.00  0.00    -0.202 OA
ATOM      3  C   UNL     1     -38.129  38.970  46.577  1.00  0.00     0.368 A 
ATOM      4  C   UNL     1     -38.069  38.414  47.858  1.00  0.00     0.162 A 
ATOM      5  C   UNL     1     -39.238  37.995  48.500  1.00  0.00     0.128 A 
ATOM      6  C   UNL     1     -40.471  38.132  47.858  1.00  0.00     0.093 A 
ATOM      7  C   UNL     1     -40.557  38.685  46.575  1.00  0.00     0.136 A 
ATOM      8  C   UNL     1     -39.374  39.114  45.920  1.00  0.00     0.125 A 
ATOM      9  C   UNL     1     -39.367  39.692  44.640  1.00  0.00     0.078 A 
ATOM     10  C   UNL     1     -38.160  40.096  44.060  1.00  0.00     0.223 A 
ENDROOT
BRANCH   1  11
ATOM     11  C   UNL     1     -35.643  40.277  44.217  1.00  0.00     0.087 A 
ATOM     12  C   UNL     1     -34.938  41.389  44.711  1.00  0.00     0.022 A 
ATOM     13  C   UNL     1     -33.705  41.746  44.157  1.00  0.00     0.051 A 
ATOM     14  C   UNL     1     -33.167  41.009  43.095  1.00  0.00     0.157 A 
ATOM     15  C   UNL     1     -35.109  39.554  43.138  1.00  0.00     0.068 A 
ATOM     16  C   UNL     1     -33.875  39.908  42.582  1.00  0.00     0.158 A 
BRANCH  14  17
ATOM     17  O   UNL     1     -31.937  41.366  42.547  1.00  0.00    -0.504 OA
ATOM     18  H   UNL     1     -31.808  41.461  41.547  1.00  0.00     0.293 HD
ENDBRANCH  14  17
BRANCH  16  19
ATOM     19  O   UNL     1     -33.369  39.157  41.521  1.00  0.00    -0.504 OA
ATOM     20  H   UNL     1     -32.378  39.122  41.312  1.00  0.00     0.293 HD
ENDBRANCH  16  19
ENDBRANCH   1  11
BRANCH  10  21
ATOM     21  O   UNL     1     -38.158  40.716  42.810  1.00  0.00    -0.500 OA
ATOM     22  H   UNL     1     -38.360  40.203  41.960  1.00  0.00     0.294 HD
ENDBRANCH  10  21
BRANCH   5  23
ATOM     23  O   UNL     1     -39.186  37.440  49.776  1.00  0.00    -0.507 OA
ATOM     24  H   UNL     1     -38.354  37.509  50.350  1.00  0.00     0.293 HD
ENDBRANCH   5  23
BRANCH   7  25
ATOM     25  O   UNL     1     -41.828  38.783  46.000  1.00  0.00    -0.507 OA
ATOM     26  H   UNL     1     -42.330  38.011  45.590  1.00  0.00     0.293 HD
ENDBRANCH   7  25
TORSDOF 6
ENDMDL
MODEL 5
REMARK VINA RESULT:    -7.747      1.820      7.137
REMARK INTER + INTRA:          -9.482
REMARK INTER:                  -9.129
REMARK INTRA:                  -0.352
REMARK UNBOUND:                -0.150
REMARK SMILES Oc1cc(O)c2cc(O)c(-c3ccc(O)c(O)c3)[o+]c2c1
REMARK SMILES IDX 10 1 19 2 20 3 21 4 2 5 3 6 4 7 6 8 7 9 8 10 11 11 12 12
REMARK SMILES IDX 13 13 14 14 18 15 16 16 15 17 17 19 9 21 1 23 5 25
REMARK H PARENT 15 18 17 20 9 22 1 24 5 26
REMARK Flexibility Score: inf
ROOT
ATOM      1  C   UNL     1     -35.076  41.594  42.027  1.00  0.00     0.402 A 
ATOM      2  O   UNL     1     -34.708  41.785  40.763  1.00  0.00    -0.202 OA
ATOM      3  C   UNL     1     -34.719  42.975  40.171  1.00  0.00     0.368 A 
ATOM      4  C   UNL     1     -34.311  43.076  38.839  1.00  0.00     0.162 A 
ATOM      5  C   UNL     1     -34.310  44.315  38.194  1.00  0.00     0.128 A 
ATOM      6  C   UNL     1     -34.720  45.459  38.883  1.00  0.00     0.093 A 
ATOM      7  C   UNL     1     -35.133  45.384  40.219  1.00  0.00     0.136 A 
ATOM      8  C   UNL     1     -35.137  44.128  40.878  1.00  0.00     0.125 A 
ATOM      9  C   UNL     1     -35.549  43.956  42.210  1.00  0.00     0.078 A 
ATOM     10  C   UNL     1     -35.531  42.684  42.791  1.00  0.00     0.223 A 
ENDROOT
BRANCH   1  11
ATOM     11  C   UNL     1     -35.010  40.220  42.576  1.00  0.00     0.087 A 
ATOM     12  C   UNL     1     -33.848  39.738  43.205  1.00  0.00     0.022 A 
ATOM     13  C   UNL     1     -33.801  38.429  43.694  1.00  0.00     0.051 A 
ATOM     14  C   UNL     1     -34.905  37.580  43.549  1.00  0.00     0.157 A 
ATOM     15  C   UNL     1     -36.106  39.357  42.414  1.00  0.00     0.068 A 
ATOM     16  C   UNL     1     -36.063  38.047  42.903  1.00  0.00     0.158 A 
BRANCH  14  17
ATOM     17  O   UNL     1     -34.856  36.277  44.040  1.00  0.00    -0.504 OA
ATOM     18  H   UNL     1     -34.770  36.085  45.031  1.00  0.00     0.293 HD
ENDBRANCH  14  17
BRANCH  16  19
ATOM     19  O   UNL     1     -37.177  37.224  42.737  1.00  0.00    -0.504 OA
ATOM     20  H   UNL     1     -38.115  37.600  42.651  1.00  0.00     0.293 HD
ENDBRANCH  16  19
ENDBRANCH   1  11
BRANCH  10  21
ATOM     21  O   UNL     1     -35.986  42.506  44.097  1.00  0.00    -0.500 OA
ATOM     22  H   UNL     1     -36.953  42.285  44.300  1.00  0.00     0.294 HD
ENDBRANCH  10  21
BRANCH   5  23
ATOM     23  O   UNL     1     -33.904  44.424  36.865  1.00  0.00    -0.507 OA
ATOM     24  H   UNL     1     -34.571  44.586  36.120  1.00  0.00     0.293 HD
ENDBRANCH   5  23
BRANCH   7  25
ATOM     25  O   UNL     1     -35.524  46.575  40.840  1.00  0.00    -0.507 OA
ATOM     26  H   UNL     1     -35.321  47.497  40.484  1.00  0.00     0.293 HD
ENDBRANCH   7  25
TORSDOF 6
ENDMDL
MODEL 6
REMARK VINA RESULT:    -7.694      3.726      6.551
REMARK INTER + INTRA:          -9.419
REMARK INTER:                  -9.076
REMARK INTRA:                  -0.343
REMARK UNBOUND:                -0.150
REMARK SMILES Oc1cc(O)c2cc(O)c(-c3ccc(O)c(O)c3)[o+]c2c1
REMARK SMILES IDX 10 1 19 2 20 3 21 4 2 5 3 6 4 7 6 8 7 9 8 10 11 11 12 12
REMARK SMILES IDX 13 13 14 14 18 15 16 16 15 17 17 19 9 21 1 23 5 25
REMARK H PARENT 15 18 17 20 9 22 1 24 5 26
REMARK Flexibility Score: inf
ROOT
ATOM      1  C   UNL     1     -36.204  39.983  43.869  1.00  0.00     0.402 A 
ATOM      2  O   UNL     1     -37.525  39.898  44.006  1.00  0.00    -0.202 OA
ATOM      3  C   UNL     1     -38.116  39.428  45.100  1.00  0.00     0.368 A 
ATOM      4  C   UNL     1     -39.512  39.381  45.152  1.00  0.00     0.162 A 
ATOM      5  C   UNL     1     -40.159  38.895  46.291  1.00  0.00     0.128 A 
ATOM      6  C   UNL     1     -39.408  38.455  47.383  1.00  0.00     0.093 A 
ATOM      7  C   UNL     1     -38.009  38.492  47.356  1.00  0.00     0.136 A 
ATOM      8  C   UNL     1     -37.346  38.983  46.201  1.00  0.00     0.125 A 
ATOM      9  C   UNL     1     -35.948  39.044  46.080  1.00  0.00     0.078 A 
ATOM     10  C   UNL     1     -35.367  39.536  44.907  1.00  0.00     0.223 A 
ENDROOT
BRANCH   1  11
ATOM     11  C   UNL     1     -35.666  40.534  42.604  1.00  0.00     0.087 A 
ATOM     12  C   UNL     1     -35.246  41.872  42.508  1.00  0.00     0.022 A 
ATOM     13  C   UNL     1     -34.763  42.376  41.297  1.00  0.00     0.051 A 
ATOM     14  C   UNL     1     -34.707  41.556  40.162  1.00  0.00     0.157 A 
ATOM     15  C   UNL     1     -35.627  39.723  41.458  1.00  0.00     0.068 A 
ATOM     16  C   UNL     1     -35.144  40.223  40.244  1.00  0.00     0.158 A 
BRANCH  14  17
ATOM     17  O   UNL     1     -34.223  42.061  38.957  1.00  0.00    -0.504 OA
ATOM     18  H   UNL     1     -34.729  42.768  38.436  1.00  0.00     0.293 HD
ENDBRANCH  14  17
BRANCH  16  19
ATOM     19  O   UNL     1     -35.107  39.383  39.131  1.00  0.00    -0.504 OA
ATOM     20  H   UNL     1     -35.088  39.745  38.185  1.00  0.00     0.293 HD
ENDBRANCH  16  19
ENDBRANCH   1  11
BRANCH  10  21
ATOM     21  O   UNL     1     -33.979  39.550  44.768  1.00  0.00    -0.500 OA
ATOM     22  H   UNL     1     -33.530  39.335  43.886  1.00  0.00     0.294 HD
ENDBRANCH  10  21
BRANCH   5  23
ATOM     23  O   UNL     1     -41.550  38.845  46.350  1.00  0.00    -0.507 OA
ATOM     24  H   UNL     1     -42.032  38.156  46.916  1.00  0.00     0.293 HD
ENDBRANCH   5  23
BRANCH   7  25
ATOM     25  O   UNL     1     -37.330  38.037  48.491  1.00  0.00    -0.507 OA
ATOM     26  H   UNL     1     -37.776  37.611  49.290  1.00  0.00     0.293 HD
ENDBRANCH   7  25
TORSDOF 6
ENDMDL
MODEL 7
REMARK VINA RESULT:    -7.669      4.454      9.985
REMARK INTER + INTRA:          -9.388
REMARK INTER:                  -9.077
REMARK INTRA:                  -0.311
REMARK UNBOUND:                -0.150
REMARK SMILES Oc1cc(O)c2cc(O)c(-c3ccc(O)c(O)c3)[o+]c2c1
REMARK SMILES IDX 10 1 19 2 20 3 21 4 2 5 3 6 4 7 6 8 7 9 8 10 11 11 12 12
REMARK SMILES IDX 13 13 14 14 18 15 16 16 15 17 17 19 9 21 1 23 5 25
REMARK H PARENT 15 18 17 20 9 22 1 24 5 26
REMARK Flexibility Score: inf
ROOT
ATOM      1  C   UNL     1     -37.631  39.088  44.928  1.00  0.00     0.402 A 
ATOM      2  O   UNL     1     -37.428  40.363  44.605  1.00  0.00    -0.202 OA
ATOM      3  C   UNL     1     -36.590  40.749  43.649  1.00  0.00     0.368 A 
ATOM      4  C   UNL     1     -36.447  42.113  43.381  1.00  0.00     0.162 A 
ATOM      5  C   UNL     1     -35.574  42.547  42.378  1.00  0.00     0.128 A 
ATOM      6  C   UNL     1     -34.842  41.613  41.642  1.00  0.00     0.093 A 
ATOM      7  C   UNL     1     -34.968  40.241  41.891  1.00  0.00     0.136 A 
ATOM      8  C   UNL     1     -35.851  39.795  42.909  1.00  0.00     0.125 A 
ATOM      9  C   UNL     1     -36.030  38.442  43.237  1.00  0.00     0.078 A 
ATOM     10  C   UNL     1     -36.915  38.079  44.257  1.00  0.00     0.223 A 
ENDROOT
BRANCH   1  11
ATOM     11  C   UNL     1     -38.599  38.784  46.006  1.00  0.00     0.087 A 
ATOM     12  C   UNL     1     -39.986  38.820  45.777  1.00  0.00     0.022 A 
ATOM     13  C   UNL     1     -40.881  38.553  46.817  1.00  0.00     0.051 A 
ATOM     14  C   UNL     1     -40.405  38.260  48.101  1.00  0.00     0.157 A 
ATOM     15  C   UNL     1     -38.129  38.510  47.301  1.00  0.00     0.068 A 
ATOM     16  C   UNL     1     -39.021  38.241  48.344  1.00  0.00     0.158 A 
BRANCH  14  17
ATOM     17  O   UNL     1     -41.301  37.992  49.135  1.00  0.00    -0.504 OA
ATOM     18  H   UNL     1     -40.983  37.681  50.045  1.00  0.00     0.293 HD
ENDBRANCH  14  17
BRANCH  16  19
ATOM     19  O   UNL     1     -38.516  37.959  49.613  1.00  0.00    -0.504 OA
ATOM     20  H   UNL     1     -38.039  37.089  49.821  1.00  0.00     0.293 HD
ENDBRANCH  16  19
ENDBRANCH   1  11
BRANCH  10  21
ATOM     21  O   UNL     1     -37.056  36.739  44.617  1.00  0.00    -0.500 OA
ATOM     22  H   UNL     1     -36.713  35.990  44.027  1.00  0.00     0.294 HD
ENDBRANCH  10  21
BRANCH   5  23
ATOM     23  O   UNL     1     -35.426  43.905  42.106  1.00  0.00    -0.507 OA
ATOM     24  H   UNL     1     -35.118  44.557  42.817  1.00  0.00     0.293 HD
ENDBRANCH   5  23
BRANCH   7  25
ATOM     25  O   UNL     1     -34.204  39.371  41.107  1.00  0.00    -0.507 OA
ATOM     26  H   UNL     1     -34.523  38.474  40.773  1.00  0.00     0.293 HD
ENDBRANCH   7  25
TORSDOF 6
ENDMDL
MODEL 8
REMARK VINA RESULT:    -7.643      3.539      5.795
REMARK INTER + INTRA:          -9.357
REMARK INTER:                  -9.016
REMARK INTRA:                  -0.341
REMARK UNBOUND:                -0.150
REMARK SMILES Oc1cc(O)c2cc(O)c(-c3ccc(O)c(O)c3)[o+]c2c1
REMARK SMILES IDX 10 1 19 2 20 3 21 4 2 5 3 6 4 7 6 8 7 9 8 10 11 11 12 12
REMARK SMILES IDX 13 13 14 14 18 15 16 16 15 17 17 19 9 21 1 23 5 25
REMARK H PARENT 15 18 17 20 9 22 1 24 5 26
REMARK Flexibility Score: inf
ROOT
ATOM      1  C   UNL     1     -35.651  40.334  44.086  1.00  0.00     0.402 A 
ATOM      2  O   UNL     1     -35.763  39.008  44.124  1.00  0.00    -0.202 OA
ATOM      3  C   UNL     1     -36.430  38.359  45.073  1.00  0.00     0.368 A 
ATOM      4  C   UNL     1     -36.494  36.964  45.025  1.00  0.00     0.162 A 
ATOM      5  C   UNL     1     -37.191  36.257  46.009  1.00  0.00     0.128 A 
ATOM      6  C   UNL     1     -37.827  36.947  47.043  1.00  0.00     0.093 A 
ATOM      7  C   UNL     1     -37.778  38.344  47.113  1.00  0.00     0.136 A 
ATOM      8  C   UNL     1     -37.069  39.068  46.118  1.00  0.00     0.125 A 
ATOM      9  C   UNL     1     -36.955  40.467  46.116  1.00  0.00     0.078 A 
ATOM     10  C   UNL     1     -36.235  41.110  45.104  1.00  0.00     0.223 A 
ENDROOT
BRANCH   1  11
ATOM     11  C   UNL     1     -34.889  40.941  42.971  1.00  0.00     0.087 A 
ATOM     12  C   UNL     1     -33.492  41.092  43.036  1.00  0.00     0.022 A 
ATOM     13  C   UNL     1     -32.797  41.689  41.980  1.00  0.00     0.051 A 
ATOM     14  C   UNL     1     -33.486  42.156  40.854  1.00  0.00     0.157 A 
ATOM     15  C   UNL     1     -35.577  41.430  41.848  1.00  0.00     0.068 A 
ATOM     16  C   UNL     1     -34.884  42.028  40.790  1.00  0.00     0.158 A 
BRANCH  14  17
ATOM     17  O   UNL     1     -32.789  42.749  39.803  1.00  0.00    -0.504 OA
ATOM     18  H   UNL     1     -31.894  43.199  39.946  1.00  0.00     0.293 HD
ENDBRANCH  14  17
BRANCH  16  19
ATOM     19  O   UNL     1     -35.600  42.488  39.685  1.00  0.00    -0.504 OA
ATOM     20  H   UNL     1     -35.650  43.473  39.449  1.00  0.00     0.293 HD
ENDBRANCH  16  19
ENDBRANCH   1  11
BRANCH  10  21
ATOM     21  O   UNL     1     -36.080  42.496  45.129  1.00  0.00    -0.500 OA
ATOM     22  H   UNL     1     -35.435  42.972  44.509  1.00  0.00     0.294 HD
ENDBRANCH  10  21
BRANCH   5  23
ATOM     23  O   UNL     1     -37.259  34.866  45.968  1.00  0.00    -0.507 OA
ATOM     24  H   UNL     1     -36.474  34.306  45.659  1.00  0.00     0.293 HD
ENDBRANCH   5  23
BRANCH   7  25
ATOM     25  O   UNL     1     -38.443  38.960  48.177  1.00  0.00    -0.507 OA
ATOM     26  H   UNL     1     -38.913  38.464  48.919  1.00  0.00     0.293 HD
ENDBRANCH   7  25
TORSDOF 6
ENDMDL
MODEL 9
REMARK VINA RESULT:    -7.597      3.284      8.374
REMARK INTER + INTRA:          -9.302
REMARK INTER:                  -8.982
REMARK INTRA:                  -0.319
REMARK UNBOUND:                -0.150
REMARK SMILES Oc1cc(O)c2cc(O)c(-c3ccc(O)c(O)c3)[o+]c2c1
REMARK SMILES IDX 10 1 19 2 20 3 21 4 2 5 3 6 4 7 6 8 7 9 8 10 11 11 12 12
REMARK SMILES IDX 13 13 14 14 18 15 16 16 15 17 17 19 9 21 1 23 5 25
REMARK H PARENT 15 18 17 20 9 22 1 24 5 26
REMARK Flexibility Score: inf
ROOT
ATOM      1  C   UNL     1     -36.073  39.884  43.121  1.00  0.00     0.402 A 
ATOM      2  O   UNL     1     -34.760  40.074  43.014  1.00  0.00    -0.202 OA
ATOM      3  C   UNL     1     -34.208  40.836  42.075  1.00  0.00     0.368 A 
ATOM      4  C   UNL     1     -32.818  40.977  42.045  1.00  0.00     0.162 A 
ATOM      5  C   UNL     1     -32.211  41.774  41.071  1.00  0.00     0.128 A 
ATOM      6  C   UNL     1     -32.997  42.434  40.124  1.00  0.00     0.093 A 
ATOM      7  C   UNL     1     -34.391  42.309  40.132  1.00  0.00     0.136 A 
ATOM      8  C   UNL     1     -35.013  41.499  41.118  1.00  0.00     0.125 A 
ATOM      9  C   UNL     1     -36.401  41.304  41.195  1.00  0.00     0.078 A 
ATOM     10  C   UNL     1     -36.941  40.486  42.192  1.00  0.00     0.223 A 
ENDROOT
BRANCH   1  11
ATOM     11  C   UNL     1     -36.568  39.019  44.217  1.00  0.00     0.087 A 
ATOM     12  C   UNL     1     -36.551  37.617  44.107  1.00  0.00     0.022 A 
ATOM     13  C   UNL     1     -37.045  36.822  45.145  1.00  0.00     0.051 A 
ATOM     14  C   UNL     1     -37.576  37.413  46.298  1.00  0.00     0.157 A 
ATOM     15  C   UNL     1     -37.121  39.607  45.366  1.00  0.00     0.068 A 
ATOM     16  C   UNL     1     -37.616  38.814  46.408  1.00  0.00     0.158 A 
BRANCH  14  17
ATOM     17  O   UNL     1     -38.065  36.617  47.332  1.00  0.00    -0.504 OA
ATOM     18  H   UNL     1     -39.000  36.741  47.701  1.00  0.00     0.293 HD
ENDBRANCH  14  17
BRANCH  16  19
ATOM     19  O   UNL     1     -38.143  39.434  47.540  1.00  0.00    -0.504 OA
ATOM     20  H   UNL     1     -38.624  38.912  48.264  1.00  0.00     0.293 HD
ENDBRANCH  16  19
ENDBRANCH   1  11
BRANCH  10  21
ATOM     21  O   UNL     1     -38.315  40.254  42.238  1.00  0.00    -0.500 OA
ATOM     22  H   UNL     1     -38.710  39.496  42.781  1.00  0.00     0.294 HD
ENDBRANCH  10  21
BRANCH   5  23
ATOM     23  O   UNL     1     -30.826  41.920  41.035  1.00  0.00    -0.507 OA
ATOM     24  H   UNL     1     -30.390  42.752  40.655  1.00  0.00     0.293 HD
ENDBRANCH   5  23
BRANCH   7  25
ATOM     25  O   UNL     1     -35.107  43.004  39.152  1.00  0.00    -0.507 OA
ATOM     26  H   UNL     1     -34.691  43.431  38.338  1.00  0.00     0.293 HD
ENDBRANCH   7  25
TORSDOF 6
ENDMDL
