MODEL 1
REMARK VINA RESULT:    -5.185      0.000      0.000
REMARK INTER + INTRA:          -9.842
REMARK INTER:                  -7.912
REMARK INTRA:                  -1.929
REMARK UNBOUND:                -1.929
REMARK SMILES CC(=O)CCC=C(C)CCC=C(C)CCC=C(C)C
REMARK SMILES IDX 10 1 11 2 12 3 13 4 14 5 15 6 16 7 18 8 17 9 19 10 9 11 7 12
REMARK SMILES IDX 6 13 8 14 5 15 4 16 2 17 3 18 1 19
REMARK H PARENT
REMARK Flexibility Score: inf
ROOT
ATOM      1  C   UNL     1     -11.997  14.754 -28.024  1.00  0.00     0.032 C 
ENDROOT
BRANCH   1   2
ATOM      2  C   UNL     1     -11.985  13.490 -27.193  1.00  0.00    -0.028 C 
ATOM      3  C   UNL     1     -12.858  12.461 -27.300  1.00  0.00    -0.077 C 
ATOM      4  C   UNL     1     -12.654  11.266 -26.402  1.00  0.00     0.039 C 
BRANCH   3   5
ATOM      5  C   UNL     1     -14.027  12.452 -28.267  1.00  0.00     0.034 C 
BRANCH   5   6
ATOM      6  C   UNL     1     -15.360  12.294 -27.527  1.00  0.00     0.032 C 
BRANCH   6   7
ATOM      7  C   UNL     1     -16.468  11.947 -28.490  1.00  0.00    -0.028 C 
ATOM      8  C   UNL     1     -18.348  12.359 -30.018  1.00  0.00     0.039 C 
ATOM      9  C   UNL     1     -17.314  12.848 -29.036  1.00  0.00    -0.080 C 
ATOM     10  C   UNL     1     -17.262  14.315 -28.679  1.00  0.00     0.039 C 
ENDBRANCH   6   7
ENDBRANCH   5   6
ENDBRANCH   3   5
ENDBRANCH   1   2
BRANCH   1  11
ATOM     11  C   UNL     1     -11.203  14.572 -29.325  1.00  0.00     0.034 C 
BRANCH  11  12
ATOM     12  C   UNL     1     -12.031  14.893 -30.553  1.00  0.00    -0.077 C 
ATOM     13  C   UNL     1     -12.956  15.877 -30.482  1.00  0.00    -0.028 C 
ATOM     14  C   UNL     1     -11.794  14.110 -31.823  1.00  0.00     0.039 C 
BRANCH  13  15
ATOM     15  C   UNL     1     -13.879  16.269 -31.612  1.00  0.00     0.035 C 
BRANCH  15  16
ATOM     16  C   UNL     1     -15.352  16.035 -31.250  1.00  0.00     0.079 C 
BRANCH  16  17
ATOM     17  C   UNL     1     -15.955  14.918 -32.061  1.00  0.00     0.130 C 
ATOM     18  O   UNL     1     -16.921  15.140 -32.774  1.00  0.00    -0.300 OA
ATOM     19  C   UNL     1     -15.361  13.543 -32.017  1.00  0.00     0.087 C 
ENDBRANCH  16  17
ENDBRANCH  15  16
ENDBRANCH  13  15
ENDBRANCH  11  12
ENDBRANCH   1  11
TORSDOF 9
ENDMDL
MODEL 2
REMARK VINA RESULT:    -5.055      2.167      6.208
REMARK INTER + INTRA:          -9.645
REMARK INTER:                  -7.573
REMARK INTRA:                  -2.071
REMARK UNBOUND:                -1.929
REMARK SMILES CC(=O)CCC=C(C)CCC=C(C)CCC=C(C)C
REMARK SMILES IDX 10 1 11 2 12 3 13 4 14 5 15 6 16 7 18 8 17 9 19 10 9 11 7 12
REMARK SMILES IDX 6 13 8 14 5 15 4 16 2 17 3 18 1 19
REMARK H PARENT
REMARK Flexibility Score: inf
ROOT
ATOM      1  C   UNL     1     -17.594  13.071 -28.961  1.00  0.00     0.032 C 
ENDROOT
BRANCH   1   2
ATOM      2  C   UNL     1     -17.414  13.497 -30.402  1.00  0.00    -0.028 C 
ATOM      3  C   UNL     1     -16.502  14.388 -30.857  1.00  0.00    -0.077 C 
ATOM      4  C   UNL     1     -16.454  14.651 -32.342  1.00  0.00     0.039 C 
BRANCH   3   5
ATOM      5  C   UNL     1     -15.537  15.134 -29.955  1.00  0.00     0.034 C 
BRANCH   5   6
ATOM      6  C   UNL     1     -14.687  16.131 -30.752  1.00  0.00     0.032 C 
BRANCH   6   7
ATOM      7  C   UNL     1     -13.227  15.985 -30.405  1.00  0.00    -0.028 C 
ATOM      8  C   UNL     1     -10.903  15.235 -30.674  1.00  0.00     0.039 C 
ATOM      9  C   UNL     1     -12.343  15.253 -31.119  1.00  0.00    -0.080 C 
ATOM     10  C   UNL     1     -12.760  14.450 -32.327  1.00  0.00     0.039 C 
ENDBRANCH   6   7
ENDBRANCH   5   6
ENDBRANCH   3   5
ENDBRANCH   1   2
BRANCH   1  11
ATOM     11  C   UNL     1     -17.000  11.677 -28.715  1.00  0.00     0.034 C 
BRANCH  11  12
ATOM     12  C   UNL     1     -15.651  11.741 -28.027  1.00  0.00    -0.077 C 
ATOM     13  C   UNL     1     -14.534  11.850 -28.781  1.00  0.00    -0.028 C 
ATOM     14  C   UNL     1     -15.594  11.689 -26.518  1.00  0.00     0.039 C 
BRANCH  13  15
ATOM     15  C   UNL     1     -13.128  11.877 -28.231  1.00  0.00     0.035 C 
BRANCH  15  16
ATOM     16  C   UNL     1     -12.623  13.312 -28.030  1.00  0.00     0.079 C 
BRANCH  16  17
ATOM     17  C   UNL     1     -12.108  13.532 -26.632  1.00  0.00     0.130 C 
ATOM     18  O   UNL     1     -12.136  14.651 -26.144  1.00  0.00    -0.300 OA
ATOM     19  C   UNL     1     -11.584  12.382 -25.828  1.00  0.00     0.087 C 
ENDBRANCH  16  17
ENDBRANCH  15  16
ENDBRANCH  13  15
ENDBRANCH  11  12
ENDBRANCH   1  11
TORSDOF 9
ENDMDL
MODEL 3
REMARK VINA RESULT:    -5.051      1.779      4.543
REMARK INTER + INTRA:          -9.637
REMARK INTER:                  -7.460
REMARK INTRA:                  -2.177
REMARK UNBOUND:                -1.929
REMARK SMILES CC(=O)CCC=C(C)CCC=C(C)CCC=C(C)C
REMARK SMILES IDX 10 1 11 2 12 3 13 4 14 5 15 6 16 7 18 8 17 9 19 10 9 11 7 12
REMARK SMILES IDX 6 13 8 14 5 15 4 16 2 17 3 18 1 19
REMARK H PARENT
REMARK Flexibility Score: inf
ROOT
ATOM      1  C   UNL     1     -15.939  14.203 -31.423  1.00  0.00     0.032 C 
ENDROOT
BRANCH   1   2
ATOM      2  C   UNL     1     -16.855  13.254 -30.682  1.00  0.00    -0.028 C 
ATOM      3  C   UNL     1     -16.463  12.265 -29.845  1.00  0.00    -0.077 C 
ATOM      4  C   UNL     1     -17.535  11.447 -29.168  1.00  0.00     0.039 C 
BRANCH   3   5
ATOM      5  C   UNL     1     -15.010  11.935 -29.561  1.00  0.00     0.034 C 
BRANCH   5   6
ATOM      6  C   UNL     1     -14.792  11.608 -28.079  1.00  0.00     0.032 C 
BRANCH   6   7
ATOM      7  C   UNL     1     -14.005  12.700 -27.400  1.00  0.00    -0.028 C 
ATOM      8  C   UNL     1     -12.005  13.905 -26.634  1.00  0.00     0.039 C 
ATOM      9  C   UNL     1     -12.657  12.724 -27.306  1.00  0.00    -0.080 C 
ATOM     10  C   UNL     1     -11.798  11.601 -27.838  1.00  0.00     0.039 C 
ENDBRANCH   6   7
ENDBRANCH   5   6
ENDBRANCH   3   5
ENDBRANCH   1   2
BRANCH   1  11
ATOM     11  C   UNL     1     -15.733  15.505 -30.637  1.00  0.00     0.034 C 
BRANCH  11  12
ATOM     12  C   UNL     1     -14.282  15.942 -30.620  1.00  0.00    -0.077 C 
ATOM     13  C   UNL     1     -13.347  15.096 -30.133  1.00  0.00    -0.028 C 
ATOM     14  C   UNL     1     -13.921  17.309 -31.154  1.00  0.00     0.039 C 
BRANCH  13  15
ATOM     15  C   UNL     1     -11.876  15.420 -30.014  1.00  0.00     0.035 C 
BRANCH  15  16
ATOM     16  C   UNL     1     -10.998  14.209 -30.356  1.00  0.00     0.079 C 
BRANCH  16  17
ATOM     17  C   UNL     1     -11.459  13.523 -31.614  1.00  0.00     0.130 C 
ATOM     18  O   UNL     1     -11.949  12.406 -31.553  1.00  0.00    -0.300 OA
ATOM     19  C   UNL     1     -11.342  14.213 -32.940  1.00  0.00     0.087 C 
ENDBRANCH  16  17
ENDBRANCH  15  16
ENDBRANCH  13  15
ENDBRANCH  11  12
ENDBRANCH   1  11
TORSDOF 9
ENDMDL
MODEL 4
REMARK VINA RESULT:    -4.947      0.917      4.266
REMARK INTER + INTRA:          -9.479
REMARK INTER:                  -7.490
REMARK INTRA:                  -1.989
REMARK UNBOUND:                -1.929
REMARK SMILES CC(=O)CCC=C(C)CCC=C(C)CCC=C(C)C
REMARK SMILES IDX 10 1 11 2 12 3 13 4 14 5 15 6 16 7 18 8 17 9 19 10 9 11 7 12
REMARK SMILES IDX 6 13 8 14 5 15 4 16 2 17 3 18 1 19
REMARK H PARENT
REMARK Flexibility Score: inf
ROOT
ATOM      1  C   UNL     1     -13.648  11.592 -28.359  1.00  0.00     0.032 C 
ENDROOT
BRANCH   1   2
ATOM      2  C   UNL     1     -12.665  11.850 -27.238  1.00  0.00    -0.028 C 
ATOM      3  C   UNL     1     -12.106  13.044 -26.932  1.00  0.00    -0.077 C 
ATOM      4  C   UNL     1     -11.174  13.104 -25.747  1.00  0.00     0.039 C 
BRANCH   3   5
ATOM      5  C   UNL     1     -12.362  14.315 -27.720  1.00  0.00     0.034 C 
BRANCH   5   6
ATOM      6  C   UNL     1     -11.384  14.450 -28.893  1.00  0.00     0.032 C 
BRANCH   6   7
ATOM      7  C   UNL     1     -11.952  15.350 -29.961  1.00  0.00    -0.028 C 
ATOM      8  C   UNL     1     -12.792  15.968 -32.187  1.00  0.00     0.039 C 
ATOM      9  C   UNL     1     -12.179  14.969 -31.238  1.00  0.00    -0.080 C 
ATOM     10  C   UNL     1     -11.823  13.589 -31.737  1.00  0.00     0.039 C 
ENDBRANCH   6   7
ENDBRANCH   5   6
ENDBRANCH   3   5
ENDBRANCH   1   2
BRANCH   1  11
ATOM     11  C   UNL     1     -15.066  11.368 -27.815  1.00  0.00     0.034 C 
BRANCH  11  12
ATOM     12  C   UNL     1     -16.095  12.225 -28.523  1.00  0.00    -0.077 C 
ATOM     13  C   UNL     1     -15.805  13.520 -28.782  1.00  0.00    -0.028 C 
ATOM     14  C   UNL     1     -17.413  11.606 -28.927  1.00  0.00     0.039 C 
BRANCH  13  15
ATOM     15  C   UNL     1     -16.754  14.497 -29.438  1.00  0.00     0.035 C 
BRANCH  15  16
ATOM     16  C   UNL     1     -16.055  15.324 -30.526  1.00  0.00     0.079 C 
BRANCH  16  17
ATOM     17  C   UNL     1     -16.252  14.726 -31.893  1.00  0.00     0.130 C 
ATOM     18  O   UNL     1     -17.050  15.230 -32.668  1.00  0.00    -0.300 OA
ATOM     19  C   UNL     1     -15.455  13.530 -32.319  1.00  0.00     0.087 C 
ENDBRANCH  16  17
ENDBRANCH  15  16
ENDBRANCH  13  15
ENDBRANCH  11  12
ENDBRANCH   1  11
TORSDOF 9
ENDMDL
MODEL 5
REMARK VINA RESULT:    -4.884      1.879      4.688
REMARK INTER + INTRA:          -9.383
REMARK INTER:                  -7.275
REMARK INTRA:                  -2.107
REMARK UNBOUND:                -1.929
REMARK SMILES CC(=O)CCC=C(C)CCC=C(C)CCC=C(C)C
REMARK SMILES IDX 10 1 11 2 12 3 13 4 14 5 15 6 16 7 18 8 17 9 19 10 9 11 7 12
REMARK SMILES IDX 6 13 8 14 5 15 4 16 2 17 3 18 1 19
REMARK H PARENT
REMARK Flexibility Score: inf
ROOT
ATOM      1  C   UNL     1     -17.699  12.489 -30.393  1.00  0.00     0.032 C 
ENDROOT
BRANCH   1   2
ATOM      2  C   UNL     1     -17.522  12.587 -28.894  1.00  0.00    -0.028 C 
ATOM      3  C   UNL     1     -16.429  12.197 -28.197  1.00  0.00    -0.077 C 
ATOM      4  C   UNL     1     -16.430  12.416 -26.704  1.00  0.00     0.039 C 
BRANCH   3   5
ATOM      5  C   UNL     1     -15.215  11.550 -28.836  1.00  0.00     0.034 C 
BRANCH   5   6
ATOM      6  C   UNL     1     -13.926  11.935 -28.100  1.00  0.00     0.032 C 
BRANCH   6   7
ATOM      7  C   UNL     1     -13.274  13.128 -28.751  1.00  0.00    -0.028 C 
ATOM      8  C   UNL     1     -11.803  15.089 -28.921  1.00  0.00     0.039 C 
ATOM      9  C   UNL     1     -12.409  13.959 -28.128  1.00  0.00    -0.080 C 
ATOM     10  C   UNL     1     -12.052  13.797 -26.670  1.00  0.00     0.039 C 
ENDBRANCH   6   7
ENDBRANCH   5   6
ENDBRANCH   3   5
ENDBRANCH   1   2
BRANCH   1  11
ATOM     11  C   UNL     1     -17.542  13.861 -31.063  1.00  0.00     0.034 C 
BRANCH  11  12
ATOM     12  C   UNL     1     -16.098  14.318 -31.105  1.00  0.00    -0.077 C 
ATOM     13  C   UNL     1     -15.213  13.629 -31.860  1.00  0.00    -0.028 C 
ATOM     14  C   UNL     1     -15.690  15.534 -30.306  1.00  0.00     0.039 C 
BRANCH  13  15
ATOM     15  C   UNL     1     -13.738  13.945 -31.956  1.00  0.00     0.035 C 
BRANCH  15  16
ATOM     16  C   UNL     1     -13.397  14.674 -33.263  1.00  0.00     0.079 C 
BRANCH  16  17
ATOM     17  C   UNL     1     -11.931  14.572 -33.592  1.00  0.00     0.130 C 
ATOM     18  O   UNL     1     -11.523  13.633 -34.259  1.00  0.00    -0.300 OA
ATOM     19  C   UNL     1     -10.974  15.627 -33.126  1.00  0.00     0.087 C 
ENDBRANCH  16  17
ENDBRANCH  15  16
ENDBRANCH  13  15
ENDBRANCH  11  12
ENDBRANCH   1  11
TORSDOF 9
ENDMDL
MODEL 6
REMARK VINA RESULT:    -4.835      2.338      6.091
REMARK INTER + INTRA:          -9.308
REMARK INTER:                  -7.285
REMARK INTRA:                  -2.022
REMARK UNBOUND:                -1.929
REMARK SMILES CC(=O)CCC=C(C)CCC=C(C)CCC=C(C)C
REMARK SMILES IDX 10 1 11 2 12 3 13 4 14 5 15 6 16 7 18 8 17 9 19 10 9 11 7 12
REMARK SMILES IDX 6 13 8 14 5 15 4 16 2 17 3 18 1 19
REMARK H PARENT
REMARK Flexibility Score: inf
ROOT
ATOM      1  C   UNL     1     -17.314  10.937 -29.201  1.00  0.00     0.032 C 
ENDROOT
BRANCH   1   2
ATOM      2  C   UNL     1     -18.602  11.699 -29.419  1.00  0.00    -0.028 C 
ATOM      3  C   UNL     1     -18.724  13.046 -29.489  1.00  0.00    -0.077 C 
ATOM      4  C   UNL     1     -20.096  13.617 -29.752  1.00  0.00     0.039 C 
BRANCH   3   5
ATOM      5  C   UNL     1     -17.561  14.003 -29.312  1.00  0.00     0.034 C 
BRANCH   5   6
ATOM      6  C   UNL     1     -16.808  14.216 -30.630  1.00  0.00     0.032 C 
BRANCH   6   7
ATOM      7  C   UNL     1     -15.740  15.269 -30.472  1.00  0.00    -0.028 C 
ATOM      8  C   UNL     1     -13.526  16.302 -30.736  1.00  0.00     0.039 C 
ATOM      9  C   UNL     1     -14.475  15.147 -30.931  1.00  0.00    -0.080 C 
ATOM     10  C   UNL     1     -13.988  13.891 -31.613  1.00  0.00     0.039 C 
ENDBRANCH   6   7
ENDBRANCH   5   6
ENDBRANCH   3   5
ENDBRANCH   1   2
BRANCH   1  11
ATOM     11  C   UNL     1     -16.948  10.878 -27.712  1.00  0.00     0.034 C 
BRANCH  11  12
ATOM     12  C   UNL     1     -15.486  11.195 -27.467  1.00  0.00    -0.077 C 
ATOM     13  C   UNL     1     -14.728  11.633 -28.497  1.00  0.00    -0.028 C 
ATOM     14  C   UNL     1     -14.919  11.018 -26.078  1.00  0.00     0.039 C 
BRANCH  13  15
ATOM     15  C   UNL     1     -13.251  11.940 -28.406  1.00  0.00     0.035 C 
BRANCH  15  16
ATOM     16  C   UNL     1     -12.998  13.411 -28.049  1.00  0.00     0.079 C 
BRANCH  16  17
ATOM     17  C   UNL     1     -12.114  13.547 -26.838  1.00  0.00     0.130 C 
ATOM     18  O   UNL     1     -12.015  14.628 -26.277  1.00  0.00    -0.300 OA
ATOM     19  C   UNL     1     -11.374  12.359 -26.302  1.00  0.00     0.087 C 
ENDBRANCH  16  17
ENDBRANCH  15  16
ENDBRANCH  13  15
ENDBRANCH  11  12
ENDBRANCH   1  11
TORSDOF 9
ENDMDL
MODEL 7
REMARK VINA RESULT:    -4.770      2.110      3.916
REMARK INTER + INTRA:          -9.209
REMARK INTER:                  -7.232
REMARK INTRA:                  -1.977
REMARK UNBOUND:                -1.929
REMARK SMILES CC(=O)CCC=C(C)CCC=C(C)CCC=C(C)C
REMARK SMILES IDX 10 1 11 2 12 3 13 4 14 5 15 6 16 7 18 8 17 9 19 10 9 11 7 12
REMARK SMILES IDX 6 13 8 14 5 15 4 16 2 17 3 18 1 19
REMARK H PARENT
REMARK Flexibility Score: inf
ROOT
ATOM      1  C   UNL     1     -15.638  14.023 -31.371  1.00  0.00     0.032 C 
ENDROOT
BRANCH   1   2
ATOM      2  C   UNL     1     -14.956  12.745 -30.937  1.00  0.00    -0.028 C 
ATOM      3  C   UNL     1     -14.737  12.356 -29.659  1.00  0.00    -0.077 C 
ATOM      4  C   UNL     1     -14.072  11.021 -29.431  1.00  0.00     0.039 C 
BRANCH   3   5
ATOM      5  C   UNL     1     -15.118  13.193 -28.452  1.00  0.00     0.034 C 
BRANCH   5   6
ATOM      6  C   UNL     1     -16.364  12.633 -27.757  1.00  0.00     0.032 C 
BRANCH   6   7
ATOM      7  C   UNL     1     -17.620  13.112 -28.441  1.00  0.00    -0.028 C 
ATOM      8  C   UNL     1     -19.676  12.937 -29.774  1.00  0.00     0.039 C 
ATOM      9  C   UNL     1     -18.430  12.328 -29.185  1.00  0.00    -0.080 C 
ATOM     10  C   UNL     1     -18.114  10.875 -29.452  1.00  0.00     0.039 C 
ENDBRANCH   6   7
ENDBRANCH   5   6
ENDBRANCH   3   5
ENDBRANCH   1   2
BRANCH   1  11
ATOM     11  C   UNL     1     -14.646  14.983 -32.042  1.00  0.00     0.034 C 
BRANCH  11  12
ATOM     12  C   UNL     1     -13.256  14.881 -31.446  1.00  0.00    -0.077 C 
ATOM     13  C   UNL     1     -13.032  15.386 -30.212  1.00  0.00    -0.028 C 
ATOM     14  C   UNL     1     -12.162  14.212 -32.246  1.00  0.00     0.039 C 
BRANCH  13  15
ATOM     15  C   UNL     1     -11.689  15.394 -29.520  1.00  0.00     0.035 C 
BRANCH  15  16
ATOM     16  C   UNL     1     -11.418  14.072 -28.790  1.00  0.00     0.079 C 
BRANCH  16  17
ATOM     17  C   UNL     1     -11.789  14.152 -27.333  1.00  0.00     0.130 C 
ATOM     18  O   UNL     1     -11.965  15.242 -26.811  1.00  0.00    -0.300 OA
ATOM     19  C   UNL     1     -11.967  12.901 -26.526  1.00  0.00     0.087 C 
ENDBRANCH  16  17
ENDBRANCH  15  16
ENDBRANCH  13  15
ENDBRANCH  11  12
ENDBRANCH   1  11
TORSDOF 9
ENDMDL
MODEL 8
REMARK VINA RESULT:    -4.685      1.734      4.711
REMARK INTER + INTRA:          -9.079
REMARK INTER:                  -7.184
REMARK INTRA:                  -1.895
REMARK UNBOUND:                -1.929
REMARK SMILES CC(=O)CCC=C(C)CCC=C(C)CCC=C(C)C
REMARK SMILES IDX 10 1 11 2 12 3 13 4 14 5 15 6 16 7 18 8 17 9 19 10 9 11 7 12
REMARK SMILES IDX 6 13 8 14 5 15 4 16 2 17 3 18 1 19
REMARK H PARENT
REMARK Flexibility Score: inf
ROOT
ATOM      1  C   UNL     1     -11.760  14.509 -29.673  1.00  0.00     0.032 C 
ENDROOT
BRANCH   1   2
ATOM      2  C   UNL     1     -12.746  15.652 -29.765  1.00  0.00    -0.028 C 
ATOM      3  C   UNL     1     -13.216  16.204 -30.908  1.00  0.00    -0.077 C 
ATOM      4  C   UNL     1     -14.230  17.316 -30.790  1.00  0.00     0.039 C 
BRANCH   3   5
ATOM      5  C   UNL     1     -12.773  15.769 -32.292  1.00  0.00     0.034 C 
BRANCH   5   6
ATOM      6  C   UNL     1     -13.441  14.452 -32.703  1.00  0.00     0.032 C 
BRANCH   6   7
ATOM      7  C   UNL     1     -14.926  14.502 -32.447  1.00  0.00    -0.028 C 
ATOM      8  C   UNL     1     -17.068  13.863 -31.427  1.00  0.00     0.039 C 
ATOM      9  C   UNL     1     -15.586  13.666 -31.616  1.00  0.00    -0.080 C 
ATOM     10  C   UNL     1     -14.886  12.540 -30.891  1.00  0.00     0.039 C 
ENDBRANCH   6   7
ENDBRANCH   5   6
ENDBRANCH   3   5
ENDBRANCH   1   2
BRANCH   1  11
ATOM     11  C   UNL     1     -11.668  13.968 -28.239  1.00  0.00     0.034 C 
BRANCH  11  12
ATOM     12  C   UNL     1     -12.474  12.698 -28.052  1.00  0.00    -0.077 C 
ATOM     13  C   UNL     1     -13.685  12.771 -27.457  1.00  0.00    -0.028 C 
ATOM     14  C   UNL     1     -11.902  11.388 -28.542  1.00  0.00     0.039 C 
BRANCH  13  15
ATOM     15  C   UNL     1     -14.571  11.582 -27.166  1.00  0.00     0.035 C 
BRANCH  15  16
ATOM     16  C   UNL     1     -15.942  12.013 -26.627  1.00  0.00     0.079 C 
BRANCH  16  17
ATOM     17  C   UNL     1     -16.870  12.431 -27.736  1.00  0.00     0.130 C 
ATOM     18  O   UNL     1     -17.046  13.618 -27.966  1.00  0.00    -0.300 OA
ATOM     19  C   UNL     1     -17.562  11.400 -28.575  1.00  0.00     0.087 C 
ENDBRANCH  16  17
ENDBRANCH  15  16
ENDBRANCH  13  15
ENDBRANCH  11  12
ENDBRANCH   1  11
TORSDOF 9
ENDMDL
MODEL 9
REMARK VINA RESULT:    -4.649      2.128      3.520
REMARK INTER + INTRA:          -9.024
REMARK INTER:                  -7.001
REMARK INTRA:                  -2.023
REMARK UNBOUND:                -1.929
REMARK SMILES CC(=O)CCC=C(C)CCC=C(C)CCC=C(C)C
REMARK SMILES IDX 10 1 11 2 12 3 13 4 14 5 15 6 16 7 18 8 17 9 19 10 9 11 7 12
REMARK SMILES IDX 6 13 8 14 5 15 4 16 2 17 3 18 1 19
REMARK H PARENT
REMARK Flexibility Score: inf
ROOT
ATOM      1  C   UNL     1     -15.291  13.398 -31.496  1.00  0.00     0.032 C 
ENDROOT
BRANCH   1   2
ATOM      2  C   UNL     1     -14.300  13.103 -30.392  1.00  0.00    -0.028 C 
ATOM      3  C   UNL     1     -14.303  12.009 -29.594  1.00  0.00    -0.077 C 
ATOM      4  C   UNL     1     -13.201  11.879 -28.572  1.00  0.00     0.039 C 
BRANCH   3   5
ATOM      5  C   UNL     1     -15.355  10.920 -29.671  1.00  0.00     0.034 C 
BRANCH   5   6
ATOM      6  C   UNL     1     -16.381  11.055 -28.540  1.00  0.00     0.032 C 
BRANCH   6   7
ATOM      7  C   UNL     1     -17.725  11.472 -29.083  1.00  0.00    -0.028 C 
ATOM      8  C   UNL     1     -19.520  13.018 -29.735  1.00  0.00     0.039 C 
ATOM      9  C   UNL     1     -18.169  12.747 -29.124  1.00  0.00    -0.080 C 
ATOM     10  C   UNL     1     -17.362  13.894 -28.563  1.00  0.00     0.039 C 
ENDBRANCH   6   7
ENDBRANCH   5   6
ENDBRANCH   3   5
ENDBRANCH   1   2
BRANCH   1  11
ATOM     11  C   UNL     1     -15.549  14.905 -31.624  1.00  0.00     0.034 C 
BRANCH  11  12
ATOM     12  C   UNL     1     -14.263  15.700 -31.735  1.00  0.00    -0.077 C 
ATOM     13  C   UNL     1     -13.378  15.385 -32.708  1.00  0.00    -0.028 C 
ATOM     14  C   UNL     1     -14.010  16.826 -30.759  1.00  0.00     0.039 C 
BRANCH  13  15
ATOM     15  C   UNL     1     -12.042  16.062 -32.903  1.00  0.00     0.035 C 
BRANCH  15  16
ATOM     16  C   UNL     1     -10.880  15.062 -32.815  1.00  0.00     0.079 C 
BRANCH  16  17
ATOM     17  C   UNL     1     -10.886  14.315 -31.508  1.00  0.00     0.130 C 
ATOM     18  O   UNL     1     -10.875  14.933 -30.455  1.00  0.00    -0.300 OA
ATOM     19  C   UNL     1     -10.928  12.817 -31.492  1.00  0.00     0.087 C 
ENDBRANCH  16  17
ENDBRANCH  15  16
ENDBRANCH  13  15
ENDBRANCH  11  12
ENDBRANCH   1  11
TORSDOF 9
ENDMDL
