MODEL 1
REMARK VINA RESULT:     6.232      0.000      0.000
REMARK INTER + INTRA:          10.533
REMARK INTER:                  10.968
REMARK INTRA:                  -0.435
REMARK UNBOUND:                -0.435
REMARK SMILES CCCCCCC=CCCCCCCCC(=O)[O-]
REMARK SMILES IDX 10 1 11 2 12 3 13 4 14 5 15 6 16 7 17 8 18 9 9 10 8 11 7 12
REMARK SMILES IDX 6 13 5 14 4 15 3 16 2 17 1 18
REMARK H PARENT
REMARK Flexibility Score: inf
ROOT
ATOM      1  C   UNL     1     -20.382  63.677  -1.327  1.00  0.00     0.004 C 
ENDROOT
BRANCH   1   2
ATOM      2  C   UNL     1     -20.060  63.120  -2.723  1.00  0.00     0.000 C 
BRANCH   2   3
ATOM      3  C   UNL     1     -19.614  61.649  -2.677  1.00  0.00     0.000 C 
BRANCH   3   4
ATOM      4  C   UNL     1     -20.705  60.716  -2.127  1.00  0.00     0.000 C 
BRANCH   4   5
ATOM      5  C   UNL     1     -21.538  60.056  -3.236  1.00  0.00     0.006 C 
BRANCH   5   6
ATOM      6  C   UNL     1     -20.781  60.061  -4.568  1.00  0.00     0.053 C 
BRANCH   6   7
ATOM      7  C   UNL     1     -21.591  59.390  -5.633  1.00  0.00     0.041 C 
ATOM      8  O   UNL     1     -22.787  59.732  -5.829  1.00  0.00    -0.550 OA
ATOM      9  O   UNL     1     -21.040  58.353  -6.375  1.00  0.00    -0.550 OA
ENDBRANCH   6   7
ENDBRANCH   5   6
ENDBRANCH   4   5
ENDBRANCH   3   4
ENDBRANCH   2   3
ENDBRANCH   1   2
BRANCH   1  10
ATOM     10  C   UNL     1     -19.538  63.022  -0.223  1.00  0.00     0.027 C 
BRANCH  10  11
ATOM     11  C   UNL     1     -18.186  63.680  -0.102  1.00  0.00    -0.031 C 
ATOM     12  C   UNL     1     -17.032  63.176  -0.582  1.00  0.00    -0.031 C 
BRANCH  12  13
ATOM     13  C   UNL     1     -16.885  61.854  -1.300  1.00  0.00     0.027 C 
BRANCH  13  14
ATOM     14  C   UNL     1     -15.724  61.880  -2.304  1.00  0.00     0.004 C 
BRANCH  14  15
ATOM     15  C   UNL     1     -14.670  60.797  -2.013  1.00  0.00     0.000 C 
BRANCH  15  16
ATOM     16  C   UNL     1     -13.239  61.269  -2.319  1.00  0.00    -0.000 C 
BRANCH  16  17
ATOM     17  C   UNL     1     -12.220  60.778  -1.279  1.00  0.00    -0.003 C 
ATOM     18  C   UNL     1     -12.876  59.841  -0.269  1.00  0.00     0.004 C 
ENDBRANCH  16  17
ENDBRANCH  15  16
ENDBRANCH  14  15
ENDBRANCH  13  14
ENDBRANCH  12  13
ENDBRANCH  10  11
ENDBRANCH   1  10
TORSDOF 13
ENDMDL
MODEL 2
REMARK VINA RESULT:     6.234      3.614      7.060
REMARK INTER + INTRA:          10.537
REMARK INTER:                  11.326
REMARK INTRA:                  -0.788
REMARK UNBOUND:                -0.435
REMARK SMILES CCCCCCC=CCCCCCCCC(=O)[O-]
REMARK SMILES IDX 10 1 11 2 12 3 13 4 14 5 15 6 16 7 17 8 18 9 9 10 8 11 7 12
REMARK SMILES IDX 6 13 5 14 4 15 3 16 2 17 1 18
REMARK H PARENT
REMARK Flexibility Score: inf
ROOT
ATOM      1  C   UNL     1     -17.720  62.961  -0.004  1.00  0.00     0.004 C 
ENDROOT
BRANCH   1   2
ATOM      2  C   UNL     1     -16.377  62.878  -0.747  1.00  0.00     0.000 C 
BRANCH   2   3
ATOM      3  C   UNL     1     -16.402  61.844  -1.887  1.00  0.00     0.000 C 
BRANCH   3   4
ATOM      4  C   UNL     1     -15.154  60.947  -1.899  1.00  0.00     0.000 C 
BRANCH   4   5
ATOM      5  C   UNL     1     -13.957  61.601  -2.606  1.00  0.00     0.006 C 
BRANCH   5   6
ATOM      6  C   UNL     1     -12.633  61.070  -2.049  1.00  0.00     0.053 C 
BRANCH   6   7
ATOM      7  C   UNL     1     -12.814  60.579  -0.647  1.00  0.00     0.041 C 
ATOM      8  O   UNL     1     -12.813  61.392   0.314  1.00  0.00    -0.550 OA
ATOM      9  O   UNL     1     -12.935  59.218  -0.397  1.00  0.00    -0.550 OA
ENDBRANCH   6   7
ENDBRANCH   5   6
ENDBRANCH   4   5
ENDBRANCH   3   4
ENDBRANCH   2   3
ENDBRANCH   1   2
BRANCH   1  10
ATOM     10  C   UNL     1     -18.477  64.263  -0.301  1.00  0.00     0.027 C 
BRANCH  10  11
ATOM     11  C   UNL     1     -19.954  64.011  -0.482  1.00  0.00    -0.031 C 
ATOM     12  C   UNL     1     -20.518  63.459  -1.574  1.00  0.00    -0.031 C 
BRANCH  12  13
ATOM     13  C   UNL     1     -19.777  63.023  -2.817  1.00  0.00     0.027 C 
BRANCH  13  14
ATOM     14  C   UNL     1     -19.462  61.520  -2.791  1.00  0.00     0.004 C 
BRANCH  14  15
ATOM     15  C   UNL     1     -20.625  60.686  -2.225  1.00  0.00     0.000 C 
BRANCH  15  16
ATOM     16  C   UNL     1     -21.579  60.183  -3.321  1.00  0.00    -0.000 C 
BRANCH  16  17
ATOM     17  C   UNL     1     -20.871  59.966  -4.667  1.00  0.00    -0.003 C 
ATOM     18  C   UNL     1     -21.800  59.290  -5.671  1.00  0.00     0.004 C 
ENDBRANCH  16  17
ENDBRANCH  15  16
ENDBRANCH  14  15
ENDBRANCH  13  14
ENDBRANCH  12  13
ENDBRANCH  10  11
ENDBRANCH   1  10
TORSDOF 13
ENDMDL
MODEL 3
REMARK VINA RESULT:     6.923      3.645      6.928
REMARK INTER + INTRA:          11.749
REMARK INTER:                  12.075
REMARK INTRA:                  -0.326
REMARK UNBOUND:                -0.435
REMARK SMILES CCCCCCC=CCCCCCCCC(=O)[O-]
REMARK SMILES IDX 10 1 11 2 12 3 13 4 14 5 15 6 16 7 17 8 18 9 9 10 8 11 7 12
REMARK SMILES IDX 6 13 5 14 4 15 3 16 2 17 1 18
REMARK H PARENT
REMARK Flexibility Score: inf
ROOT
ATOM      1  C   UNL     1     -18.394  64.471  -0.349  1.00  0.00     0.004 C 
ENDROOT
BRANCH   1   2
ATOM      2  C   UNL     1     -17.704  63.112  -0.152  1.00  0.00     0.000 C 
BRANCH   2   3
ATOM      3  C   UNL     1     -16.514  62.917  -1.108  1.00  0.00     0.000 C 
BRANCH   3   4
ATOM      4  C   UNL     1     -16.507  61.529  -1.768  1.00  0.00     0.000 C 
BRANCH   4   5
ATOM      5  C   UNL     1     -15.142  61.165  -2.373  1.00  0.00     0.006 C 
BRANCH   5   6
ATOM      6  C   UNL     1     -14.238  60.502  -1.329  1.00  0.00     0.053 C 
BRANCH   6   7
ATOM      7  C   UNL     1     -12.806  60.864  -1.571  1.00  0.00     0.041 C 
ATOM      8  O   UNL     1     -11.886  60.237  -0.983  1.00  0.00    -0.550 OA
ATOM      9  O   UNL     1     -12.490  61.927  -2.408  1.00  0.00    -0.550 OA
ENDBRANCH   6   7
ENDBRANCH   5   6
ENDBRANCH   4   5
ENDBRANCH   3   4
ENDBRANCH   2   3
ENDBRANCH   1   2
BRANCH   1  10
ATOM     10  C   UNL     1     -19.724  64.352  -1.107  1.00  0.00     0.027 C 
BRANCH  10  11
ATOM     11  C   UNL     1     -20.745  63.579  -0.309  1.00  0.00    -0.031 C 
ATOM     12  C   UNL     1     -20.914  62.242  -0.353  1.00  0.00    -0.031 C 
BRANCH  12  13
ATOM     13  C   UNL     1     -20.132  61.289  -1.228  1.00  0.00     0.027 C 
BRANCH  13  14
ATOM     14  C   UNL     1     -20.023  61.805  -2.670  1.00  0.00     0.004 C 
BRANCH  14  15
ATOM     15  C   UNL     1     -20.089  60.670  -3.707  1.00  0.00     0.000 C 
BRANCH  15  16
ATOM     16  C   UNL     1     -21.466  59.989  -3.751  1.00  0.00    -0.000 C 
BRANCH  16  17
ATOM     17  C   UNL     1     -22.068  59.962  -5.164  1.00  0.00    -0.003 C 
ATOM     18  C   UNL     1     -21.399  58.895  -6.025  1.00  0.00     0.004 C 
ENDBRANCH  16  17
ENDBRANCH  15  16
ENDBRANCH  14  15
ENDBRANCH  13  14
ENDBRANCH  12  13
ENDBRANCH  10  11
ENDBRANCH   1  10
TORSDOF 13
ENDMDL
MODEL 4
REMARK VINA RESULT:     7.069      6.071      8.878
REMARK INTER + INTRA:          12.007
REMARK INTER:                  12.833
REMARK INTRA:                  -0.826
REMARK UNBOUND:                -0.435
REMARK SMILES CCCCCCC=CCCCCCCCC(=O)[O-]
REMARK SMILES IDX 10 1 11 2 12 3 13 4 14 5 15 6 16 7 17 8 18 9 9 10 8 11 7 12
REMARK SMILES IDX 6 13 5 14 4 15 3 16 2 17 1 18
REMARK H PARENT
REMARK Flexibility Score: inf
ROOT
ATOM      1  C   UNL     1     -17.212  66.224  -1.755  1.00  0.00     0.004 C 
ENDROOT
BRANCH   1   2
ATOM      2  C   UNL     1     -15.809  66.733  -1.388  1.00  0.00     0.000 C 
BRANCH   2   3
ATOM      3  C   UNL     1     -15.325  67.847  -2.333  1.00  0.00     0.000 C 
BRANCH   3   4
ATOM      4  C   UNL     1     -14.488  68.914  -1.610  1.00  0.00     0.000 C 
BRANCH   4   5
ATOM      5  C   UNL     1     -13.131  69.163  -2.284  1.00  0.00     0.006 C 
BRANCH   5   6
ATOM      6  C   UNL     1     -11.989  69.084  -1.266  1.00  0.00     0.053 C 
BRANCH   6   7
ATOM      7  C   UNL     1     -11.896  67.707  -0.689  1.00  0.00     0.041 C 
ATOM      8  O   UNL     1     -11.879  66.702  -1.448  1.00  0.00    -0.550 OA
ATOM      9  O   UNL     1     -11.876  67.530   0.689  1.00  0.00    -0.550 OA
ENDBRANCH   6   7
ENDBRANCH   5   6
ENDBRANCH   4   5
ENDBRANCH   3   4
ENDBRANCH   2   3
ENDBRANCH   1   2
BRANCH   1  10
ATOM     10  C   UNL     1     -17.739  65.180  -0.759  1.00  0.00     0.027 C 
BRANCH  10  11
ATOM     11  C   UNL     1     -19.232  65.299  -0.576  1.00  0.00    -0.031 C 
ATOM     12  C   UNL     1     -20.053  64.290  -0.227  1.00  0.00    -0.031 C 
BRANCH  12  13
ATOM     13  C   UNL     1     -19.629  62.859   0.014  1.00  0.00     0.027 C 
BRANCH  13  14
ATOM     14  C   UNL     1     -20.085  61.934  -1.123  1.00  0.00     0.004 C 
BRANCH  14  15
ATOM     15  C   UNL     1     -19.062  61.865  -2.271  1.00  0.00     0.000 C 
BRANCH  15  16
ATOM     16  C   UNL     1     -19.637  61.209  -3.536  1.00  0.00    -0.000 C 
BRANCH  16  17
ATOM     17  C   UNL     1     -21.015  60.571  -3.298  1.00  0.00    -0.003 C 
ATOM     18  C   UNL     1     -21.458  59.756  -4.509  1.00  0.00     0.004 C 
ENDBRANCH  16  17
ENDBRANCH  15  16
ENDBRANCH  14  15
ENDBRANCH  13  14
ENDBRANCH  12  13
ENDBRANCH  10  11
ENDBRANCH   1  10
TORSDOF 13
ENDMDL
MODEL 5
REMARK VINA RESULT:     7.213      4.808      6.819
REMARK INTER + INTRA:          12.261
REMARK INTER:                  12.875
REMARK INTRA:                  -0.614
REMARK UNBOUND:                -0.435
REMARK SMILES CCCCCCC=CCCCCCCCC(=O)[O-]
REMARK SMILES IDX 10 1 11 2 12 3 13 4 14 5 15 6 16 7 17 8 18 9 9 10 8 11 7 12
REMARK SMILES IDX 6 13 5 14 4 15 3 16 2 17 1 18
REMARK H PARENT
REMARK Flexibility Score: inf
ROOT
ATOM      1  C   UNL     1     -12.774  61.500  -3.513  1.00  0.00     0.004 C 
ENDROOT
BRANCH   1   2
ATOM      2  C   UNL     1     -13.613  61.719  -2.245  1.00  0.00     0.000 C 
BRANCH   2   3
ATOM      3  C   UNL     1     -14.934  60.929  -2.274  1.00  0.00     0.000 C 
BRANCH   3   4
ATOM      4  C   UNL     1     -16.150  61.796  -1.911  1.00  0.00     0.000 C 
BRANCH   4   5
ATOM      5  C   UNL     1     -17.475  61.199  -2.407  1.00  0.00     0.006 C 
BRANCH   5   6
ATOM      6  C   UNL     1     -18.614  62.217  -2.289  1.00  0.00     0.053 C 
BRANCH   6   7
ATOM      7  C   UNL     1     -19.922  61.518  -2.085  1.00  0.00     0.041 C 
ATOM      8  O   UNL     1     -20.532  61.623  -0.989  1.00  0.00    -0.550 OA
ATOM      9  O   UNL     1     -20.442  60.711  -3.089  1.00  0.00    -0.550 OA
ENDBRANCH   6   7
ENDBRANCH   5   6
ENDBRANCH   4   5
ENDBRANCH   3   4
ENDBRANCH   2   3
ENDBRANCH   1   2
BRANCH   1  10
ATOM     10  C   UNL     1     -13.442  62.079  -4.769  1.00  0.00     0.027 C 
BRANCH  10  11
ATOM     11  C   UNL     1     -12.576  61.890  -5.990  1.00  0.00    -0.031 C 
ATOM     12  C   UNL     1     -12.784  62.474  -7.187  1.00  0.00    -0.031 C 
BRANCH  12  13
ATOM     13  C   UNL     1     -13.935  63.394  -7.523  1.00  0.00     0.027 C 
BRANCH  13  14
ATOM     14  C   UNL     1     -13.978  63.721  -9.023  1.00  0.00     0.004 C 
BRANCH  14  15
ATOM     15  C   UNL     1     -14.665  62.617  -9.846  1.00  0.00     0.000 C 
BRANCH  15  16
ATOM     16  C   UNL     1     -13.736  61.424 -10.125  1.00  0.00    -0.000 C 
BRANCH  16  17
ATOM     17  C   UNL     1     -14.398  60.074  -9.813  1.00  0.00    -0.003 C 
ATOM     18  C   UNL     1     -13.360  59.040  -9.387  1.00  0.00     0.004 C 
ENDBRANCH  16  17
ENDBRANCH  15  16
ENDBRANCH  14  15
ENDBRANCH  13  14
ENDBRANCH  12  13
ENDBRANCH  10  11
ENDBRANCH   1  10
TORSDOF 13
ENDMDL
MODEL 6
REMARK VINA RESULT:     7.268      5.050      7.915
REMARK INTER + INTRA:          12.357
REMARK INTER:                  13.021
REMARK INTRA:                  -0.664
REMARK UNBOUND:                -0.435
REMARK SMILES CCCCCCC=CCCCCCCCC(=O)[O-]
REMARK SMILES IDX 10 1 11 2 12 3 13 4 14 5 15 6 16 7 17 8 18 9 9 10 8 11 7 12
REMARK SMILES IDX 6 13 5 14 4 15 3 16 2 17 1 18
REMARK H PARENT
REMARK Flexibility Score: inf
ROOT
ATOM      1  C   UNL     1     -12.471  61.650  -5.491  1.00  0.00     0.004 C 
ENDROOT
BRANCH   1   2
ATOM      2  C   UNL     1     -12.674  62.488  -6.763  1.00  0.00     0.000 C 
BRANCH   2   3
ATOM      3  C   UNL     1     -11.877  61.937  -7.958  1.00  0.00     0.000 C 
BRANCH   3   4
ATOM      4  C   UNL     1     -12.700  61.910  -9.256  1.00  0.00     0.000 C 
BRANCH   4   5
ATOM      5  C   UNL     1     -12.456  60.642 -10.088  1.00  0.00     0.006 C 
BRANCH   5   6
ATOM      6  C   UNL     1     -13.581  59.623  -9.880  1.00  0.00     0.053 C 
BRANCH   6   7
ATOM      7  C   UNL     1     -13.044  58.368  -9.267  1.00  0.00     0.041 C 
ATOM      8  O   UNL     1     -12.295  58.426  -8.257  1.00  0.00    -0.550 OA
ATOM      9  O   UNL     1     -13.330  57.136  -9.842  1.00  0.00    -0.550 OA
ENDBRANCH   6   7
ENDBRANCH   5   6
ENDBRANCH   4   5
ENDBRANCH   3   4
ENDBRANCH   2   3
ENDBRANCH   1   2
BRANCH   1  10
ATOM     10  C   UNL     1     -13.581  61.877  -4.453  1.00  0.00     0.027 C 
BRANCH  10  11
ATOM     11  C   UNL     1     -13.050  61.755  -3.045  1.00  0.00    -0.031 C 
ATOM     12  C   UNL     1     -13.726  61.228  -2.005  1.00  0.00    -0.031 C 
BRANCH  12  13
ATOM     13  C   UNL     1     -15.140  60.695  -2.059  1.00  0.00     0.027 C 
BRANCH  13  14
ATOM     14  C   UNL     1     -16.174  61.814  -1.870  1.00  0.00     0.004 C 
BRANCH  14  15
ATOM     15  C   UNL     1     -17.469  61.556  -2.661  1.00  0.00     0.000 C 
BRANCH  15  16
ATOM     16  C   UNL     1     -18.697  62.217  -2.014  1.00  0.00    -0.000 C 
BRANCH  16  17
ATOM     17  C   UNL     1     -19.823  61.213  -1.722  1.00  0.00    -0.003 C 
ATOM     18  C   UNL     1     -20.524  60.786  -3.009  1.00  0.00     0.004 C 
ENDBRANCH  16  17
ENDBRANCH  15  16
ENDBRANCH  14  15
ENDBRANCH  13  14
ENDBRANCH  12  13
ENDBRANCH  10  11
ENDBRANCH   1  10
TORSDOF 13
ENDMDL
MODEL 7
REMARK VINA RESULT:     7.314      4.968      7.806
REMARK INTER + INTRA:          12.438
REMARK INTER:                  11.930
REMARK INTRA:                   0.508
REMARK UNBOUND:                -0.435
REMARK SMILES CCCCCCC=CCCCCCCCC(=O)[O-]
REMARK SMILES IDX 10 1 11 2 12 3 13 4 14 5 15 6 16 7 17 8 18 9 9 10 8 11 7 12
REMARK SMILES IDX 6 13 5 14 4 15 3 16 2 17 1 18
REMARK H PARENT
REMARK Flexibility Score: inf
ROOT
ATOM      1  C   UNL     1     -12.232  61.790  -5.005  1.00  0.00     0.004 C 
ENDROOT
BRANCH   1   2
ATOM      2  C   UNL     1     -12.733  62.024  -6.439  1.00  0.00     0.000 C 
BRANCH   2   3
ATOM      3  C   UNL     1     -11.906  61.251  -7.481  1.00  0.00     0.000 C 
BRANCH   3   4
ATOM      4  C   UNL     1     -11.875  61.951  -8.849  1.00  0.00     0.000 C 
BRANCH   4   5
ATOM      5  C   UNL     1     -12.545  61.123  -9.956  1.00  0.00     0.006 C 
BRANCH   5   6
ATOM      6  C   UNL     1     -14.050  61.403 -10.016  1.00  0.00     0.053 C 
BRANCH   6   7
ATOM      7  C   UNL     1     -14.328  62.840  -9.708  1.00  0.00     0.041 C 
ATOM      8  O   UNL     1     -13.469  63.722  -9.972  1.00  0.00    -0.550 OA
ATOM      9  O   UNL     1     -15.517  63.201  -9.085  1.00  0.00    -0.550 OA
ENDBRANCH   6   7
ENDBRANCH   5   6
ENDBRANCH   4   5
ENDBRANCH   3   4
ENDBRANCH   2   3
ENDBRANCH   1   2
BRANCH   1  10
ATOM     10  C   UNL     1     -13.355  61.901  -3.962  1.00  0.00     0.027 C 
BRANCH  10  11
ATOM     11  C   UNL     1     -12.863  61.535  -2.584  1.00  0.00    -0.031 C 
ATOM     12  C   UNL     1     -13.589  60.892  -1.648  1.00  0.00    -0.031 C 
BRANCH  12  13
ATOM     13  C   UNL     1     -15.027  60.452  -1.804  1.00  0.00     0.027 C 
BRANCH  13  14
ATOM     14  C   UNL     1     -15.929  61.612  -2.248  1.00  0.00     0.004 C 
BRANCH  14  15
ATOM     15  C   UNL     1     -17.281  61.621  -1.514  1.00  0.00     0.000 C 
BRANCH  15  16
ATOM     16  C   UNL     1     -18.473  61.767  -2.473  1.00  0.00    -0.000 C 
BRANCH  16  17
ATOM     17  C   UNL     1     -19.813  61.908  -1.735  1.00  0.00    -0.003 C 
ATOM     18  C   UNL     1     -19.835  63.167  -0.874  1.00  0.00     0.004 C 
ENDBRANCH  16  17
ENDBRANCH  15  16
ENDBRANCH  14  15
ENDBRANCH  13  14
ENDBRANCH  12  13
ENDBRANCH  10  11
ENDBRANCH   1  10
TORSDOF 13
ENDMDL
MODEL 8
REMARK VINA RESULT:     7.525      4.897      7.636
REMARK INTER + INTRA:          12.809
REMARK INTER:                  13.543
REMARK INTRA:                  -0.734
REMARK UNBOUND:                -0.435
REMARK SMILES CCCCCCC=CCCCCCCCC(=O)[O-]
REMARK SMILES IDX 10 1 11 2 12 3 13 4 14 5 15 6 16 7 17 8 18 9 9 10 8 11 7 12
REMARK SMILES IDX 6 13 5 14 4 15 3 16 2 17 1 18
REMARK H PARENT
REMARK Flexibility Score: inf
ROOT
ATOM      1  C   UNL     1     -12.170  61.854  -5.395  1.00  0.00     0.004 C 
ENDROOT
BRANCH   1   2
ATOM      2  C   UNL     1     -12.506  61.881  -6.895  1.00  0.00     0.000 C 
BRANCH   2   3
ATOM      3  C   UNL     1     -13.505  62.995  -7.250  1.00  0.00     0.000 C 
BRANCH   3   4
ATOM      4  C   UNL     1     -13.308  63.535  -8.675  1.00  0.00     0.000 C 
BRANCH   4   5
ATOM      5  C   UNL     1     -12.911  62.439  -9.676  1.00  0.00     0.006 C 
BRANCH   5   6
ATOM      6  C   UNL     1     -14.121  61.578 -10.055  1.00  0.00     0.053 C 
BRANCH   6   7
ATOM      7  C   UNL     1     -13.813  60.127  -9.858  1.00  0.00     0.041 C 
ATOM      8  O   UNL     1     -14.701  59.343  -9.431  1.00  0.00    -0.550 OA
ATOM      9  O   UNL     1     -12.530  59.650 -10.098  1.00  0.00    -0.550 OA
ENDBRANCH   6   7
ENDBRANCH   5   6
ENDBRANCH   4   5
ENDBRANCH   3   4
ENDBRANCH   2   3
ENDBRANCH   1   2
BRANCH   1  10
ATOM     10  C   UNL     1     -13.425  61.856  -4.510  1.00  0.00     0.027 C 
BRANCH  10  11
ATOM     11  C   UNL     1     -13.068  61.757  -3.048  1.00  0.00    -0.031 C 
ATOM     12  C   UNL     1     -13.867  61.256  -2.086  1.00  0.00    -0.031 C 
BRANCH  12  13
ATOM     13  C   UNL     1     -15.269  60.732  -2.298  1.00  0.00     0.027 C 
BRANCH  13  14
ATOM     14  C   UNL     1     -16.325  61.812  -2.021  1.00  0.00     0.004 C 
BRANCH  14  15
ATOM     15  C   UNL     1     -17.623  61.582  -2.815  1.00  0.00     0.000 C 
BRANCH  15  16
ATOM     16  C   UNL     1     -18.871  61.578  -1.917  1.00  0.00    -0.000 C 
BRANCH  16  17
ATOM     17  C   UNL     1     -19.546  62.956  -1.835  1.00  0.00    -0.003 C 
ATOM     18  C   UNL     1     -19.716  63.397  -0.384  1.00  0.00     0.004 C 
ENDBRANCH  16  17
ENDBRANCH  15  16
ENDBRANCH  14  15
ENDBRANCH  13  14
ENDBRANCH  12  13
ENDBRANCH  10  11
ENDBRANCH   1  10
TORSDOF 13
ENDMDL
MODEL 9
REMARK VINA RESULT:     7.662      5.014      5.860
REMARK INTER + INTRA:          13.050
REMARK INTER:                  13.511
REMARK INTRA:                  -0.461
REMARK UNBOUND:                -0.435
REMARK SMILES CCCCCCC=CCCCCCCCC(=O)[O-]
REMARK SMILES IDX 10 1 11 2 12 3 13 4 14 5 15 6 16 7 17 8 18 9 9 10 8 11 7 12
REMARK SMILES IDX 6 13 5 14 4 15 3 16 2 17 1 18
REMARK H PARENT
REMARK Flexibility Score: inf
ROOT
ATOM      1  C   UNL     1     -16.663  65.793  -1.415  1.00  0.00     0.004 C 
ENDROOT
BRANCH   1   2
ATOM      2  C   UNL     1     -17.997  65.764  -0.652  1.00  0.00     0.000 C 
BRANCH   2   3
ATOM      3  C   UNL     1     -18.874  64.567  -1.056  1.00  0.00     0.000 C 
BRANCH   3   4
ATOM      4  C   UNL     1     -18.818  63.421  -0.033  1.00  0.00     0.000 C 
BRANCH   4   5
ATOM      5  C   UNL     1     -19.974  62.421  -0.195  1.00  0.00     0.006 C 
BRANCH   5   6
ATOM      6  C   UNL     1     -20.547  62.471  -1.615  1.00  0.00     0.053 C 
BRANCH   6   7
ATOM      7  C   UNL     1     -19.858  61.474  -2.493  1.00  0.00     0.041 C 
ATOM      8  O   UNL     1     -18.617  61.558  -2.693  1.00  0.00    -0.550 OA
ATOM      9  O   UNL     1     -20.593  60.482  -3.129  1.00  0.00    -0.550 OA
ENDBRANCH   6   7
ENDBRANCH   5   6
ENDBRANCH   4   5
ENDBRANCH   3   4
ENDBRANCH   2   3
ENDBRANCH   1   2
BRANCH   1  10
ATOM     10  C   UNL     1     -15.879  67.094  -1.181  1.00  0.00     0.027 C 
BRANCH  10  11
ATOM     11  C   UNL     1     -15.636  67.829  -2.476  1.00  0.00    -0.031 C 
ATOM     12  C   UNL     1     -14.845  68.911  -2.616  1.00  0.00    -0.031 C 
BRANCH  12  13
ATOM     13  C   UNL     1     -14.088  69.594  -1.500  1.00  0.00     0.027 C 
BRANCH  13  14
ATOM     14  C   UNL     1     -12.612  69.807  -1.864  1.00  0.00     0.004 C 
BRANCH  14  15
ATOM     15  C   UNL     1     -11.916  68.501  -2.287  1.00  0.00     0.000 C 
BRANCH  15  16
ATOM     16  C   UNL     1     -11.877  67.460  -1.156  1.00  0.00    -0.000 C 
BRANCH  16  17
ATOM     17  C   UNL     1     -11.989  68.096   0.237  1.00  0.00    -0.003 C 
ATOM     18  C   UNL     1     -11.875  67.039   1.332  1.00  0.00     0.004 C 
ENDBRANCH  16  17
ENDBRANCH  15  16
ENDBRANCH  14  15
ENDBRANCH  13  14
ENDBRANCH  12  13
ENDBRANCH  10  11
ENDBRANCH   1  10
TORSDOF 13
ENDMDL
