MODEL 1
REMARK VINA RESULT:    -4.644      0.000      0.000
REMARK INTER + INTRA:         -10.398
REMARK INTER:                  -8.716
REMARK INTRA:                  -1.682
REMARK UNBOUND:                -1.682
REMARK SMILES O=C([O-])CCCCCCCCCCCCCCC(=O)[O-]
REMARK SMILES IDX 10 1 9 2 8 3 7 4 6 5 5 6 4 7 2 8 1 9 3 10 11 11 12 12 13 13
REMARK SMILES IDX 14 14 15 15 16 16 17 17 18 18 19 19 20 20
REMARK H PARENT
REMARK Flexibility Score: inf
ROOT
ATOM      1  C   UNL     1     -20.111  13.434  16.871  1.00  0.00     0.000 C 
ENDROOT
BRANCH   1   2
ATOM      2  C   UNL     1     -19.818  13.149  15.390  1.00  0.00     0.000 C 
BRANCH   2   3
ATOM      3  C   UNL     1     -18.313  13.026  15.099  1.00  0.00     0.000 C 
BRANCH   3   4
ATOM      4  C   UNL     1     -17.966  11.770  14.279  1.00  0.00     0.000 C 
BRANCH   4   5
ATOM      5  C   UNL     1     -18.670  10.478  14.738  1.00  0.00     0.000 C 
BRANCH   5   6
ATOM      6  C   UNL     1     -19.756   9.950  13.782  1.00  0.00     0.006 C 
BRANCH   6   7
ATOM      7  C   UNL     1     -19.855  10.765  12.486  1.00  0.00     0.053 C 
BRANCH   7   8
ATOM      8  C   UNL     1     -19.977   9.852  11.307  1.00  0.00     0.041 C 
ATOM      9  O   UNL     1     -19.324  10.083  10.256  1.00  0.00    -0.550 OA
ATOM     10  O   UNL     1     -20.857   8.778  11.348  1.00  0.00    -0.550 OA
ENDBRANCH   7   8
ENDBRANCH   6   7
ENDBRANCH   5   6
ENDBRANCH   4   5
ENDBRANCH   3   4
ENDBRANCH   2   3
ENDBRANCH   1   2
BRANCH   1  11
ATOM     11  C   UNL     1     -18.949  13.022  17.791  1.00  0.00     0.000 C 
BRANCH  11  12
ATOM     12  C   UNL     1     -19.333  11.891  18.757  1.00  0.00     0.000 C 
BRANCH  12  13
ATOM     13  C   UNL     1     -20.639  11.185  18.354  1.00  0.00     0.000 C 
BRANCH  13  14
ATOM     14  C   UNL     1     -20.393   9.745  17.856  1.00  0.00     0.000 C 
BRANCH  14  15
ATOM     15  C   UNL     1     -19.117   9.105  18.429  1.00  0.00     0.000 C 
BRANCH  15  16
ATOM     16  C   UNL     1     -19.066   7.585  18.226  1.00  0.00     0.006 C 
BRANCH  16  17
ATOM     17  C   UNL     1     -18.536   6.882  19.479  1.00  0.00     0.053 C 
BRANCH  17  18
ATOM     18  C   UNL     1     -17.153   6.364  19.243  1.00  0.00     0.041 C 
ATOM     19  O   UNL     1     -16.611   5.595  20.081  1.00  0.00    -0.550 OA
ATOM     20  O   UNL     1     -16.444   6.762  18.116  1.00  0.00    -0.550 OA
ENDBRANCH  17  18
ENDBRANCH  16  17
ENDBRANCH  15  16
ENDBRANCH  14  15
ENDBRANCH  13  14
ENDBRANCH  12  13
ENDBRANCH  11  12
ENDBRANCH   1  11
TORSDOF 15
ENDMDL
MODEL 2
REMARK VINA RESULT:    -4.541      0.942      1.878
REMARK INTER + INTRA:         -10.206
REMARK INTER:                  -8.619
REMARK INTRA:                  -1.587
REMARK UNBOUND:                -1.682
REMARK SMILES O=C([O-])CCCCCCCCCCCCCCC(=O)[O-]
REMARK SMILES IDX 10 1 9 2 8 3 7 4 6 5 5 6 4 7 2 8 1 9 3 10 11 11 12 12 13 13
REMARK SMILES IDX 14 14 15 15 16 16 17 17 18 18 19 19 20 20
REMARK H PARENT
REMARK Flexibility Score: inf
ROOT
ATOM      1  C   UNL     1     -19.105  12.331  18.011  1.00  0.00     0.000 C 
ENDROOT
BRANCH   1   2
ATOM      2  C   UNL     1     -19.377  13.701  17.372  1.00  0.00     0.000 C 
BRANCH   2   3
ATOM      3  C   UNL     1     -19.222  13.681  15.842  1.00  0.00     0.000 C 
BRANCH   3   4
ATOM      4  C   UNL     1     -17.951  12.943  15.382  1.00  0.00     0.000 C 
BRANCH   4   5
ATOM      5  C   UNL     1     -18.193  11.786  14.393  1.00  0.00     0.000 C 
BRANCH   5   6
ATOM      6  C   UNL     1     -19.595  11.749  13.758  1.00  0.00     0.006 C 
BRANCH   6   7
ATOM      7  C   UNL     1     -20.014  10.339  13.323  1.00  0.00     0.053 C 
BRANCH   7   8
ATOM      8  C   UNL     1     -19.646  10.105  11.892  1.00  0.00     0.041 C 
ATOM      9  O   UNL     1     -20.410   9.444  11.141  1.00  0.00    -0.550 OA
ATOM     10  O   UNL     1     -18.432  10.570  11.402  1.00  0.00    -0.550 OA
ENDBRANCH   7   8
ENDBRANCH   6   7
ENDBRANCH   5   6
ENDBRANCH   4   5
ENDBRANCH   3   4
ENDBRANCH   2   3
ENDBRANCH   1   2
BRANCH   1  11
ATOM     11  C   UNL     1     -20.390  11.511  18.218  1.00  0.00     0.000 C 
BRANCH  11  12
ATOM     12  C   UNL     1     -20.529  10.364  17.205  1.00  0.00     0.000 C 
BRANCH  12  13
ATOM     13  C   UNL     1     -19.248   9.520  17.087  1.00  0.00     0.000 C 
BRANCH  13  14
ATOM     14  C   UNL     1     -19.119   8.493  18.232  1.00  0.00     0.000 C 
BRANCH  14  15
ATOM     15  C   UNL     1     -19.897   7.190  17.981  1.00  0.00     0.000 C 
BRANCH  15  16
ATOM     16  C   UNL     1     -19.388   6.016  18.828  1.00  0.00     0.006 C 
BRANCH  16  17
ATOM     17  C   UNL     1     -18.285   6.470  19.787  1.00  0.00     0.053 C 
BRANCH  17  18
ATOM     18  C   UNL     1     -17.000   5.770  19.477  1.00  0.00     0.041 C 
ATOM     19  O   UNL     1     -16.596   5.683  18.287  1.00  0.00    -0.550 OA
ATOM     20  O   UNL     1     -16.266   5.178  20.497  1.00  0.00    -0.550 OA
ENDBRANCH  17  18
ENDBRANCH  16  17
ENDBRANCH  15  16
ENDBRANCH  14  15
ENDBRANCH  13  14
ENDBRANCH  12  13
ENDBRANCH  11  12
ENDBRANCH   1  11
TORSDOF 15
ENDMDL
MODEL 3
REMARK VINA RESULT:    -4.522      1.474      6.354
REMARK INTER + INTRA:         -10.169
REMARK INTER:                  -8.847
REMARK INTRA:                  -1.322
REMARK UNBOUND:                -1.682
REMARK SMILES O=C([O-])CCCCCCCCCCCCCCC(=O)[O-]
REMARK SMILES IDX 10 1 9 2 8 3 7 4 6 5 5 6 4 7 2 8 1 9 3 10 11 11 12 12 13 13
REMARK SMILES IDX 14 14 15 15 16 16 17 17 18 18 19 19 20 20
REMARK H PARENT
REMARK Flexibility Score: inf
ROOT
ATOM      1  C   UNL     1     -21.286  11.212  17.923  1.00  0.00     0.000 C 
ENDROOT
BRANCH   1   2
ATOM      2  C   UNL     1     -22.403  10.785  18.889  1.00  0.00     0.000 C 
BRANCH   2   3
ATOM      3  C   UNL     1     -22.860   9.335  18.659  1.00  0.00     0.000 C 
BRANCH   3   4
ATOM      4  C   UNL     1     -21.977   8.586  17.645  1.00  0.00     0.000 C 
BRANCH   4   5
ATOM      5  C   UNL     1     -21.748   7.093  17.958  1.00  0.00     0.000 C 
BRANCH   5   6
ATOM      6  C   UNL     1     -20.272   6.659  18.032  1.00  0.00     0.006 C 
BRANCH   6   7
ATOM      7  C   UNL     1     -19.306   7.847  18.115  1.00  0.00     0.053 C 
BRANCH   7   8
ATOM      8  C   UNL     1     -18.062   7.455  18.848  1.00  0.00     0.041 C 
ATOM      9  O   UNL     1     -16.933   7.628  18.319  1.00  0.00    -0.550 OA
ATOM     10  O   UNL     1     -18.154   6.845  20.093  1.00  0.00    -0.550 OA
ENDBRANCH   7   8
ENDBRANCH   6   7
ENDBRANCH   5   6
ENDBRANCH   4   5
ENDBRANCH   3   4
ENDBRANCH   2   3
ENDBRANCH   1   2
BRANCH   1  11
ATOM     11  C   UNL     1     -19.901  11.217  18.592  1.00  0.00     0.000 C 
BRANCH  11  12
ATOM     12  C   UNL     1     -19.138  12.531  18.361  1.00  0.00     0.000 C 
BRANCH  12  13
ATOM     13  C   UNL     1     -19.533  13.222  17.045  1.00  0.00     0.000 C 
BRANCH  13  14
ATOM     14  C   UNL     1     -18.333  13.381  16.087  1.00  0.00     0.000 C 
BRANCH  14  15
ATOM     15  C   UNL     1     -18.582  12.796  14.686  1.00  0.00     0.000 C 
BRANCH  15  16
ATOM     16  C   UNL     1     -18.518  11.263  14.658  1.00  0.00     0.006 C 
BRANCH  16  17
ATOM     17  C   UNL     1     -19.620  10.685  13.766  1.00  0.00     0.053 C 
BRANCH  17  18
ATOM     18  C   UNL     1     -19.086  10.381  12.403  1.00  0.00     0.041 C 
ATOM     19  O   UNL     1     -17.903  10.691  12.101  1.00  0.00    -0.550 OA
ATOM     20  O   UNL     1     -19.906   9.788  11.450  1.00  0.00    -0.550 OA
ENDBRANCH  17  18
ENDBRANCH  16  17
ENDBRANCH  15  16
ENDBRANCH  14  15
ENDBRANCH  13  14
ENDBRANCH  12  13
ENDBRANCH  11  12
ENDBRANCH   1  11
TORSDOF 15
ENDMDL
MODEL 4
REMARK VINA RESULT:    -4.442      1.648      6.779
REMARK INTER + INTRA:         -10.020
REMARK INTER:                  -8.751
REMARK INTRA:                  -1.269
REMARK UNBOUND:                -1.682
REMARK SMILES O=C([O-])CCCCCCCCCCCCCCC(=O)[O-]
REMARK SMILES IDX 10 1 9 2 8 3 7 4 6 5 5 6 4 7 2 8 1 9 3 10 11 11 12 12 13 13
REMARK SMILES IDX 14 14 15 15 16 16 17 17 18 18 19 19 20 20
REMARK H PARENT
REMARK Flexibility Score: inf
ROOT
ATOM      1  C   UNL     1     -20.516   9.508  17.921  1.00  0.00     0.000 C 
ENDROOT
BRANCH   1   2
ATOM      2  C   UNL     1     -19.108   9.153  17.418  1.00  0.00     0.000 C 
BRANCH   2   3
ATOM      3  C   UNL     1     -18.345   8.241  18.393  1.00  0.00     0.000 C 
BRANCH   3   4
ATOM      4  C   UNL     1     -19.081   6.919  18.673  1.00  0.00     0.000 C 
BRANCH   4   5
ATOM      5  C   UNL     1     -18.529   6.104  19.860  1.00  0.00     0.000 C 
BRANCH   5   6
ATOM      6  C   UNL     1     -17.134   5.489  19.639  1.00  0.00     0.006 C 
BRANCH   6   7
ATOM      7  C   UNL     1     -17.014   4.755  18.298  1.00  0.00     0.053 C 
BRANCH   7   8
ATOM      8  C   UNL     1     -15.574   4.558  17.942  1.00  0.00     0.041 C 
ATOM      9  O   UNL     1     -14.798   3.968  18.740  1.00  0.00    -0.550 OA
ATOM     10  O   UNL     1     -15.075   5.076  16.753  1.00  0.00    -0.550 OA
ENDBRANCH   7   8
ENDBRANCH   6   7
ENDBRANCH   5   6
ENDBRANCH   4   5
ENDBRANCH   3   4
ENDBRANCH   2   3
ENDBRANCH   1   2
BRANCH   1  11
ATOM     11  C   UNL     1     -20.705  11.021  18.124  1.00  0.00     0.000 C 
BRANCH  11  12
ATOM     12  C   UNL     1     -19.704  11.610  19.130  1.00  0.00     0.000 C 
BRANCH  12  13
ATOM     13  C   UNL     1     -18.752  12.634  18.488  1.00  0.00     0.000 C 
BRANCH  13  14
ATOM     14  C   UNL     1     -19.442  13.456  17.378  1.00  0.00     0.000 C 
BRANCH  14  15
ATOM     15  C   UNL     1     -18.612  13.567  16.088  1.00  0.00     0.000 C 
BRANCH  15  16
ATOM     16  C   UNL     1     -19.049  12.569  15.007  1.00  0.00     0.006 C 
BRANCH  16  17
ATOM     17  C   UNL     1     -17.843  11.822  14.432  1.00  0.00     0.053 C 
BRANCH  17  18
ATOM     18  C   UNL     1     -18.285  10.828  13.405  1.00  0.00     0.041 C 
ATOM     19  O   UNL     1     -17.693  10.757  12.295  1.00  0.00    -0.550 OA
ATOM     20  O   UNL     1     -19.376  10.005  13.657  1.00  0.00    -0.550 OA
ENDBRANCH  17  18
ENDBRANCH  16  17
ENDBRANCH  15  16
ENDBRANCH  14  15
ENDBRANCH  13  14
ENDBRANCH  12  13
ENDBRANCH  11  12
ENDBRANCH   1  11
TORSDOF 15
ENDMDL
MODEL 5
REMARK VINA RESULT:    -4.414      1.461      2.398
REMARK INTER + INTRA:          -9.967
REMARK INTER:                  -7.971
REMARK INTRA:                  -1.996
REMARK UNBOUND:                -1.682
REMARK SMILES O=C([O-])CCCCCCCCCCCCCCC(=O)[O-]
REMARK SMILES IDX 10 1 9 2 8 3 7 4 6 5 5 6 4 7 2 8 1 9 3 10 11 11 12 12 13 13
REMARK SMILES IDX 14 14 15 15 16 16 17 17 18 18 19 19 20 20
REMARK H PARENT
REMARK Flexibility Score: inf
ROOT
ATOM      1  C   UNL     1     -18.641  12.672  14.427  1.00  0.00     0.000 C 
ENDROOT
BRANCH   1   2
ATOM      2  C   UNL     1     -17.834  11.424  14.036  1.00  0.00     0.000 C 
BRANCH   2   3
ATOM      3  C   UNL     1     -18.444  10.127  14.593  1.00  0.00     0.000 C 
BRANCH   3   4
ATOM      4  C   UNL     1     -19.978  10.094  14.480  1.00  0.00     0.000 C 
BRANCH   4   5
ATOM      5  C   UNL     1     -20.545   8.926  13.648  1.00  0.00     0.000 C 
BRANCH   5   6
ATOM      6  C   UNL     1     -20.537   9.144  12.123  1.00  0.00     0.006 C 
BRANCH   6   7
ATOM      7  C   UNL     1     -20.733  10.615  11.732  1.00  0.00     0.053 C 
BRANCH   7   8
ATOM      8  C   UNL     1     -22.190  10.944  11.663  1.00  0.00     0.041 C 
ATOM      9  O   UNL     1     -22.676  11.830  12.414  1.00  0.00    -0.550 OA
ATOM     10  O   UNL     1     -23.024  10.231  10.810  1.00  0.00    -0.550 OA
ENDBRANCH   7   8
ENDBRANCH   6   7
ENDBRANCH   5   6
ENDBRANCH   4   5
ENDBRANCH   3   4
ENDBRANCH   2   3
ENDBRANCH   1   2
BRANCH   1  11
ATOM     11  C   UNL     1     -18.118  13.331  15.715  1.00  0.00     0.000 C 
BRANCH  11  12
ATOM     12  C   UNL     1     -19.217  13.513  16.773  1.00  0.00     0.000 C 
BRANCH  12  13
ATOM     13  C   UNL     1     -19.290  12.337  17.761  1.00  0.00     0.000 C 
BRANCH  13  14
ATOM     14  C   UNL     1     -20.667  11.639  17.736  1.00  0.00     0.000 C 
BRANCH  14  15
ATOM     15  C   UNL     1     -20.629  10.185  18.237  1.00  0.00     0.000 C 
BRANCH  15  16
ATOM     16  C   UNL     1     -19.242   9.543  18.106  1.00  0.00     0.006 C 
BRANCH  16  17
ATOM     17  C   UNL     1     -19.333   8.017  18.200  1.00  0.00     0.053 C 
BRANCH  17  18
ATOM     18  C   UNL     1     -18.121   7.461  18.878  1.00  0.00     0.041 C 
ATOM     19  O   UNL     1     -18.227   6.877  19.989  1.00  0.00    -0.550 OA
ATOM     20  O   UNL     1     -16.867   7.621  18.302  1.00  0.00    -0.550 OA
ENDBRANCH  17  18
ENDBRANCH  16  17
ENDBRANCH  15  16
ENDBRANCH  14  15
ENDBRANCH  13  14
ENDBRANCH  12  13
ENDBRANCH  11  12
ENDBRANCH   1  11
TORSDOF 15
ENDMDL
MODEL 6
REMARK VINA RESULT:    -4.395      1.784      3.115
REMARK INTER + INTRA:          -9.932
REMARK INTER:                  -8.588
REMARK INTRA:                  -1.344
REMARK UNBOUND:                -1.682
REMARK SMILES O=C([O-])CCCCCCCCCCCCCCC(=O)[O-]
REMARK SMILES IDX 10 1 9 2 8 3 7 4 6 5 5 6 4 7 2 8 1 9 3 10 11 11 12 12 13 13
REMARK SMILES IDX 14 14 15 15 16 16 17 17 18 18 19 19 20 20
REMARK H PARENT
REMARK Flexibility Score: inf
ROOT
ATOM      1  C   UNL     1     -19.662  10.059  17.550  1.00  0.00     0.000 C 
ENDROOT
BRANCH   1   2
ATOM      2  C   UNL     1     -19.886  11.116  18.642  1.00  0.00     0.000 C 
BRANCH   2   3
ATOM      3  C   UNL     1     -18.995  12.355  18.458  1.00  0.00     0.000 C 
BRANCH   3   4
ATOM      4  C   UNL     1     -19.335  13.150  17.185  1.00  0.00     0.000 C 
BRANCH   4   5
ATOM      5  C   UNL     1     -18.390  12.905  15.992  1.00  0.00     0.000 C 
BRANCH   5   6
ATOM      6  C   UNL     1     -19.085  12.756  14.626  1.00  0.00     0.006 C 
BRANCH   6   7
ATOM      7  C   UNL     1     -19.175  11.297  14.160  1.00  0.00     0.053 C 
BRANCH   7   8
ATOM      8  C   UNL     1     -17.979  10.941  13.335  1.00  0.00     0.041 C 
ATOM      9  O   UNL     1     -16.826  10.988  13.837  1.00  0.00    -0.550 OA
ATOM     10  O   UNL     1     -18.133  10.612  11.994  1.00  0.00    -0.550 OA
ENDBRANCH   7   8
ENDBRANCH   6   7
ENDBRANCH   5   6
ENDBRANCH   4   5
ENDBRANCH   3   4
ENDBRANCH   2   3
ENDBRANCH   1   2
BRANCH   1  11
ATOM     11  C   UNL     1     -20.978   9.438  17.052  1.00  0.00     0.000 C 
BRANCH  11  12
ATOM     12  C   UNL     1     -22.092   9.490  18.108  1.00  0.00     0.000 C 
BRANCH  12  13
ATOM     13  C   UNL     1     -22.724   8.113  18.373  1.00  0.00     0.000 C 
BRANCH  13  14
ATOM     14  C   UNL     1     -21.919   6.968  17.723  1.00  0.00     0.000 C 
BRANCH  14  15
ATOM     15  C   UNL     1     -21.094   6.147  18.729  1.00  0.00     0.000 C 
BRANCH  15  16
ATOM     16  C   UNL     1     -19.581   6.299  18.529  1.00  0.00     0.006 C 
BRANCH  16  17
ATOM     17  C   UNL     1     -18.814   5.834  19.769  1.00  0.00     0.053 C 
BRANCH  17  18
ATOM     18  C   UNL     1     -17.342   5.819  19.500  1.00  0.00     0.041 C 
ATOM     19  O   UNL     1     -16.900   6.162  18.372  1.00  0.00    -0.550 OA
ATOM     20  O   UNL     1     -16.459   5.389  20.483  1.00  0.00    -0.550 OA
ENDBRANCH  17  18
ENDBRANCH  16  17
ENDBRANCH  15  16
ENDBRANCH  14  15
ENDBRANCH  13  14
ENDBRANCH  12  13
ENDBRANCH  11  12
ENDBRANCH   1  11
TORSDOF 15
ENDMDL
MODEL 7
REMARK VINA RESULT:    -4.393      1.205      6.200
REMARK INTER + INTRA:          -9.929
REMARK INTER:                  -7.799
REMARK INTRA:                  -2.129
REMARK UNBOUND:                -1.682
REMARK SMILES O=C([O-])CCCCCCCCCCCCCCC(=O)[O-]
REMARK SMILES IDX 10 1 9 2 8 3 7 4 6 5 5 6 4 7 2 8 1 9 3 10 11 11 12 12 13 13
REMARK SMILES IDX 14 14 15 15 16 16 17 17 18 18 19 19 20 20
REMARK H PARENT
REMARK Flexibility Score: inf
ROOT
ATOM      1  C   UNL     1     -21.263  13.233  16.946  1.00  0.00     0.000 C 
ENDROOT
BRANCH   1   2
ATOM      2  C   UNL     1     -22.115  12.062  16.431  1.00  0.00     0.000 C 
BRANCH   2   3
ATOM      3  C   UNL     1     -21.659  10.707  16.997  1.00  0.00     0.000 C 
BRANCH   3   4
ATOM      4  C   UNL     1     -20.868  10.845  18.310  1.00  0.00     0.000 C 
BRANCH   4   5
ATOM      5  C   UNL     1     -19.388  10.421  18.226  1.00  0.00     0.000 C 
BRANCH   5   6
ATOM      6  C   UNL     1     -19.129   9.088  17.500  1.00  0.00     0.006 C 
BRANCH   6   7
ATOM      7  C   UNL     1     -19.367   7.866  18.396  1.00  0.00     0.053 C 
BRANCH   7   8
ATOM      8  C   UNL     1     -18.070   7.367  18.949  1.00  0.00     0.041 C 
ATOM      9  O   UNL     1     -18.050   6.696  20.013  1.00  0.00    -0.550 OA
ATOM     10  O   UNL     1     -16.875   7.693  18.318  1.00  0.00    -0.550 OA
ENDBRANCH   7   8
ENDBRANCH   6   7
ENDBRANCH   5   6
ENDBRANCH   4   5
ENDBRANCH   3   4
ENDBRANCH   2   3
ENDBRANCH   1   2
BRANCH   1  11
ATOM     11  C   UNL     1     -20.267  13.746  15.891  1.00  0.00     0.000 C 
BRANCH  11  12
ATOM     12  C   UNL     1     -18.822  13.776  16.409  1.00  0.00     0.000 C 
BRANCH  12  13
ATOM     13  C   UNL     1     -17.851  12.997  15.505  1.00  0.00     0.000 C 
BRANCH  13  14
ATOM     14  C   UNL     1     -18.554  12.416  14.260  1.00  0.00     0.000 C 
BRANCH  14  15
ATOM     15  C   UNL     1     -18.670  10.882  14.278  1.00  0.00     0.000 C 
BRANCH  15  16
ATOM     16  C   UNL     1     -19.983  10.373  13.667  1.00  0.00     0.006 C 
BRANCH  16  17
ATOM     17  C   UNL     1     -19.796  10.008  12.192  1.00  0.00     0.053 C 
BRANCH  17  18
ATOM     18  C   UNL     1     -20.546   8.756  11.864  1.00  0.00     0.041 C 
ATOM     19  O   UNL     1     -20.709   7.865  12.740  1.00  0.00    -0.550 OA
ATOM     20  O   UNL     1     -21.033   8.553  10.579  1.00  0.00    -0.550 OA
ENDBRANCH  17  18
ENDBRANCH  16  17
ENDBRANCH  15  16
ENDBRANCH  14  15
ENDBRANCH  13  14
ENDBRANCH  12  13
ENDBRANCH  11  12
ENDBRANCH   1  11
TORSDOF 15
ENDMDL
MODEL 8
REMARK VINA RESULT:    -4.389      2.636      5.393
REMARK INTER + INTRA:          -9.920
REMARK INTER:                  -7.520
REMARK INTRA:                  -2.400
REMARK UNBOUND:                -1.682
REMARK SMILES O=C([O-])CCCCCCCCCCCCCCC(=O)[O-]
REMARK SMILES IDX 10 1 9 2 8 3 7 4 6 5 5 6 4 7 2 8 1 9 3 10 11 11 12 12 13 13
REMARK SMILES IDX 14 14 15 15 16 16 17 17 18 18 19 19 20 20
REMARK H PARENT
REMARK Flexibility Score: inf
ROOT
ATOM      1  C   UNL     1     -18.689  12.758  15.130  1.00  0.00     0.000 C 
ENDROOT
BRANCH   1   2
ATOM      2  C   UNL     1     -19.813  12.246  14.216  1.00  0.00     0.000 C 
BRANCH   2   3
ATOM      3  C   UNL     1     -20.008  10.724  14.316  1.00  0.00     0.000 C 
BRANCH   3   4
ATOM      4  C   UNL     1     -18.978  10.050  15.240  1.00  0.00     0.000 C 
BRANCH   4   5
ATOM      5  C   UNL     1     -19.569   9.047  16.251  1.00  0.00     0.000 C 
BRANCH   5   6
ATOM      6  C   UNL     1     -18.822   8.956  17.595  1.00  0.00     0.006 C 
BRANCH   6   7
ATOM      7  C   UNL     1     -19.240   7.737  18.427  1.00  0.00     0.053 C 
BRANCH   7   8
ATOM      8  C   UNL     1     -18.043   7.110  19.067  1.00  0.00     0.041 C 
ATOM      9  O   UNL     1     -18.132   6.596  20.213  1.00  0.00    -0.550 OA
ATOM     10  O   UNL     1     -16.812   7.143  18.422  1.00  0.00    -0.550 OA
ENDBRANCH   7   8
ENDBRANCH   6   7
ENDBRANCH   5   6
ENDBRANCH   4   5
ENDBRANCH   3   4
ENDBRANCH   2   3
ENDBRANCH   1   2
BRANCH   1  11
ATOM     11  C   UNL     1     -19.007  14.133  15.741  1.00  0.00     0.000 C 
BRANCH  11  12
ATOM     12  C   UNL     1     -19.518  14.033  17.187  1.00  0.00     0.000 C 
BRANCH  12  13
ATOM     13  C   UNL     1     -19.154  12.696  17.853  1.00  0.00     0.000 C 
BRANCH  13  14
ATOM     14  C   UNL     1     -20.398  11.952  18.385  1.00  0.00     0.000 C 
BRANCH  14  15
ATOM     15  C   UNL     1     -21.602  12.004  17.428  1.00  0.00     0.000 C 
BRANCH  15  16
ATOM     16  C   UNL     1     -22.846  11.307  17.994  1.00  0.00     0.006 C 
BRANCH  16  17
ATOM     17  C   UNL     1     -22.463  10.044  18.770  1.00  0.00     0.053 C 
BRANCH  17  18
ATOM     18  C   UNL     1     -23.064   8.833  18.129  1.00  0.00     0.041 C 
ATOM     19  O   UNL     1     -22.835   7.687  18.599  1.00  0.00    -0.550 OA
ATOM     20  O   UNL     1     -23.847   8.965  16.989  1.00  0.00    -0.550 OA
ENDBRANCH  17  18
ENDBRANCH  16  17
ENDBRANCH  15  16
ENDBRANCH  14  15
ENDBRANCH  13  14
ENDBRANCH  12  13
ENDBRANCH  11  12
ENDBRANCH   1  11
TORSDOF 15
ENDMDL
MODEL 9
REMARK VINA RESULT:    -4.351      1.283      6.666
REMARK INTER + INTRA:          -9.848
REMARK INTER:                  -8.154
REMARK INTRA:                  -1.694
REMARK UNBOUND:                -1.682
REMARK SMILES O=C([O-])CCCCCCCCCCCCCCC(=O)[O-]
REMARK SMILES IDX 10 1 9 2 8 3 7 4 6 5 5 6 4 7 2 8 1 9 3 10 11 11 12 12 13 13
REMARK SMILES IDX 14 14 15 15 16 16 17 17 18 18 19 19 20 20
REMARK H PARENT
REMARK Flexibility Score: inf
ROOT
ATOM      1  C   UNL     1     -20.741  11.296  17.997  1.00  0.00     0.000 C 
ENDROOT
BRANCH   1   2
ATOM      2  C   UNL     1     -20.560   9.925  17.327  1.00  0.00     0.000 C 
BRANCH   2   3
ATOM      3  C   UNL     1     -19.095   9.458  17.324  1.00  0.00     0.000 C 
BRANCH   3   4
ATOM      4  C   UNL     1     -18.837   8.300  18.304  1.00  0.00     0.000 C 
BRANCH   4   5
ATOM      5  C   UNL     1     -19.944   7.228  18.352  1.00  0.00     0.000 C 
BRANCH   5   6
ATOM      6  C   UNL     1     -19.495   5.806  17.968  1.00  0.00     0.006 C 
BRANCH   6   7
ATOM      7  C   UNL     1     -19.137   4.946  19.187  1.00  0.00     0.053 C 
BRANCH   7   8
ATOM      8  C   UNL     1     -17.660   4.970  19.424  1.00  0.00     0.041 C 
ATOM      9  O   UNL     1     -17.164   5.778  20.252  1.00  0.00    -0.550 OA
ATOM     10  O   UNL     1     -16.825   4.139  18.687  1.00  0.00    -0.550 OA
ENDBRANCH   7   8
ENDBRANCH   6   7
ENDBRANCH   5   6
ENDBRANCH   4   5
ENDBRANCH   3   4
ENDBRANCH   2   3
ENDBRANCH   1   2
BRANCH   1  11
ATOM     11  C   UNL     1     -19.434  11.831  18.607  1.00  0.00     0.000 C 
BRANCH  11  12
ATOM     12  C   UNL     1     -18.951  13.122  17.928  1.00  0.00     0.000 C 
BRANCH  12  13
ATOM     13  C   UNL     1     -19.943  13.647  16.877  1.00  0.00     0.000 C 
BRANCH  13  14
ATOM     14  C   UNL     1     -19.359  13.600  15.449  1.00  0.00     0.000 C 
BRANCH  14  15
ATOM     15  C   UNL     1     -17.876  13.194  15.404  1.00  0.00     0.000 C 
BRANCH  15  16
ATOM     16  C   UNL     1     -17.617  11.967  14.520  1.00  0.00     0.006 C 
BRANCH  16  17
ATOM     17  C   UNL     1     -18.934  11.336  14.059  1.00  0.00     0.053 C 
BRANCH  17  18
ATOM     18  C   UNL     1     -18.842  10.919  12.626  1.00  0.00     0.041 C 
ATOM     19  O   UNL     1     -19.888  10.762  11.942  1.00  0.00    -0.550 OA
ATOM     20  O   UNL     1     -17.601  10.666  12.053  1.00  0.00    -0.550 OA
ENDBRANCH  17  18
ENDBRANCH  16  17
ENDBRANCH  15  16
ENDBRANCH  14  15
ENDBRANCH  13  14
ENDBRANCH  12  13
ENDBRANCH  11  12
ENDBRANCH   1  11
TORSDOF 15
ENDMDL
