MODEL 1
REMARK VINA RESULT:    -4.074      0.000      0.000
REMARK INTER + INTRA:          -5.734
REMARK INTER:                  -5.146
REMARK INTRA:                  -0.588
REMARK UNBOUND:                -0.588
REMARK SMILES O=C(C=Cc1ccc(O)cc1)c1ccc(O)cc1O
REMARK SMILES IDX 4 1 3 2 5 3 6 4 7 5 8 6 11 7 10 8 9 9 2 11 1 12 12 13 18 14
REMARK SMILES IDX 13 15 17 16 14 17 15 18 19 19 16 21
REMARK H PARENT 9 10 19 20 16 22
REMARK Flexibility Score: inf
ROOT
ATOM      1  C   UNL     1       9.562 -31.688  14.553  1.00  0.00     0.012 C 
ATOM      2  C   UNL     1       8.585 -30.984  13.964  1.00  0.00     0.053 C 
ENDROOT
BRANCH   1   3
ATOM      3  C   UNL     1      10.513 -32.558  13.818  1.00  0.00    -0.025 A 
ATOM      4  C   UNL     1      11.082 -32.189  12.581  1.00  0.00     0.012 A 
ATOM      5  C   UNL     1      11.983 -33.042  11.934  1.00  0.00     0.047 A 
ATOM      6  C   UNL     1      12.334 -34.268  12.513  1.00  0.00     0.115 A 
ATOM      7  C   UNL     1      10.886 -33.784  14.395  1.00  0.00     0.012 A 
ATOM      8  C   UNL     1      11.784 -34.634  13.744  1.00  0.00     0.047 A 
BRANCH   6   9
ATOM      9  O   UNL     1      13.228 -35.125  11.876  1.00  0.00    -0.508 OA
ATOM     10  H   UNL     1      14.213 -35.132  12.112  1.00  0.00     0.293 HD
ENDBRANCH   6   9
ENDBRANCH   1   3
BRANCH   2  11
ATOM     11  C   UNL     1       7.651 -30.122  14.720  1.00  0.00     0.189 C 
ATOM     12  O   UNL     1       6.533 -29.860  14.202  1.00  0.00    -0.289 OA
BRANCH  11  13
ATOM     13  C   UNL     1       7.963 -29.581  16.066  1.00  0.00     0.064 A 
ATOM     14  C   UNL     1       7.109 -29.831  17.160  1.00  0.00     0.130 A 
ATOM     15  C   UNL     1       9.145 -28.847  16.274  1.00  0.00     0.020 A 
ATOM     16  C   UNL     1       7.434 -29.336  18.430  1.00  0.00     0.093 A 
ATOM     17  C   UNL     1       9.459 -28.354  17.542  1.00  0.00     0.047 A 
ATOM     18  C   UNL     1       8.608 -28.595  18.622  1.00  0.00     0.119 A 
BRANCH  14  19
ATOM     19  O   UNL     1       5.932 -30.560  16.979  1.00  0.00    -0.507 OA
ATOM     20  H   UNL     1       5.021 -30.124  17.055  1.00  0.00     0.293 HD
ENDBRANCH  14  19
BRANCH  18  21
ATOM     21  O   UNL     1       8.936 -28.098  19.881  1.00  0.00    -0.508 OA
ATOM     22  H   UNL     1       8.984 -27.102  20.062  1.00  0.00     0.293 HD
ENDBRANCH  18  21
ENDBRANCH  11  13
ENDBRANCH   2  11
TORSDOF 6
ENDMDL
MODEL 2
REMARK VINA RESULT:    -3.950      1.838      7.070
REMARK INTER + INTRA:          -5.577
REMARK INTER:                  -5.094
REMARK INTRA:                  -0.484
REMARK UNBOUND:                -0.588
REMARK SMILES O=C(C=Cc1ccc(O)cc1)c1ccc(O)cc1O
REMARK SMILES IDX 4 1 3 2 5 3 6 4 7 5 8 6 11 7 10 8 9 9 2 11 1 12 12 13 18 14
REMARK SMILES IDX 13 15 17 16 14 17 15 18 19 19 16 21
REMARK H PARENT 9 10 19 20 16 22
REMARK Flexibility Score: inf
ROOT
ATOM      1  C   UNL     1       9.078 -30.144  15.113  1.00  0.00     0.012 C 
ATOM      2  C   UNL     1       8.788 -29.772  13.858  1.00  0.00     0.053 C 
ENDROOT
BRANCH   1   3
ATOM      3  C   UNL     1       8.207 -29.864  16.282  1.00  0.00    -0.025 A 
ATOM      4  C   UNL     1       6.798 -29.876  16.201  1.00  0.00     0.012 A 
ATOM      5  C   UNL     1       6.023 -29.616  17.337  1.00  0.00     0.047 A 
ATOM      6  C   UNL     1       6.639 -29.347  18.565  1.00  0.00     0.115 A 
ATOM      7  C   UNL     1       8.811 -29.609  17.524  1.00  0.00     0.012 A 
ATOM      8  C   UNL     1       8.033 -29.347  18.655  1.00  0.00     0.047 A 
BRANCH   6   9
ATOM      9  O   UNL     1       5.875 -29.085  19.701  1.00  0.00    -0.508 OA
ATOM     10  H   UNL     1       6.084 -29.521  20.591  1.00  0.00     0.293 HD
ENDBRANCH   6   9
ENDBRANCH   1   3
BRANCH   2  11
ATOM     11  C   UNL     1       9.672 -30.066  12.711  1.00  0.00     0.189 C 
ATOM     12  O   UNL     1       9.891 -29.146  11.878  1.00  0.00    -0.289 OA
BRANCH  11  13
ATOM     13  C   UNL     1      10.331 -31.381  12.517  1.00  0.00     0.064 A 
ATOM     14  C   UNL     1       9.578 -32.520  12.163  1.00  0.00     0.130 A 
ATOM     15  C   UNL     1      11.728 -31.495  12.639  1.00  0.00     0.020 A 
ATOM     16  C   UNL     1      10.221 -33.749  11.956  1.00  0.00     0.093 A 
ATOM     17  C   UNL     1      12.360 -32.723  12.435  1.00  0.00     0.047 A 
ATOM     18  C   UNL     1      11.612 -33.852  12.094  1.00  0.00     0.119 A 
BRANCH  14  19
ATOM     19  O   UNL     1       8.191 -32.432  12.031  1.00  0.00    -0.507 OA
ATOM     20  H   UNL     1       7.749 -31.626  11.606  1.00  0.00     0.293 HD
ENDBRANCH  14  19
BRANCH  18  21
ATOM     21  O   UNL     1      12.257 -35.069  11.892  1.00  0.00    -0.508 OA
ATOM     22  H   UNL     1      13.252 -35.175  12.055  1.00  0.00     0.293 HD
ENDBRANCH  18  21
ENDBRANCH  11  13
ENDBRANCH   2  11
TORSDOF 6
ENDMDL
MODEL 3
REMARK VINA RESULT:    -3.906      1.664      7.067
REMARK INTER + INTRA:          -5.521
REMARK INTER:                  -4.796
REMARK INTRA:                  -0.725
REMARK UNBOUND:                -0.588
REMARK SMILES O=C(C=Cc1ccc(O)cc1)c1ccc(O)cc1O
REMARK SMILES IDX 4 1 3 2 5 3 6 4 7 5 8 6 11 7 10 8 9 9 2 11 1 12 12 13 18 14
REMARK SMILES IDX 13 15 17 16 14 17 15 18 19 19 16 21
REMARK H PARENT 9 10 19 20 16 22
REMARK Flexibility Score: inf
ROOT
ATOM      1  C   UNL     1       8.818 -31.462  15.105  1.00  0.00     0.012 C 
ATOM      2  C   UNL     1       8.223 -31.347  13.908  1.00  0.00     0.053 C 
ENDROOT
BRANCH   1   3
ATOM      3  C   UNL     1       8.625 -30.504  16.221  1.00  0.00    -0.025 A 
ATOM      4  C   UNL     1       7.623 -30.667  17.200  1.00  0.00     0.012 A 
ATOM      5  C   UNL     1       7.491 -29.738  18.238  1.00  0.00     0.047 A 
ATOM      6  C   UNL     1       8.358 -28.642  18.319  1.00  0.00     0.115 A 
ATOM      7  C   UNL     1       9.499 -29.408  16.323  1.00  0.00     0.012 A 
ATOM      8  C   UNL     1       9.362 -28.482  17.361  1.00  0.00     0.047 A 
BRANCH   6   9
ATOM      9  O   UNL     1       8.234 -27.712  19.348  1.00  0.00    -0.508 OA
ATOM     10  H   UNL     1       8.045 -27.999  20.301  1.00  0.00     0.293 HD
ENDBRANCH   6   9
ENDBRANCH   1   3
BRANCH   2  11
ATOM     11  C   UNL     1       8.430 -32.318  12.814  1.00  0.00     0.189 C 
ATOM     12  O   UNL     1       7.481 -32.518  12.010  1.00  0.00    -0.289 OA
BRANCH  11  13
ATOM     13  C   UNL     1       9.710 -33.040  12.607  1.00  0.00     0.064 A 
ATOM     14  C   UNL     1       9.807 -34.423  12.865  1.00  0.00     0.130 A 
ATOM     15  C   UNL     1      10.832 -32.357  12.105  1.00  0.00     0.020 A 
ATOM     16  C   UNL     1      11.017 -35.095  12.637  1.00  0.00     0.093 A 
ATOM     17  C   UNL     1      12.034 -33.033  11.885  1.00  0.00     0.047 A 
ATOM     18  C   UNL     1      12.131 -34.400  12.149  1.00  0.00     0.119 A 
BRANCH  14  19
ATOM     19  O   UNL     1       8.706 -35.125  13.360  1.00  0.00    -0.507 OA
ATOM     20  H   UNL     1       7.830 -34.660  13.566  1.00  0.00     0.293 HD
ENDBRANCH  14  19
BRANCH  18  21
ATOM     21  O   UNL     1      13.336 -35.061  11.922  1.00  0.00    -0.508 OA
ATOM     22  H   UNL     1      13.586 -35.407  11.003  1.00  0.00     0.293 HD
ENDBRANCH  18  21
ENDBRANCH  11  13
ENDBRANCH   2  11
TORSDOF 6
ENDMDL
MODEL 4
REMARK VINA RESULT:    -3.852      2.011      7.219
REMARK INTER + INTRA:          -5.453
REMARK INTER:                  -4.976
REMARK INTRA:                  -0.477
REMARK UNBOUND:                -0.588
REMARK SMILES O=C(C=Cc1ccc(O)cc1)c1ccc(O)cc1O
REMARK SMILES IDX 4 1 3 2 5 3 6 4 7 5 8 6 11 7 10 8 9 9 2 11 1 12 12 13 18 14
REMARK SMILES IDX 13 15 17 16 14 17 15 18 19 19 16 21
REMARK H PARENT 9 10 19 20 16 22
REMARK Flexibility Score: inf
ROOT
ATOM      1  C   UNL     1       7.932 -31.955  15.269  1.00  0.00     0.012 C 
ATOM      2  C   UNL     1       7.229 -32.214  14.157  1.00  0.00     0.053 C 
ENDROOT
BRANCH   1   3
ATOM      3  C   UNL     1       7.541 -30.939  16.277  1.00  0.00    -0.025 A 
ATOM      4  C   UNL     1       8.390 -30.547  17.333  1.00  0.00     0.012 A 
ATOM      5  C   UNL     1       7.975 -29.575  18.250  1.00  0.00     0.047 A 
ATOM      6  C   UNL     1       6.716 -28.977  18.124  1.00  0.00     0.115 A 
ATOM      7  C   UNL     1       6.286 -30.319  16.152  1.00  0.00     0.012 A 
ATOM      8  C   UNL     1       5.875 -29.350  17.072  1.00  0.00     0.047 A 
BRANCH   6   9
ATOM      9  O   UNL     1       6.294 -28.010  19.033  1.00  0.00    -0.508 OA
ATOM     10  H   UNL     1       5.704 -28.246  19.821  1.00  0.00     0.293 HD
ENDBRANCH   6   9
ENDBRANCH   1   3
BRANCH   2  11
ATOM     11  C   UNL     1       7.640 -33.236  13.169  1.00  0.00     0.189 C 
ATOM     12  O   UNL     1       6.738 -33.856  12.546  1.00  0.00    -0.289 OA
BRANCH  11  13
ATOM     13  C   UNL     1       9.061 -33.537  12.864  1.00  0.00     0.064 A 
ATOM     14  C   UNL     1       9.885 -32.574  12.246  1.00  0.00     0.130 A 
ATOM     15  C   UNL     1       9.613 -34.777  13.232  1.00  0.00     0.020 A 
ATOM     16  C   UNL     1      11.233 -32.866  11.991  1.00  0.00     0.093 A 
ATOM     17  C   UNL     1      10.955 -35.061  12.970  1.00  0.00     0.047 A 
ATOM     18  C   UNL     1      11.768 -34.110  12.350  1.00  0.00     0.119 A 
BRANCH  14  19
ATOM     19  O   UNL     1       9.361 -31.334  11.875  1.00  0.00    -0.507 OA
ATOM     20  H   UNL     1       8.451 -31.252  11.439  1.00  0.00     0.293 HD
ENDBRANCH  14  19
BRANCH  18  21
ATOM     21  O   UNL     1      13.105 -34.407  12.098  1.00  0.00    -0.508 OA
ATOM     22  H   UNL     1      13.564 -34.104  11.246  1.00  0.00     0.293 HD
ENDBRANCH  18  21
ENDBRANCH  11  13
ENDBRANCH   2  11
TORSDOF 6
ENDMDL
MODEL 5
REMARK VINA RESULT:    -3.612      1.642      7.078
REMARK INTER + INTRA:          -5.151
REMARK INTER:                  -4.676
REMARK INTRA:                  -0.474
REMARK UNBOUND:                -0.588
REMARK SMILES O=C(C=Cc1ccc(O)cc1)c1ccc(O)cc1O
REMARK SMILES IDX 4 1 3 2 5 3 6 4 7 5 8 6 11 7 10 8 9 9 2 11 1 12 12 13 18 14
REMARK SMILES IDX 13 15 17 16 14 17 15 18 19 19 16 21
REMARK H PARENT 9 10 19 20 16 22
REMARK Flexibility Score: inf
ROOT
ATOM      1  C   UNL     1       8.834 -31.172  15.108  1.00  0.00     0.012 C 
ATOM      2  C   UNL     1       7.788 -31.606  14.389  1.00  0.00     0.053 C 
ENDROOT
BRANCH   1   3
ATOM      3  C   UNL     1       8.711 -30.317  16.314  1.00  0.00    -0.025 A 
ATOM      4  C   UNL     1       7.762 -30.564  17.328  1.00  0.00     0.012 A 
ATOM      5  C   UNL     1       7.695 -29.732  18.452  1.00  0.00     0.047 A 
ATOM      6  C   UNL     1       8.576 -28.651  18.583  1.00  0.00     0.115 A 
ATOM      7  C   UNL     1       9.599 -29.238  16.466  1.00  0.00     0.012 A 
ATOM      8  C   UNL     1       9.527 -28.409  17.589  1.00  0.00     0.047 A 
BRANCH   6   9
ATOM      9  O   UNL     1       8.515 -27.817  19.697  1.00  0.00    -0.508 OA
ATOM     10  H   UNL     1       7.630 -27.545  20.107  1.00  0.00     0.293 HD
ENDBRANCH   6   9
ENDBRANCH   1   3
BRANCH   2  11
ATOM     11  C   UNL     1       7.939 -32.460  13.192  1.00  0.00     0.189 C 
ATOM     12  O   UNL     1       6.944 -32.596  12.430  1.00  0.00    -0.289 OA
BRANCH  11  13
ATOM     13  C   UNL     1       9.212 -33.135  12.836  1.00  0.00     0.064 A 
ATOM     14  C   UNL     1      10.255 -32.422  12.209  1.00  0.00     0.130 A 
ATOM     15  C   UNL     1       9.408 -34.487  13.166  1.00  0.00     0.020 A 
ATOM     16  C   UNL     1      11.461 -33.069  11.906  1.00  0.00     0.093 A 
ATOM     17  C   UNL     1      10.612 -35.125  12.857  1.00  0.00     0.047 A 
ATOM     18  C   UNL     1      11.640 -34.421  12.227  1.00  0.00     0.119 A 
BRANCH  14  19
ATOM     19  O   UNL     1      10.085 -31.077  11.875  1.00  0.00    -0.507 OA
ATOM     20  H   UNL     1       9.804 -30.793  10.944  1.00  0.00     0.293 HD
ENDBRANCH  14  19
BRANCH  18  21
ATOM     21  O   UNL     1      12.835 -35.070  11.928  1.00  0.00    -0.508 OA
ATOM     22  H   UNL     1      12.847 -36.014  11.557  1.00  0.00     0.293 HD
ENDBRANCH  18  21
ENDBRANCH  11  13
ENDBRANCH   2  11
TORSDOF 6
ENDMDL
MODEL 6
REMARK VINA RESULT:    -3.562      2.609      6.833
REMARK INTER + INTRA:          -5.087
REMARK INTER:                  -4.496
REMARK INTRA:                  -0.592
REMARK UNBOUND:                -0.588
REMARK SMILES O=C(C=Cc1ccc(O)cc1)c1ccc(O)cc1O
REMARK SMILES IDX 4 1 3 2 5 3 6 4 7 5 8 6 11 7 10 8 9 9 2 11 1 12 12 13 18 14
REMARK SMILES IDX 13 15 17 16 14 17 15 18 19 19 16 21
REMARK H PARENT 9 10 19 20 16 22
REMARK Flexibility Score: inf
ROOT
ATOM      1  C   UNL     1       8.614 -30.069  15.283  1.00  0.00     0.012 C 
ATOM      2  C   UNL     1       9.335 -29.700  14.214  1.00  0.00     0.053 C 
ENDROOT
BRANCH   1   3
ATOM      3  C   UNL     1       8.885 -29.601  16.665  1.00  0.00    -0.025 A 
ATOM      4  C   UNL     1       9.801 -28.567  16.953  1.00  0.00     0.012 A 
ATOM      5  C   UNL     1      10.011 -28.157  18.274  1.00  0.00     0.047 A 
ATOM      6  C   UNL     1       9.308 -28.764  19.322  1.00  0.00     0.115 A 
ATOM      7  C   UNL     1       8.175 -30.191  17.725  1.00  0.00     0.012 A 
ATOM      8  C   UNL     1       8.390 -29.779  19.043  1.00  0.00     0.047 A 
BRANCH   6   9
ATOM      9  O   UNL     1       9.512 -28.363  20.641  1.00  0.00    -0.508 OA
ATOM     10  H   UNL     1       9.583 -27.384  20.891  1.00  0.00     0.293 HD
ENDBRANCH   6   9
ENDBRANCH   1   3
BRANCH   2  11
ATOM     11  C   UNL     1       9.042 -30.180  12.847  1.00  0.00     0.189 C 
ATOM     12  O   UNL     1       9.473 -29.503  11.875  1.00  0.00    -0.289 OA
BRANCH  11  13
ATOM     13  C   UNL     1       8.293 -31.430  12.573  1.00  0.00     0.064 A 
ATOM     14  C   UNL     1       8.940 -32.683  12.616  1.00  0.00     0.130 A 
ATOM     15  C   UNL     1       6.912 -31.382  12.313  1.00  0.00     0.020 A 
ATOM     16  C   UNL     1       8.210 -33.857  12.383  1.00  0.00     0.093 A 
ATOM     17  C   UNL     1       6.193 -32.555  12.078  1.00  0.00     0.047 A 
ATOM     18  C   UNL     1       6.836 -33.794  12.111  1.00  0.00     0.119 A 
BRANCH  14  19
ATOM     19  O   UNL     1      10.309 -32.757  12.877  1.00  0.00    -0.507 OA
ATOM     20  H   UNL     1      10.991 -32.790  12.128  1.00  0.00     0.293 HD
ENDBRANCH  14  19
BRANCH  18  21
ATOM     21  O   UNL     1       6.105 -34.956  11.877  1.00  0.00    -0.508 OA
ATOM     22  H   UNL     1       5.495 -35.350  12.585  1.00  0.00     0.293 HD
ENDBRANCH  18  21
ENDBRANCH  11  13
ENDBRANCH   2  11
TORSDOF 6
ENDMDL
MODEL 7
REMARK VINA RESULT:    -3.471      1.659      1.942
REMARK INTER + INTRA:          -4.972
REMARK INTER:                  -4.531
REMARK INTRA:                  -0.441
REMARK UNBOUND:                -0.588
REMARK SMILES O=C(C=Cc1ccc(O)cc1)c1ccc(O)cc1O
REMARK SMILES IDX 4 1 3 2 5 3 6 4 7 5 8 6 11 7 10 8 9 9 2 11 1 12 12 13 18 14
REMARK SMILES IDX 13 15 17 16 14 17 15 18 19 19 16 21
REMARK H PARENT 9 10 19 20 16 22
REMARK Flexibility Score: inf
ROOT
ATOM      1  C   UNL     1       9.183 -32.531  13.987  1.00  0.00     0.012 C 
ATOM      2  C   UNL     1       8.263 -33.218  14.680  1.00  0.00     0.053 C 
ENDROOT
BRANCH   1   3
ATOM      3  C   UNL     1      10.406 -33.138  13.406  1.00  0.00    -0.025 A 
ATOM      4  C   UNL     1      11.259 -32.439  12.527  1.00  0.00     0.012 A 
ATOM      5  C   UNL     1      12.407 -33.057  12.016  1.00  0.00     0.047 A 
ATOM      6  C   UNL     1      12.722 -34.371  12.380  1.00  0.00     0.115 A 
ATOM      7  C   UNL     1      10.743 -34.452  13.775  1.00  0.00     0.012 A 
ATOM      8  C   UNL     1      11.889 -35.065  13.261  1.00  0.00     0.047 A 
BRANCH   6   9
ATOM      9  O   UNL     1      13.862 -34.994  11.875  1.00  0.00    -0.508 OA
ATOM     10  H   UNL     1      14.770 -34.863  12.304  1.00  0.00     0.293 HD
ENDBRANCH   6   9
ENDBRANCH   1   3
BRANCH   2  11
ATOM     11  C   UNL     1       7.051 -32.589  15.245  1.00  0.00     0.189 C 
ATOM     12  O   UNL     1       5.928 -33.037  14.890  1.00  0.00    -0.289 OA
BRANCH  11  13
ATOM     13  C   UNL     1       7.102 -31.478  16.228  1.00  0.00     0.064 A 
ATOM     14  C   UNL     1       7.654 -31.675  17.510  1.00  0.00     0.130 A 
ATOM     15  C   UNL     1       6.639 -30.199  15.870  1.00  0.00     0.020 A 
ATOM     16  C   UNL     1       7.719 -30.607  18.416  1.00  0.00     0.093 A 
ATOM     17  C   UNL     1       6.705 -29.142  16.780  1.00  0.00     0.047 A 
ATOM     18  C   UNL     1       7.243 -29.340  18.053  1.00  0.00     0.119 A 
BRANCH  14  19
ATOM     19  O   UNL     1       8.123 -32.935  17.887  1.00  0.00    -0.507 OA
ATOM     20  H   UNL     1       8.723 -33.481  17.281  1.00  0.00     0.293 HD
ENDBRANCH  14  19
BRANCH  18  21
ATOM     21  O   UNL     1       7.304 -28.275  18.948  1.00  0.00    -0.508 OA
ATOM     22  H   UNL     1       7.205 -28.416  19.947  1.00  0.00     0.293 HD
ENDBRANCH  18  21
ENDBRANCH  11  13
ENDBRANCH   2  11
TORSDOF 6
ENDMDL
MODEL 8
REMARK VINA RESULT:    -1.958      3.853      5.041
REMARK INTER + INTRA:          -3.061
REMARK INTER:                  -2.647
REMARK INTRA:                  -0.414
REMARK UNBOUND:                -0.588
REMARK SMILES O=C(C=Cc1ccc(O)cc1)c1ccc(O)cc1O
REMARK SMILES IDX 4 1 3 2 5 3 6 4 7 5 8 6 11 7 10 8 9 9 2 11 1 12 12 13 18 14
REMARK SMILES IDX 13 15 17 16 14 17 15 18 19 19 16 21
REMARK H PARENT 9 10 19 20 16 22
REMARK Flexibility Score: inf
ROOT
ATOM      1  C   UNL     1       8.940 -29.856  14.850  1.00  0.00     0.012 C 
ATOM      2  C   UNL     1       8.143 -30.071  13.793  1.00  0.00     0.053 C 
ENDROOT
BRANCH   1   3
ATOM      3  C   UNL     1      10.277 -29.220  14.763  1.00  0.00    -0.025 A 
ATOM      4  C   UNL     1      10.771 -28.346  15.754  1.00  0.00     0.012 A 
ATOM      5  C   UNL     1      12.044 -27.780  15.628  1.00  0.00     0.047 A 
ATOM      6  C   UNL     1      12.844 -28.083  14.518  1.00  0.00     0.115 A 
ATOM      7  C   UNL     1      11.096 -29.527  13.663  1.00  0.00     0.012 A 
ATOM      8  C   UNL     1      12.367 -28.958  13.540  1.00  0.00     0.047 A 
BRANCH   6   9
ATOM      9  O   UNL     1      14.112 -27.523  14.383  1.00  0.00    -0.508 OA
ATOM     10  H   UNL     1      14.472 -27.239  13.480  1.00  0.00     0.293 HD
ENDBRANCH   6   9
ENDBRANCH   1   3
BRANCH   2  11
ATOM     11  C   UNL     1       6.813 -30.706  13.908  1.00  0.00     0.189 C 
ATOM     12  O   UNL     1       5.877 -30.258  13.194  1.00  0.00    -0.289 OA
BRANCH  11  13
ATOM     13  C   UNL     1       6.544 -31.859  14.803  1.00  0.00     0.064 A 
ATOM     14  C   UNL     1       6.106 -33.092  14.277  1.00  0.00     0.130 A 
ATOM     15  C   UNL     1       6.769 -31.745  16.186  1.00  0.00     0.020 A 
ATOM     16  C   UNL     1       5.883 -34.179  15.134  1.00  0.00     0.093 A 
ATOM     17  C   UNL     1       6.541 -32.832  17.033  1.00  0.00     0.047 A 
ATOM     18  C   UNL     1       6.098 -34.050  16.513  1.00  0.00     0.119 A 
BRANCH  14  19
ATOM     19  O   UNL     1       5.879 -33.231  12.907  1.00  0.00    -0.507 OA
ATOM     20  H   UNL     1       5.539 -32.460  12.344  1.00  0.00     0.293 HD
ENDBRANCH  14  19
BRANCH  18  21
ATOM     21  O   UNL     1       5.878 -35.125  17.370  1.00  0.00    -0.508 OA
ATOM     22  H   UNL     1       6.590 -35.827  17.533  1.00  0.00     0.293 HD
ENDBRANCH  18  21
ENDBRANCH  11  13
ENDBRANCH   2  11
TORSDOF 6
ENDMDL
MODEL 9
REMARK VINA RESULT:    -1.465      3.425      5.126
REMARK INTER + INTRA:          -2.438
REMARK INTER:                  -1.849
REMARK INTRA:                  -0.589
REMARK UNBOUND:                -0.588
REMARK SMILES O=C(C=Cc1ccc(O)cc1)c1ccc(O)cc1O
REMARK SMILES IDX 4 1 3 2 5 3 6 4 7 5 8 6 11 7 10 8 9 9 2 11 1 12 12 13 18 14
REMARK SMILES IDX 13 15 17 16 14 17 15 18 19 19 16 21
REMARK H PARENT 9 10 19 20 16 22
REMARK Flexibility Score: inf
ROOT
ATOM      1  C   UNL     1       9.307 -29.649  15.531  1.00  0.00     0.012 C 
ATOM      2  C   UNL     1       8.620 -29.280  16.622  1.00  0.00     0.053 C 
ENDROOT
BRANCH   1   3
ATOM      3  C   UNL     1      10.597 -29.040  15.121  1.00  0.00    -0.025 A 
ATOM      4  C   UNL     1      11.181 -29.273  13.859  1.00  0.00     0.012 A 
ATOM      5  C   UNL     1      12.395 -28.665  13.518  1.00  0.00     0.047 A 
ATOM      6  C   UNL     1      13.036 -27.812  14.426  1.00  0.00     0.115 A 
ATOM      7  C   UNL     1      11.243 -28.170  16.016  1.00  0.00     0.012 A 
ATOM      8  C   UNL     1      12.456 -27.566  15.673  1.00  0.00     0.047 A 
BRANCH   6   9
ATOM      9  O   UNL     1      14.245 -27.204  14.096  1.00  0.00    -0.508 OA
ATOM     10  H   UNL     1      15.000 -27.128  14.768  1.00  0.00     0.293 HD
ENDBRANCH   6   9
ENDBRANCH   1   3
BRANCH   2  11
ATOM     11  C   UNL     1       7.337 -29.906  17.010  1.00  0.00     0.189 C 
ATOM     12  O   UNL     1       6.550 -29.244  17.737  1.00  0.00    -0.289 OA
BRANCH  11  13
ATOM     13  C   UNL     1       6.930 -31.259  16.557  1.00  0.00     0.064 A 
ATOM     14  C   UNL     1       6.236 -31.434  15.342  1.00  0.00     0.130 A 
ATOM     15  C   UNL     1       7.277 -32.390  17.317  1.00  0.00     0.020 A 
ATOM     16  C   UNL     1       5.884 -32.723  14.917  1.00  0.00     0.093 A 
ATOM     17  C   UNL     1       6.919 -33.670  16.888  1.00  0.00     0.047 A 
ATOM     18  C   UNL     1       6.223 -33.841  15.690  1.00  0.00     0.119 A 
BRANCH  14  19
ATOM     19  O   UNL     1       5.884 -30.327  14.568  1.00  0.00    -0.507 OA
ATOM     20  H   UNL     1       5.124 -30.368  13.899  1.00  0.00     0.293 HD
ENDBRANCH  14  19
BRANCH  18  21
ATOM     21  O   UNL     1       5.875 -35.124  15.274  1.00  0.00    -0.508 OA
ATOM     22  H   UNL     1       4.952 -35.331  14.909  1.00  0.00     0.293 HD
ENDBRANCH  18  21
ENDBRANCH  11  13
ENDBRANCH   2  11
TORSDOF 6
ENDMDL
