MODEL 1
REMARK VINA RESULT:    -4.471      0.000      0.000
REMARK INTER + INTRA:          -4.757
REMARK INTER:                  -4.733
REMARK INTRA:                  -0.024
REMARK UNBOUND:                -0.024
REMARK SMILES O=C([O-])c1cccnc1
REMARK SMILES IDX 4 1 5 2 9 3 6 4 8 5 7 6 2 7 1 8 3 9
REMARK H PARENT
REMARK Flexibility Score: inf
ROOT
ATOM      1  C   UNL     1     105.556  21.545 194.112  1.00  0.00     0.016 A 
ATOM      2  C   UNL     1     104.745  22.079 193.096  1.00  0.00     0.013 A 
ATOM      3  C   UNL     1     105.065  21.546 195.429  1.00  0.00     0.120 A 
ATOM      4  C   UNL     1     103.485  22.595 193.404  1.00  0.00     0.021 A 
ATOM      5  N   UNL     1     103.834  22.055 195.701  1.00  0.00    -0.264 NA
ATOM      6  C   UNL     1     103.042  22.573 194.725  1.00  0.00     0.111 A 
ENDROOT
BRANCH   1   7
ATOM      7  C   UNL     1     106.894  20.993 193.808  1.00  0.00     0.073 C 
ATOM      8  O   UNL     1     107.308  20.935 192.619  1.00  0.00    -0.545 OA
ATOM      9  O   UNL     1     107.715  20.532 194.830  1.00  0.00    -0.545 OA
ENDBRANCH   1   7
TORSDOF 1
ENDMDL
MODEL 2
REMARK VINA RESULT:    -4.436      5.111      6.192
REMARK INTER + INTRA:          -4.719
REMARK INTER:                  -4.699
REMARK INTRA:                  -0.020
REMARK UNBOUND:                -0.024
REMARK SMILES O=C([O-])c1cccnc1
REMARK SMILES IDX 4 1 5 2 9 3 6 4 8 5 7 6 2 7 1 8 3 9
REMARK H PARENT
REMARK Flexibility Score: inf
ROOT
ATOM      1  C   UNL     1     103.692  23.267 199.516  1.00  0.00     0.016 A 
ATOM      2  C   UNL     1     102.978  23.225 200.725  1.00  0.00     0.013 A 
ATOM      3  C   UNL     1     103.002  23.622 198.344  1.00  0.00     0.120 A 
ATOM      4  C   UNL     1     101.616  23.529 200.745  1.00  0.00     0.021 A 
ATOM      5  N   UNL     1     101.675  23.914 198.392  1.00  0.00    -0.264 NA
ATOM      6  C   UNL     1     100.975  23.876 199.556  1.00  0.00     0.111 A 
ENDROOT
BRANCH   1   7
ATOM      7  C   UNL     1     105.135  22.949 199.472  1.00  0.00     0.073 C 
ATOM      8  O   UNL     1     105.921  23.417 200.339  1.00  0.00    -0.545 OA
ATOM      9  O   UNL     1     105.646  22.126 198.475  1.00  0.00    -0.545 OA
ENDBRANCH   1   7
TORSDOF 1
ENDMDL
MODEL 3
REMARK VINA RESULT:    -4.349      5.647      6.880
REMARK INTER + INTRA:          -4.627
REMARK INTER:                  -4.603
REMARK INTRA:                  -0.024
REMARK UNBOUND:                -0.024
REMARK SMILES O=C([O-])c1cccnc1
REMARK SMILES IDX 4 1 5 2 9 3 6 4 8 5 7 6 2 7 1 8 3 9
REMARK H PARENT
REMARK Flexibility Score: inf
ROOT
ATOM      1  C   UNL     1     103.012  23.112 199.334  1.00  0.00     0.016 A 
ATOM      2  C   UNL     1     104.045  23.247 200.278  1.00  0.00     0.013 A 
ATOM      3  C   UNL     1     103.358  22.860 197.996  1.00  0.00     0.120 A 
ATOM      4  C   UNL     1     105.378  23.130 199.879  1.00  0.00     0.021 A 
ATOM      5  N   UNL     1     104.665  22.751 197.635  1.00  0.00    -0.264 NA
ATOM      6  C   UNL     1     105.671  22.878 198.540  1.00  0.00     0.111 A 
ENDROOT
BRANCH   1   7
ATOM      7  C   UNL     1     101.594  23.232 199.735  1.00  0.00     0.073 C 
ATOM      8  O   UNL     1     101.286  23.599 200.901  1.00  0.00    -0.545 OA
ATOM      9  O   UNL     1     100.579  22.943 198.830  1.00  0.00    -0.545 OA
ENDBRANCH   1   7
TORSDOF 1
ENDMDL
MODEL 4
REMARK VINA RESULT:    -4.163      6.126      7.170
REMARK INTER + INTRA:          -4.431
REMARK INTER:                  -4.413
REMARK INTRA:                  -0.018
REMARK UNBOUND:                -0.024
REMARK SMILES O=C([O-])c1cccnc1
REMARK SMILES IDX 4 1 5 2 9 3 6 4 8 5 7 6 2 7 1 8 3 9
REMARK H PARENT
REMARK Flexibility Score: inf
ROOT
ATOM      1  C   UNL     1     101.940  23.596 199.244  1.00  0.00     0.016 A 
ATOM      2  C   UNL     1     102.591  24.009 198.069  1.00  0.00     0.013 A 
ATOM      3  C   UNL     1     102.726  23.198 200.339  1.00  0.00     0.120 A 
ATOM      4  C   UNL     1     103.985  24.016 198.006  1.00  0.00     0.021 A 
ATOM      5  N   UNL     1     104.084  23.215 200.251  1.00  0.00    -0.264 NA
ATOM      6  C   UNL     1     104.722  23.612 199.118  1.00  0.00     0.111 A 
ENDROOT
BRANCH   1   7
ATOM      7  C   UNL     1     100.464  23.581 199.332  1.00  0.00     0.073 C 
ATOM      8  O   UNL     1      99.868  24.255 200.215  1.00  0.00    -0.545 OA
ATOM      9  O   UNL     1      99.712  22.825 198.440  1.00  0.00    -0.545 OA
ENDBRANCH   1   7
TORSDOF 1
ENDMDL
MODEL 5
REMARK VINA RESULT:    -4.162      2.798      3.269
REMARK INTER + INTRA:          -4.429
REMARK INTER:                  -4.413
REMARK INTRA:                  -0.016
REMARK UNBOUND:                -0.024
REMARK SMILES O=C([O-])c1cccnc1
REMARK SMILES IDX 4 1 5 2 9 3 6 4 8 5 7 6 2 7 1 8 3 9
REMARK H PARENT
REMARK Flexibility Score: inf
ROOT
ATOM      1  C   UNL     1     104.515  23.287 194.872  1.00  0.00     0.016 A 
ATOM      2  C   UNL     1     104.987  24.608 194.946  1.00  0.00     0.013 A 
ATOM      3  C   UNL     1     104.336  22.573 196.069  1.00  0.00     0.120 A 
ATOM      4  C   UNL     1     105.268  25.183 196.187  1.00  0.00     0.021 A 
ATOM      5  N   UNL     1     104.617  23.157 197.265  1.00  0.00    -0.264 NA
ATOM      6  C   UNL     1     105.073  24.435 197.347  1.00  0.00     0.111 A 
ENDROOT
BRANCH   1   7
ATOM      7  C   UNL     1     104.211  22.658 193.568  1.00  0.00     0.073 C 
ATOM      8  O   UNL     1     103.130  22.910 192.972  1.00  0.00    -0.545 OA
ATOM      9  O   UNL     1     105.117  21.782 192.980  1.00  0.00    -0.545 OA
ENDBRANCH   1   7
TORSDOF 1
ENDMDL
MODEL 6
REMARK VINA RESULT:    -4.131      2.945      3.622
REMARK INTER + INTRA:          -4.396
REMARK INTER:                  -4.379
REMARK INTRA:                  -0.017
REMARK UNBOUND:                -0.024
REMARK SMILES O=C([O-])c1cccnc1
REMARK SMILES IDX 4 1 5 2 9 3 6 4 8 5 7 6 2 7 1 8 3 9
REMARK H PARENT
REMARK Flexibility Score: inf
ROOT
ATOM      1  C   UNL     1     104.729  22.278 194.675  1.00  0.00     0.016 A 
ATOM      2  C   UNL     1     104.697  22.122 193.279  1.00  0.00     0.013 A 
ATOM      3  C   UNL     1     105.770  21.665 195.392  1.00  0.00     0.120 A 
ATOM      4  C   UNL     1     105.684  21.373 192.635  1.00  0.00     0.021 A 
ATOM      5  N   UNL     1     106.718  20.941 194.740  1.00  0.00    -0.264 NA
ATOM      6  C   UNL     1     106.697  20.784 193.390  1.00  0.00     0.111 A 
ENDROOT
BRANCH   1   7
ATOM      7  C   UNL     1     103.694  23.068 195.376  1.00  0.00     0.073 C 
ATOM      8  O   UNL     1     102.517  22.633 195.481  1.00  0.00    -0.545 OA
ATOM      9  O   UNL     1     104.007  24.304 195.932  1.00  0.00    -0.545 OA
ENDBRANCH   1   7
TORSDOF 1
ENDMDL
MODEL 7
REMARK VINA RESULT:    -4.119      5.125      6.204
REMARK INTER + INTRA:          -4.384
REMARK INTER:                  -4.364
REMARK INTRA:                  -0.020
REMARK UNBOUND:                -0.024
REMARK SMILES O=C([O-])c1cccnc1
REMARK SMILES IDX 4 1 5 2 9 3 6 4 8 5 7 6 2 7 1 8 3 9
REMARK H PARENT
REMARK Flexibility Score: inf
ROOT
ATOM      1  C   UNL     1     111.011  21.165 196.827  1.00  0.00     0.016 A 
ATOM      2  C   UNL     1     110.513  20.170 195.969  1.00  0.00     0.013 A 
ATOM      3  C   UNL     1     110.092  21.970 197.521  1.00  0.00     0.120 A 
ATOM      4  C   UNL     1     109.136  19.999 195.818  1.00  0.00     0.021 A 
ATOM      5  N   UNL     1     108.755  21.782 197.356  1.00  0.00    -0.264 NA
ATOM      6  C   UNL     1     108.264  20.823 196.528  1.00  0.00     0.111 A 
ENDROOT
BRANCH   1   7
ATOM      7  C   UNL     1     112.466  21.363 197.001  1.00  0.00     0.073 C 
ATOM      8  O   UNL     1     113.237  21.355 196.005  1.00  0.00    -0.545 OA
ATOM      9  O   UNL     1     113.004  21.562 198.268  1.00  0.00    -0.545 OA
ENDBRANCH   1   7
TORSDOF 1
ENDMDL
MODEL 8
REMARK VINA RESULT:    -4.046      3.670      4.377
REMARK INTER + INTRA:          -4.307
REMARK INTER:                  -4.289
REMARK INTRA:                  -0.018
REMARK UNBOUND:                -0.024
REMARK SMILES O=C([O-])c1cccnc1
REMARK SMILES IDX 4 1 5 2 9 3 6 4 8 5 7 6 2 7 1 8 3 9
REMARK H PARENT
REMARK Flexibility Score: inf
ROOT
ATOM      1  C   UNL     1     102.603  22.173 195.112  1.00  0.00     0.016 A 
ATOM      2  C   UNL     1     102.863  22.473 193.765  1.00  0.00     0.013 A 
ATOM      3  C   UNL     1     103.688  21.872 195.952  1.00  0.00     0.120 A 
ATOM      4  C   UNL     1     104.175  22.466 193.287  1.00  0.00     0.021 A 
ATOM      5  N   UNL     1     104.956  21.873 195.461  1.00  0.00    -0.264 NA
ATOM      6  C   UNL     1     105.219  22.161 194.159  1.00  0.00     0.111 A 
ENDROOT
BRANCH   1   7
ATOM      7  C   UNL     1     101.221  22.175 195.639  1.00  0.00     0.073 C 
ATOM      8  O   UNL     1     100.521  23.221 195.598  1.00  0.00    -0.545 OA
ATOM      9  O   UNL     1     100.673  21.019 196.186  1.00  0.00    -0.545 OA
ENDBRANCH   1   7
TORSDOF 1
ENDMDL
MODEL 9
REMARK VINA RESULT:    -4.029      4.463      5.311
REMARK INTER + INTRA:          -4.289
REMARK INTER:                  -4.272
REMARK INTRA:                  -0.016
REMARK UNBOUND:                -0.024
REMARK SMILES O=C([O-])c1cccnc1
REMARK SMILES IDX 4 1 5 2 9 3 6 4 8 5 7 6 2 7 1 8 3 9
REMARK H PARENT
REMARK Flexibility Score: inf
ROOT
ATOM      1  C   UNL     1     105.119  23.890 198.141  1.00  0.00     0.016 A 
ATOM      2  C   UNL     1     105.306  25.230 197.764  1.00  0.00     0.013 A 
ATOM      3  C   UNL     1     105.039  22.916 197.130  1.00  0.00     0.120 A 
ATOM      4  C   UNL     1     105.408  25.571 196.414  1.00  0.00     0.021 A 
ATOM      5  N   UNL     1     105.141  23.275 195.823  1.00  0.00    -0.264 NA
ATOM      6  C   UNL     1     105.323  24.569 195.448  1.00  0.00     0.111 A 
ENDROOT
BRANCH   1   7
ATOM      7  C   UNL     1     105.009  23.508 199.565  1.00  0.00     0.073 C 
ATOM      8  O   UNL     1     106.035  23.449 200.294  1.00  0.00    -0.545 OA
ATOM      9  O   UNL     1     103.770  23.209 200.121  1.00  0.00    -0.545 OA
ENDBRANCH   1   7
TORSDOF 1
ENDMDL
