MODEL 1
REMARK VINA RESULT:    -3.848      0.000      0.000
REMARK INTER + INTRA:          -5.945
REMARK INTER:                  -5.648
REMARK INTRA:                  -0.297
REMARK UNBOUND:                -0.297
REMARK SMILES O=C([O-])CCCCCCCC(=O)[O-]
REMARK SMILES IDX 7 1 6 2 5 3 4 4 2 5 1 6 3 7 8 8 9 9 10 10 11 11 12 12 13 13
REMARK H PARENT
REMARK Flexibility Score: inf
ROOT
ATOM      1  C   UNL     1     186.938 187.064 170.509  1.00  0.00     0.000 C 
ENDROOT
BRANCH   1   2
ATOM      2  C   UNL     1     188.304 187.721 170.753  1.00  0.00     0.000 C 
BRANCH   2   3
ATOM      3  C   UNL     1     189.186 186.837 171.648  1.00  0.00     0.006 C 
BRANCH   3   4
ATOM      4  C   UNL     1     188.364 185.832 172.465  1.00  0.00     0.053 C 
BRANCH   4   5
ATOM      5  C   UNL     1     189.195 185.147 173.505  1.00  0.00     0.041 C 
ATOM      6  O   UNL     1     189.097 183.903 173.677  1.00  0.00    -0.550 OA
ATOM      7  O   UNL     1     190.104 185.876 174.261  1.00  0.00    -0.550 OA
ENDBRANCH   4   5
ENDBRANCH   3   4
ENDBRANCH   2   3
ENDBRANCH   1   2
BRANCH   1   8
ATOM      8  C   UNL     1     186.153 187.732 169.369  1.00  0.00     0.000 C 
BRANCH   8   9
ATOM      9  C   UNL     1     184.808 187.039 169.090  1.00  0.00     0.006 C 
BRANCH   9  10
ATOM     10  C   UNL     1     183.634 188.027 169.105  1.00  0.00     0.053 C 
BRANCH  10  11
ATOM     11  C   UNL     1     182.776 187.854 170.320  1.00  0.00     0.041 C 
ATOM     12  O   UNL     1     181.796 188.619 170.519  1.00  0.00    -0.550 OA
ATOM     13  O   UNL     1     183.042 186.828 171.219  1.00  0.00    -0.550 OA
ENDBRANCH  10  11
ENDBRANCH   9  10
ENDBRANCH   8   9
ENDBRANCH   1   8
TORSDOF 8
ENDMDL
MODEL 2
REMARK VINA RESULT:    -3.842      0.810      6.330
REMARK INTER + INTRA:          -5.936
REMARK INTER:                  -5.616
REMARK INTRA:                  -0.320
REMARK UNBOUND:                -0.297
REMARK SMILES O=C([O-])CCCCCCCC(=O)[O-]
REMARK SMILES IDX 7 1 6 2 5 3 4 4 2 5 1 6 3 7 8 8 9 9 10 10 11 11 12 12 13 13
REMARK H PARENT
REMARK Flexibility Score: inf
ROOT
ATOM      1  C   UNL     1     186.789 188.379 170.067  1.00  0.00     0.000 C 
ENDROOT
BRANCH   1   2
ATOM      2  C   UNL     1     186.254 187.585 168.866  1.00  0.00     0.000 C 
BRANCH   2   3
ATOM      3  C   UNL     1     184.891 186.954 169.189  1.00  0.00     0.006 C 
BRANCH   3   4
ATOM      4  C   UNL     1     183.747 187.973 169.123  1.00  0.00     0.053 C 
BRANCH   4   5
ATOM      5  C   UNL     1     182.828 187.856 170.299  1.00  0.00     0.041 C 
ATOM      6  O   UNL     1     181.868 188.659 170.436  1.00  0.00    -0.550 OA
ATOM      7  O   UNL     1     183.011 186.838 171.226  1.00  0.00    -0.550 OA
ENDBRANCH   4   5
ENDBRANCH   3   4
ENDBRANCH   2   3
ENDBRANCH   1   2
BRANCH   1   8
ATOM      8  C   UNL     1     188.166 187.888 170.538  1.00  0.00     0.000 C 
BRANCH   8   9
ATOM      9  C   UNL     1     188.096 186.530 171.259  1.00  0.00     0.006 C 
BRANCH   9  10
ATOM     10  C   UNL     1     189.292 186.310 172.194  1.00  0.00     0.053 C 
BRANCH  10  11
ATOM     11  C   UNL     1     189.038 185.203 173.171  1.00  0.00     0.041 C 
ATOM     12  O   UNL     1     189.901 184.304 173.349  1.00  0.00    -0.550 OA
ATOM     13  O   UNL     1     187.858 185.179 173.905  1.00  0.00    -0.550 OA
ENDBRANCH  10  11
ENDBRANCH   9  10
ENDBRANCH   8   9
ENDBRANCH   1   8
TORSDOF 8
ENDMDL
MODEL 3
REMARK VINA RESULT:    -3.826      2.130      5.714
REMARK INTER + INTRA:          -5.912
REMARK INTER:                  -5.214
REMARK INTRA:                  -0.698
REMARK UNBOUND:                -0.297
REMARK SMILES O=C([O-])CCCCCCCC(=O)[O-]
REMARK SMILES IDX 7 1 6 2 5 3 4 4 2 5 1 6 3 7 8 8 9 9 10 10 11 11 12 12 13 13
REMARK H PARENT
REMARK Flexibility Score: inf
ROOT
ATOM      1  C   UNL     1     186.246 185.377 168.609  1.00  0.00     0.000 C 
ENDROOT
BRANCH   1   2
ATOM      2  C   UNL     1     185.724 186.737 168.121  1.00  0.00     0.000 C 
BRANCH   2   3
ATOM      3  C   UNL     1     185.640 187.741 169.280  1.00  0.00     0.006 C 
BRANCH   3   4
ATOM      4  C   UNL     1     184.975 187.140 170.524  1.00  0.00     0.053 C 
BRANCH   4   5
ATOM      5  C   UNL     1     183.491 187.337 170.513  1.00  0.00     0.041 C 
ATOM      6  O   UNL     1     182.760 186.696 171.312  1.00  0.00    -0.550 OA
ATOM      7  O   UNL     1     182.918 188.257 169.643  1.00  0.00    -0.550 OA
ENDBRANCH   4   5
ENDBRANCH   3   4
ENDBRANCH   2   3
ENDBRANCH   1   2
BRANCH   1   8
ATOM      8  C   UNL     1     187.641 185.044 168.059  1.00  0.00     0.000 C 
BRANCH   8   9
ATOM      9  C   UNL     1     188.760 185.824 168.772  1.00  0.00     0.006 C 
BRANCH   9  10
ATOM     10  C   UNL     1     189.003 185.312 170.198  1.00  0.00     0.053 C 
BRANCH  10  11
ATOM     11  C   UNL     1     188.629 186.333 171.228  1.00  0.00     0.041 C 
ATOM     12  O   UNL     1     188.299 185.972 172.388  1.00  0.00    -0.550 OA
ATOM     13  O   UNL     1     188.672 187.686 170.914  1.00  0.00    -0.550 OA
ENDBRANCH  10  11
ENDBRANCH   9  10
ENDBRANCH   8   9
ENDBRANCH   1   8
TORSDOF 8
ENDMDL
MODEL 4
REMARK VINA RESULT:    -3.825      3.046      3.648
REMARK INTER + INTRA:          -5.911
REMARK INTER:                  -5.204
REMARK INTRA:                  -0.707
REMARK UNBOUND:                -0.297
REMARK SMILES O=C([O-])CCCCCCCC(=O)[O-]
REMARK SMILES IDX 7 1 6 2 5 3 4 4 2 5 1 6 3 7 8 8 9 9 10 10 11 11 12 12 13 13
REMARK H PARENT
REMARK Flexibility Score: inf
ROOT
ATOM      1  C   UNL     1     186.243 187.606 170.518  1.00  0.00     0.000 C 
ENDROOT
BRANCH   1   2
ATOM      2  C   UNL     1     187.579 188.340 170.327  1.00  0.00     0.000 C 
BRANCH   2   3
ATOM      3  C   UNL     1     188.730 187.568 170.990  1.00  0.00     0.006 C 
BRANCH   3   4
ATOM      4  C   UNL     1     188.236 186.336 171.760  1.00  0.00     0.053 C 
BRANCH   4   5
ATOM      5  C   UNL     1     189.368 185.583 172.389  1.00  0.00     0.041 C 
ATOM      6  O   UNL     1     189.917 186.019 173.434  1.00  0.00    -0.550 OA
ATOM      7  O   UNL     1     189.791 184.379 171.840  1.00  0.00    -0.550 OA
ENDBRANCH   4   5
ENDBRANCH   3   4
ENDBRANCH   2   3
ENDBRANCH   1   2
BRANCH   1   8
ATOM      8  C   UNL     1     185.289 187.789 169.327  1.00  0.00     0.000 C 
BRANCH   8   9
ATOM      9  C   UNL     1     185.616 186.846 168.156  1.00  0.00     0.006 C 
BRANCH   9  10
ATOM     10  C   UNL     1     186.062 185.459 168.638  1.00  0.00     0.053 C 
BRANCH  10  11
ATOM     11  C   UNL     1     187.347 185.034 167.998  1.00  0.00     0.041 C 
ATOM     12  O   UNL     1     188.363 184.805 168.706  1.00  0.00    -0.550 OA
ATOM     13  O   UNL     1     187.415 184.862 166.621  1.00  0.00    -0.550 OA
ENDBRANCH  10  11
ENDBRANCH   9  10
ENDBRANCH   8   9
ENDBRANCH   1   8
TORSDOF 8
ENDMDL
MODEL 5
REMARK VINA RESULT:    -3.824      3.107      5.693
REMARK INTER + INTRA:          -5.910
REMARK INTER:                  -5.226
REMARK INTRA:                  -0.684
REMARK UNBOUND:                -0.297
REMARK SMILES O=C([O-])CCCCCCCC(=O)[O-]
REMARK SMILES IDX 7 1 6 2 5 3 4 4 2 5 1 6 3 7 8 8 9 9 10 10 11 11 12 12 13 13
REMARK H PARENT
REMARK Flexibility Score: inf
ROOT
ATOM      1  C   UNL     1     185.936 187.185 170.669  1.00  0.00     0.000 C 
ENDROOT
BRANCH   1   2
ATOM      2  C   UNL     1     185.035 187.221 169.426  1.00  0.00     0.000 C 
BRANCH   2   3
ATOM      3  C   UNL     1     185.773 186.670 168.196  1.00  0.00     0.006 C 
BRANCH   3   4
ATOM      4  C   UNL     1     186.239 185.222 168.398  1.00  0.00     0.053 C 
BRANCH   4   5
ATOM      5  C   UNL     1     187.602 184.991 167.822  1.00  0.00     0.041 C 
ATOM      6  O   UNL     1     187.768 184.972 166.574  1.00  0.00    -0.550 OA
ATOM      7  O   UNL     1     188.696 184.833 168.664  1.00  0.00    -0.550 OA
ENDBRANCH   4   5
ENDBRANCH   3   4
ENDBRANCH   2   3
ENDBRANCH   1   2
BRANCH   1   8
ATOM      8  C   UNL     1     187.214 188.022 170.499  1.00  0.00     0.000 C 
BRANCH   8   9
ATOM      9  C   UNL     1     188.460 187.323 171.072  1.00  0.00     0.006 C 
BRANCH   9  10
ATOM     10  C   UNL     1     188.093 186.143 171.982  1.00  0.00     0.053 C 
BRANCH  10  11
ATOM     11  C   UNL     1     189.310 185.469 172.536  1.00  0.00     0.041 C 
ATOM     12  O   UNL     1     189.651 185.658 173.733  1.00  0.00    -0.550 OA
ATOM     13  O   UNL     1     190.053 184.608 171.737  1.00  0.00    -0.550 OA
ENDBRANCH  10  11
ENDBRANCH   9  10
ENDBRANCH   8   9
ENDBRANCH   1   8
TORSDOF 8
ENDMDL
MODEL 6
REMARK VINA RESULT:    -3.793      1.455      2.008
REMARK INTER + INTRA:          -5.865
REMARK INTER:                  -5.350
REMARK INTRA:                  -0.514
REMARK UNBOUND:                -0.297
REMARK SMILES O=C([O-])CCCCCCCC(=O)[O-]
REMARK SMILES IDX 7 1 6 2 5 3 4 4 2 5 1 6 3 7 8 8 9 9 10 10 11 11 12 12 13 13
REMARK H PARENT
REMARK Flexibility Score: inf
ROOT
ATOM      1  C   UNL     1     186.745 187.480 168.650  1.00  0.00     0.000 C 
ENDROOT
BRANCH   1   2
ATOM      2  C   UNL     1     187.054 188.608 169.645  1.00  0.00     0.000 C 
BRANCH   2   3
ATOM      3  C   UNL     1     188.509 188.527 170.132  1.00  0.00     0.006 C 
BRANCH   3   4
ATOM      4  C   UNL     1     188.993 187.079 170.282  1.00  0.00     0.053 C 
BRANCH   4   5
ATOM      5  C   UNL     1     188.821 186.577 171.682  1.00  0.00     0.041 C 
ATOM      6  O   UNL     1     187.704 186.139 172.066  1.00  0.00    -0.550 OA
ATOM      7  O   UNL     1     189.903 186.558 172.553  1.00  0.00    -0.550 OA
ENDBRANCH   4   5
ENDBRANCH   3   4
ENDBRANCH   2   3
ENDBRANCH   1   2
BRANCH   1   8
ATOM      8  C   UNL     1     185.645 186.531 169.151  1.00  0.00     0.000 C 
BRANCH   8   9
ATOM      9  C   UNL     1     184.702 187.202 170.165  1.00  0.00     0.006 C 
BRANCH   9  10
ATOM     10  C   UNL     1     183.503 187.875 169.483  1.00  0.00     0.053 C 
BRANCH  10  11
ATOM     11  C   UNL     1     182.308 187.929 170.385  1.00  0.00     0.041 C 
ATOM     12  O   UNL     1     181.955 186.909 171.032  1.00  0.00    -0.550 OA
ATOM     13  O   UNL     1     181.601 189.116 170.531  1.00  0.00    -0.550 OA
ENDBRANCH  10  11
ENDBRANCH   9  10
ENDBRANCH   8   9
ENDBRANCH   1   8
TORSDOF 8
ENDMDL
MODEL 7
REMARK VINA RESULT:    -3.786      2.117      2.576
REMARK INTER + INTRA:          -5.854
REMARK INTER:                  -5.100
REMARK INTRA:                  -0.754
REMARK UNBOUND:                -0.297
REMARK SMILES O=C([O-])CCCCCCCC(=O)[O-]
REMARK SMILES IDX 7 1 6 2 5 3 4 4 2 5 1 6 3 7 8 8 9 9 10 10 11 11 12 12 13 13
REMARK H PARENT
REMARK Flexibility Score: inf
ROOT
ATOM      1  C   UNL     1     186.256 185.600 168.474  1.00  0.00     0.000 C 
ENDROOT
BRANCH   1   2
ATOM      2  C   UNL     1     187.520 184.726 168.468  1.00  0.00     0.000 C 
BRANCH   2   3
ATOM      3  C   UNL     1     188.762 185.556 168.824  1.00  0.00     0.006 C 
BRANCH   3   4
ATOM      4  C   UNL     1     189.308 185.220 170.217  1.00  0.00     0.053 C 
BRANCH   4   5
ATOM      5  C   UNL     1     188.919 186.250 171.232  1.00  0.00     0.041 C 
ATOM      6  O   UNL     1     189.665 187.241 171.447  1.00  0.00    -0.550 OA
ATOM      7  O   UNL     1     187.713 186.136 171.913  1.00  0.00    -0.550 OA
ENDBRANCH   4   5
ENDBRANCH   3   4
ENDBRANCH   2   3
ENDBRANCH   1   2
BRANCH   1   8
ATOM      8  C   UNL     1     186.570 187.099 168.346  1.00  0.00     0.000 C 
BRANCH   8   9
ATOM      9  C   UNL     1     185.959 187.931 169.487  1.00  0.00     0.006 C 
BRANCH   9  10
ATOM     10  C   UNL     1     184.848 187.172 170.225  1.00  0.00     0.053 C 
BRANCH  10  11
ATOM     11  C   UNL     1     183.493 187.724 169.909  1.00  0.00     0.041 C 
ATOM     12  O   UNL     1     183.276 188.277 168.799  1.00  0.00    -0.550 OA
ATOM     13  O   UNL     1     182.459 187.602 170.830  1.00  0.00    -0.550 OA
ENDBRANCH  10  11
ENDBRANCH   9  10
ENDBRANCH   8   9
ENDBRANCH   1   8
TORSDOF 8
ENDMDL
MODEL 8
REMARK VINA RESULT:    -3.740      2.054      2.598
REMARK INTER + INTRA:          -5.787
REMARK INTER:                  -5.043
REMARK INTRA:                  -0.743
REMARK UNBOUND:                -0.297
REMARK SMILES O=C([O-])CCCCCCCC(=O)[O-]
REMARK SMILES IDX 7 1 6 2 5 3 4 4 2 5 1 6 3 7 8 8 9 9 10 10 11 11 12 12 13 13
REMARK H PARENT
REMARK Flexibility Score: inf
ROOT
ATOM      1  C   UNL     1     188.714 185.109 169.438  1.00  0.00     0.000 C 
ENDROOT
BRANCH   1   2
ATOM      2  C   UNL     1     189.415 186.441 169.743  1.00  0.00     0.000 C 
BRANCH   2   3
ATOM      3  C   UNL     1     189.509 186.678 171.258  1.00  0.00     0.006 C 
BRANCH   3   4
ATOM      4  C   UNL     1     188.296 186.116 172.011  1.00  0.00     0.053 C 
BRANCH   4   5
ATOM      5  C   UNL     1     188.697 185.438 173.284  1.00  0.00     0.041 C 
ATOM      6  O   UNL     1     189.787 185.730 173.843  1.00  0.00    -0.550 OA
ATOM      7  O   UNL     1     187.849 184.509 173.875  1.00  0.00    -0.550 OA
ENDBRANCH   4   5
ENDBRANCH   3   4
ENDBRANCH   2   3
ENDBRANCH   1   2
BRANCH   1   8
ATOM      8  C   UNL     1     187.795 185.189 168.209  1.00  0.00     0.000 C 
BRANCH   8   9
ATOM      9  C   UNL     1     186.303 185.225 168.586  1.00  0.00     0.006 C 
BRANCH   9  10
ATOM     10  C   UNL     1     185.691 186.618 168.391  1.00  0.00     0.053 C 
BRANCH  10  11
ATOM     11  C   UNL     1     185.771 187.441 169.639  1.00  0.00     0.041 C 
ATOM     12  O   UNL     1     185.109 187.113 170.659  1.00  0.00    -0.550 OA
ATOM     13  O   UNL     1     186.598 188.556 169.686  1.00  0.00    -0.550 OA
ENDBRANCH  10  11
ENDBRANCH   9  10
ENDBRANCH   8   9
ENDBRANCH   1   8
TORSDOF 8
ENDMDL
MODEL 9
REMARK VINA RESULT:    -3.682      1.788      6.004
REMARK INTER + INTRA:          -5.701
REMARK INTER:                  -5.002
REMARK INTRA:                  -0.700
REMARK UNBOUND:                -0.297
REMARK SMILES O=C([O-])CCCCCCCC(=O)[O-]
REMARK SMILES IDX 7 1 6 2 5 3 4 4 2 5 1 6 3 7 8 8 9 9 10 10 11 11 12 12 13 13
REMARK H PARENT
REMARK Flexibility Score: inf
ROOT
ATOM      1  C   UNL     1     188.495 185.949 168.535  1.00  0.00     0.000 C 
ENDROOT
BRANCH   1   2
ATOM      2  C   UNL     1     187.477 184.801 168.605  1.00  0.00     0.000 C 
BRANCH   2   3
ATOM      3  C   UNL     1     186.048 185.321 168.393  1.00  0.00     0.006 C 
BRANCH   3   4
ATOM      4  C   UNL     1     185.960 186.848 168.510  1.00  0.00     0.053 C 
BRANCH   4   5
ATOM      5  C   UNL     1     184.949 187.271 169.530  1.00  0.00     0.041 C 
ATOM      6  O   UNL     1     185.184 187.117 170.757  1.00  0.00    -0.550 OA
ATOM      7  O   UNL     1     183.762 187.870 169.126  1.00  0.00    -0.550 OA
ENDBRANCH   4   5
ENDBRANCH   3   4
ENDBRANCH   2   3
ENDBRANCH   1   2
BRANCH   1   8
ATOM      8  C   UNL     1     189.407 186.009 169.771  1.00  0.00     0.000 C 
BRANCH   8   9
ATOM      9  C   UNL     1     188.851 186.929 170.873  1.00  0.00     0.006 C 
BRANCH   9  10
ATOM     10  C   UNL     1     188.291 186.134 172.060  1.00  0.00     0.053 C 
BRANCH  10  11
ATOM     11  C   UNL     1     189.380 185.626 172.953  1.00  0.00     0.041 C 
ATOM     12  O   UNL     1     190.289 186.401 173.349  1.00  0.00    -0.550 OA
ATOM     13  O   UNL     1     189.376 184.300 173.370  1.00  0.00    -0.550 OA
ENDBRANCH  10  11
ENDBRANCH   9  10
ENDBRANCH   8   9
ENDBRANCH   1   8
TORSDOF 8
ENDMDL
