MODEL 1
REMARK VINA RESULT:    -4.196      0.000      0.000
REMARK INTER + INTRA:          -9.445
REMARK INTER:                  -7.875
REMARK INTRA:                  -1.570
REMARK UNBOUND:                -1.570
REMARK SMILES O=C([O-])CCCCCCCCCCCCCCC(=O)[O-]
REMARK SMILES IDX 10 1 9 2 8 3 7 4 6 5 5 6 4 7 2 8 1 9 3 10 11 11 12 12 13 13
REMARK SMILES IDX 14 14 15 15 16 16 17 17 18 18 19 19 20 20
REMARK H PARENT
REMARK Flexibility Score: inf
ROOT
ATOM      1  C   UNL     1      29.637   5.088  43.670  1.00  0.00     0.000 C 
ENDROOT
BRANCH   1   2
ATOM      2  C   UNL     1      29.390   5.895  42.382  1.00  0.00     0.000 C 
BRANCH   2   3
ATOM      3  C   UNL     1      29.224   5.053  41.103  1.00  0.00     0.000 C 
BRANCH   3   4
ATOM      4  C   UNL     1      29.991   5.627  39.900  1.00  0.00     0.000 C 
BRANCH   4   5
ATOM      5  C   UNL     1      31.380   4.976  39.723  1.00  0.00     0.000 C 
BRANCH   5   6
ATOM      6  C   UNL     1      32.533   5.816  40.304  1.00  0.00     0.006 C 
BRANCH   6   7
ATOM      7  C   UNL     1      33.601   4.993  41.037  1.00  0.00     0.053 C 
BRANCH   7   8
ATOM      8  C   UNL     1      34.876   4.908  40.255  1.00  0.00     0.041 C 
ATOM      9  O   UNL     1      35.235   3.817  39.740  1.00  0.00    -0.550 OA
ATOM     10  O   UNL     1      35.678   6.033  40.111  1.00  0.00    -0.550 OA
ENDBRANCH   7   8
ENDBRANCH   6   7
ENDBRANCH   5   6
ENDBRANCH   4   5
ENDBRANCH   3   4
ENDBRANCH   2   3
ENDBRANCH   1   2
BRANCH   1  11
ATOM     11  C   UNL     1      31.130   4.845  43.948  1.00  0.00     0.000 C 
BRANCH  11  12
ATOM     12  C   UNL     1      31.921   6.154  44.108  1.00  0.00     0.000 C 
BRANCH  12  13
ATOM     13  C   UNL     1      32.368   6.400  45.559  1.00  0.00     0.000 C 
BRANCH  13  14
ATOM     14  C   UNL     1      31.368   7.260  46.351  1.00  0.00     0.000 C 
BRANCH  14  15
ATOM     15  C   UNL     1      30.500   6.486  47.362  1.00  0.00     0.000 C 
BRANCH  15  16
ATOM     16  C   UNL     1      31.152   5.182  47.873  1.00  0.00     0.006 C 
BRANCH  16  17
ATOM     17  C   UNL     1      31.889   5.383  49.204  1.00  0.00     0.053 C 
BRANCH  17  18
ATOM     18  C   UNL     1      32.215   4.062  49.825  1.00  0.00     0.041 C 
ATOM     19  O   UNL     1      32.314   3.957  51.075  1.00  0.00    -0.550 OA
ATOM     20  O   UNL     1      32.362   2.935  49.025  1.00  0.00    -0.550 OA
ENDBRANCH  17  18
ENDBRANCH  16  17
ENDBRANCH  15  16
ENDBRANCH  14  15
ENDBRANCH  13  14
ENDBRANCH  12  13
ENDBRANCH  11  12
ENDBRANCH   1  11
TORSDOF 15
ENDMDL
MODEL 2
REMARK VINA RESULT:    -4.028      1.755      3.655
REMARK INTER + INTRA:          -9.130
REMARK INTER:                  -7.135
REMARK INTRA:                  -1.995
REMARK UNBOUND:                -1.570
REMARK SMILES O=C([O-])CCCCCCCCCCCCCCC(=O)[O-]
REMARK SMILES IDX 10 1 9 2 8 3 7 4 6 5 5 6 4 7 2 8 1 9 3 10 11 11 12 12 13 13
REMARK SMILES IDX 14 14 15 15 16 16 17 17 18 18 19 19 20 20
REMARK H PARENT
REMARK Flexibility Score: inf
ROOT
ATOM      1  C   UNL     1      33.041  10.001  46.092  1.00  0.00     0.000 C 
ENDROOT
BRANCH   1   2
ATOM      2  C   UNL     1      33.522   8.566  46.375  1.00  0.00     0.000 C 
BRANCH   2   3
ATOM      3  C   UNL     1      33.963   7.766  45.136  1.00  0.00     0.000 C 
BRANCH   3   4
ATOM      4  C   UNL     1      33.108   6.511  44.892  1.00  0.00     0.000 C 
BRANCH   4   5
ATOM      5  C   UNL     1      32.307   6.593  43.574  1.00  0.00     0.000 C 
BRANCH   5   6
ATOM      6  C   UNL     1      32.228   5.253  42.816  1.00  0.00     0.006 C 
BRANCH   6   7
ATOM      7  C   UNL     1      32.671   5.336  41.349  1.00  0.00     0.053 C 
BRANCH   7   8
ATOM      8  C   UNL     1      34.163   5.400  41.219  1.00  0.00     0.041 C 
ATOM      9  O   UNL     1      34.841   4.343  41.144  1.00  0.00    -0.550 OA
ATOM     10  O   UNL     1      34.806   6.632  41.201  1.00  0.00    -0.550 OA
ENDBRANCH   7   8
ENDBRANCH   6   7
ENDBRANCH   5   6
ENDBRANCH   4   5
ENDBRANCH   3   4
ENDBRANCH   2   3
ENDBRANCH   1   2
BRANCH   1  11
ATOM     11  C   UNL     1      31.732  10.046  45.285  1.00  0.00     0.000 C 
BRANCH  11  12
ATOM     12  C   UNL     1      30.499   9.710  46.140  1.00  0.00     0.000 C 
BRANCH  12  13
ATOM     13  C   UNL     1      29.544   8.729  45.440  1.00  0.00     0.000 C 
BRANCH  13  14
ATOM     14  C   UNL     1      29.595   7.315  46.045  1.00  0.00     0.000 C 
BRANCH  14  15
ATOM     15  C   UNL     1      30.376   7.201  47.368  1.00  0.00     0.000 C 
BRANCH  15  16
ATOM     16  C   UNL     1      30.253   5.818  48.046  1.00  0.00     0.006 C 
BRANCH  16  17
ATOM     17  C   UNL     1      31.499   4.951  47.828  1.00  0.00     0.053 C 
BRANCH  17  18
ATOM     18  C   UNL     1      31.931   4.324  49.116  1.00  0.00     0.041 C 
ATOM     19  O   UNL     1      31.719   4.912  50.209  1.00  0.00    -0.550 OA
ATOM     20  O   UNL     1      32.525   3.067  49.113  1.00  0.00    -0.550 OA
ENDBRANCH  17  18
ENDBRANCH  16  17
ENDBRANCH  15  16
ENDBRANCH  14  15
ENDBRANCH  13  14
ENDBRANCH  12  13
ENDBRANCH  11  12
ENDBRANCH   1  11
TORSDOF 15
ENDMDL
MODEL 3
REMARK VINA RESULT:    -3.964      4.884      9.326
REMARK INTER + INTRA:          -9.011
REMARK INTER:                  -8.370
REMARK INTRA:                  -0.640
REMARK UNBOUND:                -1.570
REMARK SMILES O=C([O-])CCCCCCCCCCCCCCC(=O)[O-]
REMARK SMILES IDX 10 1 9 2 8 3 7 4 6 5 5 6 4 7 2 8 1 9 3 10 11 11 12 12 13 13
REMARK SMILES IDX 14 14 15 15 16 16 17 17 18 18 19 19 20 20
REMARK H PARENT
REMARK Flexibility Score: inf
ROOT
ATOM      1  C   UNL     1      27.922   7.002  44.511  1.00  0.00     0.000 C 
ENDROOT
BRANCH   1   2
ATOM      2  C   UNL     1      28.729   5.970  45.319  1.00  0.00     0.000 C 
BRANCH   2   3
ATOM      3  C   UNL     1      29.341   6.499  46.630  1.00  0.00     0.000 C 
BRANCH   3   4
ATOM      4  C   UNL     1      30.701   7.187  46.425  1.00  0.00     0.000 C 
BRANCH   4   5
ATOM      5  C   UNL     1      31.824   6.529  47.257  1.00  0.00     0.000 C 
BRANCH   5   6
ATOM      6  C   UNL     1      31.382   5.243  47.981  1.00  0.00     0.006 C 
BRANCH   6   7
ATOM      7  C   UNL     1      31.593   5.276  49.502  1.00  0.00     0.053 C 
BRANCH   7   8
ATOM      8  C   UNL     1      32.230   4.016  50.004  1.00  0.00     0.041 C 
ATOM      9  O   UNL     1      32.552   3.905  51.215  1.00  0.00    -0.550 OA
ATOM     10  O   UNL     1      32.486   2.970  49.126  1.00  0.00    -0.550 OA
ENDBRANCH   7   8
ENDBRANCH   6   7
ENDBRANCH   5   6
ENDBRANCH   4   5
ENDBRANCH   3   4
ENDBRANCH   2   3
ENDBRANCH   1   2
BRANCH   1  11
ATOM     11  C   UNL     1      28.276   7.001  43.014  1.00  0.00     0.000 C 
BRANCH  11  12
ATOM     12  C   UNL     1      27.173   6.373  42.147  1.00  0.00     0.000 C 
BRANCH  12  13
ATOM     13  C   UNL     1      27.589   5.016  41.554  1.00  0.00     0.000 C 
BRANCH  13  14
ATOM     14  C   UNL     1      26.437   3.996  41.536  1.00  0.00     0.000 C 
BRANCH  14  15
ATOM     15  C   UNL     1      25.396   4.208  40.419  1.00  0.00     0.000 C 
BRANCH  15  16
ATOM     16  C   UNL     1      25.098   2.936  39.595  1.00  0.00     0.006 C 
BRANCH  16  17
ATOM     17  C   UNL     1      24.181   1.960  40.344  1.00  0.00     0.053 C 
BRANCH  17  18
ATOM     18  C   UNL     1      23.525   1.020  39.382  1.00  0.00     0.041 C 
ATOM     19  O   UNL     1      23.703  -0.222  39.489  1.00  0.00    -0.550 OA
ATOM     20  O   UNL     1      22.677   1.513  38.398  1.00  0.00    -0.550 OA
ENDBRANCH  17  18
ENDBRANCH  16  17
ENDBRANCH  15  16
ENDBRANCH  14  15
ENDBRANCH  13  14
ENDBRANCH  12  13
ENDBRANCH  11  12
ENDBRANCH   1  11
TORSDOF 15
ENDMDL
MODEL 4
REMARK VINA RESULT:    -3.911      4.008      8.378
REMARK INTER + INTRA:          -8.911
REMARK INTER:                  -7.835
REMARK INTRA:                  -1.077
REMARK UNBOUND:                -1.570
REMARK SMILES O=C([O-])CCCCCCCCCCCCCCC(=O)[O-]
REMARK SMILES IDX 10 1 9 2 8 3 7 4 6 5 5 6 4 7 2 8 1 9 3 10 11 11 12 12 13 13
REMARK SMILES IDX 14 14 15 15 16 16 17 17 18 18 19 19 20 20
REMARK H PARENT
REMARK Flexibility Score: inf
ROOT
ATOM      1  C   UNL     1      31.719   5.348  43.050  1.00  0.00     0.000 C 
ENDROOT
BRANCH   1   2
ATOM      2  C   UNL     1      32.620   6.157  44.001  1.00  0.00     0.000 C 
BRANCH   2   3
ATOM      3  C   UNL     1      31.893   7.218  44.847  1.00  0.00     0.000 C 
BRANCH   3   4
ATOM      4  C   UNL     1      32.299   7.189  46.331  1.00  0.00     0.000 C 
BRANCH   4   5
ATOM      5  C   UNL     1      31.181   6.625  47.235  1.00  0.00     0.000 C 
BRANCH   5   6
ATOM      6  C   UNL     1      31.521   5.254  47.853  1.00  0.00     0.006 C 
BRANCH   6   7
ATOM      7  C   UNL     1      31.604   5.261  49.386  1.00  0.00     0.053 C 
BRANCH   7   8
ATOM      8  C   UNL     1      32.213   4.000  49.917  1.00  0.00     0.041 C 
ATOM      9  O   UNL     1      32.620   3.942  51.107  1.00  0.00    -0.550 OA
ATOM     10  O   UNL     1      32.350   2.893  49.089  1.00  0.00    -0.550 OA
ENDBRANCH   7   8
ENDBRANCH   6   7
ENDBRANCH   5   6
ENDBRANCH   4   5
ENDBRANCH   3   4
ENDBRANCH   2   3
ENDBRANCH   1   2
BRANCH   1  11
ATOM     11  C   UNL     1      30.623   4.560  43.788  1.00  0.00     0.000 C 
BRANCH  11  12
ATOM     12  C   UNL     1      29.211   4.906  43.287  1.00  0.00     0.000 C 
BRANCH  12  13
ATOM     13  C   UNL     1      29.230   5.750  42.002  1.00  0.00     0.000 C 
BRANCH  13  14
ATOM     14  C   UNL     1      28.722   4.975  40.774  1.00  0.00     0.000 C 
BRANCH  14  15
ATOM     15  C   UNL     1      27.653   3.906  41.074  1.00  0.00     0.000 C 
BRANCH  15  16
ATOM     16  C   UNL     1      26.210   4.367  40.775  1.00  0.00     0.006 C 
BRANCH  16  17
ATOM     17  C   UNL     1      25.380   3.273  40.091  1.00  0.00     0.053 C 
BRANCH  17  18
ATOM     18  C   UNL     1      24.297   2.791  41.004  1.00  0.00     0.041 C 
ATOM     19  O   UNL     1      23.256   2.265  40.530  1.00  0.00    -0.550 OA
ATOM     20  O   UNL     1      24.459   2.879  42.381  1.00  0.00    -0.550 OA
ENDBRANCH  17  18
ENDBRANCH  16  17
ENDBRANCH  15  16
ENDBRANCH  14  15
ENDBRANCH  13  14
ENDBRANCH  12  13
ENDBRANCH  11  12
ENDBRANCH   1  11
TORSDOF 15
ENDMDL
MODEL 5
REMARK VINA RESULT:    -3.884      2.774      7.149
REMARK INTER + INTRA:          -8.859
REMARK INTER:                  -6.989
REMARK INTRA:                  -1.870
REMARK UNBOUND:                -1.570
REMARK SMILES O=C([O-])CCCCCCCCCCCCCCC(=O)[O-]
REMARK SMILES IDX 10 1 9 2 8 3 7 4 6 5 5 6 4 7 2 8 1 9 3 10 11 11 12 12 13 13
REMARK SMILES IDX 14 14 15 15 16 16 17 17 18 18 19 19 20 20
REMARK H PARENT
REMARK Flexibility Score: inf
ROOT
ATOM      1  C   UNL     1      31.544   8.939  44.371  1.00  0.00     0.000 C 
ENDROOT
BRANCH   1   2
ATOM      2  C   UNL     1      31.012   9.111  45.806  1.00  0.00     0.000 C 
BRANCH   2   3
ATOM      3  C   UNL     1      29.860   8.167  46.195  1.00  0.00     0.000 C 
BRANCH   3   4
ATOM      4  C   UNL     1      30.211   7.237  47.368  1.00  0.00     0.000 C 
BRANCH   4   5
ATOM      5  C   UNL     1      30.334   5.761  46.931  1.00  0.00     0.000 C 
BRANCH   5   6
ATOM      6  C   UNL     1      31.470   4.999  47.641  1.00  0.00     0.006 C 
BRANCH   6   7
ATOM      7  C   UNL     1      31.468   5.152  49.168  1.00  0.00     0.053 C 
BRANCH   7   8
ATOM      8  C   UNL     1      32.145   3.999  49.845  1.00  0.00     0.041 C 
ATOM      9  O   UNL     1      32.462   4.073  51.061  1.00  0.00    -0.550 OA
ATOM     10  O   UNL     1      32.443   2.850  49.125  1.00  0.00    -0.550 OA
ENDBRANCH   7   8
ENDBRANCH   6   7
ENDBRANCH   5   6
ENDBRANCH   4   5
ENDBRANCH   3   4
ENDBRANCH   2   3
ENDBRANCH   1   2
BRANCH   1  11
ATOM     11  C   UNL     1      33.044   8.601  44.324  1.00  0.00     0.000 C 
BRANCH  11  12
ATOM     12  C   UNL     1      33.399   7.370  45.175  1.00  0.00     0.000 C 
BRANCH  12  13
ATOM     13  C   UNL     1      32.969   6.050  44.512  1.00  0.00     0.000 C 
BRANCH  13  14
ATOM     14  C   UNL     1      32.995   6.122  42.975  1.00  0.00     0.000 C 
BRANCH  14  15
ATOM     15  C   UNL     1      31.945   5.246  42.264  1.00  0.00     0.000 C 
BRANCH  15  16
ATOM     16  C   UNL     1      30.508   5.807  42.345  1.00  0.00     0.006 C 
BRANCH  16  17
ATOM     17  C   UNL     1      29.639   5.037  43.348  1.00  0.00     0.053 C 
BRANCH  17  18
ATOM     18  C   UNL     1      28.510   4.353  42.644  1.00  0.00     0.041 C 
ATOM     19  O   UNL     1      27.617   3.760  43.305  1.00  0.00    -0.550 OA
ATOM     20  O   UNL     1      28.418   4.411  41.258  1.00  0.00    -0.550 OA
ENDBRANCH  17  18
ENDBRANCH  16  17
ENDBRANCH  15  16
ENDBRANCH  14  15
ENDBRANCH  13  14
ENDBRANCH  12  13
ENDBRANCH  11  12
ENDBRANCH   1  11
TORSDOF 15
ENDMDL
MODEL 6
REMARK VINA RESULT:    -3.801      2.743      7.251
REMARK INTER + INTRA:          -8.705
REMARK INTER:                  -6.643
REMARK INTRA:                  -2.062
REMARK UNBOUND:                -1.570
REMARK SMILES O=C([O-])CCCCCCCCCCCCCCC(=O)[O-]
REMARK SMILES IDX 10 1 9 2 8 3 7 4 6 5 5 6 4 7 2 8 1 9 3 10 11 11 12 12 13 13
REMARK SMILES IDX 14 14 15 15 16 16 17 17 18 18 19 19 20 20
REMARK H PARENT
REMARK Flexibility Score: inf
ROOT
ATOM      1  C   UNL     1      33.417   9.025  46.438  1.00  0.00     0.000 C 
ENDROOT
BRANCH   1   2
ATOM      2  C   UNL     1      33.845   7.707  45.767  1.00  0.00     0.000 C 
BRANCH   2   3
ATOM      3  C   UNL     1      32.719   6.943  45.046  1.00  0.00     0.000 C 
BRANCH   3   4
ATOM      4  C   UNL     1      32.246   5.698  45.816  1.00  0.00     0.000 C 
BRANCH   4   5
ATOM      5  C   UNL     1      31.286   6.052  46.972  1.00  0.00     0.000 C 
BRANCH   5   6
ATOM      6  C   UNL     1      31.951   6.007  48.362  1.00  0.00     0.006 C 
BRANCH   6   7
ATOM      7  C   UNL     1      31.176   5.184  49.401  1.00  0.00     0.053 C 
BRANCH   7   8
ATOM      8  C   UNL     1      31.968   4.009  49.887  1.00  0.00     0.041 C 
ATOM      9  O   UNL     1      32.453   4.005  51.048  1.00  0.00    -0.550 OA
ATOM     10  O   UNL     1      32.189   2.926  49.046  1.00  0.00    -0.550 OA
ENDBRANCH   7   8
ENDBRANCH   6   7
ENDBRANCH   5   6
ENDBRANCH   4   5
ENDBRANCH   3   4
ENDBRANCH   2   3
ENDBRANCH   1   2
BRANCH   1  11
ATOM     11  C   UNL     1      32.956  10.090  45.429  1.00  0.00     0.000 C 
BRANCH  11  12
ATOM     12  C   UNL     1      31.591  10.697  45.793  1.00  0.00     0.000 C 
BRANCH  12  13
ATOM     13  C   UNL     1      30.535   9.625  46.113  1.00  0.00     0.000 C 
BRANCH  13  14
ATOM     14  C   UNL     1      29.831   9.091  44.853  1.00  0.00     0.000 C 
BRANCH  14  15
ATOM     15  C   UNL     1      28.733   8.042  45.116  1.00  0.00     0.000 C 
BRANCH  15  16
ATOM     16  C   UNL     1      28.903   6.744  44.296  1.00  0.00     0.006 C 
BRANCH  16  17
ATOM     17  C   UNL     1      29.662   6.979  42.984  1.00  0.00     0.053 C 
BRANCH  17  18
ATOM     18  C   UNL     1      29.867   5.686  42.260  1.00  0.00     0.041 C 
ATOM     19  O   UNL     1      30.765   4.887  42.634  1.00  0.00    -0.550 OA
ATOM     20  O   UNL     1      29.035   5.342  41.202  1.00  0.00    -0.550 OA
ENDBRANCH  17  18
ENDBRANCH  16  17
ENDBRANCH  15  16
ENDBRANCH  14  15
ENDBRANCH  13  14
ENDBRANCH  12  13
ENDBRANCH  11  12
ENDBRANCH   1  11
TORSDOF 15
ENDMDL
MODEL 7
REMARK VINA RESULT:    -3.796      6.231      8.838
REMARK INTER + INTRA:          -8.696
REMARK INTER:                  -7.067
REMARK INTRA:                  -1.628
REMARK UNBOUND:                -1.570
REMARK SMILES O=C([O-])CCCCCCCCCCCCCCC(=O)[O-]
REMARK SMILES IDX 10 1 9 2 8 3 7 4 6 5 5 6 4 7 2 8 1 9 3 10 11 11 12 12 13 13
REMARK SMILES IDX 14 14 15 15 16 16 17 17 18 18 19 19 20 20
REMARK H PARENT
REMARK Flexibility Score: inf
ROOT
ATOM      1  C   UNL     1      24.609   6.630  41.240  1.00  0.00     0.000 C 
ENDROOT
BRANCH   1   2
ATOM      2  C   UNL     1      25.849   7.144  41.994  1.00  0.00     0.000 C 
BRANCH   2   3
ATOM      3  C   UNL     1      26.866   6.061  42.398  1.00  0.00     0.000 C 
BRANCH   3   4
ATOM      4  C   UNL     1      26.381   4.634  42.089  1.00  0.00     0.000 C 
BRANCH   4   5
ATOM      5  C   UNL     1      27.302   3.905  41.087  1.00  0.00     0.000 C 
BRANCH   5   6
ATOM      6  C   UNL     1      28.591   4.682  40.755  1.00  0.00     0.006 C 
BRANCH   6   7
ATOM      7  C   UNL     1      29.213   4.315  39.400  1.00  0.00     0.053 C 
BRANCH   7   8
ATOM      8  C   UNL     1      30.468   5.089  39.134  1.00  0.00     0.041 C 
ATOM      9  O   UNL     1      31.515   4.847  39.790  1.00  0.00    -0.550 OA
ATOM     10  O   UNL     1      30.474   6.093  38.175  1.00  0.00    -0.550 OA
ENDBRANCH   7   8
ENDBRANCH   6   7
ENDBRANCH   5   6
ENDBRANCH   4   5
ENDBRANCH   3   4
ENDBRANCH   2   3
ENDBRANCH   1   2
BRANCH   1  11
ATOM     11  C   UNL     1      23.337   7.436  41.558  1.00  0.00     0.000 C 
BRANCH  11  12
ATOM     12  C   UNL     1      22.154   6.537  41.954  1.00  0.00     0.000 C 
BRANCH  12  13
ATOM     13  C   UNL     1      22.570   5.390  42.890  1.00  0.00     0.000 C 
BRANCH  13  14
ATOM     14  C   UNL     1      22.320   4.001  42.276  1.00  0.00     0.000 C 
BRANCH  14  15
ATOM     15  C   UNL     1      23.249   2.885  42.790  1.00  0.00     0.000 C 
BRANCH  15  16
ATOM     16  C   UNL     1      23.622   1.840  41.715  1.00  0.00     0.006 C 
BRANCH  16  17
ATOM     17  C   UNL     1      23.669   2.446  40.307  1.00  0.00     0.053 C 
BRANCH  17  18
ATOM     18  C   UNL     1      23.464   1.384  39.274  1.00  0.00     0.041 C 
ATOM     19  O   UNL     1      23.992   0.250  39.418  1.00  0.00    -0.550 OA
ATOM     20  O   UNL     1      22.650   1.630  38.175  1.00  0.00    -0.550 OA
ENDBRANCH  17  18
ENDBRANCH  16  17
ENDBRANCH  15  16
ENDBRANCH  14  15
ENDBRANCH  13  14
ENDBRANCH  12  13
ENDBRANCH  11  12
ENDBRANCH   1  11
TORSDOF 15
ENDMDL
MODEL 8
REMARK VINA RESULT:    -3.793      2.117      3.487
REMARK INTER + INTRA:          -8.689
REMARK INTER:                  -7.154
REMARK INTRA:                  -1.536
REMARK UNBOUND:                -1.570
REMARK SMILES O=C([O-])CCCCCCCCCCCCCCC(=O)[O-]
REMARK SMILES IDX 10 1 9 2 8 3 7 4 6 5 5 6 4 7 2 8 1 9 3 10 11 11 12 12 13 13
REMARK SMILES IDX 14 14 15 15 16 16 17 17 18 18 19 19 20 20
REMARK H PARENT
REMARK Flexibility Score: inf
ROOT
ATOM      1  C   UNL     1      32.903   8.139  45.594  1.00  0.00     0.000 C 
ENDROOT
BRANCH   1   2
ATOM      2  C   UNL     1      33.187   7.272  44.354  1.00  0.00     0.000 C 
BRANCH   2   3
ATOM      3  C   UNL     1      32.854   5.777  44.511  1.00  0.00     0.000 C 
BRANCH   3   4
ATOM      4  C   UNL     1      31.468   5.407  43.954  1.00  0.00     0.000 C 
BRANCH   4   5
ATOM      5  C   UNL     1      31.483   5.211  42.423  1.00  0.00     0.000 C 
BRANCH   5   6
ATOM      6  C   UNL     1      30.091   5.330  41.772  1.00  0.00     0.006 C 
BRANCH   6   7
ATOM      7  C   UNL     1      30.034   6.305  40.588  1.00  0.00     0.053 C 
BRANCH   7   8
ATOM      8  C   UNL     1      30.520   5.672  39.320  1.00  0.00     0.041 C 
ATOM      9  O   UNL     1      30.144   4.514  39.002  1.00  0.00    -0.550 OA
ATOM     10  O   UNL     1      31.407   6.357  38.498  1.00  0.00    -0.550 OA
ENDBRANCH   7   8
ENDBRANCH   6   7
ENDBRANCH   5   6
ENDBRANCH   4   5
ENDBRANCH   3   4
ENDBRANCH   2   3
ENDBRANCH   1   2
BRANCH   1  11
ATOM     11  C   UNL     1      32.004   9.349  45.286  1.00  0.00     0.000 C 
BRANCH  11  12
ATOM     12  C   UNL     1      30.710   9.350  46.117  1.00  0.00     0.000 C 
BRANCH  12  13
ATOM     13  C   UNL     1      29.998   7.987  46.102  1.00  0.00     0.000 C 
BRANCH  13  14
ATOM     14  C   UNL     1      29.540   7.540  47.501  1.00  0.00     0.000 C 
BRANCH  14  15
ATOM     15  C   UNL     1      29.719   6.039  47.797  1.00  0.00     0.000 C 
BRANCH  15  16
ATOM     16  C   UNL     1      31.190   5.569  47.766  1.00  0.00     0.006 C 
BRANCH  16  17
ATOM     17  C   UNL     1      31.774   5.389  49.174  1.00  0.00     0.053 C 
BRANCH  17  18
ATOM     18  C   UNL     1      31.779   3.943  49.557  1.00  0.00     0.041 C 
ATOM     19  O   UNL     1      30.828   3.462  50.227  1.00  0.00    -0.550 OA
ATOM     20  O   UNL     1      32.810   3.115  49.132  1.00  0.00    -0.550 OA
ENDBRANCH  17  18
ENDBRANCH  16  17
ENDBRANCH  15  16
ENDBRANCH  14  15
ENDBRANCH  13  14
ENDBRANCH  12  13
ENDBRANCH  11  12
ENDBRANCH   1  11
TORSDOF 15
ENDMDL
MODEL 9
REMARK VINA RESULT:    -3.764      5.027      7.754
REMARK INTER + INTRA:          -8.636
REMARK INTER:                  -7.194
REMARK INTRA:                  -1.441
REMARK UNBOUND:                -1.570
REMARK SMILES O=C([O-])CCCCCCCCCCCCCCC(=O)[O-]
REMARK SMILES IDX 10 1 9 2 8 3 7 4 6 5 5 6 4 7 2 8 1 9 3 10 11 11 12 12 13 13
REMARK SMILES IDX 14 14 15 15 16 16 17 17 18 18 19 19 20 20
REMARK H PARENT
REMARK Flexibility Score: inf
ROOT
ATOM      1  C   UNL     1      29.140   4.805  40.418  1.00  0.00     0.000 C 
ENDROOT
BRANCH   1   2
ATOM      2  C   UNL     1      30.212   4.993  39.328  1.00  0.00     0.000 C 
BRANCH   2   3
ATOM      3  C   UNL     1      30.794   6.414  39.220  1.00  0.00     0.000 C 
BRANCH   3   4
ATOM      4  C   UNL     1      32.294   6.478  39.553  1.00  0.00     0.000 C 
BRANCH   4   5
ATOM      5  C   UNL     1      32.802   5.186  40.230  1.00  0.00     0.000 C 
BRANCH   5   6
ATOM      6  C   UNL     1      33.451   5.425  41.607  1.00  0.00     0.006 C 
BRANCH   6   7
ATOM      7  C   UNL     1      32.627   6.323  42.541  1.00  0.00     0.053 C 
BRANCH   7   8
ATOM      8  C   UNL     1      32.024   5.546  43.672  1.00  0.00     0.041 C 
ATOM      9  O   UNL     1      32.432   5.718  44.850  1.00  0.00    -0.550 OA
ATOM     10  O   UNL     1      31.023   4.617  43.419  1.00  0.00    -0.550 OA
ENDBRANCH   7   8
ENDBRANCH   6   7
ENDBRANCH   5   6
ENDBRANCH   4   5
ENDBRANCH   3   4
ENDBRANCH   2   3
ENDBRANCH   1   2
BRANCH   1  11
ATOM     11  C   UNL     1      28.766   6.119  41.124  1.00  0.00     0.000 C 
BRANCH  11  12
ATOM     12  C   UNL     1      27.678   5.925  42.193  1.00  0.00     0.000 C 
BRANCH  12  13
ATOM     13  C   UNL     1      26.356   6.620  41.823  1.00  0.00     0.000 C 
BRANCH  13  14
ATOM     14  C   UNL     1      25.344   5.663  41.170  1.00  0.00     0.000 C 
BRANCH  14  15
ATOM     15  C   UNL     1      25.616   4.165  41.408  1.00  0.00     0.000 C 
BRANCH  15  16
ATOM     16  C   UNL     1      25.167   3.257  40.242  1.00  0.00     0.006 C 
BRANCH  16  17
ATOM     17  C   UNL     1      23.984   2.360  40.625  1.00  0.00     0.053 C 
BRANCH  17  18
ATOM     18  C   UNL     1      23.634   1.445  39.494  1.00  0.00     0.041 C 
ATOM     19  O   UNL     1      22.987   1.880  38.505  1.00  0.00    -0.550 OA
ATOM     20  O   UNL     1      24.065   0.124  39.509  1.00  0.00    -0.550 OA
ENDBRANCH  17  18
ENDBRANCH  16  17
ENDBRANCH  15  16
ENDBRANCH  14  15
ENDBRANCH  13  14
ENDBRANCH  12  13
ENDBRANCH  11  12
ENDBRANCH   1  11
TORSDOF 15
ENDMDL
