MODEL 1
REMARK VINA RESULT:    -3.716      0.000      0.000
REMARK INTER + INTRA:          -8.361
REMARK INTER:                  -6.540
REMARK INTRA:                  -1.821
REMARK UNBOUND:                -1.821
REMARK SMILES CCCCCCCCCCCCCCC(=O)[O-]
REMARK SMILES IDX 9 1 10 2 11 3 12 4 13 5 14 6 15 7 16 8 17 9 8 10 7 11 6 12
REMARK SMILES IDX 5 13 4 14 3 15 2 16 1 17
REMARK H PARENT
REMARK Flexibility Score: inf
ROOT
ATOM      1  C   UNL     1       1.571  -1.990  -6.022  1.00  0.00     0.000 C 
ENDROOT
BRANCH   1   2
ATOM      2  C   UNL     1       1.302  -0.992  -7.163  1.00  0.00     0.000 C 
BRANCH   2   3
ATOM      3  C   UNL     1      -0.177  -0.950  -7.577  1.00  0.00     0.000 C 
BRANCH   3   4
ATOM      4  C   UNL     1      -0.360  -0.818  -9.098  1.00  0.00     0.000 C 
BRANCH   4   5
ATOM      5  C   UNL     1      -1.552   0.079  -9.474  1.00  0.00     0.006 C 
BRANCH   5   6
ATOM      6  C   UNL     1      -2.905  -0.577  -9.168  1.00  0.00     0.053 C 
BRANCH   6   7
ATOM      7  C   UNL     1      -3.951   0.469  -8.945  1.00  0.00     0.041 C 
ATOM      8  O   UNL     1      -5.170   0.153  -8.930  1.00  0.00    -0.550 OA
ATOM      9  O   UNL     1      -3.579   1.785  -8.705  1.00  0.00    -0.550 OA
ENDBRANCH   6   7
ENDBRANCH   5   6
ENDBRANCH   4   5
ENDBRANCH   3   4
ENDBRANCH   2   3
ENDBRANCH   1   2
BRANCH   1  10
ATOM     10  C   UNL     1       2.666  -3.011  -6.373  1.00  0.00     0.000 C 
BRANCH  10  11
ATOM     11  C   UNL     1       2.175  -4.464  -6.260  1.00  0.00    -0.000 C 
BRANCH  11  12
ATOM     12  C   UNL     1       0.769  -4.662  -6.847  1.00  0.00    -0.000 C 
BRANCH  12  13
ATOM     13  C   UNL     1       0.737  -4.521  -8.377  1.00  0.00    -0.000 C 
BRANCH  13  14
ATOM     14  C   UNL     1       1.765  -5.451  -9.035  1.00  0.00    -0.000 C 
BRANCH  14  15
ATOM     15  C   UNL     1       2.777  -4.650  -9.869  1.00  0.00    -0.000 C 
BRANCH  15  16
ATOM     16  C   UNL     1       2.345  -3.190 -10.077  1.00  0.00    -0.003 C 
ATOM     17  C   UNL     1       3.499  -2.201  -9.914  1.00  0.00     0.004 C 
ENDBRANCH  15  16
ENDBRANCH  14  15
ENDBRANCH  13  14
ENDBRANCH  12  13
ENDBRANCH  11  12
ENDBRANCH  10  11
ENDBRANCH   1  10
TORSDOF 13
ENDMDL
MODEL 2
REMARK VINA RESULT:    -3.694      3.932      5.200
REMARK INTER + INTRA:          -8.322
REMARK INTER:                  -6.939
REMARK INTRA:                  -1.383
REMARK UNBOUND:                -1.821
REMARK SMILES CCCCCCCCCCCCCCC(=O)[O-]
REMARK SMILES IDX 9 1 10 2 11 3 12 4 13 5 14 6 15 7 16 8 17 9 8 10 7 11 6 12
REMARK SMILES IDX 5 13 4 14 3 15 2 16 1 17
REMARK H PARENT
REMARK Flexibility Score: inf
ROOT
ATOM      1  C   UNL     1       2.031  -1.893  -6.266  1.00  0.00     0.000 C 
ENDROOT
BRANCH   1   2
ATOM      2  C   UNL     1       0.935  -0.902  -6.701  1.00  0.00     0.000 C 
BRANCH   2   3
ATOM      3  C   UNL     1       0.352  -1.232  -8.084  1.00  0.00     0.000 C 
BRANCH   3   4
ATOM      4  C   UNL     1       1.171  -0.618  -9.231  1.00  0.00     0.000 C 
BRANCH   4   5
ATOM      5  C   UNL     1       2.395  -1.471  -9.605  1.00  0.00     0.006 C 
BRANCH   5   6
ATOM      6  C   UNL     1       3.654  -0.626  -9.841  1.00  0.00     0.053 C 
BRANCH   6   7
ATOM      7  C   UNL     1       4.880  -1.411  -9.494  1.00  0.00     0.041 C 
ATOM      8  O   UNL     1       4.914  -2.654  -9.693  1.00  0.00    -0.550 OA
ATOM      9  O   UNL     1       6.003  -0.762  -8.997  1.00  0.00    -0.550 OA
ENDBRANCH   6   7
ENDBRANCH   5   6
ENDBRANCH   4   5
ENDBRANCH   3   4
ENDBRANCH   2   3
ENDBRANCH   1   2
BRANCH   1  10
ATOM     10  C   UNL     1       1.470  -3.280  -5.914  1.00  0.00     0.000 C 
BRANCH  10  11
ATOM     11  C   UNL     1       2.345  -4.425  -6.453  1.00  0.00    -0.000 C 
BRANCH  11  12
ATOM     12  C   UNL     1       1.930  -4.873  -7.863  1.00  0.00    -0.000 C 
BRANCH  12  13
ATOM     13  C   UNL     1       0.421  -4.727  -8.115  1.00  0.00    -0.000 C 
BRANCH  13  14
ATOM     14  C   UNL     1       0.117  -4.692  -9.619  1.00  0.00    -0.000 C 
BRANCH  14  15
ATOM     15  C   UNL     1      -0.313  -6.078 -10.125  1.00  0.00    -0.000 C 
BRANCH  15  16
ATOM     16  C   UNL     1      -0.790  -6.999  -8.990  1.00  0.00    -0.003 C 
ATOM     17  C   UNL     1      -0.922  -8.457  -9.427  1.00  0.00     0.004 C 
ENDBRANCH  15  16
ENDBRANCH  14  15
ENDBRANCH  13  14
ENDBRANCH  12  13
ENDBRANCH  11  12
ENDBRANCH  10  11
ENDBRANCH   1  10
TORSDOF 13
ENDMDL
MODEL 3
REMARK VINA RESULT:    -3.692      4.084      7.307
REMARK INTER + INTRA:          -8.318
REMARK INTER:                  -7.458
REMARK INTRA:                  -0.860
REMARK UNBOUND:                -1.821
REMARK SMILES CCCCCCCCCCCCCCC(=O)[O-]
REMARK SMILES IDX 9 1 10 2 11 3 12 4 13 5 14 6 15 7 16 8 17 9 8 10 7 11 6 12
REMARK SMILES IDX 5 13 4 14 3 15 2 16 1 17
REMARK H PARENT
REMARK Flexibility Score: inf
ROOT
ATOM      1  C   UNL     1      -1.459  -0.491  -8.452  1.00  0.00     0.000 C 
ENDROOT
BRANCH   1   2
ATOM      2  C   UNL     1      -0.221  -0.872  -9.285  1.00  0.00     0.000 C 
BRANCH   2   3
ATOM      3  C   UNL     1       0.906  -1.473  -8.431  1.00  0.00     0.000 C 
BRANCH   3   4
ATOM      4  C   UNL     1       0.784  -1.097  -6.945  1.00  0.00     0.000 C 
BRANCH   4   5
ATOM      5  C   UNL     1       1.831  -1.805  -6.069  1.00  0.00     0.006 C 
BRANCH   5   6
ATOM      6  C   UNL     1       2.533  -2.957  -6.801  1.00  0.00     0.053 C 
BRANCH   6   7
ATOM      7  C   UNL     1       2.023  -4.274  -6.309  1.00  0.00     0.041 C 
ATOM      8  O   UNL     1       2.827  -5.154  -5.902  1.00  0.00    -0.550 OA
ATOM      9  O   UNL     1       0.656  -4.512  -6.251  1.00  0.00    -0.550 OA
ENDBRANCH   6   7
ENDBRANCH   5   6
ENDBRANCH   4   5
ENDBRANCH   3   4
ENDBRANCH   2   3
ENDBRANCH   1   2
BRANCH   1  10
ATOM     10  C   UNL     1      -2.531   0.234  -9.282  1.00  0.00     0.000 C 
BRANCH  10  11
ATOM     11  C   UNL     1      -3.904  -0.456  -9.203  1.00  0.00    -0.000 C 
BRANCH  11  12
ATOM     12  C   UNL     1      -3.887  -1.877  -9.788  1.00  0.00    -0.000 C 
BRANCH  12  13
ATOM     13  C   UNL     1      -5.071  -2.731  -9.310  1.00  0.00    -0.000 C 
BRANCH  13  14
ATOM     14  C   UNL     1      -6.054  -1.892  -8.483  1.00  0.00    -0.000 C 
BRANCH  14  15
ATOM     15  C   UNL     1      -6.662  -2.722  -7.342  1.00  0.00    -0.000 C 
BRANCH  15  16
ATOM     16  C   UNL     1      -6.681  -4.227  -7.652  1.00  0.00    -0.003 C 
ATOM     17  C   UNL     1      -7.091  -5.075  -6.449  1.00  0.00     0.004 C 
ENDBRANCH  15  16
ENDBRANCH  14  15
ENDBRANCH  13  14
ENDBRANCH  12  13
ENDBRANCH  11  12
ENDBRANCH  10  11
ENDBRANCH   1  10
TORSDOF 13
ENDMDL
MODEL 4
REMARK VINA RESULT:    -3.669     11.818     13.381
REMARK INTER + INTRA:          -8.278
REMARK INTER:                  -6.097
REMARK INTRA:                  -2.182
REMARK UNBOUND:                -1.821
REMARK SMILES CCCCCCCCCCCCCCC(=O)[O-]
REMARK SMILES IDX 9 1 10 2 11 3 12 4 13 5 14 6 15 7 16 8 17 9 8 10 7 11 6 12
REMARK SMILES IDX 5 13 4 14 3 15 2 16 1 17
REMARK H PARENT
REMARK Flexibility Score: inf
ROOT
ATOM      1  C   UNL     1      -7.091  -5.664   0.321  1.00  0.00     0.000 C 
ENDROOT
BRANCH   1   2
ATOM      2  C   UNL     1      -8.462  -5.737   1.018  1.00  0.00     0.000 C 
BRANCH   2   3
ATOM      3  C   UNL     1      -8.363  -5.556   2.541  1.00  0.00     0.000 C 
BRANCH   3   4
ATOM      4  C   UNL     1      -7.117  -4.760   2.961  1.00  0.00     0.000 C 
BRANCH   4   5
ATOM      5  C   UNL     1      -7.455  -3.326   3.403  1.00  0.00     0.006 C 
BRANCH   5   6
ATOM      6  C   UNL     1      -6.558  -2.275   2.735  1.00  0.00     0.053 C 
BRANCH   6   7
ATOM      7  C   UNL     1      -6.808  -2.239   1.261  1.00  0.00     0.041 C 
ATOM      8  O   UNL     1      -7.982  -2.127   0.819  1.00  0.00    -0.550 OA
ATOM      9  O   UNL     1      -5.740  -2.278   0.373  1.00  0.00    -0.550 OA
ENDBRANCH   6   7
ENDBRANCH   5   6
ENDBRANCH   4   5
ENDBRANCH   3   4
ENDBRANCH   2   3
ENDBRANCH   1   2
BRANCH   1  10
ATOM     10  C   UNL     1      -6.953  -6.679  -0.825  1.00  0.00     0.000 C 
BRANCH  10  11
ATOM     11  C   UNL     1      -8.286  -7.365  -1.170  1.00  0.00    -0.000 C 
BRANCH  11  12
ATOM     12  C   UNL     1      -8.194  -8.898  -1.121  1.00  0.00    -0.000 C 
BRANCH  12  13
ATOM     13  C   UNL     1      -7.398  -9.408   0.090  1.00  0.00    -0.000 C 
BRANCH  13  14
ATOM     14  C   UNL     1      -8.270  -9.420   1.353  1.00  0.00    -0.000 C 
BRANCH  14  15
ATOM     15  C   UNL     1      -7.407  -9.303   2.619  1.00  0.00    -0.000 C 
BRANCH  15  16
ATOM     16  C   UNL     1      -6.087  -8.557   2.365  1.00  0.00    -0.003 C 
ATOM     17  C   UNL     1      -5.179  -8.527   3.594  1.00  0.00     0.004 C 
ENDBRANCH  15  16
ENDBRANCH  14  15
ENDBRANCH  13  14
ENDBRANCH  12  13
ENDBRANCH  11  12
ENDBRANCH  10  11
ENDBRANCH   1  10
TORSDOF 13
ENDMDL
MODEL 5
REMARK VINA RESULT:    -3.648      1.787      2.928
REMARK INTER + INTRA:          -8.241
REMARK INTER:                  -7.018
REMARK INTRA:                  -1.223
REMARK UNBOUND:                -1.821
REMARK SMILES CCCCCCCCCCCCCCC(=O)[O-]
REMARK SMILES IDX 9 1 10 2 11 3 12 4 13 5 14 6 15 7 16 8 17 9 8 10 7 11 6 12
REMARK SMILES IDX 5 13 4 14 3 15 2 16 1 17
REMARK H PARENT
REMARK Flexibility Score: inf
ROOT
ATOM      1  C   UNL     1       0.018  -0.811  -7.482  1.00  0.00     0.000 C 
ENDROOT
BRANCH   1   2
ATOM      2  C   UNL     1      -0.488  -0.571  -8.916  1.00  0.00     0.000 C 
BRANCH   2   3
ATOM      3  C   UNL     1      -0.947  -1.866  -9.607  1.00  0.00     0.000 C 
BRANCH   3   4
ATOM      4  C   UNL     1      -2.436  -1.836  -9.987  1.00  0.00     0.000 C 
BRANCH   4   5
ATOM      5  C   UNL     1      -3.209  -0.721  -9.261  1.00  0.00     0.006 C 
BRANCH   5   6
ATOM      6  C   UNL     1      -4.657  -0.591  -9.749  1.00  0.00     0.053 C 
BRANCH   6   7
ATOM      7  C   UNL     1      -5.605  -1.077  -8.699  1.00  0.00     0.041 C 
ATOM      8  O   UNL     1      -6.446  -0.289  -8.189  1.00  0.00    -0.550 OA
ATOM      9  O   UNL     1      -5.596  -2.413  -8.318  1.00  0.00    -0.550 OA
ENDBRANCH   6   7
ENDBRANCH   5   6
ENDBRANCH   4   5
ENDBRANCH   3   4
ENDBRANCH   2   3
ENDBRANCH   1   2
BRANCH   1  10
ATOM     10  C   UNL     1       1.503  -1.206  -7.436  1.00  0.00     0.000 C 
BRANCH  10  11
ATOM     11  C   UNL     1       1.913  -1.801  -6.078  1.00  0.00    -0.000 C 
BRANCH  11  12
ATOM     12  C   UNL     1       1.222  -3.141  -5.785  1.00  0.00    -0.000 C 
BRANCH  12  13
ATOM     13  C   UNL     1       2.140  -4.350  -6.026  1.00  0.00    -0.000 C 
BRANCH  13  14
ATOM     14  C   UNL     1       1.914  -4.939  -7.425  1.00  0.00    -0.000 C 
BRANCH  14  15
ATOM     15  C   UNL     1       0.469  -4.705  -7.893  1.00  0.00    -0.000 C 
BRANCH  15  16
ATOM     16  C   UNL     1       0.145  -5.444  -9.201  1.00  0.00    -0.003 C 
ATOM     17  C   UNL     1      -0.625  -6.743  -8.972  1.00  0.00     0.004 C 
ENDBRANCH  15  16
ENDBRANCH  14  15
ENDBRANCH  13  14
ENDBRANCH  12  13
ENDBRANCH  11  12
ENDBRANCH  10  11
ENDBRANCH   1  10
TORSDOF 13
ENDMDL
MODEL 6
REMARK VINA RESULT:    -3.638      4.692      7.021
REMARK INTER + INTRA:          -8.223
REMARK INTER:                  -7.647
REMARK INTRA:                  -0.577
REMARK UNBOUND:                -1.821
REMARK SMILES CCCCCCCCCCCCCCC(=O)[O-]
REMARK SMILES IDX 9 1 10 2 11 3 12 4 13 5 14 6 15 7 16 8 17 9 8 10 7 11 6 12
REMARK SMILES IDX 5 13 4 14 3 15 2 16 1 17
REMARK H PARENT
REMARK Flexibility Score: inf
ROOT
ATOM      1  C   UNL     1      -0.840  -6.480  -8.998  1.00  0.00     0.000 C 
ENDROOT
BRANCH   1   2
ATOM      2  C   UNL     1       0.602  -5.944  -8.949  1.00  0.00     0.000 C 
BRANCH   2   3
ATOM      3  C   UNL     1       0.715  -4.614  -8.188  1.00  0.00     0.000 C 
BRANCH   3   4
ATOM      4  C   UNL     1       0.903  -4.815  -6.675  1.00  0.00     0.000 C 
BRANCH   4   5
ATOM      5  C   UNL     1       1.200  -3.499  -5.937  1.00  0.00     0.006 C 
BRANCH   5   6
ATOM      6  C   UNL     1       2.470  -2.807  -6.449  1.00  0.00     0.053 C 
BRANCH   6   7
ATOM      7  C   UNL     1       2.122  -1.530  -7.145  1.00  0.00     0.041 C 
ATOM      8  O   UNL     1       2.683  -1.226  -8.231  1.00  0.00    -0.550 OA
ATOM      9  O   UNL     1       1.141  -0.697  -6.621  1.00  0.00    -0.550 OA
ENDBRANCH   6   7
ENDBRANCH   5   6
ENDBRANCH   4   5
ENDBRANCH   3   4
ENDBRANCH   2   3
ENDBRANCH   1   2
BRANCH   1  10
ATOM     10  C   UNL     1      -0.907  -7.970  -9.372  1.00  0.00     0.000 C 
BRANCH  10  11
ATOM     11  C   UNL     1      -2.318  -8.558  -9.204  1.00  0.00    -0.000 C 
BRANCH  11  12
ATOM     12  C   UNL     1      -3.308  -7.556  -8.588  1.00  0.00    -0.000 C 
BRANCH  12  13
ATOM     13  C   UNL     1      -4.430  -8.241  -7.792  1.00  0.00    -0.000 C 
BRANCH  13  14
ATOM     14  C   UNL     1      -5.810  -7.801  -8.302  1.00  0.00    -0.000 C 
BRANCH  14  15
ATOM     15  C   UNL     1      -6.411  -6.717  -7.395  1.00  0.00    -0.000 C 
BRANCH  15  16
ATOM     16  C   UNL     1      -6.303  -5.311  -8.005  1.00  0.00    -0.003 C 
ATOM     17  C   UNL     1      -6.841  -4.220  -7.079  1.00  0.00     0.004 C 
ENDBRANCH  15  16
ENDBRANCH  14  15
ENDBRANCH  13  14
ENDBRANCH  12  13
ENDBRANCH  11  12
ENDBRANCH  10  11
ENDBRANCH   1  10
TORSDOF 13
ENDMDL
MODEL 7
REMARK VINA RESULT:    -3.601      3.047      5.793
REMARK INTER + INTRA:          -8.158
REMARK INTER:                  -6.433
REMARK INTRA:                  -1.725
REMARK UNBOUND:                -1.821
REMARK SMILES CCCCCCCCCCCCCCC(=O)[O-]
REMARK SMILES IDX 9 1 10 2 11 3 12 4 13 5 14 6 15 7 16 8 17 9 8 10 7 11 6 12
REMARK SMILES IDX 5 13 4 14 3 15 2 16 1 17
REMARK H PARENT
REMARK Flexibility Score: inf
ROOT
ATOM      1  C   UNL     1       1.228  -3.564  -5.916  1.00  0.00     0.000 C 
ENDROOT
BRANCH   1   2
ATOM      2  C   UNL     1       1.127  -4.723  -6.924  1.00  0.00     0.000 C 
BRANCH   2   3
ATOM      3  C   UNL     1       1.608  -4.330  -8.330  1.00  0.00     0.000 C 
BRANCH   3   4
ATOM      4  C   UNL     1       2.976  -4.940  -8.677  1.00  0.00     0.000 C 
BRANCH   4   5
ATOM      5  C   UNL     1       3.744  -4.112  -9.721  1.00  0.00     0.006 C 
BRANCH   5   6
ATOM      6  C   UNL     1       3.077  -2.761 -10.011  1.00  0.00     0.053 C 
BRANCH   6   7
ATOM      7  C   UNL     1       3.984  -1.638  -9.619  1.00  0.00     0.041 C 
ATOM      8  O   UNL     1       5.217  -1.844  -9.466  1.00  0.00    -0.550 OA
ATOM      9  O   UNL     1       3.478  -0.354  -9.472  1.00  0.00    -0.550 OA
ENDBRANCH   6   7
ENDBRANCH   5   6
ENDBRANCH   4   5
ENDBRANCH   3   4
ENDBRANCH   2   3
ENDBRANCH   1   2
BRANCH   1  10
ATOM     10  C   UNL     1       2.175  -2.448  -6.388  1.00  0.00     0.000 C 
BRANCH  10  11
ATOM     11  C   UNL     1       1.489  -1.072  -6.433  1.00  0.00    -0.000 C 
BRANCH  11  12
ATOM     12  C   UNL     1       0.129  -1.111  -7.147  1.00  0.00    -0.000 C 
BRANCH  12  13
ATOM     13  C   UNL     1       0.219  -0.691  -8.622  1.00  0.00    -0.000 C 
BRANCH  13  14
ATOM     14  C   UNL     1      -0.596  -1.639  -9.512  1.00  0.00    -0.000 C 
BRANCH  14  15
ATOM     15  C   UNL     1      -2.061  -1.183  -9.604  1.00  0.00    -0.000 C 
BRANCH  15  16
ATOM     16  C   UNL     1      -2.201   0.346  -9.656  1.00  0.00    -0.003 C 
ATOM     17  C   UNL     1      -3.456   0.850  -8.946  1.00  0.00     0.004 C 
ENDBRANCH  15  16
ENDBRANCH  14  15
ENDBRANCH  13  14
ENDBRANCH  12  13
ENDBRANCH  11  12
ENDBRANCH  10  11
ENDBRANCH   1  10
TORSDOF 13
ENDMDL
MODEL 8
REMARK VINA RESULT:    -3.587     12.174     13.584
REMARK INTER + INTRA:          -8.135
REMARK INTER:                  -6.497
REMARK INTRA:                  -1.638
REMARK UNBOUND:                -1.821
REMARK SMILES CCCCCCCCCCCCCCC(=O)[O-]
REMARK SMILES IDX 9 1 10 2 11 3 12 4 13 5 14 6 15 7 16 8 17 9 8 10 7 11 6 12
REMARK SMILES IDX 5 13 4 14 3 15 2 16 1 17
REMARK H PARENT
REMARK Flexibility Score: inf
ROOT
ATOM      1  C   UNL     1      -6.023  -6.765   4.118  1.00  0.00     0.000 C 
ENDROOT
BRANCH   1   2
ATOM      2  C   UNL     1      -5.552  -5.842   5.256  1.00  0.00     0.000 C 
BRANCH   2   3
ATOM      3  C   UNL     1      -5.969  -4.379   5.044  1.00  0.00     0.000 C 
BRANCH   3   4
ATOM      4  C   UNL     1      -7.076  -4.228   3.988  1.00  0.00     0.000 C 
BRANCH   4   5
ATOM      5  C   UNL     1      -7.232  -2.778   3.500  1.00  0.00     0.006 C 
BRANCH   5   6
ATOM      6  C   UNL     1      -6.059  -2.318   2.624  1.00  0.00     0.053 C 
BRANCH   6   7
ATOM      7  C   UNL     1      -6.511  -2.116   1.213  1.00  0.00     0.041 C 
ATOM      8  O   UNL     1      -5.686  -1.771   0.326  1.00  0.00    -0.550 OA
ATOM      9  O   UNL     1      -7.834  -2.357   0.865  1.00  0.00    -0.550 OA
ENDBRANCH   6   7
ENDBRANCH   5   6
ENDBRANCH   4   5
ENDBRANCH   3   4
ENDBRANCH   2   3
ENDBRANCH   1   2
BRANCH   1  10
ATOM     10  C   UNL     1      -5.232  -8.082   4.055  1.00  0.00     0.000 C 
BRANCH  10  11
ATOM     11  C   UNL     1      -5.653  -8.968   2.870  1.00  0.00    -0.000 C 
BRANCH  11  12
ATOM     12  C   UNL     1      -7.158  -9.277   2.868  1.00  0.00    -0.000 C 
BRANCH  12  13
ATOM     13  C   UNL     1      -7.772  -9.237   1.460  1.00  0.00    -0.000 C 
BRANCH  13  14
ATOM     14  C   UNL     1      -6.753  -8.726   0.432  1.00  0.00    -0.000 C 
BRANCH  14  15
ATOM     15  C   UNL     1      -7.255  -7.442  -0.247  1.00  0.00    -0.000 C 
BRANCH  15  16
ATOM     16  C   UNL     1      -7.237  -6.229   0.697  1.00  0.00    -0.003 C 
ATOM     17  C   UNL     1      -8.639  -5.732   1.049  1.00  0.00     0.004 C 
ENDBRANCH  15  16
ENDBRANCH  14  15
ENDBRANCH  13  14
ENDBRANCH  12  13
ENDBRANCH  11  12
ENDBRANCH  10  11
ENDBRANCH   1  10
TORSDOF 13
ENDMDL
MODEL 9
REMARK VINA RESULT:    -3.490     12.251     13.843
REMARK INTER + INTRA:          -7.963
REMARK INTER:                  -6.367
REMARK INTRA:                  -1.596
REMARK UNBOUND:                -1.821
REMARK SMILES CCCCCCCCCCCCCCC(=O)[O-]
REMARK SMILES IDX 9 1 10 2 11 3 12 4 13 5 14 6 15 7 16 8 17 9 8 10 7 11 6 12
REMARK SMILES IDX 5 13 4 14 3 15 2 16 1 17
REMARK H PARENT
REMARK Flexibility Score: inf
ROOT
ATOM      1  C   UNL     1      -7.136  -5.785   0.810  1.00  0.00     0.000 C 
ENDROOT
BRANCH   1   2
ATOM      2  C   UNL     1      -8.521  -5.305   1.279  1.00  0.00     0.000 C 
BRANCH   2   3
ATOM      3  C   UNL     1      -8.542  -4.913   2.765  1.00  0.00     0.000 C 
BRANCH   3   4
ATOM      4  C   UNL     1      -7.231  -4.249   3.218  1.00  0.00     0.000 C 
BRANCH   4   5
ATOM      5  C   UNL     1      -7.394  -2.745   3.491  1.00  0.00     0.006 C 
BRANCH   5   6
ATOM      6  C   UNL     1      -6.423  -1.885   2.670  1.00  0.00     0.053 C 
BRANCH   6   7
ATOM      7  C   UNL     1      -6.697  -2.044   1.208  1.00  0.00     0.041 C 
ATOM      8  O   UNL     1      -7.871  -1.928   0.767  1.00  0.00    -0.550 OA
ATOM      9  O   UNL     1      -5.649  -2.270   0.325  1.00  0.00    -0.550 OA
ENDBRANCH   6   7
ENDBRANCH   5   6
ENDBRANCH   4   5
ENDBRANCH   3   4
ENDBRANCH   2   3
ENDBRANCH   1   2
BRANCH   1  10
ATOM     10  C   UNL     1      -7.218  -6.939  -0.202  1.00  0.00     0.000 C 
BRANCH  10  11
ATOM     11  C   UNL     1      -6.796  -8.287   0.406  1.00  0.00    -0.000 C 
BRANCH  11  12
ATOM     12  C   UNL     1      -6.634  -8.225   1.933  1.00  0.00    -0.000 C 
BRANCH  12  13
ATOM     13  C   UNL     1      -5.400  -8.992   2.433  1.00  0.00    -0.000 C 
BRANCH  13  14
ATOM     14  C   UNL     1      -5.115  -8.670   3.906  1.00  0.00    -0.000 C 
BRANCH  14  15
ATOM     15  C   UNL     1      -5.499  -7.219   4.236  1.00  0.00    -0.000 C 
BRANCH  15  16
ATOM     16  C   UNL     1      -6.347  -7.110   5.512  1.00  0.00    -0.003 C 
ATOM     17  C   UNL     1      -6.228  -8.340   6.410  1.00  0.00     0.004 C 
ENDBRANCH  15  16
ENDBRANCH  14  15
ENDBRANCH  13  14
ENDBRANCH  12  13
ENDBRANCH  11  12
ENDBRANCH  10  11
ENDBRANCH   1  10
TORSDOF 13
ENDMDL
