MODEL 1
REMARK VINA RESULT:    -2.715      0.000      0.000
REMARK INTER + INTRA:          -3.754
REMARK INTER:                  -3.508
REMARK INTRA:                  -0.246
REMARK UNBOUND:                -0.246
REMARK SMILES CCCCCCC=O
REMARK SMILES IDX 4 1 3 2 2 3 1 4 5 5 6 6 7 7 8 8
REMARK H PARENT
REMARK Flexibility Score: inf
ROOT
ATOM      1  C   UNL     1     148.728 149.627 144.776  1.00  0.00     0.000 C 
ENDROOT
BRANCH   1   2
ATOM      2  C   UNL     1     149.930 149.011 145.511  1.00  0.00    -0.000 C 
BRANCH   2   3
ATOM      3  C   UNL     1     151.233 149.126 144.705  1.00  0.00    -0.003 C 
ATOM      4  C   UNL     1     152.390 149.698 145.526  1.00  0.00     0.004 C 
ENDBRANCH   2   3
ENDBRANCH   1   2
BRANCH   1   5
ATOM      5  C   UNL     1     148.087 150.791 145.557  1.00  0.00     0.008 C 
BRANCH   5   6
ATOM      6  C   UNL     1     149.097 151.802 146.124  1.00  0.00     0.072 C 
BRANCH   6   7
ATOM      7  C   UNL     1     149.404 152.906 145.155  1.00  0.00     0.224 C 
ATOM      8  O   UNL     1     150.404 153.591 145.295  1.00  0.00    -0.303 OA
ENDBRANCH   6   7
ENDBRANCH   5   6
ENDBRANCH   1   5
TORSDOF 5
ENDMDL
MODEL 2
REMARK VINA RESULT:    -2.457      3.019      4.322
REMARK INTER + INTRA:          -3.421
REMARK INTER:                  -3.223
REMARK INTRA:                  -0.198
REMARK UNBOUND:                -0.246
REMARK SMILES CCCCCCC=O
REMARK SMILES IDX 4 1 3 2 2 3 1 4 5 5 6 6 7 7 8 8
REMARK H PARENT
REMARK Flexibility Score: inf
ROOT
ATOM      1  C   UNL     1     150.723 150.756 145.269  1.00  0.00     0.000 C 
ENDROOT
BRANCH   1   2
ATOM      2  C   UNL     1     151.099 151.119 143.822  1.00  0.00    -0.000 C 
BRANCH   2   3
ATOM      3  C   UNL     1     150.340 150.272 142.789  1.00  0.00    -0.003 C 
ATOM      4  C   UNL     1     150.778 150.557 141.351  1.00  0.00     0.004 C 
ENDBRANCH   2   3
ENDBRANCH   1   2
BRANCH   1   5
ATOM      5  C   UNL     1     151.929 150.255 146.087  1.00  0.00     0.008 C 
BRANCH   5   6
ATOM      6  C   UNL     1     152.516 148.922 145.595  1.00  0.00     0.072 C 
BRANCH   6   7
ATOM      7  C   UNL     1     151.742 147.738 146.096  1.00  0.00     0.224 C 
ATOM      8  O   UNL     1     150.821 147.279 145.440  1.00  0.00    -0.303 OA
ENDBRANCH   6   7
ENDBRANCH   5   6
ENDBRANCH   1   5
TORSDOF 5
ENDMDL
MODEL 3
REMARK VINA RESULT:    -2.444      2.985      3.753
REMARK INTER + INTRA:          -3.404
REMARK INTER:                  -3.188
REMARK INTRA:                  -0.216
REMARK UNBOUND:                -0.246
REMARK SMILES CCCCCCC=O
REMARK SMILES IDX 4 1 3 2 2 3 1 4 5 5 6 6 7 7 8 8
REMARK H PARENT
REMARK Flexibility Score: inf
ROOT
ATOM      1  C   UNL     1     150.898 151.277 145.416  1.00  0.00     0.000 C 
ENDROOT
BRANCH   1   2
ATOM      2  C   UNL     1     151.680 152.577 145.670  1.00  0.00    -0.000 C 
BRANCH   2   3
ATOM      3  C   UNL     1     153.167 152.321 145.963  1.00  0.00    -0.003 C 
ATOM      4  C   UNL     1     153.620 150.920 145.549  1.00  0.00     0.004 C 
ENDBRANCH   2   3
ENDBRANCH   1   2
BRANCH   1   5
ATOM      5  C   UNL     1     150.207 151.259 144.039  1.00  0.00     0.008 C 
BRANCH   5   6
ATOM      6  C   UNL     1     150.917 150.389 142.988  1.00  0.00     0.072 C 
BRANCH   6   7
ATOM      7  C   UNL     1     150.315 150.541 141.622  1.00  0.00     0.224 C 
ATOM      8  O   UNL     1     151.017 150.829 140.666  1.00  0.00    -0.303 OA
ENDBRANCH   6   7
ENDBRANCH   5   6
ENDBRANCH   1   5
TORSDOF 5
ENDMDL
MODEL 4
REMARK VINA RESULT:    -2.278     10.272     11.377
REMARK INTER + INTRA:          -3.190
REMARK INTER:                  -2.893
REMARK INTRA:                  -0.296
REMARK UNBOUND:                -0.246
REMARK SMILES CCCCCCC=O
REMARK SMILES IDX 4 1 3 2 2 3 1 4 5 5 6 6 7 7 8 8
REMARK H PARENT
REMARK Flexibility Score: inf
ROOT
ATOM      1  C   UNL     1     153.910 143.880 139.754  1.00  0.00     0.000 C 
ENDROOT
BRANCH   1   2
ATOM      2  C   UNL     1     154.971 144.677 138.976  1.00  0.00    -0.000 C 
BRANCH   2   3
ATOM      3  C   UNL     1     154.701 144.693 137.463  1.00  0.00    -0.003 C 
ATOM      4  C   UNL     1     154.691 143.294 136.847  1.00  0.00     0.004 C 
ENDBRANCH   2   3
ENDBRANCH   1   2
BRANCH   1   5
ATOM      5  C   UNL     1     154.503 142.663 140.490  1.00  0.00     0.008 C 
BRANCH   5   6
ATOM      6  C   UNL     1     153.900 141.314 140.067  1.00  0.00     0.072 C 
BRANCH   6   7
ATOM      7  C   UNL     1     152.526 141.461 139.483  1.00  0.00     0.224 C 
ATOM      8  O   UNL     1     151.540 141.167 140.139  1.00  0.00    -0.303 OA
ENDBRANCH   6   7
ENDBRANCH   5   6
ENDBRANCH   1   5
TORSDOF 5
ENDMDL
MODEL 5
REMARK VINA RESULT:    -2.232      8.019      9.661
REMARK INTER + INTRA:          -3.130
REMARK INTER:                  -2.763
REMARK INTRA:                  -0.367
REMARK UNBOUND:                -0.246
REMARK SMILES CCCCCCC=O
REMARK SMILES IDX 4 1 3 2 2 3 1 4 5 5 6 6 7 7 8 8
REMARK H PARENT
REMARK Flexibility Score: inf
ROOT
ATOM      1  C   UNL     1     147.764 158.642 138.882  1.00  0.00     0.000 C 
ENDROOT
BRANCH   1   2
ATOM      2  C   UNL     1     146.875 157.765 139.781  1.00  0.00    -0.000 C 
BRANCH   2   3
ATOM      3  C   UNL     1     146.378 156.502 139.060  1.00  0.00    -0.003 C 
ATOM      4  C   UNL     1     146.463 156.614 137.538  1.00  0.00     0.004 C 
ENDBRANCH   2   3
ENDBRANCH   1   2
BRANCH   1   5
ATOM      5  C   UNL     1     149.236 158.657 139.337  1.00  0.00     0.008 C 
BRANCH   5   6
ATOM      6  C   UNL     1     150.040 157.416 138.914  1.00  0.00     0.072 C 
BRANCH   6   7
ATOM      7  C   UNL     1     150.412 156.552 140.084  1.00  0.00     0.224 C 
ATOM      8  O   UNL     1     149.635 155.710 140.502  1.00  0.00    -0.303 OA
ENDBRANCH   6   7
ENDBRANCH   5   6
ENDBRANCH   1   5
TORSDOF 5
ENDMDL
MODEL 6
REMARK VINA RESULT:    -2.228      8.835     10.132
REMARK INTER + INTRA:          -3.126
REMARK INTER:                  -2.852
REMARK INTRA:                  -0.274
REMARK UNBOUND:                -0.246
REMARK SMILES CCCCCCC=O
REMARK SMILES IDX 4 1 3 2 2 3 1 4 5 5 6 6 7 7 8 8
REMARK H PARENT
REMARK Flexibility Score: inf
ROOT
ATOM      1  C   UNL     1     156.501 154.308 138.991  1.00  0.00     0.000 C 
ENDROOT
BRANCH   1   2
ATOM      2  C   UNL     1     157.658 154.317 140.005  1.00  0.00    -0.000 C 
BRANCH   2   3
ATOM      3  C   UNL     1     159.003 153.940 139.364  1.00  0.00    -0.003 C 
ATOM      4  C   UNL     1     160.164 153.975 140.359  1.00  0.00     0.004 C 
ENDBRANCH   2   3
ENDBRANCH   1   2
BRANCH   1   5
ATOM      5  C   UNL     1     155.809 152.935 138.891  1.00  0.00     0.008 C 
BRANCH   5   6
ATOM      6  C   UNL     1     155.880 152.097 140.178  1.00  0.00     0.072 C 
BRANCH   6   7
ATOM      7  C   UNL     1     156.612 150.803 139.977  1.00  0.00     0.224 C 
ATOM      8  O   UNL     1     157.493 150.716 139.136  1.00  0.00    -0.303 OA
ENDBRANCH   6   7
ENDBRANCH   5   6
ENDBRANCH   1   5
TORSDOF 5
ENDMDL
MODEL 7
REMARK VINA RESULT:    -2.203      8.358      9.829
REMARK INTER + INTRA:          -3.092
REMARK INTER:                  -2.722
REMARK INTRA:                  -0.370
REMARK UNBOUND:                -0.246
REMARK SMILES CCCCCCC=O
REMARK SMILES IDX 4 1 3 2 2 3 1 4 5 5 6 6 7 7 8 8
REMARK H PARENT
REMARK Flexibility Score: inf
ROOT
ATOM      1  C   UNL     1     153.507 142.620 138.951  1.00  0.00     0.000 C 
ENDROOT
BRANCH   1   2
ATOM      2  C   UNL     1     154.434 143.505 139.802  1.00  0.00    -0.000 C 
BRANCH   2   3
ATOM      3  C   UNL     1     154.887 144.769 139.055  1.00  0.00    -0.003 C 
ATOM      4  C   UNL     1     154.798 144.625 137.536  1.00  0.00     0.004 C 
ENDBRANCH   2   3
ENDBRANCH   1   2
BRANCH   1   5
ATOM      5  C   UNL     1     152.036 142.690 139.407  1.00  0.00     0.008 C 
BRANCH   5   6
ATOM      6  C   UNL     1     151.253 143.882 138.834  1.00  0.00     0.072 C 
BRANCH   6   7
ATOM      7  C   UNL     1     150.811 144.840 139.901  1.00  0.00     0.224 C 
ATOM      8  O   UNL     1     151.633 145.474 140.542  1.00  0.00    -0.303 OA
ENDBRANCH   6   7
ENDBRANCH   5   6
ENDBRANCH   1   5
TORSDOF 5
ENDMDL
MODEL 8
REMARK VINA RESULT:    -2.185      7.635      8.763
REMARK INTER + INTRA:          -3.069
REMARK INTER:                  -2.683
REMARK INTRA:                  -0.386
REMARK UNBOUND:                -0.246
REMARK SMILES CCCCCCC=O
REMARK SMILES IDX 4 1 3 2 2 3 1 4 5 5 6 6 7 7 8 8
REMARK H PARENT
REMARK Flexibility Score: inf
ROOT
ATOM      1  C   UNL     1     142.981 148.930 138.561  1.00  0.00     0.000 C 
ENDROOT
BRANCH   1   2
ATOM      2  C   UNL     1     142.343 147.811 139.402  1.00  0.00    -0.000 C 
BRANCH   2   3
ATOM      3  C   UNL     1     143.388 146.854 139.997  1.00  0.00    -0.003 C 
ATOM      4  C   UNL     1     144.453 146.434 138.983  1.00  0.00     0.004 C 
ENDBRANCH   2   3
ENDBRANCH   1   2
BRANCH   1   5
ATOM      5  C   UNL     1     143.279 150.196 139.387  1.00  0.00     0.008 C 
BRANCH   5   6
ATOM      6  C   UNL     1     144.704 150.746 139.208  1.00  0.00     0.072 C 
BRANCH   6   7
ATOM      7  C   UNL     1     145.747 149.808 139.742  1.00  0.00     0.224 C 
ATOM      8  O   UNL     1     145.714 149.444 140.906  1.00  0.00    -0.303 OA
ENDBRANCH   6   7
ENDBRANCH   5   6
ENDBRANCH   1   5
TORSDOF 5
ENDMDL
MODEL 9
REMARK VINA RESULT:    -2.175      7.645      8.765
REMARK INTER + INTRA:          -3.057
REMARK INTER:                  -2.666
REMARK INTRA:                  -0.390
REMARK UNBOUND:                -0.246
REMARK SMILES CCCCCCC=O
REMARK SMILES IDX 4 1 3 2 2 3 1 4 5 5 6 6 7 7 8 8
REMARK H PARENT
REMARK Flexibility Score: inf
ROOT
ATOM      1  C   UNL     1     145.648 148.648 138.775  1.00  0.00     0.000 C 
ENDROOT
BRANCH   1   2
ATOM      2  C   UNL     1     145.339 147.155 138.981  1.00  0.00    -0.000 C 
BRANCH   2   3
ATOM      3  C   UNL     1     143.851 146.830 138.781  1.00  0.00    -0.003 C 
ATOM      4  C   UNL     1     143.061 146.836 140.090  1.00  0.00     0.004 C 
ENDBRANCH   2   3
ENDBRANCH   1   2
BRANCH   1   5
ATOM      5  C   UNL     1     145.652 149.442 140.096  1.00  0.00     0.008 C 
BRANCH   5   6
ATOM      6  C   UNL     1     144.648 150.605 140.137  1.00  0.00     0.072 C 
BRANCH   6   7
ATOM      7  C   UNL     1     143.637 150.525 139.031  1.00  0.00     0.224 C 
ATOM      8  O   UNL     1     142.475 150.243 139.275  1.00  0.00    -0.303 OA
ENDBRANCH   6   7
ENDBRANCH   5   6
ENDBRANCH   1   5
TORSDOF 5
ENDMDL
