MODEL 1
REMARK VINA RESULT:    -4.401      0.000      0.000
REMARK INTER + INTRA:          -5.100
REMARK INTER:                  -5.044
REMARK INTRA:                  -0.056
REMARK UNBOUND:                -0.056
REMARK SMILES COc1cc(C=O)ccc1O
REMARK SMILES IDX 3 1 10 2 9 3 8 4 5 5 4 6 2 7 1 8 11 9 6 11 7 12
REMARK H PARENT 11 10
REMARK Flexibility Score: inf
ROOT
ATOM      1  C   UNL     1     116.762 119.560 118.947  1.00  0.00     0.161 A 
ATOM      2  C   UNL     1     116.829 118.325 119.605  1.00  0.00     0.157 A 
ATOM      3  C   UNL     1     117.633 117.298 119.093  1.00  0.00     0.051 A 
ATOM      4  C   UNL     1     118.373 117.498 117.927  1.00  0.00     0.015 A 
ATOM      5  C   UNL     1     118.318 118.731 117.256  1.00  0.00     0.018 A 
ATOM      6  C   UNL     1     117.511 119.758 117.770  1.00  0.00     0.062 A 
ENDROOT
BRANCH   1   7
ATOM      7  O   UNL     1     115.944 120.563 119.491  1.00  0.00    -0.493 OA
ATOM      8  C   UNL     1     116.389 121.557 120.408  1.00  0.00     0.278 C 
ENDBRANCH   1   7
BRANCH   2   9
ATOM      9  O   UNL     1     116.090 118.124 120.770  1.00  0.00    -0.504 OA
ATOM     10  H   UNL     1     116.527 118.133 121.684  1.00  0.00     0.293 HD
ENDBRANCH   2   9
BRANCH   5  11
ATOM     11  C   UNL     1     119.093 118.960 116.023  1.00  0.00     0.260 C 
ATOM     12  O   UNL     1     118.617 118.676 114.892  1.00  0.00    -0.298 OA
ENDBRANCH   5  11
TORSDOF 3
ENDMDL
MODEL 2
REMARK VINA RESULT:    -4.386      2.540      2.963
REMARK INTER + INTRA:          -5.083
REMARK INTER:                  -5.020
REMARK INTRA:                  -0.063
REMARK UNBOUND:                -0.056
REMARK SMILES COc1cc(C=O)ccc1O
REMARK SMILES IDX 3 1 10 2 9 3 8 4 5 5 4 6 2 7 1 8 11 9 6 11 7 12
REMARK H PARENT 11 10
REMARK Flexibility Score: inf
ROOT
ATOM      1  C   UNL     1     119.528 120.814 118.977  1.00  0.00     0.161 A 
ATOM      2  C   UNL     1     118.303 120.691 119.646  1.00  0.00     0.157 A 
ATOM      3  C   UNL     1     117.299 119.863 119.127  1.00  0.00     0.051 A 
ATOM      4  C   UNL     1     117.512 119.154 117.944  1.00  0.00     0.015 A 
ATOM      5  C   UNL     1     118.734 119.265 117.262  1.00  0.00     0.018 A 
ATOM      6  C   UNL     1     119.739 120.096 117.782  1.00  0.00     0.062 A 
ENDROOT
BRANCH   1   7
ATOM      7  O   UNL     1     120.509 121.654 119.527  1.00  0.00    -0.493 OA
ATOM      8  C   UNL     1     121.556 121.216 120.387  1.00  0.00     0.278 C 
ENDBRANCH   1   7
BRANCH   2   9
ATOM      9  O   UNL     1     118.089 121.399 120.828  1.00  0.00    -0.504 OA
ATOM     10  H   UNL     1     118.814 121.976 121.239  1.00  0.00     0.293 HD
ENDBRANCH   2   9
BRANCH   5  11
ATOM     11  C   UNL     1     118.976 118.524 116.011  1.00  0.00     0.260 C 
ATOM     12  O   UNL     1     118.609 118.986 114.898  1.00  0.00    -0.298 OA
ENDBRANCH   5  11
TORSDOF 3
ENDMDL
MODEL 3
REMARK VINA RESULT:    -4.382      2.566      3.024
REMARK INTER + INTRA:          -5.078
REMARK INTER:                  -5.014
REMARK INTRA:                  -0.064
REMARK UNBOUND:                -0.056
REMARK SMILES COc1cc(C=O)ccc1O
REMARK SMILES IDX 3 1 10 2 9 3 8 4 5 5 4 6 2 7 1 8 11 9 6 11 7 12
REMARK H PARENT 11 10
REMARK Flexibility Score: inf
ROOT
ATOM      1  C   UNL     1     118.056 116.748 118.965  1.00  0.00     0.161 A 
ATOM      2  C   UNL     1     119.289 116.808 119.628  1.00  0.00     0.157 A 
ATOM      3  C   UNL     1     120.317 117.618 119.128  1.00  0.00     0.051 A 
ATOM      4  C   UNL     1     120.121 118.369 117.968  1.00  0.00     0.015 A 
ATOM      5  C   UNL     1     118.892 118.321 117.293  1.00  0.00     0.018 A 
ATOM      6  C   UNL     1     117.862 117.509 117.795  1.00  0.00     0.062 A 
ENDROOT
BRANCH   1   7
ATOM      7  O   UNL     1     117.051 115.925 119.497  1.00  0.00    -0.493 OA
ATOM      8  C   UNL     1     116.020 116.373 120.372  1.00  0.00     0.278 C 
ENDBRANCH   1   7
BRANCH   2   9
ATOM      9  O   UNL     1     119.486 116.058 120.786  1.00  0.00    -0.504 OA
ATOM     10  H   UNL     1     120.165 115.306 120.823  1.00  0.00     0.293 HD
ENDBRANCH   2   9
BRANCH   5  11
ATOM     11  C   UNL     1     118.667 119.108 116.066  1.00  0.00     0.260 C 
ATOM     12  O   UNL     1     118.857 118.607 114.926  1.00  0.00    -0.298 OA
ENDBRANCH   5  11
TORSDOF 3
ENDMDL
MODEL 4
REMARK VINA RESULT:    -4.363      3.196      4.198
REMARK INTER + INTRA:          -5.057
REMARK INTER:                  -4.985
REMARK INTRA:                  -0.071
REMARK UNBOUND:                -0.056
REMARK SMILES COc1cc(C=O)ccc1O
REMARK SMILES IDX 3 1 10 2 9 3 8 4 5 5 4 6 2 7 1 8 11 9 6 11 7 12
REMARK H PARENT 11 10
REMARK Flexibility Score: inf
ROOT
ATOM      1  C   UNL     1     120.789 118.132 118.990  1.00  0.00     0.161 A 
ATOM      2  C   UNL     1     120.653 119.369 119.635  1.00  0.00     0.157 A 
ATOM      3  C   UNL     1     119.824 120.359 119.089  1.00  0.00     0.051 A 
ATOM      4  C   UNL     1     119.129 120.120 117.903  1.00  0.00     0.015 A 
ATOM      5  C   UNL     1     119.253 118.885 117.245  1.00  0.00     0.018 A 
ATOM      6  C   UNL     1     120.084 117.895 117.793  1.00  0.00     0.062 A 
ENDROOT
BRANCH   1   7
ATOM      7  O   UNL     1     121.628 117.166 119.568  1.00  0.00    -0.493 OA
ATOM      8  C   UNL     1     121.176 116.084 120.376  1.00  0.00     0.278 C 
ENDBRANCH   1   7
BRANCH   2   9
ATOM      9  O   UNL     1     121.347 119.609 120.819  1.00  0.00    -0.504 OA
ATOM     10  H   UNL     1     121.020 119.248 121.708  1.00  0.00     0.293 HD
ENDBRANCH   2   9
BRANCH   5  11
ATOM     11  C   UNL     1     118.526 118.615 115.991  1.00  0.00     0.260 C 
ATOM     12  O   UNL     1     118.992 118.976 114.877  1.00  0.00    -0.298 OA
ENDBRANCH   5  11
TORSDOF 3
ENDMDL
MODEL 5
REMARK VINA RESULT:    -4.077      2.735      2.865
REMARK INTER + INTRA:          -4.728
REMARK INTER:                  -4.661
REMARK INTRA:                  -0.067
REMARK UNBOUND:                -0.056
REMARK SMILES COc1cc(C=O)ccc1O
REMARK SMILES IDX 3 1 10 2 9 3 8 4 5 5 4 6 2 7 1 8 11 9 6 11 7 12
REMARK H PARENT 11 10
REMARK Flexibility Score: inf
ROOT
ATOM      1  C   UNL     1     119.671 119.787 119.724  1.00  0.00     0.161 A 
ATOM      2  C   UNL     1     120.608 118.765 119.932  1.00  0.00     0.157 A 
ATOM      3  C   UNL     1     120.851 117.818 118.928  1.00  0.00     0.051 A 
ATOM      4  C   UNL     1     120.164 117.886 117.715  1.00  0.00     0.015 A 
ATOM      5  C   UNL     1     119.223 118.904 117.490  1.00  0.00     0.018 A 
ATOM      6  C   UNL     1     118.981 119.852 118.497  1.00  0.00     0.062 A 
ENDROOT
BRANCH   1   7
ATOM      7  O   UNL     1     119.456 120.716 120.754  1.00  0.00    -0.493 OA
ATOM      8  C   UNL     1     118.429 120.609 121.735  1.00  0.00     0.278 C 
ENDBRANCH   1   7
BRANCH   2   9
ATOM      9  O   UNL     1     121.294 118.696 121.144  1.00  0.00    -0.504 OA
ATOM     10  H   UNL     1     122.293 118.524 121.179  1.00  0.00     0.293 HD
ENDBRANCH   2   9
BRANCH   5  11
ATOM     11  C   UNL     1     118.489 118.992 116.215  1.00  0.00     0.260 C 
ATOM     12  O   UNL     1     119.024 118.640 115.129  1.00  0.00    -0.298 OA
ENDBRANCH   5  11
TORSDOF 3
ENDMDL
MODEL 6
REMARK VINA RESULT:    -4.070      2.664      2.874
REMARK INTER + INTRA:          -4.721
REMARK INTER:                  -4.654
REMARK INTRA:                  -0.067
REMARK UNBOUND:                -0.056
REMARK SMILES COc1cc(C=O)ccc1O
REMARK SMILES IDX 3 1 10 2 9 3 8 4 5 5 4 6 2 7 1 8 11 9 6 11 7 12
REMARK H PARENT 11 10
REMARK Flexibility Score: inf
ROOT
ATOM      1  C   UNL     1     119.769 117.962 119.691  1.00  0.00     0.161 A 
ATOM      2  C   UNL     1     118.750 117.022 119.899  1.00  0.00     0.157 A 
ATOM      3  C   UNL     1     117.799 116.783 118.898  1.00  0.00     0.051 A 
ATOM      4  C   UNL     1     117.859 117.478 117.689  1.00  0.00     0.015 A 
ATOM      5  C   UNL     1     118.874 118.423 117.465  1.00  0.00     0.018 A 
ATOM      6  C   UNL     1     119.826 118.661 118.469  1.00  0.00     0.062 A 
ENDROOT
BRANCH   1   7
ATOM      7  O   UNL     1     120.703 118.173 120.718  1.00  0.00    -0.493 OA
ATOM      8  C   UNL     1     120.602 119.197 121.702  1.00  0.00     0.278 C 
ENDBRANCH   1   7
BRANCH   2   9
ATOM      9  O   UNL     1     118.689 116.327 121.106  1.00  0.00    -0.504 OA
ATOM     10  H   UNL     1     118.070 115.534 121.231  1.00  0.00     0.293 HD
ENDBRANCH   2   9
BRANCH   5  11
ATOM     11  C   UNL     1     118.953 119.166 116.194  1.00  0.00     0.260 C 
ATOM     12  O   UNL     1     118.632 118.625 115.102  1.00  0.00    -0.298 OA
ENDBRANCH   5  11
TORSDOF 3
ENDMDL
MODEL 7
REMARK VINA RESULT:    -4.059      1.994      2.645
REMARK INTER + INTRA:          -4.708
REMARK INTER:                  -4.633
REMARK INTRA:                  -0.075
REMARK UNBOUND:                -0.056
REMARK SMILES COc1cc(C=O)ccc1O
REMARK SMILES IDX 3 1 10 2 9 3 8 4 5 5 4 6 2 7 1 8 11 9 6 11 7 12
REMARK H PARENT 11 10
REMARK Flexibility Score: inf
ROOT
ATOM      1  C   UNL     1     117.917 119.635 119.785  1.00  0.00     0.161 A 
ATOM      2  C   UNL     1     118.902 120.613 119.981  1.00  0.00     0.157 A 
ATOM      3  C   UNL     1     119.835 120.883 118.970  1.00  0.00     0.051 A 
ATOM      4  C   UNL     1     119.789 120.183 117.764  1.00  0.00     0.015 A 
ATOM      5  C   UNL     1     118.807 119.202 117.551  1.00  0.00     0.018 A 
ATOM      6  C   UNL     1     117.874 118.932 118.564  1.00  0.00     0.062 A 
ENDROOT
BRANCH   1   7
ATOM      7  O   UNL     1     117.001 119.393 120.821  1.00  0.00    -0.493 OA
ATOM      8  C   UNL     1     117.096 118.313 121.744  1.00  0.00     0.278 C 
ENDBRANCH   1   7
BRANCH   2   9
ATOM      9  O   UNL     1     118.950 121.312 121.186  1.00  0.00    -0.504 OA
ATOM     10  H   UNL     1     118.504 122.216 121.292  1.00  0.00     0.293 HD
ENDBRANCH   2   9
BRANCH   5  11
ATOM     11  C   UNL     1     118.743 118.453 116.282  1.00  0.00     0.260 C 
ATOM     12  O   UNL     1     118.901 119.033 115.175  1.00  0.00    -0.298 OA
ENDBRANCH   5  11
TORSDOF 3
ENDMDL
MODEL 8
REMARK VINA RESULT:    -4.056      1.318      2.630
REMARK INTER + INTRA:          -4.704
REMARK INTER:                  -4.631
REMARK INTRA:                  -0.074
REMARK UNBOUND:                -0.056
REMARK SMILES COc1cc(C=O)ccc1O
REMARK SMILES IDX 3 1 10 2 9 3 8 4 5 5 4 6 2 7 1 8 11 9 6 11 7 12
REMARK H PARENT 11 10
REMARK Flexibility Score: inf
ROOT
ATOM      1  C   UNL     1     118.019 117.889 119.749  1.00  0.00     0.161 A 
ATOM      2  C   UNL     1     117.069 118.901 119.947  1.00  0.00     0.157 A 
ATOM      3  C   UNL     1     116.819 119.839 118.937  1.00  0.00     0.051 A 
ATOM      4  C   UNL     1     117.512 119.772 117.727  1.00  0.00     0.015 A 
ATOM      5  C   UNL     1     118.466 118.765 117.512  1.00  0.00     0.018 A 
ATOM      6  C   UNL     1     118.715 117.826 118.526  1.00  0.00     0.062 A 
ENDROOT
BRANCH   1   7
ATOM      7  O   UNL     1     118.241 116.969 120.785  1.00  0.00    -0.493 OA
ATOM      8  C   UNL     1     119.311 117.051 121.721  1.00  0.00     0.278 C 
ENDBRANCH   1   7
BRANCH   2   9
ATOM      9  O   UNL     1     116.376 118.968 121.155  1.00  0.00    -0.504 OA
ATOM     10  H   UNL     1     116.840 118.810 122.043  1.00  0.00     0.293 HD
ENDBRANCH   2   9
BRANCH   5  11
ATOM     11  C   UNL     1     119.207 118.679 116.240  1.00  0.00     0.260 C 
ATOM     12  O   UNL     1     118.628 118.857 115.135  1.00  0.00    -0.298 OA
ENDBRANCH   5  11
TORSDOF 3
ENDMDL
MODEL 9
REMARK VINA RESULT:    -3.820      3.013      4.112
REMARK INTER + INTRA:          -4.434
REMARK INTER:                  -4.379
REMARK INTRA:                  -0.056
REMARK UNBOUND:                -0.056
REMARK SMILES COc1cc(C=O)ccc1O
REMARK SMILES IDX 3 1 10 2 9 3 8 4 5 5 4 6 2 7 1 8 11 9 6 11 7 12
REMARK H PARENT 11 10
REMARK Flexibility Score: inf
ROOT
ATOM      1  C   UNL     1     119.354 117.576 119.378  1.00  0.00     0.161 A 
ATOM      2  C   UNL     1     118.144 117.512 118.673  1.00  0.00     0.157 A 
ATOM      3  C   UNL     1     117.625 118.662 118.063  1.00  0.00     0.051 A 
ATOM      4  C   UNL     1     118.307 119.876 118.153  1.00  0.00     0.015 A 
ATOM      5  C   UNL     1     119.521 119.956 118.854  1.00  0.00     0.018 A 
ATOM      6  C   UNL     1     120.040 118.803 119.465  1.00  0.00     0.062 A 
ENDROOT
BRANCH   1   7
ATOM      7  O   UNL     1     119.841 116.403 119.975  1.00  0.00    -0.493 OA
ATOM      8  C   UNL     1     121.186 116.215 120.406  1.00  0.00     0.278 C 
ENDBRANCH   1   7
BRANCH   2   9
ATOM      9  O   UNL     1     117.462 116.300 118.583  1.00  0.00    -0.504 OA
ATOM     10  H   UNL     1     116.484 116.260 118.319  1.00  0.00     0.293 HD
ENDBRANCH   2   9
BRANCH   5  11
ATOM     11  C   UNL     1     120.255 121.231 118.959  1.00  0.00     0.260 C 
ATOM     12  O   UNL     1     121.159 121.392 119.822  1.00  0.00    -0.298 OA
ENDBRANCH   5  11
TORSDOF 3
ENDMDL
