MODEL 1
REMARK VINA RESULT:    -5.908      0.000      0.000
REMARK INTER + INTRA:          -7.065
REMARK INTER:                  -6.944
REMARK INTRA:                  -0.121
REMARK UNBOUND:                -0.121
REMARK SMILES O=C([O-])C=Cc1ccc(O)c(O)c1
REMARK SMILES IDX 6 1 13 2 7 3 11 4 8 5 9 6 5 7 4 8 2 9 1 10 3 11 12 12 10 14
REMARK H PARENT 12 13 10 15
REMARK Flexibility Score: inf
ROOT
ATOM      1  C   UNL     1      81.882  62.928   9.084  1.00  0.00    -0.022 A 
ATOM      2  C   UNL     1      83.274  62.952   9.311  1.00  0.00     0.058 A 
ATOM      3  C   UNL     1      81.019  63.305  10.126  1.00  0.00     0.012 A 
ATOM      4  C   UNL     1      83.786  63.370  10.548  1.00  0.00     0.157 A 
ATOM      5  C   UNL     1      81.530  63.724  11.357  1.00  0.00     0.051 A 
ATOM      6  C   UNL     1      82.913  63.760  11.571  1.00  0.00     0.157 A 
ENDROOT
BRANCH   1   7
ATOM      7  C   UNL     1      81.291  62.482   7.797  1.00  0.00     0.010 C 
ATOM      8  C   UNL     1      81.738  62.876   6.596  1.00  0.00     0.025 C 
BRANCH   8   9
ATOM      9  C   UNL     1      81.118  62.422   5.341  1.00  0.00     0.064 C 
ATOM     10  O   UNL     1      81.054  61.197   5.049  1.00  0.00    -0.545 OA
ATOM     11  O   UNL     1      80.596  63.360   4.460  1.00  0.00    -0.545 OA
ENDBRANCH   8   9
ENDBRANCH   1   7
BRANCH   4  12
ATOM     12  O   UNL     1      85.162  63.398  10.769  1.00  0.00    -0.504 OA
ATOM     13  H   UNL     1      85.784  62.729  10.329  1.00  0.00     0.293 HD
ENDBRANCH   4  12
BRANCH   6  14
ATOM     14  O   UNL     1      83.427  64.178  12.797  1.00  0.00    -0.504 OA
ATOM     15  H   UNL     1      83.447  65.158  13.057  1.00  0.00     0.293 HD
ENDBRANCH   6  14
TORSDOF 4
ENDMDL
MODEL 2
REMARK VINA RESULT:    -5.716      1.354      6.150
REMARK INTER + INTRA:          -6.839
REMARK INTER:                  -6.691
REMARK INTRA:                  -0.148
REMARK UNBOUND:                -0.121
REMARK SMILES O=C([O-])C=Cc1ccc(O)c(O)c1
REMARK SMILES IDX 6 1 13 2 7 3 11 4 8 5 9 6 5 7 4 8 2 9 1 10 3 11 12 12 10 14
REMARK H PARENT 12 13 10 15
REMARK Flexibility Score: inf
ROOT
ATOM      1  C   UNL     1      81.046  62.887   8.237  1.00  0.00    -0.022 A 
ATOM      2  C   UNL     1      79.868  63.177   7.518  1.00  0.00     0.058 A 
ATOM      3  C   UNL     1      82.138  62.330   7.550  1.00  0.00     0.012 A 
ATOM      4  C   UNL     1      79.798  62.936   6.138  1.00  0.00     0.157 A 
ATOM      5  C   UNL     1      82.068  62.093   6.176  1.00  0.00     0.051 A 
ATOM      6  C   UNL     1      80.901  62.397   5.465  1.00  0.00     0.157 A 
ENDROOT
BRANCH   1   7
ATOM      7  C   UNL     1      81.166  63.113   9.699  1.00  0.00     0.010 C 
ATOM      8  C   UNL     1      82.333  63.132  10.356  1.00  0.00     0.025 C 
BRANCH   8   9
ATOM      9  C   UNL     1      82.412  63.347  11.810  1.00  0.00     0.064 C 
ATOM     10  O   UNL     1      82.489  64.508  12.296  1.00  0.00    -0.545 OA
ATOM     11  O   UNL     1      82.404  62.252  12.664  1.00  0.00    -0.545 OA
ENDBRANCH   8   9
ENDBRANCH   1   7
BRANCH   4  12
ATOM     12  O   UNL     1      78.633  63.227   5.429  1.00  0.00    -0.504 OA
ATOM     13  H   UNL     1      78.665  63.637   4.502  1.00  0.00     0.293 HD
ENDBRANCH   4  12
BRANCH   6  14
ATOM     14  O   UNL     1      80.827  62.163   4.094  1.00  0.00    -0.504 OA
ATOM     15  H   UNL     1      80.265  62.747   3.485  1.00  0.00     0.293 HD
ENDBRANCH   6  14
TORSDOF 4
ENDMDL
MODEL 3
REMARK VINA RESULT:    -5.589      1.787      6.117
REMARK INTER + INTRA:          -6.691
REMARK INTER:                  -6.568
REMARK INTRA:                  -0.123
REMARK UNBOUND:                -0.121
REMARK SMILES O=C([O-])C=Cc1ccc(O)c(O)c1
REMARK SMILES IDX 6 1 13 2 7 3 11 4 8 5 9 6 5 7 4 8 2 9 1 10 3 11 12 12 10 14
REMARK H PARENT 12 13 10 15
REMARK Flexibility Score: inf
ROOT
ATOM      1  C   UNL     1      81.170  62.952   8.248  1.00  0.00    -0.022 A 
ATOM      2  C   UNL     1      79.896  63.552   8.301  1.00  0.00     0.058 A 
ATOM      3  C   UNL     1      81.642  62.472   7.014  1.00  0.00     0.012 A 
ATOM      4  C   UNL     1      79.124  63.689   7.138  1.00  0.00     0.157 A 
ATOM      5  C   UNL     1      80.874  62.612   5.856  1.00  0.00     0.051 A 
ATOM      6  C   UNL     1      79.615  63.222   5.913  1.00  0.00     0.157 A 
ENDROOT
BRANCH   1   7
ATOM      7  C   UNL     1      82.020  62.773   9.452  1.00  0.00     0.010 C 
ATOM      8  C   UNL     1      81.697  63.237  10.667  1.00  0.00     0.025 C 
BRANCH   8   9
ATOM      9  C   UNL     1      82.571  63.050  11.836  1.00  0.00     0.064 C 
ATOM     10  O   UNL     1      83.450  63.902  12.138  1.00  0.00    -0.545 OA
ATOM     11  O   UNL     1      82.427  61.914  12.621  1.00  0.00    -0.545 OA
ENDBRANCH   8   9
ENDBRANCH   1   7
BRANCH   4  12
ATOM     12  O   UNL     1      77.865  64.287   7.192  1.00  0.00    -0.504 OA
ATOM     13  H   UNL     1      77.193  64.175   6.442  1.00  0.00     0.293 HD
ENDBRANCH   4  12
BRANCH   6  14
ATOM     14  O   UNL     1      78.846  63.364   4.760  1.00  0.00    -0.504 OA
ATOM     15  H   UNL     1      79.016  64.113   4.098  1.00  0.00     0.293 HD
ENDBRANCH   6  14
TORSDOF 4
ENDMDL
MODEL 4
REMARK VINA RESULT:    -5.378      1.513      5.778
REMARK INTER + INTRA:          -6.442
REMARK INTER:                  -6.290
REMARK INTRA:                  -0.152
REMARK UNBOUND:                -0.121
REMARK SMILES O=C([O-])C=Cc1ccc(O)c(O)c1
REMARK SMILES IDX 6 1 13 2 7 3 11 4 8 5 9 6 5 7 4 8 2 9 1 10 3 11 12 12 10 14
REMARK H PARENT 12 13 10 15
REMARK Flexibility Score: inf
ROOT
ATOM      1  C   UNL     1      81.369  62.806   8.225  1.00  0.00    -0.022 A 
ATOM      2  C   UNL     1      81.506  62.497   6.857  1.00  0.00     0.058 A 
ATOM      3  C   UNL     1      80.093  63.109   8.728  1.00  0.00     0.012 A 
ATOM      4  C   UNL     1      80.382  62.468   6.018  1.00  0.00     0.157 A 
ATOM      5  C   UNL     1      78.974  63.076   7.892  1.00  0.00     0.051 A 
ATOM      6  C   UNL     1      79.113  62.754   6.537  1.00  0.00     0.157 A 
ENDROOT
BRANCH   1   7
ATOM      7  C   UNL     1      82.529  62.862   9.151  1.00  0.00     0.010 C 
ATOM      8  C   UNL     1      82.442  63.254  10.430  1.00  0.00     0.025 C 
BRANCH   8   9
ATOM      9  C   UNL     1      83.617  63.308  11.315  1.00  0.00     0.064 C 
ATOM     10  O   UNL     1      83.510  63.108  12.555  1.00  0.00    -0.545 OA
ATOM     11  O   UNL     1      84.866  63.586  10.775  1.00  0.00    -0.545 OA
ENDBRANCH   8   9
ENDBRANCH   1   7
BRANCH   4  12
ATOM     12  O   UNL     1      80.518  62.157   4.665  1.00  0.00    -0.504 OA
ATOM     13  H   UNL     1      81.348  61.698   4.307  1.00  0.00     0.293 HD
ENDBRANCH   4  12
BRANCH   6  14
ATOM     14  O   UNL     1      78.000  62.720   5.701  1.00  0.00    -0.504 OA
ATOM     15  H   UNL     1      77.899  63.365   4.926  1.00  0.00     0.293 HD
ENDBRANCH   6  14
TORSDOF 4
ENDMDL
MODEL 5
REMARK VINA RESULT:    -5.238      0.982      2.159
REMARK INTER + INTRA:          -6.278
REMARK INTER:                  -6.152
REMARK INTRA:                  -0.126
REMARK UNBOUND:                -0.121
REMARK SMILES O=C([O-])C=Cc1ccc(O)c(O)c1
REMARK SMILES IDX 6 1 13 2 7 3 11 4 8 5 9 6 5 7 4 8 2 9 1 10 3 11 12 12 10 14
REMARK H PARENT 12 13 10 15
REMARK Flexibility Score: inf
ROOT
ATOM      1  C   UNL     1      82.120  62.860   8.831  1.00  0.00    -0.022 A 
ATOM      2  C   UNL     1      81.075  63.240   9.698  1.00  0.00     0.058 A 
ATOM      3  C   UNL     1      83.444  62.920   9.298  1.00  0.00     0.012 A 
ATOM      4  C   UNL     1      81.353  63.647  11.011  1.00  0.00     0.157 A 
ATOM      5  C   UNL     1      83.719  63.323  10.606  1.00  0.00     0.051 A 
ATOM      6  C   UNL     1      82.676  63.685  11.468  1.00  0.00     0.157 A 
ENDROOT
BRANCH   1   7
ATOM      7  C   UNL     1      81.879  62.433   7.430  1.00  0.00     0.010 C 
ATOM      8  C   UNL     1      81.104  63.107   6.568  1.00  0.00     0.025 C 
BRANCH   8   9
ATOM      9  C   UNL     1      80.879  62.647   5.189  1.00  0.00     0.064 C 
ATOM     10  O   UNL     1      80.483  63.439   4.292  1.00  0.00    -0.545 OA
ATOM     11  O   UNL     1      81.106  61.315   4.868  1.00  0.00    -0.545 OA
ENDBRANCH   8   9
ENDBRANCH   1   7
BRANCH   4  12
ATOM     12  O   UNL     1      80.318  64.018  11.869  1.00  0.00    -0.504 OA
ATOM     13  H   UNL     1      80.473  64.655  12.642  1.00  0.00     0.293 HD
ENDBRANCH   4  12
BRANCH   6  14
ATOM     14  O   UNL     1      82.945  64.087  12.774  1.00  0.00    -0.504 OA
ATOM     15  H   UNL     1      83.881  64.039  13.161  1.00  0.00     0.293 HD
ENDBRANCH   6  14
TORSDOF 4
ENDMDL
MODEL 6
REMARK VINA RESULT:    -4.926      2.970      4.463
REMARK INTER + INTRA:          -5.911
REMARK INTER:                  -5.764
REMARK INTRA:                  -0.148
REMARK UNBOUND:                -0.121
REMARK SMILES O=C([O-])C=Cc1ccc(O)c(O)c1
REMARK SMILES IDX 6 1 13 2 7 3 11 4 8 5 9 6 5 7 4 8 2 9 1 10 3 11 12 12 10 14
REMARK H PARENT 12 13 10 15
REMARK Flexibility Score: inf
ROOT
ATOM      1  C   UNL     1      80.062  62.914   6.670  1.00  0.00    -0.022 A 
ATOM      2  C   UNL     1      80.772  63.126   7.869  1.00  0.00     0.058 A 
ATOM      3  C   UNL     1      80.702  62.243   5.614  1.00  0.00     0.012 A 
ATOM      4  C   UNL     1      82.085  62.653   8.013  1.00  0.00     0.157 A 
ATOM      5  C   UNL     1      82.008  61.770   5.759  1.00  0.00     0.051 A 
ATOM      6  C   UNL     1      82.703  61.971   6.957  1.00  0.00     0.157 A 
ENDROOT
BRANCH   1   7
ATOM      7  C   UNL     1      78.677  63.405   6.465  1.00  0.00     0.010 C 
ATOM      8  C   UNL     1      78.152  63.672   5.261  1.00  0.00     0.025 C 
BRANCH   8   9
ATOM      9  C   UNL     1      76.776  64.169   5.097  1.00  0.00     0.064 C 
ATOM     10  O   UNL     1      75.914  63.507   4.459  1.00  0.00    -0.545 OA
ATOM     11  O   UNL     1      76.421  65.391   5.653  1.00  0.00    -0.545 OA
ENDBRANCH   8   9
ENDBRANCH   1   7
BRANCH   4  12
ATOM     12  O   UNL     1      82.784  62.861   9.201  1.00  0.00    -0.504 OA
ATOM     13  H   UNL     1      83.767  63.109   9.202  1.00  0.00     0.293 HD
ENDBRANCH   4  12
BRANCH   6  14
ATOM     14  O   UNL     1      84.006  61.500   7.106  1.00  0.00    -0.504 OA
ATOM     15  H   UNL     1      84.197  60.590   7.509  1.00  0.00     0.293 HD
ENDBRANCH   6  14
TORSDOF 4
ENDMDL
MODEL 7
REMARK VINA RESULT:    -4.898      2.330      3.533
REMARK INTER + INTRA:          -5.879
REMARK INTER:                  -5.753
REMARK INTRA:                  -0.126
REMARK UNBOUND:                -0.121
REMARK SMILES O=C([O-])C=Cc1ccc(O)c(O)c1
REMARK SMILES IDX 6 1 13 2 7 3 11 4 8 5 9 6 5 7 4 8 2 9 1 10 3 11 12 12 10 14
REMARK H PARENT 12 13 10 15
REMARK Flexibility Score: inf
ROOT
ATOM      1  C   UNL     1      81.198  62.858   6.312  1.00  0.00    -0.022 A 
ATOM      2  C   UNL     1      80.236  63.247   7.267  1.00  0.00     0.058 A 
ATOM      3  C   UNL     1      82.483  62.499   6.753  1.00  0.00     0.012 A 
ATOM      4  C   UNL     1      80.550  63.251   8.634  1.00  0.00     0.157 A 
ATOM      5  C   UNL     1      82.793  62.500   8.115  1.00  0.00     0.051 A 
ATOM      6  C   UNL     1      81.829  62.873   9.059  1.00  0.00     0.157 A 
ENDROOT
BRANCH   1   7
ATOM      7  C   UNL     1      80.919  62.849   4.855  1.00  0.00     0.010 C 
ATOM      8  C   UNL     1      80.625  63.948   4.146  1.00  0.00     0.025 C 
BRANCH   8   9
ATOM      9  C   UNL     1      80.342  63.899   2.702  1.00  0.00     0.064 C 
ATOM     10  O   UNL     1      80.938  63.084   1.947  1.00  0.00    -0.545 OA
ATOM     11  O   UNL     1      79.402  64.766   2.161  1.00  0.00    -0.545 OA
ENDBRANCH   8   9
ENDBRANCH   1   7
BRANCH   4  12
ATOM     12  O   UNL     1      79.595  63.632   9.576  1.00  0.00    -0.504 OA
ATOM     13  H   UNL     1      79.059  64.486   9.472  1.00  0.00     0.293 HD
ENDBRANCH   4  12
BRANCH   6  14
ATOM     14  O   UNL     1      82.135  62.875  10.418  1.00  0.00    -0.504 OA
ATOM     15  H   UNL     1      82.706  63.603  10.832  1.00  0.00     0.293 HD
ENDBRANCH   6  14
TORSDOF 4
ENDMDL
MODEL 8
REMARK VINA RESULT:    -4.712      2.466      3.419
REMARK INTER + INTRA:          -5.659
REMARK INTER:                  -5.535
REMARK INTRA:                  -0.124
REMARK UNBOUND:                -0.121
REMARK SMILES O=C([O-])C=Cc1ccc(O)c(O)c1
REMARK SMILES IDX 6 1 13 2 7 3 11 4 8 5 9 6 5 7 4 8 2 9 1 10 3 11 12 12 10 14
REMARK H PARENT 12 13 10 15
REMARK Flexibility Score: inf
ROOT
ATOM      1  C   UNL     1      80.348  63.236   7.407  1.00  0.00    -0.022 A 
ATOM      2  C   UNL     1      79.745  63.638   8.617  1.00  0.00     0.058 A 
ATOM      3  C   UNL     1      81.667  62.752   7.435  1.00  0.00     0.012 A 
ATOM      4  C   UNL     1      80.442  63.532   9.829  1.00  0.00     0.157 A 
ATOM      5  C   UNL     1      82.359  62.645   8.643  1.00  0.00     0.051 A 
ATOM      6  C   UNL     1      81.750  63.032   9.843  1.00  0.00     0.157 A 
ENDROOT
BRANCH   1   7
ATOM      7  C   UNL     1      79.656  63.338   6.098  1.00  0.00     0.010 C 
ATOM      8  C   UNL     1      78.387  63.744   5.955  1.00  0.00     0.025 C 
BRANCH   8   9
ATOM      9  C   UNL     1      77.730  63.822   4.640  1.00  0.00     0.064 C 
ATOM     10  O   UNL     1      76.503  63.566   4.506  1.00  0.00    -0.545 OA
ATOM     11  O   UNL     1      78.476  64.182   3.525  1.00  0.00    -0.545 OA
ENDBRANCH   8   9
ENDBRANCH   1   7
BRANCH   4  12
ATOM     12  O   UNL     1      79.843  63.927  11.025  1.00  0.00    -0.504 OA
ATOM     13  H   UNL     1      80.273  64.616  11.631  1.00  0.00     0.293 HD
ENDBRANCH   4  12
BRANCH   6  14
ATOM     14  O   UNL     1      82.437  62.926  11.051  1.00  0.00    -0.504 OA
ATOM     15  H   UNL     1      83.219  62.291  11.162  1.00  0.00     0.293 HD
ENDBRANCH   6  14
TORSDOF 4
ENDMDL
MODEL 9
REMARK VINA RESULT:    -4.608      3.592      4.978
REMARK INTER + INTRA:          -5.537
REMARK INTER:                  -5.409
REMARK INTRA:                  -0.128
REMARK UNBOUND:                -0.121
REMARK SMILES O=C([O-])C=Cc1ccc(O)c(O)c1
REMARK SMILES IDX 6 1 13 2 7 3 11 4 8 5 9 6 5 7 4 8 2 9 1 10 3 11 12 12 10 14
REMARK H PARENT 12 13 10 15
REMARK Flexibility Score: inf
ROOT
ATOM      1  C   UNL     1      79.798  61.532   7.193  1.00  0.00    -0.022 A 
ATOM      2  C   UNL     1      80.535  62.047   8.279  1.00  0.00     0.058 A 
ATOM      3  C   UNL     1      80.421  61.433   5.937  1.00  0.00     0.012 A 
ATOM      4  C   UNL     1      81.874  62.430   8.113  1.00  0.00     0.157 A 
ATOM      5  C   UNL     1      81.756  61.812   5.774  1.00  0.00     0.051 A 
ATOM      6  C   UNL     1      82.487  62.309   6.860  1.00  0.00     0.157 A 
ENDROOT
BRANCH   1   7
ATOM      7  C   UNL     1      78.376  61.124   7.314  1.00  0.00     0.010 C 
ATOM      8  C   UNL     1      77.982  59.880   7.621  1.00  0.00     0.025 C 
BRANCH   8   9
ATOM      9  C   UNL     1      76.561  59.510   7.721  1.00  0.00     0.064 C 
ATOM     10  O   UNL     1      75.733  59.849   6.832  1.00  0.00    -0.545 OA
ATOM     11  O   UNL     1      76.122  58.776   8.815  1.00  0.00    -0.545 OA
ENDBRANCH   8   9
ENDBRANCH   1   7
BRANCH   4  12
ATOM     12  O   UNL     1      82.602  62.935   9.189  1.00  0.00    -0.504 OA
ATOM     13  H   UNL     1      82.630  62.457  10.083  1.00  0.00     0.293 HD
ENDBRANCH   4  12
BRANCH   6  14
ATOM     14  O   UNL     1      83.818  62.688   6.701  1.00  0.00    -0.504 OA
ATOM     15  H   UNL     1      84.070  63.595   6.327  1.00  0.00     0.293 HD
ENDBRANCH   6  14
TORSDOF 4
ENDMDL
