MODEL 1
REMARK VINA RESULT:    -2.824      0.000      0.000
REMARK INTER + INTRA:          -7.310
REMARK INTER:                  -4.970
REMARK INTRA:                  -2.341
REMARK UNBOUND:                -2.341
REMARK SMILES CCCCCCCCCCCCCCC(=O)[O-]
REMARK SMILES IDX 9 1 10 2 11 3 12 4 13 5 14 6 15 7 16 8 17 9 8 10 7 11 6 12
REMARK SMILES IDX 5 13 4 14 3 15 2 16 1 17
REMARK H PARENT
REMARK Flexibility Score: inf
ROOT
ATOM      1  C   UNL     1     146.651 165.662 153.219  1.00  0.00     0.000 C 
ENDROOT
BRANCH   1   2
ATOM      2  C   UNL     1     145.875 164.975 152.084  1.00  0.00     0.000 C 
BRANCH   2   3
ATOM      3  C   UNL     1     146.662 163.823 151.439  1.00  0.00     0.000 C 
BRANCH   3   4
ATOM      4  C   UNL     1     146.067 162.444 151.769  1.00  0.00     0.000 C 
BRANCH   4   5
ATOM      5  C   UNL     1     147.113 161.315 151.714  1.00  0.00     0.006 C 
BRANCH   5   6
ATOM      6  C   UNL     1     148.563 161.799 151.552  1.00  0.00     0.053 C 
BRANCH   6   7
ATOM      7  C   UNL     1     149.553 160.707 151.811  1.00  0.00     0.041 C 
ATOM      8  O   UNL     1     150.191 160.189 150.857  1.00  0.00    -0.550 OA
ATOM      9  O   UNL     1     149.749 160.237 153.105  1.00  0.00    -0.550 OA
ENDBRANCH   6   7
ENDBRANCH   5   6
ENDBRANCH   4   5
ENDBRANCH   3   4
ENDBRANCH   2   3
ENDBRANCH   1   2
BRANCH   1  10
ATOM     10  C   UNL     1     145.897 165.541 154.549  1.00  0.00     0.000 C 
BRANCH  10  11
ATOM     11  C   UNL     1     146.736 164.780 155.588  1.00  0.00    -0.000 C 
BRANCH  11  12
ATOM     12  C   UNL     1     146.698 163.257 155.382  1.00  0.00    -0.000 C 
BRANCH  12  13
ATOM     13  C   UNL     1     148.086 162.667 155.083  1.00  0.00    -0.000 C 
BRANCH  13  14
ATOM     14  C   UNL     1     149.224 163.663 155.360  1.00  0.00    -0.000 C 
BRANCH  14  15
ATOM     15  C   UNL     1     150.081 163.946 154.114  1.00  0.00    -0.000 C 
BRANCH  15  16
ATOM     16  C   UNL     1     150.283 165.450 153.869  1.00  0.00    -0.003 C 
ATOM     17  C   UNL     1     150.186 165.826 152.391  1.00  0.00     0.004 C 
ENDBRANCH  15  16
ENDBRANCH  14  15
ENDBRANCH  13  14
ENDBRANCH  12  13
ENDBRANCH  11  12
ENDBRANCH  10  11
ENDBRANCH   1  10
TORSDOF 13
ENDMDL
MODEL 2
REMARK VINA RESULT:    -2.805      1.532      3.171
REMARK INTER + INTRA:          -7.278
REMARK INTER:                  -4.978
REMARK INTRA:                  -2.300
REMARK UNBOUND:                -2.341
REMARK SMILES CCCCCCCCCCCCCCC(=O)[O-]
REMARK SMILES IDX 9 1 10 2 11 3 12 4 13 5 14 6 15 7 16 8 17 9 8 10 7 11 6 12
REMARK SMILES IDX 5 13 4 14 3 15 2 16 1 17
REMARK H PARENT
REMARK Flexibility Score: inf
ROOT
ATOM      1  C   UNL     1     146.345 163.731 150.932  1.00  0.00     0.000 C 
ENDROOT
BRANCH   1   2
ATOM      2  C   UNL     1     145.921 162.684 151.974  1.00  0.00     0.000 C 
BRANCH   2   3
ATOM      3  C   UNL     1     146.891 161.494 152.048  1.00  0.00     0.000 C 
BRANCH   3   4
ATOM      4  C   UNL     1     148.363 161.924 151.932  1.00  0.00     0.000 C 
BRANCH   4   5
ATOM      5  C   UNL     1     149.342 160.747 152.097  1.00  0.00     0.006 C 
BRANCH   5   6
ATOM      6  C   UNL     1     150.566 161.054 152.975  1.00  0.00     0.053 C 
BRANCH   6   7
ATOM      7  C   UNL     1     150.636 160.162 154.175  1.00  0.00     0.041 C 
ATOM      8  O   UNL     1     149.599 159.584 154.596  1.00  0.00    -0.550 OA
ATOM      9  O   UNL     1     151.840 159.994 154.848  1.00  0.00    -0.550 OA
ENDBRANCH   6   7
ENDBRANCH   5   6
ENDBRANCH   4   5
ENDBRANCH   3   4
ENDBRANCH   2   3
ENDBRANCH   1   2
BRANCH   1  10
ATOM     10  C   UNL     1     145.934 165.142 151.374  1.00  0.00     0.000 C 
BRANCH  10  11
ATOM     11  C   UNL     1     146.000 165.279 152.904  1.00  0.00    -0.000 C 
BRANCH  11  12
ATOM     12  C   UNL     1     147.204 166.112 153.373  1.00  0.00    -0.000 C 
BRANCH  12  13
ATOM     13  C   UNL     1     148.373 165.239 153.859  1.00  0.00    -0.000 C 
BRANCH  13  14
ATOM     14  C   UNL     1     148.112 164.621 155.243  1.00  0.00    -0.000 C 
BRANCH  14  15
ATOM     15  C   UNL     1     148.606 163.167 155.345  1.00  0.00    -0.000 C 
BRANCH  15  16
ATOM     16  C   UNL     1     147.476 162.187 155.702  1.00  0.00    -0.003 C 
ATOM     17  C   UNL     1     146.104 162.857 155.740  1.00  0.00     0.004 C 
ENDBRANCH  15  16
ENDBRANCH  14  15
ENDBRANCH  13  14
ENDBRANCH  12  13
ENDBRANCH  11  12
ENDBRANCH  10  11
ENDBRANCH   1  10
TORSDOF 13
ENDMDL
MODEL 3
REMARK VINA RESULT:    -2.715      1.532      2.522
REMARK INTER + INTRA:          -7.119
REMARK INTER:                  -5.175
REMARK INTRA:                  -1.944
REMARK UNBOUND:                -2.341
REMARK SMILES CCCCCCCCCCCCCCC(=O)[O-]
REMARK SMILES IDX 9 1 10 2 11 3 12 4 13 5 14 6 15 7 16 8 17 9 8 10 7 11 6 12
REMARK SMILES IDX 5 13 4 14 3 15 2 16 1 17
REMARK H PARENT
REMARK Flexibility Score: inf
ROOT
ATOM      1  C   UNL     1     146.889 165.087 151.444  1.00  0.00     0.000 C 
ENDROOT
BRANCH   1   2
ATOM      2  C   UNL     1     146.631 163.726 150.779  1.00  0.00     0.000 C 
BRANCH   2   3
ATOM      3  C   UNL     1     146.174 162.653 151.780  1.00  0.00     0.000 C 
BRANCH   3   4
ATOM      4  C   UNL     1     147.069 161.403 151.755  1.00  0.00     0.000 C 
BRANCH   4   5
ATOM      5  C   UNL     1     148.569 161.743 151.833  1.00  0.00     0.006 C 
BRANCH   5   6
ATOM      6  C   UNL     1     149.505 160.596 151.418  1.00  0.00     0.053 C 
BRANCH   6   7
ATOM      7  C   UNL     1     150.538 160.307 152.462  1.00  0.00     0.041 C 
ATOM      8  O   UNL     1     151.630 160.933 152.463  1.00  0.00    -0.550 OA
ATOM      9  O   UNL     1     150.308 159.323 153.416  1.00  0.00    -0.550 OA
ENDBRANCH   6   7
ENDBRANCH   5   6
ENDBRANCH   4   5
ENDBRANCH   3   4
ENDBRANCH   2   3
ENDBRANCH   1   2
BRANCH   1  10
ATOM     10  C   UNL     1     146.193 165.172 152.808  1.00  0.00     0.000 C 
BRANCH  10  11
ATOM     11  C   UNL     1     147.015 166.020 153.793  1.00  0.00    -0.000 C 
BRANCH  11  12
ATOM     12  C   UNL     1     146.567 165.835 155.252  1.00  0.00    -0.000 C 
BRANCH  12  13
ATOM     13  C   UNL     1     145.880 164.480 155.492  1.00  0.00    -0.000 C 
BRANCH  13  14
ATOM     14  C   UNL     1     146.802 163.467 156.191  1.00  0.00    -0.000 C 
BRANCH  14  15
ATOM     15  C   UNL     1     147.001 162.182 155.368  1.00  0.00    -0.000 C 
BRANCH  15  16
ATOM     16  C   UNL     1     148.410 161.589 155.536  1.00  0.00    -0.003 C 
ATOM     17  C   UNL     1     149.515 162.620 155.307  1.00  0.00     0.004 C 
ENDBRANCH  15  16
ENDBRANCH  14  15
ENDBRANCH  13  14
ENDBRANCH  12  13
ENDBRANCH  11  12
ENDBRANCH  10  11
ENDBRANCH   1  10
TORSDOF 13
ENDMDL
MODEL 4
REMARK VINA RESULT:    -2.683      1.448      3.462
REMARK INTER + INTRA:          -7.063
REMARK INTER:                  -4.706
REMARK INTRA:                  -2.357
REMARK UNBOUND:                -2.341
REMARK SMILES CCCCCCCCCCCCCCC(=O)[O-]
REMARK SMILES IDX 9 1 10 2 11 3 12 4 13 5 14 6 15 7 16 8 17 9 8 10 7 11 6 12
REMARK SMILES IDX 5 13 4 14 3 15 2 16 1 17
REMARK H PARENT
REMARK Flexibility Score: inf
ROOT
ATOM      1  C   UNL     1     146.030 165.294 153.281  1.00  0.00     0.000 C 
ENDROOT
BRANCH   1   2
ATOM      2  C   UNL     1     147.057 165.857 154.275  1.00  0.00     0.000 C 
BRANCH   2   3
ATOM      3  C   UNL     1     147.455 164.840 155.358  1.00  0.00     0.000 C 
BRANCH   3   4
ATOM      4  C   UNL     1     146.270 163.974 155.818  1.00  0.00     0.000 C 
BRANCH   4   5
ATOM      5  C   UNL     1     146.593 162.469 155.806  1.00  0.00     0.006 C 
BRANCH   5   6
ATOM      6  C   UNL     1     148.075 162.138 155.567  1.00  0.00     0.053 C 
BRANCH   6   7
ATOM      7  C   UNL     1     148.299 160.671 155.370  1.00  0.00     0.041 C 
ATOM      8  O   UNL     1     149.001 160.260 154.409  1.00  0.00    -0.550 OA
ATOM      9  O   UNL     1     147.707 159.754 156.231  1.00  0.00    -0.550 OA
ENDBRANCH   6   7
ENDBRANCH   5   6
ENDBRANCH   4   5
ENDBRANCH   3   4
ENDBRANCH   2   3
ENDBRANCH   1   2
BRANCH   1  10
ATOM     10  C   UNL     1     146.522 165.451 151.836  1.00  0.00     0.000 C 
BRANCH  10  11
ATOM     11  C   UNL     1     146.245 164.178 151.020  1.00  0.00    -0.000 C 
BRANCH  11  12
ATOM     12  C   UNL     1     145.999 162.947 151.906  1.00  0.00    -0.000 C 
BRANCH  12  13
ATOM     13  C   UNL     1     147.214 162.006 151.961  1.00  0.00    -0.000 C 
BRANCH  13  14
ATOM     14  C   UNL     1     148.443 162.586 151.240  1.00  0.00    -0.000 C 
BRANCH  14  15
ATOM     15  C   UNL     1     149.613 162.871 152.198  1.00  0.00    -0.000 C 
BRANCH  15  16
ATOM     16  C   UNL     1     150.188 164.285 152.018  1.00  0.00    -0.003 C 
ATOM     17  C   UNL     1     150.505 164.967 153.348  1.00  0.00     0.004 C 
ENDBRANCH  15  16
ENDBRANCH  14  15
ENDBRANCH  13  14
ENDBRANCH  12  13
ENDBRANCH  11  12
ENDBRANCH  10  11
ENDBRANCH   1  10
TORSDOF 13
ENDMDL
MODEL 5
REMARK VINA RESULT:    -2.670      2.033      4.101
REMARK INTER + INTRA:          -7.040
REMARK INTER:                  -5.436
REMARK INTRA:                  -1.603
REMARK UNBOUND:                -2.341
REMARK SMILES CCCCCCCCCCCCCCC(=O)[O-]
REMARK SMILES IDX 9 1 10 2 11 3 12 4 13 5 14 6 15 7 16 8 17 9 8 10 7 11 6 12
REMARK SMILES IDX 5 13 4 14 3 15 2 16 1 17
REMARK H PARENT
REMARK Flexibility Score: inf
ROOT
ATOM      1  C   UNL     1     146.044 165.440 152.805  1.00  0.00     0.000 C 
ENDROOT
BRANCH   1   2
ATOM      2  C   UNL     1     147.191 165.995 153.665  1.00  0.00     0.000 C 
BRANCH   2   3
ATOM      3  C   UNL     1     146.838 166.054 155.160  1.00  0.00     0.000 C 
BRANCH   3   4
ATOM      4  C   UNL     1     146.473 164.675 155.734  1.00  0.00     0.000 C 
BRANCH   4   5
ATOM      5  C   UNL     1     147.609 163.646 155.581  1.00  0.00     0.006 C 
BRANCH   5   6
ATOM      6  C   UNL     1     147.179 162.186 155.798  1.00  0.00     0.053 C 
BRANCH   6   7
ATOM      7  C   UNL     1     148.317 161.232 155.613  1.00  0.00     0.041 C 
ATOM      8  O   UNL     1     148.104 159.991 155.575  1.00  0.00    -0.550 OA
ATOM      9  O   UNL     1     149.619 161.710 155.514  1.00  0.00    -0.550 OA
ENDBRANCH   6   7
ENDBRANCH   5   6
ENDBRANCH   4   5
ENDBRANCH   3   4
ENDBRANCH   2   3
ENDBRANCH   1   2
BRANCH   1  10
ATOM     10  C   UNL     1     146.504 165.207 151.361  1.00  0.00     0.000 C 
BRANCH  10  11
ATOM     11  C   UNL     1     146.322 163.735 150.958  1.00  0.00    -0.000 C 
BRANCH  11  12
ATOM     12  C   UNL     1     146.096 162.812 152.166  1.00  0.00    -0.000 C 
BRANCH  12  13
ATOM     13  C   UNL     1     146.949 161.534 152.101  1.00  0.00    -0.000 C 
BRANCH  13  14
ATOM     14  C   UNL     1     148.402 161.814 151.681  1.00  0.00    -0.000 C 
BRANCH  14  15
ATOM     15  C   UNL     1     149.361 160.675 152.068  1.00  0.00    -0.000 C 
BRANCH  15  16
ATOM     16  C   UNL     1     150.310 160.291 150.920  1.00  0.00    -0.003 C 
ATOM     17  C   UNL     1     150.674 161.481 150.033  1.00  0.00     0.004 C 
ENDBRANCH  15  16
ENDBRANCH  14  15
ENDBRANCH  13  14
ENDBRANCH  12  13
ENDBRANCH  11  12
ENDBRANCH  10  11
ENDBRANCH   1  10
TORSDOF 13
ENDMDL
MODEL 6
REMARK VINA RESULT:    -2.643      2.636      4.831
REMARK INTER + INTRA:          -6.992
REMARK INTER:                  -5.260
REMARK INTRA:                  -1.732
REMARK UNBOUND:                -2.341
REMARK SMILES CCCCCCCCCCCCCCC(=O)[O-]
REMARK SMILES IDX 9 1 10 2 11 3 12 4 13 5 14 6 15 7 16 8 17 9 8 10 7 11 6 12
REMARK SMILES IDX 5 13 4 14 3 15 2 16 1 17
REMARK H PARENT
REMARK Flexibility Score: inf
ROOT
ATOM      1  C   UNL     1     147.636 164.574 154.594  1.00  0.00     0.000 C 
ENDROOT
BRANCH   1   2
ATOM      2  C   UNL     1     146.581 163.530 154.992  1.00  0.00     0.000 C 
BRANCH   2   3
ATOM      3  C   UNL     1     147.115 162.498 155.999  1.00  0.00     0.000 C 
BRANCH   3   4
ATOM      4  C   UNL     1     148.455 161.884 155.559  1.00  0.00     0.000 C 
BRANCH   4   5
ATOM      5  C   UNL     1     148.392 160.352 155.425  1.00  0.00     0.006 C 
BRANCH   5   6
ATOM      6  C   UNL     1     148.938 159.583 156.640  1.00  0.00     0.053 C 
BRANCH   6   7
ATOM      7  C   UNL     1     147.853 159.201 157.597  1.00  0.00     0.041 C 
ATOM      8  O   UNL     1     146.693 158.952 157.175  1.00  0.00    -0.550 OA
ATOM      9  O   UNL     1     148.113 159.151 158.962  1.00  0.00    -0.550 OA
ENDBRANCH   6   7
ENDBRANCH   5   6
ENDBRANCH   4   5
ENDBRANCH   3   4
ENDBRANCH   2   3
ENDBRANCH   1   2
BRANCH   1  10
ATOM     10  C   UNL     1     146.974 165.903 154.210  1.00  0.00     0.000 C 
BRANCH  10  11
ATOM     11  C   UNL     1     147.077 166.150 152.696  1.00  0.00    -0.000 C 
BRANCH  11  12
ATOM     12  C   UNL     1     145.983 165.419 151.900  1.00  0.00    -0.000 C 
BRANCH  12  13
ATOM     13  C   UNL     1     146.498 164.861 150.563  1.00  0.00    -0.000 C 
BRANCH  13  14
ATOM     14  C   UNL     1     147.140 163.471 150.711  1.00  0.00    -0.000 C 
BRANCH  14  15
ATOM     15  C   UNL     1     146.233 162.476 151.457  1.00  0.00    -0.000 C 
BRANCH  15  16
ATOM     16  C   UNL     1     147.018 161.289 152.039  1.00  0.00    -0.003 C 
ATOM     17  C   UNL     1     148.524 161.408 151.809  1.00  0.00     0.004 C 
ENDBRANCH  15  16
ENDBRANCH  14  15
ENDBRANCH  13  14
ENDBRANCH  12  13
ENDBRANCH  11  12
ENDBRANCH  10  11
ENDBRANCH   1  10
TORSDOF 13
ENDMDL
MODEL 7
REMARK VINA RESULT:    -2.597      3.198      4.287
REMARK INTER + INTRA:          -6.910
REMARK INTER:                  -4.436
REMARK INTRA:                  -2.474
REMARK UNBOUND:                -2.341
REMARK SMILES CCCCCCCCCCCCCCC(=O)[O-]
REMARK SMILES IDX 9 1 10 2 11 3 12 4 13 5 14 6 15 7 16 8 17 9 8 10 7 11 6 12
REMARK SMILES IDX 5 13 4 14 3 15 2 16 1 17
REMARK H PARENT
REMARK Flexibility Score: inf
ROOT
ATOM      1  C   UNL     1     146.286 162.473 153.102  1.00  0.00     0.000 C 
ENDROOT
BRANCH   1   2
ATOM      2  C   UNL     1     146.429 162.575 151.575  1.00  0.00     0.000 C 
BRANCH   2   3
ATOM      3  C   UNL     1     146.436 164.028 151.075  1.00  0.00     0.000 C 
BRANCH   3   4
ATOM      4  C   UNL     1     146.154 165.040 152.198  1.00  0.00     0.000 C 
BRANCH   4   5
ATOM      5  C   UNL     1     147.106 166.251 152.161  1.00  0.00     0.006 C 
BRANCH   5   6
ATOM      6  C   UNL     1     147.713 166.541 150.779  1.00  0.00     0.053 C 
BRANCH   6   7
ATOM      7  C   UNL     1     148.544 167.786 150.780  1.00  0.00     0.041 C 
ATOM      8  O   UNL     1     149.614 167.833 151.443  1.00  0.00    -0.550 OA
ATOM      9  O   UNL     1     148.121 168.906 150.075  1.00  0.00    -0.550 OA
ENDBRANCH   6   7
ENDBRANCH   5   6
ENDBRANCH   4   5
ENDBRANCH   3   4
ENDBRANCH   2   3
ENDBRANCH   1   2
BRANCH   1  10
ATOM     10  C   UNL     1     147.394 161.596 153.699  1.00  0.00     0.000 C 
BRANCH  10  11
ATOM     11  C   UNL     1     147.961 162.225 154.981  1.00  0.00    -0.000 C 
BRANCH  11  12
ATOM     12  C   UNL     1     147.264 163.544 155.354  1.00  0.00    -0.000 C 
BRANCH  12  13
ATOM     13  C   UNL     1     148.241 164.730 155.424  1.00  0.00    -0.000 C 
BRANCH  13  14
ATOM     14  C   UNL     1     149.642 164.372 154.900  1.00  0.00    -0.000 C 
BRANCH  14  15
ATOM     15  C   UNL     1     150.178 165.403 153.891  1.00  0.00    -0.000 C 
BRANCH  15  16
ATOM     16  C   UNL     1     150.841 164.742 152.672  1.00  0.00    -0.003 C 
ATOM     17  C   UNL     1     149.987 163.629 152.066  1.00  0.00     0.004 C 
ENDBRANCH  15  16
ENDBRANCH  14  15
ENDBRANCH  13  14
ENDBRANCH  12  13
ENDBRANCH  11  12
ENDBRANCH  10  11
ENDBRANCH   1  10
TORSDOF 13
ENDMDL
MODEL 8
REMARK VINA RESULT:    -2.581      2.615      4.433
REMARK INTER + INTRA:          -6.882
REMARK INTER:                  -4.787
REMARK INTRA:                  -2.095
REMARK UNBOUND:                -2.341
REMARK SMILES CCCCCCCCCCCCCCC(=O)[O-]
REMARK SMILES IDX 9 1 10 2 11 3 12 4 13 5 14 6 15 7 16 8 17 9 8 10 7 11 6 12
REMARK SMILES IDX 5 13 4 14 3 15 2 16 1 17
REMARK H PARENT
REMARK Flexibility Score: inf
ROOT
ATOM      1  C   UNL     1     147.739 163.425 155.611  1.00  0.00     0.000 C 
ENDROOT
BRANCH   1   2
ATOM      2  C   UNL     1     146.475 164.254 155.889  1.00  0.00     0.000 C 
BRANCH   2   3
ATOM      3  C   UNL     1     146.592 165.703 155.388  1.00  0.00     0.000 C 
BRANCH   3   4
ATOM      4  C   UNL     1     147.648 165.860 154.280  1.00  0.00     0.000 C 
BRANCH   4   5
ATOM      5  C   UNL     1     147.033 166.255 152.925  1.00  0.00     0.006 C 
BRANCH   5   6
ATOM      6  C   UNL     1     145.999 165.257 152.380  1.00  0.00     0.053 C 
BRANCH   6   7
ATOM      7  C   UNL     1     146.086 165.113 150.892  1.00  0.00     0.041 C 
ATOM      8  O   UNL     1     146.249 163.978 150.373  1.00  0.00    -0.550 OA
ATOM      9  O   UNL     1     146.019 166.239 150.079  1.00  0.00    -0.550 OA
ENDBRANCH   6   7
ENDBRANCH   5   6
ENDBRANCH   4   5
ENDBRANCH   3   4
ENDBRANCH   2   3
ENDBRANCH   1   2
BRANCH   1  10
ATOM     10  C   UNL     1     147.384 161.959 155.338  1.00  0.00     0.000 C 
BRANCH  10  11
ATOM     11  C   UNL     1     147.235 161.701 153.830  1.00  0.00    -0.000 C 
BRANCH  11  12
ATOM     12  C   UNL     1     148.289 162.446 152.994  1.00  0.00    -0.000 C 
BRANCH  12  13
ATOM     13  C   UNL     1     148.612 161.726 151.674  1.00  0.00    -0.000 C 
BRANCH  13  14
ATOM     14  C   UNL     1     149.567 162.534 150.779  1.00  0.00    -0.000 C 
BRANCH  14  15
ATOM     15  C   UNL     1     149.695 164.002 151.223  1.00  0.00    -0.000 C 
BRANCH  15  16
ATOM     16  C   UNL     1     149.781 164.969 150.031  1.00  0.00    -0.003 C 
ATOM     17  C   UNL     1     149.678 166.435 150.452  1.00  0.00     0.004 C 
ENDBRANCH  15  16
ENDBRANCH  14  15
ENDBRANCH  13  14
ENDBRANCH  12  13
ENDBRANCH  11  12
ENDBRANCH  10  11
ENDBRANCH   1  10
TORSDOF 13
ENDMDL
