MODEL 1
REMARK VINA RESULT:    -3.852      0.000      0.000
REMARK INTER + INTRA:          -4.934
REMARK INTER:                  -4.640
REMARK INTRA:                  -0.294
REMARK UNBOUND:                -0.294
REMARK SMILES NC(=O)C[C@@H]([NH3+])C(=O)[O-]
REMARK SMILES IDX 4 1 5 2 6 3 7 7 8 8 9 9 2 10 3 11 1 12
REMARK H PARENT 6 4 6 5 6 6 1 13 1 14
REMARK Flexibility Score: inf
ROOT
ATOM      1  C   UNL     1      23.724  39.737  23.841  1.00  0.00     0.171 C 
ENDROOT
BRANCH   1   2
ATOM      2  C   UNL     1      23.947  38.647  22.769  1.00  0.00     0.237 C 
BRANCH   2   3
ATOM      3  N   UNL     1      24.388  39.223  21.492  1.00  0.00    -0.350 N 
ATOM      4  H   UNL     1      24.243  40.258  21.506  1.00  0.00     0.345 HD
ATOM      5  H   UNL     1      25.408  39.037  21.352  1.00  0.00     0.345 HD
ATOM      6  H   UNL     1      23.854  38.818  20.689  1.00  0.00     0.345 HD
ENDBRANCH   2   3
BRANCH   2   7
ATOM      7  C   UNL     1      24.907  37.589  23.252  1.00  0.00     0.100 C 
ATOM      8  O   UNL     1      25.989  37.395  22.638  1.00  0.00    -0.544 OA
ATOM      9  O   UNL     1      24.588  36.787  24.341  1.00  0.00    -0.544 OA
ENDBRANCH   2   7
ENDBRANCH   1   2
BRANCH   1  10
ATOM     10  C   UNL     1      22.457  39.545  24.628  1.00  0.00     0.223 C 
ATOM     11  O   UNL     1      21.433  40.220  24.339  1.00  0.00    -0.275 OA
ATOM     12  N   UNL     1      22.411  38.618  25.712  1.00  0.00    -0.369 N 
ATOM     13  H   UNL     1      23.250  38.052  25.967  1.00  0.00     0.159 HD
ATOM     14  H   UNL     1      21.532  38.497  26.264  1.00  0.00     0.159 HD
ENDBRANCH   1  10
TORSDOF 4
ENDMDL
MODEL 2
REMARK VINA RESULT:    -3.839      2.124      2.278
REMARK INTER + INTRA:          -4.918
REMARK INTER:                  -4.643
REMARK INTRA:                  -0.275
REMARK UNBOUND:                -0.294
REMARK SMILES NC(=O)C[C@@H]([NH3+])C(=O)[O-]
REMARK SMILES IDX 4 1 5 2 6 3 7 7 8 8 9 9 2 10 3 11 1 12
REMARK H PARENT 6 4 6 5 6 6 1 13 1 14
REMARK Flexibility Score: inf
ROOT
ATOM      1  C   UNL     1      24.043  38.245  23.836  1.00  0.00     0.171 C 
ENDROOT
BRANCH   1   2
ATOM      2  C   UNL     1      24.696  36.889  24.179  1.00  0.00     0.237 C 
BRANCH   2   3
ATOM      3  N   UNL     1      23.698  35.819  24.301  1.00  0.00    -0.350 N 
ATOM      4  H   UNL     1      23.983  35.159  25.060  1.00  0.00     0.345 HD
ATOM      5  H   UNL     1      22.769  36.228  24.554  1.00  0.00     0.345 HD
ATOM      6  H   UNL     1      23.604  35.284  23.407  1.00  0.00     0.345 HD
ENDBRANCH   2   3
BRANCH   2   7
ATOM      7  C   UNL     1      25.767  36.525  23.181  1.00  0.00     0.100 C 
ATOM      8  O   UNL     1      25.463  35.900  22.131  1.00  0.00    -0.544 OA
ATOM      9  O   UNL     1      27.101  36.828  23.432  1.00  0.00    -0.544 OA
ENDBRANCH   2   7
ENDBRANCH   1   2
BRANCH   1  10
ATOM     10  C   UNL     1      22.613  38.348  24.288  1.00  0.00     0.223 C 
ATOM     11  O   UNL     1      21.681  38.076  23.486  1.00  0.00    -0.275 OA
ATOM     12  N   UNL     1      22.302  38.769  25.616  1.00  0.00    -0.369 N 
ATOM     13  H   UNL     1      23.061  39.001  26.295  1.00  0.00     0.159 HD
ATOM     14  H   UNL     1      21.307  38.851  25.923  1.00  0.00     0.159 HD
ENDBRANCH   1  10
TORSDOF 4
ENDMDL
MODEL 3
REMARK VINA RESULT:    -3.645      1.971      2.557
REMARK INTER + INTRA:          -4.685
REMARK INTER:                  -4.340
REMARK INTRA:                  -0.344
REMARK UNBOUND:                -0.294
REMARK SMILES NC(=O)C[C@@H]([NH3+])C(=O)[O-]
REMARK SMILES IDX 4 1 5 2 6 3 7 7 8 8 9 9 2 10 3 11 1 12
REMARK H PARENT 6 4 6 5 6 6 1 13 1 14
REMARK Flexibility Score: inf
ROOT
ATOM      1  C   UNL     1      22.170  38.816  23.212  1.00  0.00     0.171 C 
ENDROOT
BRANCH   1   2
ATOM      2  C   UNL     1      23.231  39.521  22.340  1.00  0.00     0.237 C 
BRANCH   2   3
ATOM      3  N   UNL     1      24.362  40.004  23.143  1.00  0.00    -0.350 N 
ATOM      4  H   UNL     1      24.254  39.678  24.131  1.00  0.00     0.345 HD
ATOM      5  H   UNL     1      25.257  39.613  22.766  1.00  0.00     0.345 HD
ATOM      6  H   UNL     1      24.415  41.048  23.135  1.00  0.00     0.345 HD
ENDBRANCH   2   3
BRANCH   2   7
ATOM      7  C   UNL     1      23.699  38.633  21.215  1.00  0.00     0.100 C 
ATOM      8  O   UNL     1      22.868  37.932  20.580  1.00  0.00    -0.544 OA
ATOM      9  O   UNL     1      25.050  38.539  20.903  1.00  0.00    -0.544 OA
ENDBRANCH   2   7
ENDBRANCH   1   2
BRANCH   1  10
ATOM     10  C   UNL     1      22.716  38.306  24.517  1.00  0.00     0.223 C 
ATOM     11  O   UNL     1      23.599  37.407  24.518  1.00  0.00    -0.275 OA
ATOM     12  N   UNL     1      22.229  38.819  25.757  1.00  0.00    -0.369 N 
ATOM     13  H   UNL     1      21.496  39.563  25.776  1.00  0.00     0.159 HD
ATOM     14  H   UNL     1      22.603  38.453  26.661  1.00  0.00     0.159 HD
ENDBRANCH   1  10
TORSDOF 4
ENDMDL
MODEL 4
REMARK VINA RESULT:    -3.562      2.161      3.811
REMARK INTER + INTRA:          -4.585
REMARK INTER:                  -4.399
REMARK INTRA:                  -0.187
REMARK UNBOUND:                -0.294
REMARK SMILES NC(=O)C[C@@H]([NH3+])C(=O)[O-]
REMARK SMILES IDX 4 1 5 2 6 3 7 7 8 8 9 9 2 10 3 11 1 12
REMARK H PARENT 6 4 6 5 6 6 1 13 1 14
REMARK Flexibility Score: inf
ROOT
ATOM      1  C   UNL     1      24.000  37.025  24.397  1.00  0.00     0.171 C 
ENDROOT
BRANCH   1   2
ATOM      2  C   UNL     1      22.960  38.150  24.208  1.00  0.00     0.237 C 
BRANCH   2   3
ATOM      3  N   UNL     1      22.470  38.661  25.495  1.00  0.00    -0.350 N 
ATOM      4  H   UNL     1      22.243  39.678  25.405  1.00  0.00     0.345 HD
ATOM      5  H   UNL     1      21.597  38.153  25.769  1.00  0.00     0.345 HD
ATOM      6  H   UNL     1      23.186  38.540  26.247  1.00  0.00     0.345 HD
ENDBRANCH   2   3
BRANCH   2   7
ATOM      7  C   UNL     1      23.503  39.265  23.349  1.00  0.00     0.100 C 
ATOM      8  O   UNL     1      24.395  40.030  23.802  1.00  0.00    -0.544 OA
ATOM      9  O   UNL     1      22.993  39.491  22.076  1.00  0.00    -0.544 OA
ENDBRANCH   2   7
ENDBRANCH   1   2
BRANCH   1  10
ATOM     10  C   UNL     1      24.438  36.397  23.103  1.00  0.00     0.223 C 
ATOM     11  O   UNL     1      23.580  35.900  22.326  1.00  0.00    -0.275 OA
ATOM     12  N   UNL     1      25.821  36.343  22.755  1.00  0.00    -0.369 N 
ATOM     13  H   UNL     1      26.548  36.749  23.386  1.00  0.00     0.159 HD
ATOM     14  H   UNL     1      26.122  35.895  21.860  1.00  0.00     0.159 HD
ENDBRANCH   1  10
TORSDOF 4
ENDMDL
MODEL 5
REMARK VINA RESULT:    -3.539      2.129      3.665
REMARK INTER + INTRA:          -4.558
REMARK INTER:                  -4.031
REMARK INTRA:                  -0.527
REMARK UNBOUND:                -0.294
REMARK SMILES NC(=O)C[C@@H]([NH3+])C(=O)[O-]
REMARK SMILES IDX 4 1 5 2 6 3 7 7 8 8 9 9 2 10 3 11 1 12
REMARK H PARENT 6 4 6 5 6 6 1 13 1 14
REMARK Flexibility Score: inf
ROOT
ATOM      1  C   UNL     1      23.948  39.802  22.228  1.00  0.00     0.171 C 
ENDROOT
BRANCH   1   2
ATOM      2  C   UNL     1      22.458  39.508  22.507  1.00  0.00     0.237 C 
BRANCH   2   3
ATOM      3  N   UNL     1      21.958  38.399  21.684  1.00  0.00    -0.350 N 
ATOM      4  H   UNL     1      21.023  38.094  22.039  1.00  0.00     0.345 HD
ATOM      5  H   UNL     1      21.844  38.716  20.693  1.00  0.00     0.345 HD
ATOM      6  H   UNL     1      22.612  37.584  21.709  1.00  0.00     0.345 HD
ENDBRANCH   2   3
BRANCH   2   7
ATOM      7  C   UNL     1      22.212  39.254  23.973  1.00  0.00     0.100 C 
ATOM      8  O   UNL     1      21.448  40.014  24.623  1.00  0.00    -0.544 OA
ATOM      9  O   UNL     1      22.862  38.215  24.630  1.00  0.00    -0.544 OA
ENDBRANCH   2   7
ENDBRANCH   1   2
BRANCH   1  10
ATOM     10  C   UNL     1      24.721  38.590  21.787  1.00  0.00     0.223 C 
ATOM     11  O   UNL     1      24.856  38.347  20.558  1.00  0.00    -0.275 OA
ATOM     12  N   UNL     1      25.287  37.701  22.749  1.00  0.00    -0.369 N 
ATOM     13  H   UNL     1      25.183  37.884  23.772  1.00  0.00     0.159 HD
ATOM     14  H   UNL     1      25.812  36.853  22.438  1.00  0.00     0.159 HD
ENDBRANCH   1  10
TORSDOF 4
ENDMDL
MODEL 6
REMARK VINA RESULT:    -3.518      2.051      4.173
REMARK INTER + INTRA:          -4.532
REMARK INTER:                  -4.240
REMARK INTRA:                  -0.292
REMARK UNBOUND:                -0.294
REMARK SMILES NC(=O)C[C@@H]([NH3+])C(=O)[O-]
REMARK SMILES IDX 4 1 5 2 6 3 7 7 8 8 9 9 2 10 3 11 1 12
REMARK H PARENT 6 4 6 5 6 6 1 13 1 14
REMARK Flexibility Score: inf
ROOT
ATOM      1  C   UNL     1      24.973  37.951  22.897  1.00  0.00     0.171 C 
ENDROOT
BRANCH   1   2
ATOM      2  C   UNL     1      23.717  37.593  23.720  1.00  0.00     0.237 C 
BRANCH   2   3
ATOM      3  N   UNL     1      23.979  36.502  24.667  1.00  0.00    -0.350 N 
ATOM      4  H   UNL     1      23.614  35.603  24.276  1.00  0.00     0.345 HD
ATOM      5  H   UNL     1      25.010  36.399  24.814  1.00  0.00     0.345 HD
ATOM      6  H   UNL     1      23.518  36.680  25.589  1.00  0.00     0.345 HD
ENDBRANCH   2   3
BRANCH   2   7
ATOM      7  C   UNL     1      23.156  38.803  24.424  1.00  0.00     0.100 C 
ATOM      8  O   UNL     1      23.608  39.949  24.163  1.00  0.00    -0.544 OA
ATOM      9  O   UNL     1      22.175  38.664  25.399  1.00  0.00    -0.544 OA
ENDBRANCH   2   7
ENDBRANCH   1   2
BRANCH   1  10
ATOM     10  C   UNL     1      26.000  36.853  22.871  1.00  0.00     0.223 C 
ATOM     11  O   UNL     1      26.783  36.705  23.847  1.00  0.00    -0.275 OA
ATOM     12  N   UNL     1      26.108  35.989  21.741  1.00  0.00    -0.369 N 
ATOM     13  H   UNL     1      25.469  36.097  20.922  1.00  0.00     0.159 HD
ATOM     14  H   UNL     1      26.830  35.235  21.722  1.00  0.00     0.159 HD
ENDBRANCH   1  10
TORSDOF 4
ENDMDL
MODEL 7
REMARK VINA RESULT:    -3.498      1.571      3.483
REMARK INTER + INTRA:          -4.508
REMARK INTER:                  -4.337
REMARK INTRA:                  -0.171
REMARK UNBOUND:                -0.294
REMARK SMILES NC(=O)C[C@@H]([NH3+])C(=O)[O-]
REMARK SMILES IDX 4 1 5 2 6 3 7 7 8 8 9 9 2 10 3 11 1 12
REMARK H PARENT 6 4 6 5 6 6 1 13 1 14
REMARK Flexibility Score: inf
ROOT
ATOM      1  C   UNL     1      24.373  37.709  22.793  1.00  0.00     0.171 C 
ENDROOT
BRANCH   1   2
ATOM      2  C   UNL     1      24.109  39.136  23.321  1.00  0.00     0.237 C 
BRANCH   2   3
ATOM      3  N   UNL     1      24.135  40.130  22.240  1.00  0.00    -0.350 N 
ATOM      4  H   UNL     1      24.375  39.659  21.337  1.00  0.00     0.345 HD
ATOM      5  H   UNL     1      23.190  40.568  22.139  1.00  0.00     0.345 HD
ATOM      6  H   UNL     1      24.841  40.878  22.429  1.00  0.00     0.345 HD
ENDBRANCH   2   3
BRANCH   2   7
ATOM      7  C   UNL     1      22.819  39.206  24.097  1.00  0.00     0.100 C 
ATOM      8  O   UNL     1      21.873  38.423  23.818  1.00  0.00    -0.544 OA
ATOM      9  O   UNL     1      22.640  40.164  25.089  1.00  0.00    -0.544 OA
ENDBRANCH   2   7
ENDBRANCH   1   2
BRANCH   1  10
ATOM     10  C   UNL     1      24.826  36.754  23.862  1.00  0.00     0.223 C 
ATOM     11  O   UNL     1      26.057  36.593  24.078  1.00  0.00    -0.275 OA
ATOM     12  N   UNL     1      23.873  36.013  24.623  1.00  0.00    -0.369 N 
ATOM     13  H   UNL     1      22.849  36.131  24.458  1.00  0.00     0.159 HD
ATOM     14  H   UNL     1      24.192  35.341  25.357  1.00  0.00     0.159 HD
ENDBRANCH   1  10
TORSDOF 4
ENDMDL
MODEL 8
REMARK VINA RESULT:    -3.442      2.123      4.029
REMARK INTER + INTRA:          -4.440
REMARK INTER:                  -3.969
REMARK INTRA:                  -0.471
REMARK UNBOUND:                -0.294
REMARK SMILES NC(=O)C[C@@H]([NH3+])C(=O)[O-]
REMARK SMILES IDX 4 1 5 2 6 3 7 7 8 8 9 9 2 10 3 11 1 12
REMARK H PARENT 6 4 6 5 6 6 1 13 1 14
REMARK Flexibility Score: inf
ROOT
ATOM      1  C   UNL     1      25.996  37.094  23.127  1.00  0.00     0.171 C 
ENDROOT
BRANCH   1   2
ATOM      2  C   UNL     1      24.859  38.072  23.494  1.00  0.00     0.237 C 
BRANCH   2   3
ATOM      3  N   UNL     1      24.349  38.781  22.314  1.00  0.00    -0.350 N 
ATOM      4  H   UNL     1      24.448  38.172  21.469  1.00  0.00     0.345 HD
ATOM      5  H   UNL     1      23.334  38.999  22.442  1.00  0.00     0.345 HD
ATOM      6  H   UNL     1      24.872  39.672  22.151  1.00  0.00     0.345 HD
ENDBRANCH   2   3
BRANCH   2   7
ATOM      7  C   UNL     1      23.747  37.372  24.234  1.00  0.00     0.100 C 
ATOM      8  O   UNL     1      23.666  36.116  24.203  1.00  0.00    -0.544 OA
ATOM      9  O   UNL     1      22.776  38.102  24.909  1.00  0.00    -0.544 OA
ENDBRANCH   2   7
ENDBRANCH   1   2
BRANCH   1  10
ATOM     10  C   UNL     1      25.952  36.641  21.695  1.00  0.00     0.223 C 
ATOM     11  O   UNL     1      26.616  37.259  20.821  1.00  0.00    -0.275 OA
ATOM     12  N   UNL     1      25.147  35.526  21.312  1.00  0.00    -0.369 N 
ATOM     13  H   UNL     1      24.588  35.002  22.021  1.00  0.00     0.159 HD
ATOM     14  H   UNL     1      25.109  35.222  20.313  1.00  0.00     0.159 HD
ENDBRANCH   1  10
TORSDOF 4
ENDMDL
MODEL 9
REMARK VINA RESULT:    -3.376      1.539      2.236
REMARK INTER + INTRA:          -4.361
REMARK INTER:                  -3.836
REMARK INTRA:                  -0.525
REMARK UNBOUND:                -0.294
REMARK SMILES NC(=O)C[C@@H]([NH3+])C(=O)[O-]
REMARK SMILES IDX 4 1 5 2 6 3 7 7 8 8 9 9 2 10 3 11 1 12
REMARK H PARENT 6 4 6 5 6 6 1 13 1 14
REMARK Flexibility Score: inf
ROOT
ATOM      1  C   UNL     1      24.213  39.189  23.387  1.00  0.00     0.171 C 
ENDROOT
BRANCH   1   2
ATOM      2  C   UNL     1      24.596  37.763  23.837  1.00  0.00     0.237 C 
BRANCH   2   3
ATOM      3  N   UNL     1      23.507  37.114  24.577  1.00  0.00    -0.350 N 
ATOM      4  H   UNL     1      23.558  36.078  24.439  1.00  0.00     0.345 HD
ATOM      5  H   UNL     1      23.605  37.312  25.599  1.00  0.00     0.345 HD
ATOM      6  H   UNL     1      22.573  37.452  24.251  1.00  0.00     0.345 HD
ENDBRANCH   2   3
BRANCH   2   7
ATOM      7  C   UNL     1      25.041  36.919  22.669  1.00  0.00     0.100 C 
ATOM      8  O   UNL     1      26.147  36.319  22.711  1.00  0.00    -0.544 OA
ATOM      9  O   UNL     1      24.265  36.835  21.519  1.00  0.00    -0.544 OA
ENDBRANCH   2   7
ENDBRANCH   1   2
BRANCH   1  10
ATOM     10  C   UNL     1      22.733  39.377  23.204  1.00  0.00     0.223 C 
ATOM     11  O   UNL     1      22.030  39.793  24.164  1.00  0.00    -0.275 OA
ATOM     12  N   UNL     1      22.112  39.071  21.956  1.00  0.00    -0.369 N 
ATOM     13  H   UNL     1      22.678  38.723  21.149  1.00  0.00     0.159 HD
ATOM     14  H   UNL     1      21.082  39.191  21.836  1.00  0.00     0.159 HD
ENDBRANCH   1  10
TORSDOF 4
ENDMDL
