MODEL 1
REMARK VINA RESULT:    -5.625      0.000      0.000
REMARK INTER + INTRA:          -6.074
REMARK INTER:                  -5.954
REMARK INTRA:                  -0.120
REMARK UNBOUND:                -0.120
REMARK SMILES C=C(C)[C@@H]1CC=C(C)CC1
REMARK SMILES IDX 8 1 7 2 6 3 5 4 4 5 10 6 9 7 2 8 1 9 3 10
REMARK H PARENT
REMARK Flexibility Score: inf
ROOT
ATOM      1  C   UNL     1       4.370  13.703   3.503  1.00  0.00     0.039 C 
ATOM      2  C   UNL     1       3.013  13.545   4.133  1.00  0.00    -0.077 C 
ATOM      3  C   UNL     1       2.927  13.350   5.466  1.00  0.00    -0.027 C 
ATOM      4  C   UNL     1       1.613  13.233   6.197  1.00  0.00     0.035 C 
ATOM      5  C   UNL     1       0.464  12.813   5.265  1.00  0.00     0.018 C 
ATOM      6  C   UNL     1       0.477  13.679   3.996  1.00  0.00     0.013 C 
ATOM      7  C   UNL     1       1.793  13.479   3.234  1.00  0.00     0.031 C 
ENDROOT
BRANCH   5   8
ATOM      8  C   UNL     1      -0.882  12.883   5.975  1.00  0.00    -0.077 C 
ATOM      9  C   UNL     1      -1.417  11.775   6.513  1.00  0.00     0.008 C 
ATOM     10  C   UNL     1      -1.636  14.183   6.105  1.00  0.00     0.039 C 
ENDBRANCH   5   8
TORSDOF 1
ENDMDL
MODEL 2
REMARK VINA RESULT:    -5.558      1.153      4.462
REMARK INTER + INTRA:          -6.003
REMARK INTER:                  -5.883
REMARK INTRA:                  -0.120
REMARK UNBOUND:                -0.120
REMARK SMILES C=C(C)[C@@H]1CC=C(C)CC1
REMARK SMILES IDX 8 1 7 2 6 3 5 4 4 5 10 6 9 7 2 8 1 9 3 10
REMARK H PARENT
REMARK Flexibility Score: inf
ROOT
ATOM      1  C   UNL     1      -2.046  14.317   6.110  1.00  0.00     0.039 C 
ATOM      2  C   UNL     1      -0.696  13.963   5.548  1.00  0.00    -0.077 C 
ATOM      3  C   UNL     1      -0.501  14.041   4.214  1.00  0.00    -0.027 C 
ATOM      4  C   UNL     1       0.829  13.758   3.560  1.00  0.00     0.035 C 
ATOM      5  C   UNL     1       1.733  12.875   4.438  1.00  0.00     0.018 C 
ATOM      6  C   UNL     1       1.768  13.426   5.871  1.00  0.00     0.013 C 
ATOM      7  C   UNL     1       0.361  13.405   6.481  1.00  0.00     0.031 C 
ENDROOT
BRANCH   5   8
ATOM      8  C   UNL     1       3.132  12.756   3.850  1.00  0.00    -0.077 C 
ATOM      9  C   UNL     1       3.611  11.554   3.491  1.00  0.00     0.008 C 
ATOM     10  C   UNL     1       4.005  13.970   3.645  1.00  0.00     0.039 C 
ENDBRANCH   5   8
TORSDOF 1
ENDMDL
MODEL 3
REMARK VINA RESULT:    -5.063      1.506      2.460
REMARK INTER + INTRA:          -5.480
REMARK INTER:                  -5.348
REMARK INTRA:                  -0.132
REMARK UNBOUND:                -0.120
REMARK SMILES C=C(C)[C@@H]1CC=C(C)CC1
REMARK SMILES IDX 8 1 7 2 6 3 5 4 4 5 10 6 9 7 2 8 1 9 3 10
REMARK H PARENT
REMARK Flexibility Score: inf
ROOT
ATOM      1  C   UNL     1       2.276  15.281   0.592  1.00  0.00     0.039 C 
ATOM      2  C   UNL     1       1.827  14.680   1.896  1.00  0.00    -0.077 C 
ATOM      3  C   UNL     1       2.757  14.297   2.796  1.00  0.00    -0.027 C 
ATOM      4  C   UNL     1       2.406  13.734   4.151  1.00  0.00     0.035 C 
ATOM      5  C   UNL     1       0.987  13.143   4.186  1.00  0.00     0.018 C 
ATOM      6  C   UNL     1      -0.009  14.137   3.570  1.00  0.00     0.013 C 
ATOM      7  C   UNL     1       0.350  14.404   2.103  1.00  0.00     0.031 C 
ENDROOT
BRANCH   5   8
ATOM      8  C   UNL     1       0.583  12.751   5.602  1.00  0.00    -0.077 C 
ATOM      9  C   UNL     1       1.309  13.172   6.649  1.00  0.00     0.008 C 
ATOM     10  C   UNL     1      -0.636  11.901   5.865  1.00  0.00     0.039 C 
ENDBRANCH   5   8
TORSDOF 1
ENDMDL
MODEL 4
REMARK VINA RESULT:    -5.049      1.565      4.887
REMARK INTER + INTRA:          -5.465
REMARK INTER:                  -5.344
REMARK INTRA:                  -0.121
REMARK UNBOUND:                -0.120
REMARK SMILES C=C(C)[C@@H]1CC=C(C)CC1
REMARK SMILES IDX 8 1 7 2 6 3 5 4 4 5 10 6 9 7 2 8 1 9 3 10
REMARK H PARENT
REMARK Flexibility Score: inf
ROOT
ATOM      1  C   UNL     1      -4.434  13.251   6.870  1.00  0.00     0.039 C 
ATOM      2  C   UNL     1      -2.973  13.191   6.517  1.00  0.00    -0.077 C 
ATOM      3  C   UNL     1      -2.288  12.052   6.754  1.00  0.00    -0.027 C 
ATOM      4  C   UNL     1      -0.835  11.875   6.387  1.00  0.00     0.035 C 
ATOM      5  C   UNL     1      -0.102  13.221   6.250  1.00  0.00     0.018 C 
ATOM      6  C   UNL     1      -0.926  14.178   5.375  1.00  0.00     0.013 C 
ATOM      7  C   UNL     1      -2.286  14.452   6.029  1.00  0.00     0.031 C 
ENDROOT
BRANCH   5   8
ATOM      8  C   UNL     1       1.306  13.033   5.699  1.00  0.00    -0.077 C 
ATOM      9  C   UNL     1       2.363  13.499   6.383  1.00  0.00     0.008 C 
ATOM     10  C   UNL     1       1.550  12.317   4.394  1.00  0.00     0.039 C 
ENDBRANCH   5   8
TORSDOF 1
ENDMDL
MODEL 5
REMARK VINA RESULT:    -4.992      2.211      4.045
REMARK INTER + INTRA:          -5.404
REMARK INTER:                  -5.276
REMARK INTRA:                  -0.128
REMARK UNBOUND:                -0.120
REMARK SMILES C=C(C)[C@@H]1CC=C(C)CC1
REMARK SMILES IDX 8 1 7 2 6 3 5 4 4 5 10 6 9 7 2 8 1 9 3 10
REMARK H PARENT
REMARK Flexibility Score: inf
ROOT
ATOM      1  C   UNL     1       4.367  17.574   1.559  1.00  0.00     0.039 C 
ATOM      2  C   UNL     1       3.897  16.271   2.147  1.00  0.00    -0.077 C 
ATOM      3  C   UNL     1       2.710  15.763   1.752  1.00  0.00    -0.027 C 
ATOM      4  C   UNL     1       2.178  14.440   2.243  1.00  0.00     0.035 C 
ATOM      5  C   UNL     1       2.806  14.021   3.584  1.00  0.00     0.018 C 
ATOM      6  C   UNL     1       4.333  14.172   3.515  1.00  0.00     0.013 C 
ATOM      7  C   UNL     1       4.709  15.637   3.261  1.00  0.00     0.031 C 
ENDROOT
BRANCH   5   8
ATOM      8  C   UNL     1       2.401  12.604   3.968  1.00  0.00    -0.077 C 
ATOM      9  C   UNL     1       3.170  11.564   3.611  1.00  0.00     0.008 C 
ATOM     10  C   UNL     1       1.147  12.334   4.762  1.00  0.00     0.039 C 
ENDBRANCH   5   8
TORSDOF 1
ENDMDL
MODEL 6
REMARK VINA RESULT:    -4.990      1.501      2.822
REMARK INTER + INTRA:          -5.402
REMARK INTER:                  -5.276
REMARK INTRA:                  -0.126
REMARK UNBOUND:                -0.120
REMARK SMILES C=C(C)[C@@H]1CC=C(C)CC1
REMARK SMILES IDX 8 1 7 2 6 3 5 4 4 5 10 6 9 7 2 8 1 9 3 10
REMARK H PARENT
REMARK Flexibility Score: inf
ROOT
ATOM      1  C   UNL     1       1.884  15.223   0.539  1.00  0.00     0.039 C 
ATOM      2  C   UNL     1       1.593  14.604   1.879  1.00  0.00    -0.077 C 
ATOM      3  C   UNL     1       0.313  14.529   2.303  1.00  0.00    -0.027 C 
ATOM      4  C   UNL     1      -0.085  13.880   3.605  1.00  0.00     0.035 C 
ATOM      5  C   UNL     1       1.081  13.823   4.607  1.00  0.00     0.018 C 
ATOM      6  C   UNL     1       2.339  13.276   3.916  1.00  0.00     0.013 C 
ATOM      7  C   UNL     1       2.756  14.203   2.768  1.00  0.00     0.031 C 
ENDROOT
BRANCH   5   8
ATOM      8  C   UNL     1       0.716  13.002   5.837  1.00  0.00    -0.077 C 
ATOM      9  C   UNL     1       1.433  13.127   6.966  1.00  0.00     0.008 C 
ATOM     10  C   UNL     1      -0.452  12.047   5.827  1.00  0.00     0.039 C 
ENDBRANCH   5   8
TORSDOF 1
ENDMDL
MODEL 7
REMARK VINA RESULT:    -4.987      1.787      4.380
REMARK INTER + INTRA:          -5.399
REMARK INTER:                  -5.279
REMARK INTRA:                  -0.120
REMARK UNBOUND:                -0.120
REMARK SMILES C=C(C)[C@@H]1CC=C(C)CC1
REMARK SMILES IDX 8 1 7 2 6 3 5 4 4 5 10 6 9 7 2 8 1 9 3 10
REMARK H PARENT
REMARK Flexibility Score: inf
ROOT
ATOM      1  C   UNL     1       1.413  13.117   6.752  1.00  0.00     0.039 C 
ATOM      2  C   UNL     1       1.494  13.395   5.276  1.00  0.00    -0.077 C 
ATOM      3  C   UNL     1       0.382  13.797   4.622  1.00  0.00    -0.027 C 
ATOM      4  C   UNL     1       0.374  14.149   3.155  1.00  0.00     0.035 C 
ATOM      5  C   UNL     1       1.544  13.502   2.395  1.00  0.00     0.018 C 
ATOM      6  C   UNL     1       2.857  13.738   3.156  1.00  0.00     0.013 C 
ATOM      7  C   UNL     1       2.786  13.088   4.544  1.00  0.00     0.031 C 
ENDROOT
BRANCH   5   8
ATOM      8  C   UNL     1       1.628  14.016   0.963  1.00  0.00    -0.077 C 
ATOM      9  C   UNL     1       1.233  13.237  -0.056  1.00  0.00     0.008 C 
ATOM     10  C   UNL     1       2.137  15.403   0.655  1.00  0.00     0.039 C 
ENDBRANCH   5   8
TORSDOF 1
ENDMDL
MODEL 8
REMARK VINA RESULT:    -4.929      1.664      4.450
REMARK INTER + INTRA:          -5.337
REMARK INTER:                  -5.217
REMARK INTRA:                  -0.120
REMARK UNBOUND:                -0.120
REMARK SMILES C=C(C)[C@@H]1CC=C(C)CC1
REMARK SMILES IDX 8 1 7 2 6 3 5 4 4 5 10 6 9 7 2 8 1 9 3 10
REMARK H PARENT
REMARK Flexibility Score: inf
ROOT
ATOM      1  C   UNL     1      -0.304  12.247   6.567  1.00  0.00     0.039 C 
ATOM      2  C   UNL     1       0.200  12.849   5.284  1.00  0.00    -0.077 C 
ATOM      3  C   UNL     1       1.447  12.546   4.862  1.00  0.00    -0.027 C 
ATOM      4  C   UNL     1       2.022  13.056   3.565  1.00  0.00     0.035 C 
ATOM      5  C   UNL     1       1.315  14.332   3.076  1.00  0.00     0.018 C 
ATOM      6  C   UNL     1      -0.208  14.139   3.130  1.00  0.00     0.013 C 
ATOM      7  C   UNL     1      -0.657  13.880   4.573  1.00  0.00     0.031 C 
ENDROOT
BRANCH   5   8
ATOM      8  C   UNL     1       1.780  14.724   1.680  1.00  0.00    -0.077 C 
ATOM      9  C   UNL     1       2.470  15.861   1.495  1.00  0.00     0.008 C 
ATOM     10  C   UNL     1       1.494  13.852   0.482  1.00  0.00     0.039 C 
ENDBRANCH   5   8
TORSDOF 1
ENDMDL
MODEL 9
REMARK VINA RESULT:    -4.821      1.987      4.629
REMARK INTER + INTRA:          -5.223
REMARK INTER:                  -5.101
REMARK INTRA:                  -0.122
REMARK UNBOUND:                -0.120
REMARK SMILES C=C(C)[C@@H]1CC=C(C)CC1
REMARK SMILES IDX 8 1 7 2 6 3 5 4 4 5 10 6 9 7 2 8 1 9 3 10
REMARK H PARENT
REMARK Flexibility Score: inf
ROOT
ATOM      1  C   UNL     1      -2.252  15.006   2.157  1.00  0.00     0.039 C 
ATOM      2  C   UNL     1      -0.860  14.526   2.465  1.00  0.00    -0.077 C 
ATOM      3  C   UNL     1      -0.581  14.077   3.708  1.00  0.00    -0.027 C 
ATOM      4  C   UNL     1       0.767  13.527   4.100  1.00  0.00     0.035 C 
ATOM      5  C   UNL     1       1.890  14.021   3.172  1.00  0.00     0.018 C 
ATOM      6  C   UNL     1       1.470  13.847   1.704  1.00  0.00     0.013 C 
ATOM      7  C   UNL     1       0.219  14.683   1.410  1.00  0.00     0.031 C 
ENDROOT
BRANCH   5   8
ATOM      8  C   UNL     1       3.206  13.312   3.465  1.00  0.00    -0.077 C 
ATOM      9  C   UNL     1       4.345  14.017   3.551  1.00  0.00     0.008 C 
ATOM     10  C   UNL     1       3.264  11.820   3.676  1.00  0.00     0.039 C 
ENDBRANCH   5   8
TORSDOF 1
ENDMDL
