MODEL 1
REMARK VINA RESULT:    -7.684      0.000      0.000
REMARK INTER + INTRA:          -8.583
REMARK INTER:                  -8.583
REMARK INTRA:                   0.000
REMARK UNBOUND:                 0.000
REMARK SMILES Oc1cc(O)c2c(ccc3ccc(O)c(O)c32)c1
REMARK SMILES IDX 9 1 8 2 7 3 18 4 2 5 3 6 4 7 6 8 17 9 10 10 11 11 12 12
REMARK SMILES IDX 13 13 15 14 16 15 1 17 5 19 14 21
REMARK H PARENT 16 16 1 18 5 20 14 22
REMARK Flexibility Score: inf
ROOT
ATOM      1  C   UNL     1     -11.002 -67.227 -31.856  1.00  0.00     0.009 A 
ATOM      2  C   UNL     1     -10.595 -66.257 -32.764  1.00  0.00     0.009 A 
ATOM      3  C   UNL     1      -9.303 -65.727 -32.702  1.00  0.00    -0.010 A 
ATOM      4  C   UNL     1      -8.893 -64.804 -33.677  1.00  0.00     0.055 A 
ATOM      5  C   UNL     1      -7.575 -64.360 -33.719  1.00  0.00     0.119 A 
ATOM      6  C   UNL     1      -6.641 -64.880 -32.823  1.00  0.00     0.093 A 
ATOM      7  C   UNL     1      -7.024 -65.820 -31.854  1.00  0.00     0.127 A 
ATOM      8  C   UNL     1      -8.397 -66.156 -31.690  1.00  0.00     0.035 A 
ATOM      9  C   UNL     1      -8.897 -66.979 -30.628  1.00  0.00     0.039 A 
ATOM     10  C   UNL     1     -10.173 -67.588 -30.787  1.00  0.00    -0.014 A 
ATOM     11  C   UNL     1     -10.634 -68.521 -29.850  1.00  0.00     0.013 A 
ATOM     12  C   UNL     1      -9.873 -68.821 -28.727  1.00  0.00     0.051 A 
ATOM     13  C   UNL     1      -8.690 -68.131 -28.469  1.00  0.00     0.158 A 
ATOM     14  C   UNL     1      -8.243 -67.139 -29.372  1.00  0.00     0.166 A 
ENDROOT
BRANCH  14  15
ATOM     15  O   UNL     1      -7.248 -66.237 -28.987  1.00  0.00    -0.504 OA
ATOM     16  H   UNL     1      -6.264 -66.374 -29.169  1.00  0.00     0.293 HD
ENDBRANCH  14  15
BRANCH   5  17
ATOM     17  O   UNL     1      -7.194 -63.426 -34.680  1.00  0.00    -0.508 OA
ATOM     18  H   UNL     1      -7.015 -63.697 -35.641  1.00  0.00     0.293 HD
ENDBRANCH   5  17
BRANCH   7  19
ATOM     19  O   UNL     1      -6.023 -66.477 -31.138  1.00  0.00    -0.507 OA
ATOM     20  H   UNL     1      -5.039 -66.312 -31.317  1.00  0.00     0.293 HD
ENDBRANCH   7  19
BRANCH  13  21
ATOM     21  O   UNL     1      -7.990 -68.449 -27.304  1.00  0.00    -0.504 OA
ATOM     22  H   UNL     1      -8.390 -68.380 -26.377  1.00  0.00     0.293 HD
ENDBRANCH  13  21
TORSDOF 4
ENDMDL
MODEL 2
REMARK VINA RESULT:    -7.627      1.516      5.450
REMARK INTER + INTRA:          -8.519
REMARK INTER:                  -8.519
REMARK INTRA:                   0.000
REMARK UNBOUND:                 0.000
REMARK SMILES Oc1cc(O)c2c(ccc3ccc(O)c(O)c32)c1
REMARK SMILES IDX 9 1 8 2 7 3 18 4 2 5 3 6 4 7 6 8 17 9 10 10 11 11 12 12
REMARK SMILES IDX 13 13 15 14 16 15 1 17 5 19 14 21
REMARK H PARENT 16 16 1 18 5 20 14 22
REMARK Flexibility Score: inf
ROOT
ATOM      1  C   UNL     1     -10.317 -65.290 -33.917  1.00  0.00     0.009 A 
ATOM      2  C   UNL     1     -10.285 -66.199 -32.867  1.00  0.00     0.009 A 
ATOM      3  C   UNL     1      -9.140 -66.325 -32.074  1.00  0.00    -0.010 A 
ATOM      4  C   UNL     1      -9.160 -67.196 -30.974  1.00  0.00     0.055 A 
ATOM      5  C   UNL     1      -8.085 -67.245 -30.091  1.00  0.00     0.119 A 
ATOM      6  C   UNL     1      -7.006 -66.379 -30.268  1.00  0.00     0.093 A 
ATOM      7  C   UNL     1      -6.975 -65.484 -31.349  1.00  0.00     0.127 A 
ATOM      8  C   UNL     1      -7.983 -65.541 -32.351  1.00  0.00     0.035 A 
ATOM      9  C   UNL     1      -7.947 -64.780 -33.566  1.00  0.00     0.039 A 
ATOM     10  C   UNL     1      -9.163 -64.586 -34.280  1.00  0.00    -0.014 A 
ATOM     11  C   UNL     1      -9.206 -63.724 -35.382  1.00  0.00     0.013 A 
ATOM     12  C   UNL     1      -8.050 -63.092 -35.824  1.00  0.00     0.051 A 
ATOM     13  C   UNL     1      -6.819 -63.378 -35.237  1.00  0.00     0.158 A 
ATOM     14  C   UNL     1      -6.748 -64.297 -34.164  1.00  0.00     0.166 A 
ENDROOT
BRANCH  14  15
ATOM     15  O   UNL     1      -5.514 -64.824 -33.773  1.00  0.00    -0.504 OA
ATOM     16  H   UNL     1      -5.350 -65.267 -32.880  1.00  0.00     0.293 HD
ENDBRANCH  14  15
BRANCH   5  17
ATOM     17  O   UNL     1      -8.115 -68.133 -29.019  1.00  0.00    -0.508 OA
ATOM     18  H   UNL     1      -8.692 -68.966 -29.036  1.00  0.00     0.293 HD
ENDBRANCH   5  17
BRANCH   7  19
ATOM     19  O   UNL     1      -5.996 -64.490 -31.357  1.00  0.00    -0.507 OA
ATOM     20  H   UNL     1      -5.377 -64.341 -30.568  1.00  0.00     0.293 HD
ENDBRANCH   7  19
BRANCH  13  21
ATOM     21  O   UNL     1      -5.688 -62.741 -35.750  1.00  0.00    -0.504 OA
ATOM     22  H   UNL     1      -4.869 -63.237 -36.077  1.00  0.00     0.293 HD
ENDBRANCH  13  21
TORSDOF 4
ENDMDL
MODEL 3
REMARK VINA RESULT:    -7.436      1.714      2.701
REMARK INTER + INTRA:          -8.306
REMARK INTER:                  -8.306
REMARK INTRA:                   0.000
REMARK UNBOUND:                 0.000
REMARK SMILES Oc1cc(O)c2c(ccc3ccc(O)c(O)c32)c1
REMARK SMILES IDX 9 1 8 2 7 3 18 4 2 5 3 6 4 7 6 8 17 9 10 10 11 11 12 12
REMARK SMILES IDX 13 13 15 14 16 15 1 17 5 19 14 21
REMARK H PARENT 16 16 1 18 5 20 14 22
REMARK Flexibility Score: inf
ROOT
ATOM      1  C   UNL     1     -10.195 -66.062 -32.885  1.00  0.00     0.009 A 
ATOM      2  C   UNL     1     -10.201 -65.191 -33.967  1.00  0.00     0.009 A 
ATOM      3  C   UNL     1      -9.024 -64.547 -34.364  1.00  0.00    -0.010 A 
ATOM      4  C   UNL     1      -9.042 -63.731 -35.505  1.00  0.00     0.055 A 
ATOM      5  C   UNL     1      -7.861 -63.184 -36.000  1.00  0.00     0.119 A 
ATOM      6  C   UNL     1      -6.646 -63.497 -35.392  1.00  0.00     0.093 A 
ATOM      7  C   UNL     1      -6.603 -64.329 -34.263  1.00  0.00     0.127 A 
ATOM      8  C   UNL     1      -7.812 -64.757 -33.646  1.00  0.00     0.035 A 
ATOM      9  C   UNL     1      -7.867 -65.472 -32.405  1.00  0.00     0.039 A 
ATOM     10  C   UNL     1      -9.047 -66.205 -32.097  1.00  0.00    -0.014 A 
ATOM     11  C   UNL     1      -9.089 -67.041 -30.974  1.00  0.00     0.013 A 
ATOM     12  C   UNL     1      -7.996 -67.122 -30.119  1.00  0.00     0.051 A 
ATOM     13  C   UNL     1      -6.884 -66.304 -30.313  1.00  0.00     0.158 A 
ATOM     14  C   UNL     1      -6.854 -65.406 -31.406  1.00  0.00     0.166 A 
ENDROOT
BRANCH  14  15
ATOM     15  O   UNL     1      -5.908 -64.378 -31.442  1.00  0.00    -0.504 OA
ATOM     16  H   UNL     1      -5.617 -63.911 -32.290  1.00  0.00     0.293 HD
ENDBRANCH  14  15
BRANCH   5  17
ATOM     17  O   UNL     1      -7.903 -62.357 -37.121  1.00  0.00    -0.508 OA
ATOM     18  H   UNL     1      -8.660 -62.412 -37.793  1.00  0.00     0.293 HD
ENDBRANCH   5  17
BRANCH   7  19
ATOM     19  O   UNL     1      -5.361 -64.796 -33.832  1.00  0.00    -0.507 OA
ATOM     20  H   UNL     1      -4.820 -65.460 -34.374  1.00  0.00     0.293 HD
ENDBRANCH   7  19
BRANCH  13  21
ATOM     21  O   UNL     1      -5.835 -66.402 -29.398  1.00  0.00    -0.504 OA
ATOM     22  H   UNL     1      -4.862 -66.459 -29.670  1.00  0.00     0.293 HD
ENDBRANCH  13  21
TORSDOF 4
ENDMDL
MODEL 4
REMARK VINA RESULT:    -7.362      2.063      3.250
REMARK INTER + INTRA:          -8.222
REMARK INTER:                  -8.222
REMARK INTRA:                   0.000
REMARK UNBOUND:                 0.000
REMARK SMILES Oc1cc(O)c2c(ccc3ccc(O)c(O)c32)c1
REMARK SMILES IDX 9 1 8 2 7 3 18 4 2 5 3 6 4 7 6 8 17 9 10 10 11 11 12 12
REMARK SMILES IDX 13 13 15 14 16 15 1 17 5 19 14 21
REMARK H PARENT 16 16 1 18 5 20 14 22
REMARK Flexibility Score: inf
ROOT
ATOM      1  C   UNL     1      -6.343 -65.589 -31.039  1.00  0.00     0.009 A 
ATOM      2  C   UNL     1      -6.215 -64.926 -32.253  1.00  0.00     0.009 A 
ATOM      3  C   UNL     1      -7.303 -64.833 -33.127  1.00  0.00    -0.010 A 
ATOM      4  C   UNL     1      -7.168 -64.094 -34.312  1.00  0.00     0.055 A 
ATOM      5  C   UNL     1      -8.269 -63.874 -35.135  1.00  0.00     0.119 A 
ATOM      6  C   UNL     1      -9.526 -64.340 -34.749  1.00  0.00     0.093 A 
ATOM      7  C   UNL     1      -9.687 -65.062 -33.557  1.00  0.00     0.127 A 
ATOM      8  C   UNL     1      -8.547 -65.440 -32.792  1.00  0.00     0.035 A 
ATOM      9  C   UNL     1      -8.601 -66.309 -31.653  1.00  0.00     0.039 A 
ATOM     10  C   UNL     1      -7.517 -66.286 -30.732  1.00  0.00    -0.014 A 
ATOM     11  C   UNL     1      -7.595 -66.999 -29.529  1.00  0.00     0.013 A 
ATOM     12  C   UNL     1      -8.710 -67.779 -29.248  1.00  0.00     0.051 A 
ATOM     13  C   UNL     1      -9.719 -67.939 -30.195  1.00  0.00     0.158 A 
ATOM     14  C   UNL     1      -9.624 -67.277 -31.442  1.00  0.00     0.166 A 
ENDROOT
BRANCH  14  15
ATOM     15  O   UNL     1     -10.449 -67.660 -32.503  1.00  0.00    -0.504 OA
ATOM     16  H   UNL     1     -10.176 -67.608 -33.475  1.00  0.00     0.293 HD
ENDBRANCH  14  15
BRANCH   5  17
ATOM     17  O   UNL     1      -8.110 -63.157 -36.319  1.00  0.00    -0.508 OA
ATOM     18  H   UNL     1      -8.907 -62.854 -36.867  1.00  0.00     0.293 HD
ENDBRANCH   5  17
BRANCH   7  19
ATOM     19  O   UNL     1     -10.982 -65.306 -33.101  1.00  0.00    -0.507 OA
ATOM     20  H   UNL     1     -11.323 -66.246 -32.934  1.00  0.00     0.293 HD
ENDBRANCH   7  19
BRANCH  13  21
ATOM     21  O   UNL     1     -10.794 -68.768 -29.870  1.00  0.00    -0.504 OA
ATOM     22  H   UNL     1     -11.102 -68.934 -28.921  1.00  0.00     0.293 HD
ENDBRANCH  13  21
TORSDOF 4
ENDMDL
MODEL 5
REMARK VINA RESULT:    -7.283      2.411      3.375
REMARK INTER + INTRA:          -8.134
REMARK INTER:                  -8.134
REMARK INTRA:                   0.000
REMARK UNBOUND:                 0.000
REMARK SMILES Oc1cc(O)c2c(ccc3ccc(O)c(O)c32)c1
REMARK SMILES IDX 9 1 8 2 7 3 18 4 2 5 3 6 4 7 6 8 17 9 10 10 11 11 12 12
REMARK SMILES IDX 13 13 15 14 16 15 1 17 5 19 14 21
REMARK H PARENT 16 16 1 18 5 20 14 22
REMARK Flexibility Score: inf
ROOT
ATOM      1  C   UNL     1      -9.236 -68.367 -29.323  1.00  0.00     0.009 A 
ATOM      2  C   UNL     1      -8.570 -67.707 -30.348  1.00  0.00     0.009 A 
ATOM      3  C   UNL     1      -7.640 -66.704 -30.058  1.00  0.00    -0.010 A 
ATOM      4  C   UNL     1      -6.927 -66.106 -31.108  1.00  0.00     0.055 A 
ATOM      5  C   UNL     1      -5.903 -65.201 -30.842  1.00  0.00     0.119 A 
ATOM      6  C   UNL     1      -5.544 -64.934 -29.521  1.00  0.00     0.093 A 
ATOM      7  C   UNL     1      -6.228 -65.538 -28.456  1.00  0.00     0.127 A 
ATOM      8  C   UNL     1      -7.383 -66.330 -28.708  1.00  0.00     0.035 A 
ATOM      9  C   UNL     1      -8.234 -66.853 -27.679  1.00  0.00     0.039 A 
ATOM     10  C   UNL     1      -9.085 -67.949 -27.996  1.00  0.00    -0.014 A 
ATOM     11  C   UNL     1      -9.817 -68.591 -26.989  1.00  0.00     0.013 A 
ATOM     12  C   UNL     1      -9.762 -68.129 -25.679  1.00  0.00     0.051 A 
ATOM     13  C   UNL     1      -9.055 -66.969 -25.367  1.00  0.00     0.158 A 
ATOM     14  C   UNL     1      -8.364 -66.271 -26.385  1.00  0.00     0.166 A 
ENDROOT
BRANCH  14  15
ATOM     15  O   UNL     1      -7.918 -64.966 -26.161  1.00  0.00    -0.504 OA
ATOM     16  H   UNL     1      -7.828 -64.270 -26.889  1.00  0.00     0.293 HD
ENDBRANCH  14  15
BRANCH   5  17
ATOM     17  O   UNL     1      -5.224 -64.601 -31.899  1.00  0.00    -0.508 OA
ATOM     18  H   UNL     1      -5.714 -64.246 -32.712  1.00  0.00     0.293 HD
ENDBRANCH   5  17
BRANCH   7  19
ATOM     19  O   UNL     1      -5.692 -65.421 -27.173  1.00  0.00    -0.507 OA
ATOM     20  H   UNL     1      -5.296 -64.551 -26.835  1.00  0.00     0.293 HD
ENDBRANCH   7  19
BRANCH  13  21
ATOM     21  O   UNL     1      -9.070 -66.534 -24.041  1.00  0.00    -0.504 OA
ATOM     22  H   UNL     1      -8.242 -66.479 -23.463  1.00  0.00     0.293 HD
ENDBRANCH  13  21
TORSDOF 4
ENDMDL
MODEL 6
REMARK VINA RESULT:    -7.089      1.851      5.270
REMARK INTER + INTRA:          -7.918
REMARK INTER:                  -7.918
REMARK INTRA:                   0.000
REMARK UNBOUND:                 0.000
REMARK SMILES Oc1cc(O)c2c(ccc3ccc(O)c(O)c32)c1
REMARK SMILES IDX 9 1 8 2 7 3 18 4 2 5 3 6 4 7 6 8 17 9 10 10 11 11 12 12
REMARK SMILES IDX 13 13 15 14 16 15 1 17 5 19 14 21
REMARK H PARENT 16 16 1 18 5 20 14 22
REMARK Flexibility Score: inf
ROOT
ATOM      1  C   UNL     1      -9.481 -67.158 -31.589  1.00  0.00     0.009 A 
ATOM      2  C   UNL     1     -10.064 -68.023 -30.672  1.00  0.00     0.009 A 
ATOM      3  C   UNL     1      -9.587 -68.089 -29.359  1.00  0.00    -0.010 A 
ATOM      4  C   UNL     1     -10.241 -68.916 -28.433  1.00  0.00     0.055 A 
ATOM      5  C   UNL     1      -9.873 -68.902 -27.090  1.00  0.00     0.119 A 
ATOM      6  C   UNL     1      -8.887 -68.017 -26.653  1.00  0.00     0.093 A 
ATOM      7  C   UNL     1      -8.236 -67.166 -27.558  1.00  0.00     0.127 A 
ATOM      8  C   UNL     1      -8.481 -67.288 -28.955  1.00  0.00     0.035 A 
ATOM      9  C   UNL     1      -7.748 -66.575 -29.960  1.00  0.00     0.039 A 
ATOM     10  C   UNL     1      -8.328 -66.440 -31.252  1.00  0.00    -0.014 A 
ATOM     11  C   UNL     1      -7.724 -65.624 -32.217  1.00  0.00     0.013 A 
ATOM     12  C   UNL     1      -6.524 -64.981 -31.940  1.00  0.00     0.051 A 
ATOM     13  C   UNL     1      -5.858 -65.213 -30.738  1.00  0.00     0.158 A 
ATOM     14  C   UNL     1      -6.422 -66.086 -29.778  1.00  0.00     0.166 A 
ENDROOT
BRANCH  14  15
ATOM     15  O   UNL     1      -5.642 -66.567 -28.724  1.00  0.00    -0.504 OA
ATOM     16  H   UNL     1      -5.285 -65.985 -27.978  1.00  0.00     0.293 HD
ENDBRANCH  14  15
BRANCH   5  17
ATOM     17  O   UNL     1     -10.519 -69.747 -26.191  1.00  0.00    -0.508 OA
ATOM     18  H   UNL     1     -10.053 -70.093 -25.360  1.00  0.00     0.293 HD
ENDBRANCH   5  17
BRANCH   7  19
ATOM     19  O   UNL     1      -7.430 -66.149 -27.047  1.00  0.00    -0.507 OA
ATOM     20  H   UNL     1      -7.312 -65.264 -27.529  1.00  0.00     0.293 HD
ENDBRANCH   7  19
BRANCH  13  21
ATOM     21  O   UNL     1      -4.637 -64.568 -30.534  1.00  0.00    -0.504 OA
ATOM     22  H   UNL     1      -4.353 -64.181 -29.644  1.00  0.00     0.293 HD
ENDBRANCH  13  21
TORSDOF 4
ENDMDL
MODEL 7
REMARK VINA RESULT:    -7.018      1.894      5.779
REMARK INTER + INTRA:          -7.839
REMARK INTER:                  -7.839
REMARK INTRA:                   0.000
REMARK UNBOUND:                 0.000
REMARK SMILES Oc1cc(O)c2c(ccc3ccc(O)c(O)c32)c1
REMARK SMILES IDX 9 1 8 2 7 3 18 4 2 5 3 6 4 7 6 8 17 9 10 10 11 11 12 12
REMARK SMILES IDX 13 13 15 14 16 15 1 17 5 19 14 21
REMARK H PARENT 16 16 1 18 5 20 14 22
REMARK Flexibility Score: inf
ROOT
ATOM      1  C   UNL     1      -6.151 -65.489 -31.489  1.00  0.00     0.009 A 
ATOM      2  C   UNL     1      -6.630 -66.180 -30.384  1.00  0.00     0.009 A 
ATOM      3  C   UNL     1      -7.933 -66.688 -30.377  1.00  0.00    -0.010 A 
ATOM      4  C   UNL     1      -8.367 -67.447 -29.279  1.00  0.00     0.055 A 
ATOM      5  C   UNL     1      -9.609 -68.075 -29.302  1.00  0.00     0.119 A 
ATOM      6  C   UNL     1     -10.402 -67.998 -30.446  1.00  0.00     0.093 A 
ATOM      7  C   UNL     1      -9.978 -67.263 -31.563  1.00  0.00     0.127 A 
ATOM      8  C   UNL     1      -8.792 -66.479 -31.493  1.00  0.00     0.035 A 
ATOM      9  C   UNL     1      -8.369 -65.576 -32.523  1.00  0.00     0.039 A 
ATOM     10  C   UNL     1      -7.004 -65.174 -32.553  1.00  0.00    -0.014 A 
ATOM     11  C   UNL     1      -6.510 -64.421 -33.625  1.00  0.00     0.013 A 
ATOM     12  C   UNL     1      -7.362 -64.011 -34.644  1.00  0.00     0.051 A 
ATOM     13  C   UNL     1      -8.731 -64.261 -34.566  1.00  0.00     0.158 A 
ATOM     14  C   UNL     1      -9.255 -64.965 -33.457  1.00  0.00     0.166 A 
ENDROOT
BRANCH  14  15
ATOM     15  O   UNL     1     -10.630 -64.957 -33.207  1.00  0.00    -0.504 OA
ATOM     16  H   UNL     1     -11.036 -65.105 -32.294  1.00  0.00     0.293 HD
ENDBRANCH  14  15
BRANCH   5  17
ATOM     17  O   UNL     1     -10.031 -68.805 -28.193  1.00  0.00    -0.508 OA
ATOM     18  H   UNL     1     -10.014 -69.819 -28.187  1.00  0.00     0.293 HD
ENDBRANCH   5  17
BRANCH   7  19
ATOM     19  O   UNL     1     -10.689 -67.401 -32.756  1.00  0.00    -0.507 OA
ATOM     20  H   UNL     1     -11.480 -66.808 -32.980  1.00  0.00     0.293 HD
ENDBRANCH   7  19
BRANCH  13  21
ATOM     21  O   UNL     1      -9.540 -63.790 -35.601  1.00  0.00    -0.504 OA
ATOM     22  H   UNL     1     -10.356 -64.283 -35.939  1.00  0.00     0.293 HD
ENDBRANCH  13  21
TORSDOF 4
ENDMDL
MODEL 8
REMARK VINA RESULT:    -6.924      2.723      5.924
REMARK INTER + INTRA:          -7.734
REMARK INTER:                  -7.734
REMARK INTRA:                   0.000
REMARK UNBOUND:                 0.000
REMARK SMILES Oc1cc(O)c2c(ccc3ccc(O)c(O)c32)c1
REMARK SMILES IDX 9 1 8 2 7 3 18 4 2 5 3 6 4 7 6 8 17 9 10 10 11 11 12 12
REMARK SMILES IDX 13 13 15 14 16 15 1 17 5 19 14 21
REMARK H PARENT 16 16 1 18 5 20 14 22
REMARK Flexibility Score: inf
ROOT
ATOM      1  C   UNL     1      -8.952 -68.072 -29.657  1.00  0.00     0.009 A 
ATOM      2  C   UNL     1      -9.580 -68.363 -28.453  1.00  0.00     0.009 A 
ATOM      3  C   UNL     1      -9.339 -67.578 -27.321  1.00  0.00    -0.010 A 
ATOM      4  C   UNL     1     -10.043 -67.847 -26.137  1.00  0.00     0.055 A 
ATOM      5  C   UNL     1      -9.922 -67.004 -25.036  1.00  0.00     0.119 A 
ATOM      6  C   UNL     1      -9.141 -65.852 -25.130  1.00  0.00     0.093 A 
ATOM      7  C   UNL     1      -8.446 -65.552 -26.312  1.00  0.00     0.127 A 
ATOM      8  C   UNL     1      -8.424 -66.488 -27.384  1.00  0.00     0.035 A 
ATOM      9  C   UNL     1      -7.616 -66.339 -28.558  1.00  0.00     0.039 A 
ATOM     10  C   UNL     1      -7.970 -67.077 -29.722  1.00  0.00    -0.014 A 
ATOM     11  C   UNL     1      -7.307 -66.849 -30.934  1.00  0.00     0.013 A 
ATOM     12  C   UNL     1      -6.260 -65.938 -31.000  1.00  0.00     0.051 A 
ATOM     13  C   UNL     1      -5.794 -65.311 -29.845  1.00  0.00     0.158 A 
ATOM     14  C   UNL     1      -6.411 -65.580 -28.601  1.00  0.00     0.166 A 
ENDROOT
BRANCH  14  15
ATOM     15  O   UNL     1      -5.777 -65.213 -27.411  1.00  0.00    -0.504 OA
ATOM     16  H   UNL     1      -6.108 -65.478 -26.493  1.00  0.00     0.293 HD
ENDBRANCH  14  15
BRANCH   5  17
ATOM     17  O   UNL     1     -10.611 -67.302 -23.863  1.00  0.00    -0.508 OA
ATOM     18  H   UNL     1     -10.357 -68.095 -23.285  1.00  0.00     0.293 HD
ENDBRANCH   5  17
BRANCH   7  19
ATOM     19  O   UNL     1      -7.870 -64.288 -26.438  1.00  0.00    -0.507 OA
ATOM     20  H   UNL     1      -7.852 -63.628 -25.668  1.00  0.00     0.293 HD
ENDBRANCH   7  19
BRANCH  13  21
ATOM     21  O   UNL     1      -4.713 -64.436 -29.969  1.00  0.00    -0.504 OA
ATOM     22  H   UNL     1      -3.918 -64.614 -30.568  1.00  0.00     0.293 HD
ENDBRANCH  13  21
TORSDOF 4
ENDMDL
MODEL 9
REMARK VINA RESULT:    -6.554      7.865      9.377
REMARK INTER + INTRA:          -7.320
REMARK INTER:                  -7.320
REMARK INTRA:                   0.000
REMARK UNBOUND:                 0.000
REMARK SMILES Oc1cc(O)c2c(ccc3ccc(O)c(O)c32)c1
REMARK SMILES IDX 9 1 8 2 7 3 18 4 2 5 3 6 4 7 6 8 17 9 10 10 11 11 12 12
REMARK SMILES IDX 13 13 15 14 16 15 1 17 5 19 14 21
REMARK H PARENT 16 16 1 18 5 20 14 22
REMARK Flexibility Score: inf
ROOT
ATOM      1  C   UNL     1     -13.172 -67.356 -35.110  1.00  0.00     0.009 A 
ATOM      2  C   UNL     1     -12.559 -67.681 -36.313  1.00  0.00     0.009 A 
ATOM      3  C   UNL     1     -13.277 -67.625 -37.512  1.00  0.00    -0.010 A 
ATOM      4  C   UNL     1     -12.614 -67.886 -38.721  1.00  0.00     0.055 A 
ATOM      5  C   UNL     1     -13.268 -67.709 -39.937  1.00  0.00     0.119 A 
ATOM      6  C   UNL     1     -14.571 -67.214 -39.956  1.00  0.00     0.093 A 
ATOM      7  C   UNL     1     -15.245 -66.925 -38.759  1.00  0.00     0.127 A 
ATOM      8  C   UNL     1     -14.653 -67.259 -37.509  1.00  0.00     0.035 A 
ATOM      9  C   UNL     1     -15.330 -67.150 -36.250  1.00  0.00     0.039 A 
ATOM     10  C   UNL     1     -14.547 -67.099 -35.062  1.00  0.00    -0.014 A 
ATOM     11  C   UNL     1     -15.151 -66.836 -33.826  1.00  0.00     0.013 A 
ATOM     12  C   UNL     1     -16.529 -66.678 -33.739  1.00  0.00     0.051 A 
ATOM     13  C   UNL     1     -17.336 -66.870 -34.860  1.00  0.00     0.158 A 
ATOM     14  C   UNL     1     -16.746 -67.199 -36.103  1.00  0.00     0.166 A 
ENDROOT
BRANCH  14  15
ATOM     15  O   UNL     1     -17.536 -67.692 -37.144  1.00  0.00    -0.504 OA
ATOM     16  H   UNL     1     -17.558 -68.663 -37.423  1.00  0.00     0.293 HD
ENDBRANCH  14  15
BRANCH   5  17
ATOM     17  O   UNL     1     -12.599 -67.996 -41.125  1.00  0.00    -0.508 OA
ATOM     18  H   UNL     1     -12.856 -67.551 -41.999  1.00  0.00     0.293 HD
ENDBRANCH   5  17
BRANCH   7  19
ATOM     19  O   UNL     1     -16.448 -66.223 -38.830  1.00  0.00    -0.507 OA
ATOM     20  H   UNL     1     -16.541 -65.281 -38.467  1.00  0.00     0.293 HD
ENDBRANCH   7  19
BRANCH  13  21
ATOM     21  O   UNL     1     -18.716 -66.735 -34.700  1.00  0.00    -0.504 OA
ATOM     22  H   UNL     1     -19.140 -66.130 -34.010  1.00  0.00     0.293 HD
ENDBRANCH  13  21
TORSDOF 4
ENDMDL
