MODEL 1
REMARK VINA RESULT:    -4.950      0.000      0.000
REMARK INTER + INTRA:          -5.410
REMARK INTER:                  -5.239
REMARK INTRA:                  -0.171
REMARK UNBOUND:                -0.171
REMARK SMILES CC(C)[C@@H]1CC[C@@H](C)CC1=O
REMARK SMILES IDX 8 1 7 2 6 3 5 4 4 5 10 6 11 7 9 8 2 9 1 10 3 11
REMARK H PARENT
REMARK Flexibility Score: inf
ROOT
ATOM      1  C   UNL     1      20.353  50.623  47.387  1.00  0.00     0.008 C 
ATOM      2  C   UNL     1      20.351  49.627  46.222  1.00  0.00    -0.007 C 
ATOM      3  C   UNL     1      19.917  48.227  46.705  1.00  0.00     0.004 C 
ATOM      4  C   UNL     1      19.921  47.202  45.555  1.00  0.00     0.012 C 
ATOM      5  C   UNL     1      21.312  47.102  44.880  1.00  0.00     0.058 C 
ATOM      6  C   UNL     1      21.731  48.511  44.492  1.00  0.00     0.136 C 
ATOM      7  O   UNL     1      21.980  48.817  43.336  1.00  0.00    -0.299 OA
ATOM      8  C   UNL     1      21.739  49.567  45.560  1.00  0.00     0.079 C 
ENDROOT
BRANCH   5   9
ATOM      9  C   UNL     1      21.344  46.104  43.676  1.00  0.00    -0.007 C 
ATOM     10  C   UNL     1      19.966  45.925  43.014  1.00  0.00     0.008 C 
ATOM     11  C   UNL     1      21.853  44.721  44.124  1.00  0.00     0.008 C 
ENDBRANCH   5   9
TORSDOF 1
ENDMDL
MODEL 2
REMARK VINA RESULT:    -4.780      1.298      4.199
REMARK INTER + INTRA:          -5.230
REMARK INTER:                  -5.056
REMARK INTRA:                  -0.174
REMARK UNBOUND:                -0.171
REMARK SMILES CC(C)[C@@H]1CC[C@@H](C)CC1=O
REMARK SMILES IDX 8 1 7 2 6 3 5 4 4 5 10 6 11 7 9 8 2 9 1 10 3 11
REMARK H PARENT
REMARK Flexibility Score: inf
ROOT
ATOM      1  C   UNL     1      21.575  44.921  43.981  1.00  0.00     0.008 C 
ATOM      2  C   UNL     1      21.388  46.344  44.519  1.00  0.00    -0.007 C 
ATOM      3  C   UNL     1      20.094  46.443  45.355  1.00  0.00     0.004 C 
ATOM      4  C   UNL     1      19.875  47.869  45.895  1.00  0.00     0.012 C 
ATOM      5  C   UNL     1      19.828  48.915  44.753  1.00  0.00     0.058 C 
ATOM      6  C   UNL     1      21.081  48.728  43.913  1.00  0.00     0.136 C 
ATOM      7  O   UNL     1      21.889  49.629  43.747  1.00  0.00    -0.299 OA
ATOM      8  C   UNL     1      21.367  47.360  43.364  1.00  0.00     0.079 C 
ENDROOT
BRANCH   5   9
ATOM      9  C   UNL     1      19.652  50.382  45.266  1.00  0.00    -0.007 C 
ATOM     10  C   UNL     1      19.917  50.522  46.775  1.00  0.00     0.008 C 
ATOM     11  C   UNL     1      18.232  50.899  44.970  1.00  0.00     0.008 C 
ENDBRANCH   5   9
TORSDOF 1
ENDMDL
MODEL 3
REMARK VINA RESULT:    -4.573      1.979      4.178
REMARK INTER + INTRA:          -5.012
REMARK INTER:                  -4.852
REMARK INTRA:                  -0.159
REMARK UNBOUND:                -0.171
REMARK SMILES CC(C)[C@@H]1CC[C@@H](C)CC1=O
REMARK SMILES IDX 8 1 7 2 6 3 5 4 4 5 10 6 11 7 9 8 2 9 1 10 3 11
REMARK H PARENT
REMARK Flexibility Score: inf
ROOT
ATOM      1  C   UNL     1      21.716  45.115  44.117  1.00  0.00     0.008 C 
ATOM      2  C   UNL     1      21.165  46.493  44.498  1.00  0.00    -0.007 C 
ATOM      3  C   UNL     1      19.656  46.407  44.814  1.00  0.00     0.004 C 
ATOM      4  C   UNL     1      19.074  47.783  45.186  1.00  0.00     0.012 C 
ATOM      5  C   UNL     1      19.302  48.825  44.062  1.00  0.00     0.058 C 
ATOM      6  C   UNL     1      20.786  48.820  43.731  1.00  0.00     0.136 C 
ATOM      7  O   UNL     1      21.474  49.824  43.828  1.00  0.00    -0.299 OA
ATOM      8  C   UNL     1      21.425  47.509  43.372  1.00  0.00     0.079 C 
ENDROOT
BRANCH   5   9
ATOM      9  C   UNL     1      18.764  50.250  44.422  1.00  0.00    -0.007 C 
ATOM     10  C   UNL     1      17.754  50.229  45.583  1.00  0.00     0.008 C 
ATOM     11  C   UNL     1      18.091  50.906  43.202  1.00  0.00     0.008 C 
ENDBRANCH   5   9
TORSDOF 1
ENDMDL
MODEL 4
REMARK VINA RESULT:    -4.448      1.490      4.353
REMARK INTER + INTRA:          -4.879
REMARK INTER:                  -4.709
REMARK INTRA:                  -0.169
REMARK UNBOUND:                -0.171
REMARK SMILES CC(C)[C@@H]1CC[C@@H](C)CC1=O
REMARK SMILES IDX 8 1 7 2 6 3 5 4 4 5 10 6 11 7 9 8 2 9 1 10 3 11
REMARK H PARENT
REMARK Flexibility Score: inf
ROOT
ATOM      1  C   UNL     1      19.250  45.623  42.024  1.00  0.00     0.008 C 
ATOM      2  C   UNL     1      19.960  46.819  42.666  1.00  0.00    -0.007 C 
ATOM      3  C   UNL     1      20.963  46.344  43.739  1.00  0.00     0.004 C 
ATOM      4  C   UNL     1      21.681  47.529  44.412  1.00  0.00     0.012 C 
ATOM      5  C   UNL     1      20.676  48.519  45.053  1.00  0.00     0.058 C 
ATOM      6  C   UNL     1      19.665  48.899  43.982  1.00  0.00     0.136 C 
ATOM      7  O   UNL     1      19.495  50.058  43.634  1.00  0.00    -0.299 OA
ATOM      8  C   UNL     1      18.936  47.793  43.274  1.00  0.00     0.079 C 
ENDROOT
BRANCH   5   9
ATOM      9  C   UNL     1      21.366  49.762  45.706  1.00  0.00    -0.007 C 
ATOM     10  C   UNL     1      22.897  49.740  45.558  1.00  0.00     0.008 C 
ATOM     11  C   UNL     1      21.022  49.854  47.205  1.00  0.00     0.008 C 
ENDBRANCH   5   9
TORSDOF 1
ENDMDL
MODEL 5
REMARK VINA RESULT:    -4.382      2.176      4.539
REMARK INTER + INTRA:          -4.809
REMARK INTER:                  -4.639
REMARK INTRA:                  -0.170
REMARK UNBOUND:                -0.171
REMARK SMILES CC(C)[C@@H]1CC[C@@H](C)CC1=O
REMARK SMILES IDX 8 1 7 2 6 3 5 4 4 5 10 6 11 7 9 8 2 9 1 10 3 11
REMARK H PARENT
REMARK Flexibility Score: inf
ROOT
ATOM      1  C   UNL     1      21.851  44.702  44.159  1.00  0.00     0.008 C 
ATOM      2  C   UNL     1      20.817  45.830  44.082  1.00  0.00    -0.007 C 
ATOM      3  C   UNL     1      21.451  47.108  43.493  1.00  0.00     0.004 C 
ATOM      4  C   UNL     1      20.435  48.264  43.418  1.00  0.00     0.012 C 
ATOM      5  C   UNL     1      19.828  48.586  44.807  1.00  0.00     0.058 C 
ATOM      6  C   UNL     1      19.287  47.285  45.379  1.00  0.00     0.136 C 
ATOM      7  O   UNL     1      18.112  47.153  45.686  1.00  0.00    -0.299 OA
ATOM      8  C   UNL     1      20.219  46.111  45.471  1.00  0.00     0.079 C 
ENDROOT
BRANCH   5   9
ATOM      9  C   UNL     1      18.756  49.724  44.763  1.00  0.00    -0.007 C 
ATOM     10  C   UNL     1      18.494  50.242  43.338  1.00  0.00     0.008 C 
ATOM     11  C   UNL     1      19.184  50.913  45.644  1.00  0.00     0.008 C 
ENDBRANCH   5   9
TORSDOF 1
ENDMDL
MODEL 6
REMARK VINA RESULT:    -4.363      1.609      2.435
REMARK INTER + INTRA:          -4.789
REMARK INTER:                  -4.622
REMARK INTRA:                  -0.167
REMARK UNBOUND:                -0.171
REMARK SMILES CC(C)[C@@H]1CC[C@@H](C)CC1=O
REMARK SMILES IDX 8 1 7 2 6 3 5 4 4 5 10 6 11 7 9 8 2 9 1 10 3 11
REMARK H PARENT
REMARK Flexibility Score: inf
ROOT
ATOM      1  C   UNL     1      21.061  50.798  47.466  1.00  0.00     0.008 C 
ATOM      2  C   UNL     1      21.116  49.420  46.798  1.00  0.00    -0.007 C 
ATOM      3  C   UNL     1      21.562  49.547  45.326  1.00  0.00     0.004 C 
ATOM      4  C   UNL     1      21.612  48.175  44.627  1.00  0.00     0.012 C 
ATOM      5  C   UNL     1      20.244  47.451  44.686  1.00  0.00     0.058 C 
ATOM      6  C   UNL     1      19.809  47.419  46.142  1.00  0.00     0.136 C 
ATOM      7  O   UNL     1      19.589  46.369  46.729  1.00  0.00    -0.299 OA
ATOM      8  C   UNL     1      19.750  48.718  46.893  1.00  0.00     0.079 C 
ENDROOT
BRANCH   5   9
ATOM      9  C   UNL     1      20.266  46.033  44.025  1.00  0.00    -0.007 C 
ATOM     10  C   UNL     1      21.657  45.376  44.073  1.00  0.00     0.008 C 
ATOM     11  C   UNL     1      19.810  46.106  42.556  1.00  0.00     0.008 C 
ENDBRANCH   5   9
TORSDOF 1
ENDMDL
MODEL 7
REMARK VINA RESULT:    -4.296      1.815      4.246
REMARK INTER + INTRA:          -4.718
REMARK INTER:                  -4.547
REMARK INTRA:                  -0.172
REMARK UNBOUND:                -0.171
REMARK SMILES CC(C)[C@@H]1CC[C@@H](C)CC1=O
REMARK SMILES IDX 8 1 7 2 6 3 5 4 4 5 10 6 11 7 9 8 2 9 1 10 3 11
REMARK H PARENT
REMARK Flexibility Score: inf
ROOT
ATOM      1  C   UNL     1      17.732  46.327  41.883  1.00  0.00     0.008 C 
ATOM      2  C   UNL     1      18.678  46.854  42.967  1.00  0.00    -0.007 C 
ATOM      3  C   UNL     1      18.605  48.394  43.051  1.00  0.00     0.004 C 
ATOM      4  C   UNL     1      19.559  48.951  44.125  1.00  0.00     0.012 C 
ATOM      5  C   UNL     1      21.025  48.521  43.867  1.00  0.00     0.058 C 
ATOM      6  C   UNL     1      21.036  47.009  43.714  1.00  0.00     0.136 C 
ATOM      7  O   UNL     1      21.701  46.289  44.445  1.00  0.00    -0.299 OA
ATOM      8  C   UNL     1      20.121  46.394  42.695  1.00  0.00     0.079 C 
ENDROOT
BRANCH   5   9
ATOM      9  C   UNL     1      22.019  49.030  44.963  1.00  0.00    -0.007 C 
ATOM     10  C   UNL     1      21.306  49.709  46.145  1.00  0.00     0.008 C 
ATOM     11  C   UNL     1      23.030  50.026  44.365  1.00  0.00     0.008 C 
ENDBRANCH   5   9
TORSDOF 1
ENDMDL
MODEL 8
REMARK VINA RESULT:    -4.210      2.182      3.301
REMARK INTER + INTRA:          -4.627
REMARK INTER:                  -4.470
REMARK INTRA:                  -0.156
REMARK UNBOUND:                -0.171
REMARK SMILES CC(C)[C@@H]1CC[C@@H](C)CC1=O
REMARK SMILES IDX 8 1 7 2 6 3 5 4 4 5 10 6 11 7 9 8 2 9 1 10 3 11
REMARK H PARENT
REMARK Flexibility Score: inf
ROOT
ATOM      1  C   UNL     1      23.360  51.574  48.271  1.00  0.00     0.008 C 
ATOM      2  C   UNL     1      22.698  50.460  47.453  1.00  0.00    -0.007 C 
ATOM      3  C   UNL     1      23.243  50.448  46.009  1.00  0.00     0.004 C 
ATOM      4  C   UNL     1      22.582  49.346  45.161  1.00  0.00     0.012 C 
ATOM      5  C   UNL     1      21.040  49.496  45.124  1.00  0.00     0.058 C 
ATOM      6  C   UNL     1      20.558  49.582  46.564  1.00  0.00     0.136 C 
ATOM      7  O   UNL     1      19.758  48.782  47.026  1.00  0.00    -0.299 OA
ATOM      8  C   UNL     1      21.168  50.625  47.454  1.00  0.00     0.079 C 
ENDROOT
BRANCH   5   9
ATOM      9  C   UNL     1      20.329  48.367  44.309  1.00  0.00    -0.007 C 
ATOM     10  C   UNL     1      21.275  47.655  43.326  1.00  0.00     0.008 C 
ATOM     11  C   UNL     1      19.136  48.933  43.516  1.00  0.00     0.008 C 
ENDBRANCH   5   9
TORSDOF 1
ENDMDL
MODEL 9
REMARK VINA RESULT:    -4.180      2.558      3.571
REMARK INTER + INTRA:          -4.595
REMARK INTER:                  -4.430
REMARK INTRA:                  -0.165
REMARK UNBOUND:                -0.171
REMARK SMILES CC(C)[C@@H]1CC[C@@H](C)CC1=O
REMARK SMILES IDX 8 1 7 2 6 3 5 4 4 5 10 6 11 7 9 8 2 9 1 10 3 11
REMARK H PARENT
REMARK Flexibility Score: inf
ROOT
ATOM      1  C   UNL     1      23.114  49.748  45.537  1.00  0.00     0.008 C 
ATOM      2  C   UNL     1      21.769  49.103  45.186  1.00  0.00    -0.007 C 
ATOM      3  C   UNL     1      21.767  48.612  43.723  1.00  0.00     0.004 C 
ATOM      4  C   UNL     1      20.419  47.972  43.340  1.00  0.00     0.012 C 
ATOM      5  C   UNL     1      19.238  48.951  43.553  1.00  0.00     0.058 C 
ATOM      6  C   UNL     1      19.326  49.467  44.981  1.00  0.00     0.136 C 
ATOM      7  O   UNL     1      18.416  49.314  45.781  1.00  0.00    -0.299 OA
ATOM      8  C   UNL     1      20.616  50.092  45.429  1.00  0.00     0.079 C 
ENDROOT
BRANCH   5   9
ATOM      9  C   UNL     1      17.845  48.322  43.219  1.00  0.00    -0.007 C 
ATOM     10  C   UNL     1      17.962  46.963  42.505  1.00  0.00     0.008 C 
ATOM     11  C   UNL     1      17.015  49.269  42.332  1.00  0.00     0.008 C 
ENDBRANCH   5   9
TORSDOF 1
ENDMDL
