MODEL 1
REMARK VINA RESULT:    -3.824      0.000      0.000
REMARK INTER + INTRA:          -4.160
REMARK INTER:                  -4.160
REMARK INTRA:                   0.000
REMARK UNBOUND:                 0.000
REMARK SMILES Oc1cccc(O)c1O
REMARK SMILES IDX 4 1 5 2 6 3 8 4 2 5 3 6 7 7 1 9 9 11
REMARK H PARENT 7 8 1 10 9 12
REMARK Flexibility Score: inf
ROOT
ATOM      1  C   UNL     1      34.121 -39.882  12.258  1.00  0.00     0.008 A 
ATOM      2  C   UNL     1      34.034 -38.917  11.252  1.00  0.00     0.050 A 
ATOM      3  C   UNL     1      34.331 -37.576  11.523  1.00  0.00     0.161 A 
ATOM      4  C   UNL     1      34.723 -37.200  12.832  1.00  0.00     0.200 A 
ATOM      5  C   UNL     1      34.808 -38.177  13.837  1.00  0.00     0.161 A 
ATOM      6  C   UNL     1      34.507 -39.514  13.547  1.00  0.00     0.050 A 
ENDROOT
BRANCH   3   7
ATOM      7  O   UNL     1      34.224 -36.660  10.475  1.00  0.00    -0.504 OA
ATOM      8  H   UNL     1      33.371 -36.179  10.230  1.00  0.00     0.293 HD
ENDBRANCH   3   7
BRANCH   5   9
ATOM      9  O   UNL     1      35.193 -37.809  15.125  1.00  0.00    -0.504 OA
ATOM     10  H   UNL     1      35.342 -38.500  15.852  1.00  0.00     0.293 HD
ENDBRANCH   5   9
BRANCH   4  11
ATOM     11  O   UNL     1      35.034 -35.880  13.173  1.00  0.00    -0.502 OA
ATOM     12  H   UNL     1      35.932 -35.451  13.009  1.00  0.00     0.293 HD
ENDBRANCH   4  11
TORSDOF 3
ENDMDL
MODEL 2
REMARK VINA RESULT:    -3.660     17.193     17.519
REMARK INTER + INTRA:          -3.981
REMARK INTER:                  -3.981
REMARK INTRA:                   0.000
REMARK UNBOUND:                 0.000
REMARK SMILES Oc1cccc(O)c1O
REMARK SMILES IDX 4 1 5 2 6 3 8 4 2 5 3 6 7 7 1 9 9 11
REMARK H PARENT 7 8 1 10 9 12
REMARK Flexibility Score: inf
ROOT
ATOM      1  C   UNL     1      33.833 -44.337  -3.961  1.00  0.00     0.008 A 
ATOM      2  C   UNL     1      32.473 -44.045  -4.078  1.00  0.00     0.050 A 
ATOM      3  C   UNL     1      32.035 -42.719  -4.178  1.00  0.00     0.161 A 
ATOM      4  C   UNL     1      32.985 -41.668  -4.161  1.00  0.00     0.200 A 
ATOM      5  C   UNL     1      34.351 -41.971  -4.043  1.00  0.00     0.161 A 
ATOM      6  C   UNL     1      34.771 -43.304  -3.945  1.00  0.00     0.050 A 
ENDROOT
BRANCH   3   7
ATOM      7  O   UNL     1      30.661 -42.494  -4.290  1.00  0.00    -0.504 OA
ATOM      8  H   UNL     1      30.243 -41.881  -4.975  1.00  0.00     0.293 HD
ENDBRANCH   3   7
BRANCH   5   9
ATOM      9  O   UNL     1      35.287 -40.938  -4.026  1.00  0.00    -0.504 OA
ATOM     10  H   UNL     1      35.465 -40.371  -4.848  1.00  0.00     0.293 HD
ENDBRANCH   5   9
BRANCH   4  11
ATOM     11  O   UNL     1      32.618 -40.322  -4.256  1.00  0.00    -0.502 OA
ATOM     12  H   UNL     1      31.728 -40.004  -4.612  1.00  0.00     0.293 HD
ENDBRANCH   4  11
TORSDOF 3
ENDMDL
MODEL 3
REMARK VINA RESULT:    -3.660     17.202     17.688
REMARK INTER + INTRA:          -3.981
REMARK INTER:                  -3.981
REMARK INTRA:                   0.000
REMARK UNBOUND:                 0.000
REMARK SMILES Oc1cccc(O)c1O
REMARK SMILES IDX 4 1 5 2 6 3 8 4 2 5 3 6 7 7 1 9 9 11
REMARK H PARENT 7 8 1 10 9 12
REMARK Flexibility Score: inf
ROOT
ATOM      1  C   UNL     1      35.424 -42.652  -3.990  1.00  0.00     0.008 A 
ATOM      2  C   UNL     1      34.670 -43.827  -3.990  1.00  0.00     0.050 A 
ATOM      3  C   UNL     1      33.273 -43.778  -4.076  1.00  0.00     0.161 A 
ATOM      4  C   UNL     1      32.624 -42.522  -4.164  1.00  0.00     0.200 A 
ATOM      5  C   UNL     1      33.391 -41.345  -4.163  1.00  0.00     0.161 A 
ATOM      6  C   UNL     1      34.787 -41.414  -4.077  1.00  0.00     0.050 A 
ENDROOT
BRANCH   3   7
ATOM      7  O   UNL     1      32.578 -44.988  -4.070  1.00  0.00    -0.504 OA
ATOM      8  H   UNL     1      32.626 -45.665  -3.322  1.00  0.00     0.293 HD
ENDBRANCH   3   7
BRANCH   5   9
ATOM      9  O   UNL     1      32.754 -40.108  -4.250  1.00  0.00    -0.504 OA
ATOM     10  H   UNL     1      31.778 -39.995  -4.000  1.00  0.00     0.293 HD
ENDBRANCH   5   9
BRANCH   4  11
ATOM     11  O   UNL     1      31.235 -42.399  -4.253  1.00  0.00    -0.502 OA
ATOM     12  H   UNL     1      30.658 -42.945  -4.875  1.00  0.00     0.293 HD
ENDBRANCH   4  11
TORSDOF 3
ENDMDL
MODEL 4
REMARK VINA RESULT:    -3.650     17.229     17.638
REMARK INTER + INTRA:          -3.970
REMARK INTER:                  -3.970
REMARK INTRA:                   0.000
REMARK UNBOUND:                 0.000
REMARK SMILES Oc1cccc(O)c1O
REMARK SMILES IDX 4 1 5 2 6 3 8 4 2 5 3 6 7 7 1 9 9 11
REMARK H PARENT 7 8 1 10 9 12
REMARK Flexibility Score: inf
ROOT
ATOM      1  C   UNL     1      35.241 -42.805  -4.002  1.00  0.00     0.008 A 
ATOM      2  C   UNL     1      34.669 -41.535  -4.097  1.00  0.00     0.050 A 
ATOM      3  C   UNL     1      33.279 -41.382  -4.167  1.00  0.00     0.161 A 
ATOM      4  C   UNL     1      32.450 -42.531  -4.141  1.00  0.00     0.200 A 
ATOM      5  C   UNL     1      33.034 -43.804  -4.046  1.00  0.00     0.161 A 
ATOM      6  C   UNL     1      34.426 -43.937  -3.976  1.00  0.00     0.050 A 
ENDROOT
BRANCH   3   7
ATOM      7  O   UNL     1      32.770 -40.085  -4.262  1.00  0.00    -0.504 OA
ATOM      8  H   UNL     1      33.261 -39.261  -3.945  1.00  0.00     0.293 HD
ENDBRANCH   3   7
BRANCH   5   9
ATOM      9  O   UNL     1      32.219 -44.935  -4.020  1.00  0.00    -0.504 OA
ATOM     10  H   UNL     1      32.335 -45.687  -4.690  1.00  0.00     0.293 HD
ENDBRANCH   5   9
BRANCH   4  11
ATOM     11  O   UNL     1      31.056 -42.452  -4.208  1.00  0.00    -0.502 OA
ATOM     12  H   UNL     1      30.554 -41.814  -4.808  1.00  0.00     0.293 HD
ENDBRANCH   4  11
TORSDOF 3
ENDMDL
MODEL 5
REMARK VINA RESULT:    -3.624     17.194     17.540
REMARK INTER + INTRA:          -3.942
REMARK INTER:                  -3.942
REMARK INTRA:                   0.000
REMARK UNBOUND:                 0.000
REMARK SMILES Oc1cccc(O)c1O
REMARK SMILES IDX 4 1 5 2 6 3 8 4 2 5 3 6 7 7 1 9 9 11
REMARK H PARENT 7 8 1 10 9 12
REMARK Flexibility Score: inf
ROOT
ATOM      1  C   UNL     1      34.126 -44.250  -3.975  1.00  0.00     0.008 A 
ATOM      2  C   UNL     1      35.020 -43.178  -3.965  1.00  0.00     0.050 A 
ATOM      3  C   UNL     1      34.556 -41.861  -4.064  1.00  0.00     0.161 A 
ATOM      4  C   UNL     1      33.164 -41.619  -4.175  1.00  0.00     0.200 A 
ATOM      5  C   UNL     1      32.272 -42.703  -4.184  1.00  0.00     0.161 A 
ATOM      6  C   UNL     1      32.755 -44.014  -4.083  1.00  0.00     0.050 A 
ENDROOT
BRANCH   3   7
ATOM      7  O   UNL     1      35.502 -40.834  -4.050  1.00  0.00    -0.504 OA
ATOM      8  H   UNL     1      35.575 -40.123  -4.763  1.00  0.00     0.293 HD
ENDBRANCH   3   7
BRANCH   5   9
ATOM      9  O   UNL     1      30.902 -42.467  -4.292  1.00  0.00    -0.504 OA
ATOM     10  H   UNL     1      30.244 -42.844  -3.619  1.00  0.00     0.293 HD
ENDBRANCH   5   9
BRANCH   4  11
ATOM     11  O   UNL     1      32.632 -40.331  -4.277  1.00  0.00    -0.502 OA
ATOM     12  H   UNL     1      33.106 -39.558  -4.720  1.00  0.00     0.293 HD
ENDBRANCH   4  11
TORSDOF 3
ENDMDL
MODEL 6
REMARK VINA RESULT:    -3.576      0.239      2.820
REMARK INTER + INTRA:          -3.890
REMARK INTER:                  -3.890
REMARK INTRA:                   0.000
REMARK UNBOUND:                 0.000
REMARK SMILES Oc1cccc(O)c1O
REMARK SMILES IDX 4 1 5 2 6 3 8 4 2 5 3 6 7 7 1 9 9 11
REMARK H PARENT 7 8 1 10 9 12
REMARK Flexibility Score: inf
ROOT
ATOM      1  C   UNL     1      34.336 -40.041  12.376  1.00  0.00     0.008 A 
ATOM      2  C   UNL     1      34.638 -39.535  13.641  1.00  0.00     0.050 A 
ATOM      3  C   UNL     1      34.812 -38.158  13.835  1.00  0.00     0.161 A 
ATOM      4  C   UNL     1      34.679 -37.277  12.734  1.00  0.00     0.200 A 
ATOM      5  C   UNL     1      34.375 -37.796  11.465  1.00  0.00     0.161 A 
ATOM      6  C   UNL     1      34.204 -39.175  11.290  1.00  0.00     0.050 A 
ENDROOT
BRANCH   3   7
ATOM      7  O   UNL     1      35.114 -37.716  15.125  1.00  0.00    -0.504 OA
ATOM      8  H   UNL     1      34.531 -37.886  15.931  1.00  0.00     0.293 HD
ENDBRANCH   3   7
BRANCH   5   9
ATOM      9  O   UNL     1      34.243 -36.930  10.381  1.00  0.00    -0.504 OA
ATOM     10  H   UNL     1      34.717 -37.105   9.501  1.00  0.00     0.293 HD
ENDBRANCH   5   9
BRANCH   4  11
ATOM     11  O   UNL     1      34.840 -35.894  12.856  1.00  0.00    -0.502 OA
ATOM     12  H   UNL     1      34.089 -35.227  12.750  1.00  0.00     0.293 HD
ENDBRANCH   4  11
TORSDOF 3
ENDMDL
MODEL 7
REMARK VINA RESULT:    -3.487      1.781      2.853
REMARK INTER + INTRA:          -3.793
REMARK INTER:                  -3.793
REMARK INTRA:                   0.000
REMARK UNBOUND:                 0.000
REMARK SMILES Oc1cccc(O)c1O
REMARK SMILES IDX 4 1 5 2 6 3 8 4 2 5 3 6 7 7 1 9 9 11
REMARK H PARENT 7 8 1 10 9 12
REMARK Flexibility Score: inf
ROOT
ATOM      1  C   UNL     1      33.967 -38.494  11.366  1.00  0.00     0.008 A 
ATOM      2  C   UNL     1      34.348 -39.826  11.539  1.00  0.00     0.050 A 
ATOM      3  C   UNL     1      35.066 -40.220  12.676  1.00  0.00     0.161 A 
ATOM      4  C   UNL     1      35.406 -39.255  13.655  1.00  0.00     0.200 A 
ATOM      5  C   UNL     1      35.018 -37.917  13.473  1.00  0.00     0.161 A 
ATOM      6  C   UNL     1      34.299 -37.542  12.330  1.00  0.00     0.050 A 
ENDROOT
BRANCH   3   7
ATOM      7  O   UNL     1      35.419 -41.566  12.788  1.00  0.00    -0.504 OA
ATOM      8  H   UNL     1      34.995 -42.209  13.441  1.00  0.00     0.293 HD
ENDBRANCH   3   7
BRANCH   5   9
ATOM      9  O   UNL     1      35.351 -36.966  14.436  1.00  0.00    -0.504 OA
ATOM     10  H   UNL     1      34.715 -36.730  15.190  1.00  0.00     0.293 HD
ENDBRANCH   5   9
BRANCH   4  11
ATOM     11  O   UNL     1      36.121 -39.578  14.812  1.00  0.00    -0.502 OA
ATOM     12  H   UNL     1      35.975 -39.135  15.707  1.00  0.00     0.293 HD
ENDBRANCH   4  11
TORSDOF 3
ENDMDL
MODEL 8
REMARK VINA RESULT:    -3.470     14.353     16.109
REMARK INTER + INTRA:          -3.774
REMARK INTER:                  -3.774
REMARK INTRA:                   0.000
REMARK UNBOUND:                 0.000
REMARK SMILES Oc1cccc(O)c1O
REMARK SMILES IDX 4 1 5 2 6 3 8 4 2 5 3 6 7 7 1 9 9 11
REMARK H PARENT 7 8 1 10 9 12
REMARK Flexibility Score: inf
ROOT
ATOM      1  C   UNL     1      35.625 -40.657  -1.567  1.00  0.00     0.008 A 
ATOM      2  C   UNL     1      34.352 -40.252  -1.164  1.00  0.00     0.050 A 
ATOM      3  C   UNL     1      33.286 -40.241  -2.073  1.00  0.00     0.161 A 
ATOM      4  C   UNL     1      33.508 -40.647  -3.412  1.00  0.00     0.200 A 
ATOM      5  C   UNL     1      34.793 -41.054  -3.808  1.00  0.00     0.161 A 
ATOM      6  C   UNL     1      35.846 -41.058  -2.885  1.00  0.00     0.050 A 
ENDROOT
BRANCH   3   7
ATOM      7  O   UNL     1      32.038 -39.823  -1.608  1.00  0.00    -0.504 OA
ATOM      8  H   UNL     1      31.181 -39.905  -2.136  1.00  0.00     0.293 HD
ENDBRANCH   3   7
BRANCH   5   9
ATOM      9  O   UNL     1      35.013 -41.454  -5.125  1.00  0.00    -0.504 OA
ATOM     10  H   UNL     1      34.764 -42.383  -5.446  1.00  0.00     0.293 HD
ENDBRANCH   5   9
BRANCH   4  11
ATOM     11  O   UNL     1      32.491 -40.660  -4.371  1.00  0.00    -0.502 OA
ATOM     12  H   UNL     1      32.256 -41.466  -4.932  1.00  0.00     0.293 HD
ENDBRANCH   4  11
TORSDOF 3
ENDMDL
MODEL 9
REMARK VINA RESULT:    -3.382     13.793     15.624
REMARK INTER + INTRA:          -3.679
REMARK INTER:                  -3.679
REMARK INTRA:                   0.000
REMARK UNBOUND:                 0.000
REMARK SMILES Oc1cccc(O)c1O
REMARK SMILES IDX 4 1 5 2 6 3 8 4 2 5 3 6 7 7 1 9 9 11
REMARK H PARENT 7 8 1 10 9 12
REMARK Flexibility Score: inf
ROOT
ATOM      1  C   UNL     1      35.996 -40.675  -3.155  1.00  0.00     0.008 A 
ATOM      2  C   UNL     1      35.833 -40.300  -1.820  1.00  0.00     0.050 A 
ATOM      3  C   UNL     1      34.556 -40.047  -1.302  1.00  0.00     0.161 A 
ATOM      4  C   UNL     1      33.424 -40.175  -2.144  1.00  0.00     0.200 A 
ATOM      5  C   UNL     1      33.599 -40.553  -3.486  1.00  0.00     0.161 A 
ATOM      6  C   UNL     1      34.883 -40.803  -3.986  1.00  0.00     0.050 A 
ENDROOT
BRANCH   3   7
ATOM      7  O   UNL     1      34.461 -39.673   0.040  1.00  0.00    -0.504 OA
ATOM      8  H   UNL     1      33.633 -39.799   0.604  1.00  0.00     0.293 HD
ENDBRANCH   3   7
BRANCH   5   9
ATOM      9  O   UNL     1      32.486 -40.680  -4.316  1.00  0.00    -0.504 OA
ATOM     10  H   UNL     1      32.581 -40.922  -5.296  1.00  0.00     0.293 HD
ENDBRANCH   5   9
BRANCH   4  11
ATOM     11  O   UNL     1      32.122 -39.938  -1.694  1.00  0.00    -0.502 OA
ATOM     12  H   UNL     1      31.781 -40.212  -0.785  1.00  0.00     0.293 HD
ENDBRANCH   4  11
TORSDOF 3
ENDMDL
