MODEL 1
REMARK VINA RESULT:    -5.876      0.000      0.000
REMARK INTER + INTRA:         -10.668
REMARK INTER:                  -9.139
REMARK INTRA:                  -1.530
REMARK UNBOUND:                -1.530
REMARK SMILES COc1cc(CNC(=O)CCCCC=CC(C)C)ccc1O
REMARK SMILES IDX 11 1 12 2 13 3 14 4 15 5 16 6 17 7 18 8 10 9 8 10 9 11 7 12
REMARK SMILES IDX 6 14 5 15 4 16 19 17 3 18 20 19 21 20 2 21 1 22 22 23
REMARK H PARENT 7 13 22 24
REMARK Flexibility Score: inf
ROOT
ATOM      1  C   UNL     1     180.955 177.666 173.853  1.00  0.00     0.010 C 
ENDROOT
BRANCH   1   2
ATOM      2  C   UNL     1     180.498 178.860 174.710  1.00  0.00     0.005 C 
BRANCH   2   3
ATOM      3  C   UNL     1     180.397 178.501 176.202  1.00  0.00     0.027 C 
BRANCH   3   4
ATOM      4  C   UNL     1     181.415 179.240 177.042  1.00  0.00    -0.031 C 
ATOM      5  C   UNL     1     181.123 180.122 178.019  1.00  0.00    -0.028 C 
BRANCH   5   6
ATOM      6  C   UNL     1     179.727 180.523 178.448  1.00  0.00     0.005 C 
ATOM      7  C   UNL     1     179.162 181.553 177.468  1.00  0.00     0.012 C 
ATOM      8  C   UNL     1     179.773 181.105 179.866  1.00  0.00     0.012 C 
ENDBRANCH   5   6
ENDBRANCH   3   4
ENDBRANCH   2   3
ENDBRANCH   1   2
BRANCH   1   9
ATOM      9  C   UNL     1     182.480 177.476 173.899  1.00  0.00     0.100 C 
BRANCH   9  10
ATOM     10  C   UNL     1     183.214 178.718 173.475  1.00  0.00     0.220 C 
ATOM     11  O   UNL     1     183.233 179.049 172.256  1.00  0.00    -0.275 OA
ATOM     12  N   UNL     1     183.887 179.527 174.449  1.00  0.00    -0.352 N 
ATOM     13  H   UNL     1     183.859 179.238 175.453  1.00  0.00     0.163 HD
BRANCH  12  14
ATOM     14  C   UNL     1     184.593 180.754 174.076  1.00  0.00     0.151 C 
BRANCH  14  15
ATOM     15  C   UNL     1     183.689 181.950 174.211  1.00  0.00    -0.025 A 
ATOM     16  C   UNL     1     184.120 183.212 173.769  1.00  0.00     0.056 A 
ATOM     17  C   UNL     1     182.440 181.827 174.838  1.00  0.00     0.009 A 
ATOM     18  C   UNL     1     183.298 184.345 173.922  1.00  0.00     0.160 A 
ATOM     19  C   UNL     1     181.619 182.946 174.991  1.00  0.00     0.050 A 
ATOM     20  C   UNL     1     182.039 184.201 174.535  1.00  0.00     0.157 A 
BRANCH  18  21
ATOM     21  O   UNL     1     183.697 185.615 173.483  1.00  0.00    -0.493 OA
ATOM     22  C   UNL     1     184.550 185.850 172.360  1.00  0.00     0.278 C 
ENDBRANCH  18  21
BRANCH  20  23
ATOM     23  O   UNL     1     181.191 185.296 174.704  1.00  0.00    -0.504 OA
ATOM     24  H   UNL     1     180.191 185.190 174.823  1.00  0.00     0.293 HD
ENDBRANCH  20  23
ENDBRANCH  14  15
ENDBRANCH  12  14
ENDBRANCH   9  10
ENDBRANCH   1   9
TORSDOF 10
ENDMDL
MODEL 2
REMARK VINA RESULT:    -5.831      4.162      7.381
REMARK INTER + INTRA:         -10.599
REMARK INTER:                  -9.309
REMARK INTRA:                  -1.290
REMARK UNBOUND:                -1.530
REMARK SMILES COc1cc(CNC(=O)CCCCC=CC(C)C)ccc1O
REMARK SMILES IDX 11 1 12 2 13 3 14 4 15 5 16 6 17 7 18 8 10 9 8 10 9 11 7 12
REMARK SMILES IDX 6 14 5 15 4 16 19 17 3 18 20 19 21 20 2 21 1 22 22 23
REMARK H PARENT 7 13 22 24
REMARK Flexibility Score: inf
ROOT
ATOM      1  C   UNL     1     178.863 181.578 176.857  1.00  0.00     0.010 C 
ENDROOT
BRANCH   1   2
ATOM      2  C   UNL     1     179.102 181.655 178.375  1.00  0.00     0.005 C 
BRANCH   2   3
ATOM      3  C   UNL     1     180.515 181.188 178.765  1.00  0.00     0.027 C 
BRANCH   3   4
ATOM      4  C   UNL     1     180.645 179.681 178.760  1.00  0.00    -0.031 C 
ATOM      5  C   UNL     1     181.268 178.958 177.809  1.00  0.00    -0.028 C 
BRANCH   5   6
ATOM      6  C   UNL     1     181.950 179.527 176.582  1.00  0.00     0.005 C 
ATOM      7  C   UNL     1     181.137 179.181 175.333  1.00  0.00     0.012 C 
ATOM      8  C   UNL     1     183.368 178.954 176.470  1.00  0.00     0.012 C 
ENDBRANCH   5   6
ENDBRANCH   3   4
ENDBRANCH   2   3
ENDBRANCH   1   2
BRANCH   1   9
ATOM      9  C   UNL     1     177.383 181.789 176.496  1.00  0.00     0.100 C 
BRANCH   9  10
ATOM     10  C   UNL     1     177.050 181.232 175.140  1.00  0.00     0.220 C 
ATOM     11  O   UNL     1     177.084 181.989 174.129  1.00  0.00    -0.275 OA
ATOM     12  N   UNL     1     176.699 179.850 174.992  1.00  0.00    -0.352 N 
ATOM     13  H   UNL     1     176.677 179.240 175.841  1.00  0.00     0.163 HD
BRANCH  12  14
ATOM     14  C   UNL     1     176.389 179.270 173.684  1.00  0.00     0.151 C 
BRANCH  14  15
ATOM     15  C   UNL     1     177.342 178.150 173.361  1.00  0.00    -0.025 A 
ATOM     16  C   UNL     1     177.688 177.214 174.350  1.00  0.00     0.056 A 
ATOM     17  C   UNL     1     177.941 178.072 172.095  1.00  0.00     0.009 A 
ATOM     18  C   UNL     1     178.606 176.183 174.071  1.00  0.00     0.160 A 
ATOM     19  C   UNL     1     178.849 177.050 171.812  1.00  0.00     0.050 A 
ATOM     20  C   UNL     1     179.183 176.106 172.789  1.00  0.00     0.157 A 
BRANCH  18  21
ATOM     21  O   UNL     1     178.965 175.229 175.035  1.00  0.00    -0.493 OA
ATOM     22  C   UNL     1     178.353 175.112 176.321  1.00  0.00     0.278 C 
ENDBRANCH  18  21
BRANCH  20  23
ATOM     23  O   UNL     1     180.093 175.099 172.469  1.00  0.00    -0.504 OA
ATOM     24  H   UNL     1     180.695 174.675 173.165  1.00  0.00     0.293 HD
ENDBRANCH  20  23
ENDBRANCH  14  15
ENDBRANCH  12  14
ENDBRANCH   9  10
ENDBRANCH   1   9
TORSDOF 10
ENDMDL
MODEL 3
REMARK VINA RESULT:    -5.769      3.651      7.037
REMARK INTER + INTRA:         -10.503
REMARK INTER:                  -9.011
REMARK INTRA:                  -1.491
REMARK UNBOUND:                -1.530
REMARK SMILES COc1cc(CNC(=O)CCCCC=CC(C)C)ccc1O
REMARK SMILES IDX 11 1 12 2 13 3 14 4 15 5 16 6 17 7 18 8 10 9 8 10 9 11 7 12
REMARK SMILES IDX 6 14 5 15 4 16 19 17 3 18 20 19 21 20 2 21 1 22 22 23
REMARK H PARENT 7 13 22 24
REMARK Flexibility Score: inf
ROOT
ATOM      1  C   UNL     1     179.804 181.593 177.913  1.00  0.00     0.010 C 
ENDROOT
BRANCH   1   2
ATOM      2  C   UNL     1     180.008 180.715 179.162  1.00  0.00     0.005 C 
BRANCH   2   3
ATOM      3  C   UNL     1     181.007 179.573 178.912  1.00  0.00     0.027 C 
BRANCH   3   4
ATOM      4  C   UNL     1     180.633 178.732 177.712  1.00  0.00    -0.031 C 
ATOM      5  C   UNL     1     181.254 178.764 176.516  1.00  0.00    -0.028 C 
BRANCH   5   6
ATOM      6  C   UNL     1     182.437 179.643 176.167  1.00  0.00     0.005 C 
ATOM      7  C   UNL     1     182.350 180.066 174.699  1.00  0.00     0.012 C 
ATOM      8  C   UNL     1     183.740 178.877 176.425  1.00  0.00     0.012 C 
ENDBRANCH   5   6
ENDBRANCH   3   4
ENDBRANCH   2   3
ENDBRANCH   1   2
BRANCH   1   9
ATOM      9  C   UNL     1     178.316 181.835 177.618  1.00  0.00     0.100 C 
BRANCH   9  10
ATOM     10  C   UNL     1     177.950 181.446 176.212  1.00  0.00     0.220 C 
ATOM     11  O   UNL     1     176.821 181.771 175.747  1.00  0.00    -0.275 OA
ATOM     12  N   UNL     1     178.878 180.715 175.400  1.00  0.00    -0.352 N 
ATOM     13  H   UNL     1     179.808 180.456 175.803  1.00  0.00     0.163 HD
BRANCH  12  14
ATOM     14  C   UNL     1     178.565 180.339 174.020  1.00  0.00     0.151 C 
BRANCH  14  15
ATOM     15  C   UNL     1     178.191 178.883 173.938  1.00  0.00    -0.025 A 
ATOM     16  C   UNL     1     179.172 177.920 173.650  1.00  0.00     0.056 A 
ATOM     17  C   UNL     1     176.853 178.486 174.081  1.00  0.00     0.009 A 
ATOM     18  C   UNL     1     178.829 176.559 173.535  1.00  0.00     0.160 A 
ATOM     19  C   UNL     1     176.507 177.138 173.971  1.00  0.00     0.050 A 
ATOM     20  C   UNL     1     177.485 176.174 173.702  1.00  0.00     0.157 A 
BRANCH  18  21
ATOM     21  O   UNL     1     179.788 175.574 173.257  1.00  0.00    -0.493 OA
ATOM     22  C   UNL     1     180.332 175.320 171.960  1.00  0.00     0.278 C 
ENDBRANCH  18  21
BRANCH  20  23
ATOM     23  O   UNL     1     177.102 174.836 173.600  1.00  0.00    -0.504 OA
ATOM     24  H   UNL     1     176.235 174.493 173.993  1.00  0.00     0.293 HD
ENDBRANCH  20  23
ENDBRANCH  14  15
ENDBRANCH  12  14
ENDBRANCH   9  10
ENDBRANCH   1   9
TORSDOF 10
ENDMDL
MODEL 4
REMARK VINA RESULT:    -5.733      4.064      7.325
REMARK INTER + INTRA:         -10.447
REMARK INTER:                  -8.893
REMARK INTRA:                  -1.555
REMARK UNBOUND:                -1.530
REMARK SMILES COc1cc(CNC(=O)CCCCC=CC(C)C)ccc1O
REMARK SMILES IDX 11 1 12 2 13 3 14 4 15 5 16 6 17 7 18 8 10 9 8 10 9 11 7 12
REMARK SMILES IDX 6 14 5 15 4 16 19 17 3 18 20 19 21 20 2 21 1 22 22 23
REMARK H PARENT 7 13 22 24
REMARK Flexibility Score: inf
ROOT
ATOM      1  C   UNL     1     178.699 183.273 174.228  1.00  0.00     0.010 C 
ENDROOT
BRANCH   1   2
ATOM      2  C   UNL     1     180.013 182.472 174.264  1.00  0.00     0.005 C 
BRANCH   2   3
ATOM      3  C   UNL     1     180.411 182.074 175.695  1.00  0.00     0.027 C 
BRANCH   3   4
ATOM      4  C   UNL     1     179.213 181.723 176.550  1.00  0.00    -0.031 C 
ATOM      5  C   UNL     1     179.263 181.062 177.723  1.00  0.00    -0.028 C 
BRANCH   5   6
ATOM      6  C   UNL     1     180.525 180.559 178.393  1.00  0.00     0.005 C 
ATOM      7  C   UNL     1     180.766 179.097 178.007  1.00  0.00     0.012 C 
ATOM      8  C   UNL     1     180.388 180.693 179.914  1.00  0.00     0.012 C 
ENDBRANCH   5   6
ENDBRANCH   3   4
ENDBRANCH   2   3
ENDBRANCH   1   2
BRANCH   1   9
ATOM      9  C   UNL     1     177.937 183.068 172.909  1.00  0.00     0.100 C 
BRANCH   9  10
ATOM     10  C   UNL     1     177.151 181.786 172.906  1.00  0.00     0.220 C 
ATOM     11  O   UNL     1     176.838 181.247 171.807  1.00  0.00    -0.275 OA
ATOM     12  N   UNL     1     176.762 181.174 174.142  1.00  0.00    -0.352 N 
ATOM     13  H   UNL     1     177.031 181.635 175.041  1.00  0.00     0.163 HD
BRANCH  12  14
ATOM     14  C   UNL     1     176.016 179.915 174.177  1.00  0.00     0.151 C 
BRANCH  14  15
ATOM     15  C   UNL     1     176.956 178.742 174.258  1.00  0.00    -0.025 A 
ATOM     16  C   UNL     1     176.539 177.475 173.819  1.00  0.00     0.056 A 
ATOM     17  C   UNL     1     178.227 178.891 174.832  1.00  0.00     0.009 A 
ATOM     18  C   UNL     1     177.397 176.362 173.923  1.00  0.00     0.160 A 
ATOM     19  C   UNL     1     179.083 177.793 174.934  1.00  0.00     0.050 A 
ATOM     20  C   UNL     1     178.677 176.532 174.482  1.00  0.00     0.157 A 
BRANCH  18  21
ATOM     21  O   UNL     1     177.011 175.086 173.485  1.00  0.00    -0.493 OA
ATOM     22  C   UNL     1     176.307 174.829 172.269  1.00  0.00     0.278 C 
ENDBRANCH  18  21
BRANCH  20  23
ATOM     23  O   UNL     1     179.559 175.458 174.600  1.00  0.00    -0.504 OA
ATOM     24  H   UNL     1     180.189 175.194 173.852  1.00  0.00     0.293 HD
ENDBRANCH  20  23
ENDBRANCH  14  15
ENDBRANCH  12  14
ENDBRANCH   9  10
ENDBRANCH   1   9
TORSDOF 10
ENDMDL
MODEL 5
REMARK VINA RESULT:    -5.660      3.571      5.713
REMARK INTER + INTRA:         -10.334
REMARK INTER:                  -9.189
REMARK INTRA:                  -1.144
REMARK UNBOUND:                -1.530
REMARK SMILES COc1cc(CNC(=O)CCCCC=CC(C)C)ccc1O
REMARK SMILES IDX 11 1 12 2 13 3 14 4 15 5 16 6 17 7 18 8 10 9 8 10 9 11 7 12
REMARK SMILES IDX 6 14 5 15 4 16 19 17 3 18 20 19 21 20 2 21 1 22 22 23
REMARK H PARENT 7 13 22 24
REMARK Flexibility Score: inf
ROOT
ATOM      1  C   UNL     1     177.642 180.450 174.405  1.00  0.00     0.010 C 
ENDROOT
BRANCH   1   2
ATOM      2  C   UNL     1     177.261 181.545 175.418  1.00  0.00     0.005 C 
BRANCH   2   3
ATOM      3  C   UNL     1     178.143 181.505 176.677  1.00  0.00     0.027 C 
BRANCH   3   4
ATOM      4  C   UNL     1     179.498 180.886 176.411  1.00  0.00    -0.031 C 
ATOM      5  C   UNL     1     180.334 180.411 177.356  1.00  0.00    -0.028 C 
BRANCH   5   6
ATOM      6  C   UNL     1     180.062 180.410 178.846  1.00  0.00     0.005 C 
ATOM      7  C   UNL     1     180.503 181.744 179.452  1.00  0.00     0.012 C 
ATOM      8  C   UNL     1     180.817 179.250 179.505  1.00  0.00     0.012 C 
ENDBRANCH   5   6
ENDBRANCH   3   4
ENDBRANCH   2   3
ENDBRANCH   1   2
BRANCH   1   9
ATOM      9  C   UNL     1     176.612 179.310 174.376  1.00  0.00     0.100 C 
BRANCH   9  10
ATOM     10  C   UNL     1     177.269 177.960 174.282  1.00  0.00     0.220 C 
ATOM     11  O   UNL     1     176.586 176.955 173.938  1.00  0.00    -0.275 OA
ATOM     12  N   UNL     1     178.665 177.814 174.575  1.00  0.00    -0.352 N 
ATOM     13  H   UNL     1     179.214 178.658 174.857  1.00  0.00     0.163 HD
BRANCH  12  14
ATOM     14  C   UNL     1     179.342 176.520 174.472  1.00  0.00     0.151 C 
BRANCH  14  15
ATOM     15  C   UNL     1     180.714 176.684 173.876  1.00  0.00    -0.025 A 
ATOM     16  C   UNL     1     181.545 177.734 174.303  1.00  0.00     0.056 A 
ATOM     17  C   UNL     1     181.147 175.835 172.848  1.00  0.00     0.009 A 
ATOM     18  C   UNL     1     182.817 177.921 173.728  1.00  0.00     0.160 A 
ATOM     19  C   UNL     1     182.408 176.013 172.276  1.00  0.00     0.050 A 
ATOM     20  C   UNL     1     183.245 177.047 172.711  1.00  0.00     0.157 A 
BRANCH  18  21
ATOM     21  O   UNL     1     183.672 178.954 174.139  1.00  0.00    -0.493 OA
ATOM     22  C   UNL     1     183.593 179.611 175.406  1.00  0.00     0.278 C 
ENDBRANCH  18  21
BRANCH  20  23
ATOM     23  O   UNL     1     184.499 177.194 172.117  1.00  0.00    -0.504 OA
ATOM     24  H   UNL     1     184.646 177.784 171.308  1.00  0.00     0.293 HD
ENDBRANCH  20  23
ENDBRANCH  14  15
ENDBRANCH  12  14
ENDBRANCH   9  10
ENDBRANCH   1   9
TORSDOF 10
ENDMDL
MODEL 6
REMARK VINA RESULT:    -5.655      4.255      6.339
REMARK INTER + INTRA:         -10.325
REMARK INTER:                  -9.260
REMARK INTRA:                  -1.065
REMARK UNBOUND:                -1.530
REMARK SMILES COc1cc(CNC(=O)CCCCC=CC(C)C)ccc1O
REMARK SMILES IDX 11 1 12 2 13 3 14 4 15 5 16 6 17 7 18 8 10 9 8 10 9 11 7 12
REMARK SMILES IDX 6 14 5 15 4 16 19 17 3 18 20 19 21 20 2 21 1 22 22 23
REMARK H PARENT 7 13 22 24
REMARK Flexibility Score: inf
ROOT
ATOM      1  C   UNL     1     177.558 180.482 174.620  1.00  0.00     0.010 C 
ENDROOT
BRANCH   1   2
ATOM      2  C   UNL     1     177.091 181.412 175.755  1.00  0.00     0.005 C 
BRANCH   2   3
ATOM      3  C   UNL     1     178.167 181.589 176.840  1.00  0.00     0.027 C 
BRANCH   3   4
ATOM      4  C   UNL     1     179.397 180.751 176.574  1.00  0.00    -0.031 C 
ATOM      5  C   UNL     1     180.186 180.206 177.521  1.00  0.00    -0.028 C 
BRANCH   5   6
ATOM      6  C   UNL     1     179.977 180.334 179.015  1.00  0.00     0.005 C 
ATOM      7  C   UNL     1     180.537 181.672 179.502  1.00  0.00     0.012 C 
ATOM      8  C   UNL     1     180.673 179.172 179.733  1.00  0.00     0.012 C 
ENDBRANCH   5   6
ENDBRANCH   3   4
ENDBRANCH   2   3
ENDBRANCH   1   2
BRANCH   1   9
ATOM      9  C   UNL     1     176.572 179.328 174.380  1.00  0.00     0.100 C 
BRANCH   9  10
ATOM     10  C   UNL     1     177.275 178.003 174.261  1.00  0.00     0.220 C 
ATOM     11  O   UNL     1     176.652 177.005 173.802  1.00  0.00    -0.275 OA
ATOM     12  N   UNL     1     178.645 177.873 174.661  1.00  0.00    -0.352 N 
ATOM     13  H   UNL     1     179.143 178.712 175.038  1.00  0.00     0.163 HD
BRANCH  12  14
ATOM     14  C   UNL     1     179.366 176.606 174.539  1.00  0.00     0.151 C 
BRANCH  14  15
ATOM     15  C   UNL     1     180.710 176.819 173.896  1.00  0.00    -0.025 A 
ATOM     16  C   UNL     1     181.373 175.745 173.279  1.00  0.00     0.056 A 
ATOM     17  C   UNL     1     181.339 178.071 173.966  1.00  0.00     0.009 A 
ATOM     18  C   UNL     1     182.648 175.923 172.706  1.00  0.00     0.160 A 
ATOM     19  C   UNL     1     182.600 178.254 173.397  1.00  0.00     0.050 A 
ATOM     20  C   UNL     1     183.256 177.191 172.767  1.00  0.00     0.157 A 
BRANCH  18  21
ATOM     21  O   UNL     1     183.330 174.872 172.075  1.00  0.00    -0.493 OA
ATOM     22  C   UNL     1     182.714 173.908 171.220  1.00  0.00     0.278 C 
ENDBRANCH  18  21
BRANCH  20  23
ATOM     23  O   UNL     1     184.515 177.412 172.208  1.00  0.00    -0.504 OA
ATOM     24  H   UNL     1     185.292 177.766 172.753  1.00  0.00     0.293 HD
ENDBRANCH  20  23
ENDBRANCH  14  15
ENDBRANCH  12  14
ENDBRANCH   9  10
ENDBRANCH   1   9
TORSDOF 10
ENDMDL
MODEL 7
REMARK VINA RESULT:    -5.652      2.275      3.369
REMARK INTER + INTRA:         -10.320
REMARK INTER:                  -8.776
REMARK INTRA:                  -1.544
REMARK UNBOUND:                -1.530
REMARK SMILES COc1cc(CNC(=O)CCCCC=CC(C)C)ccc1O
REMARK SMILES IDX 11 1 12 2 13 3 14 4 15 5 16 6 17 7 18 8 10 9 8 10 9 11 7 12
REMARK SMILES IDX 6 14 5 15 4 16 19 17 3 18 20 19 21 20 2 21 1 22 22 23
REMARK H PARENT 7 13 22 24
REMARK Flexibility Score: inf
ROOT
ATOM      1  C   UNL     1     184.641 180.038 174.823  1.00  0.00     0.010 C 
ENDROOT
BRANCH   1   2
ATOM      2  C   UNL     1     183.209 179.475 174.867  1.00  0.00     0.005 C 
BRANCH   2   3
ATOM      3  C   UNL     1     182.598 179.552 176.277  1.00  0.00     0.027 C 
BRANCH   3   4
ATOM      4  C   UNL     1     181.146 179.128 176.299  1.00  0.00    -0.031 C 
ATOM      5  C   UNL     1     180.276 179.391 177.294  1.00  0.00    -0.028 C 
BRANCH   5   6
ATOM      6  C   UNL     1     180.597 180.159 178.559  1.00  0.00     0.005 C 
ATOM      7  C   UNL     1     180.360 179.266 179.779  1.00  0.00     0.012 C 
ATOM      8  C   UNL     1     179.717 181.413 178.637  1.00  0.00     0.012 C 
ENDBRANCH   5   6
ENDBRANCH   3   4
ENDBRANCH   2   3
ENDBRANCH   1   2
BRANCH   1   9
ATOM      9  C   UNL     1     184.927 180.778 173.506  1.00  0.00     0.100 C 
BRANCH   9  10
ATOM     10  C   UNL     1     184.111 182.034 173.378  1.00  0.00     0.220 C 
ATOM     11  O   UNL     1     183.641 182.361 172.252  1.00  0.00    -0.275 OA
ATOM     12  N   UNL     1     183.864 182.856 174.526  1.00  0.00    -0.352 N 
ATOM     13  H   UNL     1     184.261 182.567 175.449  1.00  0.00     0.163 HD
BRANCH  12  14
ATOM     14  C   UNL     1     183.056 184.073 174.442  1.00  0.00     0.151 C 
BRANCH  14  15
ATOM     15  C   UNL     1     181.595 183.734 174.319  1.00  0.00    -0.025 A 
ATOM     16  C   UNL     1     180.763 184.500 173.484  1.00  0.00     0.056 A 
ATOM     17  C   UNL     1     181.040 182.697 175.083  1.00  0.00     0.009 A 
ATOM     18  C   UNL     1     179.387 184.215 173.387  1.00  0.00     0.160 A 
ATOM     19  C   UNL     1     179.678 182.408 174.989  1.00  0.00     0.050 A 
ATOM     20  C   UNL     1     178.850 183.158 174.146  1.00  0.00     0.157 A 
BRANCH  18  21
ATOM     21  O   UNL     1     178.534 184.956 172.556  1.00  0.00    -0.493 OA
ATOM     22  C   UNL     1     178.944 186.080 171.775  1.00  0.00     0.278 C 
ENDBRANCH  18  21
BRANCH  20  23
ATOM     23  O   UNL     1     177.494 182.839 174.076  1.00  0.00    -0.504 OA
ATOM     24  H   UNL     1     176.902 182.819 174.898  1.00  0.00     0.293 HD
ENDBRANCH  20  23
ENDBRANCH  14  15
ENDBRANCH  12  14
ENDBRANCH   9  10
ENDBRANCH   1   9
TORSDOF 10
ENDMDL
MODEL 8
REMARK VINA RESULT:    -5.526      2.915      6.171
REMARK INTER + INTRA:         -10.125
REMARK INTER:                  -8.499
REMARK INTRA:                  -1.625
REMARK UNBOUND:                -1.530
REMARK SMILES COc1cc(CNC(=O)CCCCC=CC(C)C)ccc1O
REMARK SMILES IDX 11 1 12 2 13 3 14 4 15 5 16 6 17 7 18 8 10 9 8 10 9 11 7 12
REMARK SMILES IDX 6 14 5 15 4 16 19 17 3 18 20 19 21 20 2 21 1 22 22 23
REMARK H PARENT 7 13 22 24
REMARK Flexibility Score: inf
ROOT
ATOM      1  C   UNL     1     183.302 181.572 174.626  1.00  0.00     0.010 C 
ENDROOT
BRANCH   1   2
ATOM      2  C   UNL     1     181.787 181.707 174.387  1.00  0.00     0.005 C 
BRANCH   2   3
ATOM      3  C   UNL     1     181.082 182.453 175.532  1.00  0.00     0.027 C 
BRANCH   3   4
ATOM      4  C   UNL     1     179.740 181.846 175.875  1.00  0.00    -0.031 C 
ATOM      5  C   UNL     1     179.450 181.199 177.021  1.00  0.00    -0.028 C 
BRANCH   5   6
ATOM      6  C   UNL     1     180.414 180.971 178.167  1.00  0.00     0.005 C 
ATOM      7  C   UNL     1     181.041 179.581 178.045  1.00  0.00     0.012 C 
ATOM      8  C   UNL     1     179.669 181.106 179.500  1.00  0.00     0.012 C 
ENDBRANCH   5   6
ENDBRANCH   3   4
ENDBRANCH   2   3
ENDBRANCH   1   2
BRANCH   1   9
ATOM      9  C   UNL     1     183.899 180.373 173.873  1.00  0.00     0.100 C 
BRANCH   9  10
ATOM     10  C   UNL     1     183.309 179.069 174.333  1.00  0.00     0.220 C 
ATOM     11  O   UNL     1     183.505 178.678 175.518  1.00  0.00    -0.275 OA
ATOM     12  N   UNL     1     182.525 178.273 173.435  1.00  0.00    -0.352 N 
ATOM     13  H   UNL     1     182.373 178.614 172.458  1.00  0.00     0.163 HD
BRANCH  12  14
ATOM     14  C   UNL     1     181.917 177.009 173.855  1.00  0.00     0.151 C 
BRANCH  14  15
ATOM     15  C   UNL     1     180.423 177.149 173.965  1.00  0.00    -0.025 A 
ATOM     16  C   UNL     1     179.584 176.124 173.494  1.00  0.00     0.056 A 
ATOM     17  C   UNL     1     179.856 178.326 174.475  1.00  0.00     0.009 A 
ATOM     18  C   UNL     1     178.183 176.258 173.558  1.00  0.00     0.160 A 
ATOM     19  C   UNL     1     178.468 178.463 174.543  1.00  0.00     0.050 A 
ATOM     20  C   UNL     1     177.631 177.437 174.091  1.00  0.00     0.157 A 
BRANCH  18  21
ATOM     21  O   UNL     1     177.321 175.249 173.104  1.00  0.00    -0.493 OA
ATOM     22  C   UNL     1     176.749 175.205 171.795  1.00  0.00     0.278 C 
ENDBRANCH  18  21
BRANCH  20  23
ATOM     23  O   UNL     1     176.249 177.609 174.177  1.00  0.00    -0.504 OA
ATOM     24  H   UNL     1     175.601 176.847 174.023  1.00  0.00     0.293 HD
ENDBRANCH  20  23
ENDBRANCH  14  15
ENDBRANCH  12  14
ENDBRANCH   9  10
ENDBRANCH   1   9
TORSDOF 10
ENDMDL
MODEL 9
REMARK VINA RESULT:    -5.516      3.112      4.411
REMARK INTER + INTRA:         -10.109
REMARK INTER:                  -8.696
REMARK INTRA:                  -1.413
REMARK UNBOUND:                -1.530
REMARK SMILES COc1cc(CNC(=O)CCCCC=CC(C)C)ccc1O
REMARK SMILES IDX 11 1 12 2 13 3 14 4 15 5 16 6 17 7 18 8 10 9 8 10 9 11 7 12
REMARK SMILES IDX 6 14 5 15 4 16 19 17 3 18 20 19 21 20 2 21 1 22 22 23
REMARK H PARENT 7 13 22 24
REMARK Flexibility Score: inf
ROOT
ATOM      1  C   UNL     1     177.295 180.729 174.101  1.00  0.00     0.010 C 
ENDROOT
BRANCH   1   2
ATOM      2  C   UNL     1     177.401 181.735 175.262  1.00  0.00     0.005 C 
BRANCH   2   3
ATOM      3  C   UNL     1     178.150 181.150 176.471  1.00  0.00     0.027 C 
BRANCH   3   4
ATOM      4  C   UNL     1     179.618 181.514 176.471  1.00  0.00    -0.031 C 
ATOM      5  C   UNL     1     180.509 181.152 177.415  1.00  0.00    -0.028 C 
BRANCH   5   6
ATOM      6  C   UNL     1     180.198 180.313 178.637  1.00  0.00     0.005 C 
ATOM      7  C   UNL     1     180.021 181.222 179.855  1.00  0.00     0.012 C 
ATOM      8  C   UNL     1     181.335 179.313 178.878  1.00  0.00     0.012 C 
ENDBRANCH   5   6
ENDBRANCH   3   4
ENDBRANCH   2   3
ENDBRANCH   1   2
BRANCH   1   9
ATOM      9  C   UNL     1     177.406 179.275 174.589  1.00  0.00     0.100 C 
BRANCH   9  10
ATOM     10  C   UNL     1     178.562 178.554 173.953  1.00  0.00     0.220 C 
ATOM     11  O   UNL     1     178.472 178.161 172.756  1.00  0.00    -0.275 OA
ATOM     12  N   UNL     1     179.764 178.318 174.697  1.00  0.00    -0.352 N 
ATOM     13  H   UNL     1     179.820 178.653 175.687  1.00  0.00     0.163 HD
BRANCH  12  14
ATOM     14  C   UNL     1     180.918 177.640 174.104  1.00  0.00     0.151 C 
BRANCH  14  15
ATOM     15  C   UNL     1     182.153 178.491 174.223  1.00  0.00    -0.025 A 
ATOM     16  C   UNL     1     182.924 178.775 173.082  1.00  0.00     0.056 A 
ATOM     17  C   UNL     1     182.581 178.949 175.477  1.00  0.00     0.009 A 
ATOM     18  C   UNL     1     184.102 179.540 173.186  1.00  0.00     0.160 A 
ATOM     19  C   UNL     1     183.746 179.710 175.585  1.00  0.00     0.050 A 
ATOM     20  C   UNL     1     184.506 180.010 174.449  1.00  0.00     0.157 A 
BRANCH  18  21
ATOM     21  O   UNL     1     184.887 179.847 172.064  1.00  0.00    -0.493 OA
ATOM     22  C   UNL     1     185.952 179.030 171.576  1.00  0.00     0.278 C 
ENDBRANCH  18  21
BRANCH  20  23
ATOM     23  O   UNL     1     185.664 180.774 174.596  1.00  0.00    -0.504 OA
ATOM     24  H   UNL     1     186.420 180.741 173.923  1.00  0.00     0.293 HD
ENDBRANCH  20  23
ENDBRANCH  14  15
ENDBRANCH  12  14
ENDBRANCH   9  10
ENDBRANCH   1   9
TORSDOF 10
ENDMDL
