MODEL 1
REMARK VINA RESULT:    -3.579      0.000      0.000
REMARK INTER + INTRA:          -4.404
REMARK INTER:                  -4.206
REMARK INTRA:                  -0.198
REMARK UNBOUND:                -0.198
REMARK SMILES Oc1ccc(-c2[o+]c3cc(O)cc(O)c3cc2O)cc1
REMARK SMILES IDX 6 1 7 2 8 3 9 4 10 5 12 6 13 7 15 8 16 9 17 10 5 11 4 12
REMARK SMILES IDX 3 13 2 14 19 15 20 16 1 17 18 19 11 21 14 23
REMARK H PARENT 1 18 18 20 11 22 14 24
REMARK Flexibility Score: inf
ROOT
ATOM      1  C   UNL     1     -44.145 -23.813  43.665  1.00  0.00     0.401 A 
ATOM      2  O   UNL     1     -45.126 -24.147  42.831  1.00  0.00    -0.202 OA
ATOM      3  C   UNL     1     -45.026 -24.044  41.509  1.00  0.00     0.368 A 
ATOM      4  C   UNL     1     -46.112 -24.423  40.715  1.00  0.00     0.162 A 
ATOM      5  C   UNL     1     -46.032 -24.328  39.322  1.00  0.00     0.128 A 
ATOM      6  C   UNL     1     -44.864 -23.851  38.723  1.00  0.00     0.093 A 
ATOM      7  C   UNL     1     -43.764 -23.465  39.497  1.00  0.00     0.136 A 
ATOM      8  C   UNL     1     -43.839 -23.557  40.911  1.00  0.00     0.125 A 
ATOM      9  C   UNL     1     -42.791 -23.181  41.767  1.00  0.00     0.078 A 
ATOM     10  C   UNL     1     -42.941 -23.296  43.152  1.00  0.00     0.223 A 
ENDROOT
BRANCH   1  11
ATOM     11  C   UNL     1     -44.374 -23.984  45.118  1.00  0.00     0.084 A 
ATOM     12  C   UNL     1     -44.426 -25.277  45.664  1.00  0.00     0.022 A 
ATOM     13  C   UNL     1     -44.619 -25.461  47.036  1.00  0.00     0.047 A 
ATOM     14  C   UNL     1     -44.746 -24.356  47.883  1.00  0.00     0.115 A 
ATOM     15  C   UNL     1     -44.483 -22.875  45.979  1.00  0.00     0.022 A 
ATOM     16  C   UNL     1     -44.675 -23.062  47.352  1.00  0.00     0.047 A 
BRANCH  14  17
ATOM     17  O   UNL     1     -44.939 -24.554  49.248  1.00  0.00    -0.508 OA
ATOM     18  H   UNL     1     -44.960 -23.776  49.898  1.00  0.00     0.293 HD
ENDBRANCH  14  17
ENDBRANCH   1  11
BRANCH  10  19
ATOM     19  O   UNL     1     -41.919 -22.875  44.004  1.00  0.00    -0.500 OA
ATOM     20  H   UNL     1     -41.423 -22.006  43.850  1.00  0.00     0.294 HD
ENDBRANCH  10  19
BRANCH   5  21
ATOM     21  O   UNL     1     -47.110 -24.704  38.524  1.00  0.00    -0.507 OA
ATOM     22  H   UNL     1     -46.974 -25.176  37.637  1.00  0.00     0.293 HD
ENDBRANCH   5  21
BRANCH   7  23
ATOM     23  O   UNL     1     -42.631 -23.001  38.821  1.00  0.00    -0.507 OA
ATOM     24  H   UNL     1     -42.555 -22.936  37.817  1.00  0.00     0.293 HD
ENDBRANCH   7  23
TORSDOF 5
ENDMDL
MODEL 2
REMARK VINA RESULT:    -3.510      1.849      6.991
REMARK INTER + INTRA:          -4.324
REMARK INTER:                  -4.112
REMARK INTRA:                  -0.211
REMARK UNBOUND:                -0.198
REMARK SMILES Oc1ccc(-c2[o+]c3cc(O)cc(O)c3cc2O)cc1
REMARK SMILES IDX 6 1 7 2 8 3 9 4 10 5 12 6 13 7 15 8 16 9 17 10 5 11 4 12
REMARK SMILES IDX 3 13 2 14 19 15 20 16 1 17 18 19 11 21 14 23
REMARK H PARENT 1 18 18 20 11 22 14 24
REMARK Flexibility Score: inf
ROOT
ATOM      1  C   UNL     1     -44.047 -23.861  44.565  1.00  0.00     0.401 A 
ATOM      2  O   UNL     1     -44.813 -23.592  45.619  1.00  0.00    -0.202 OA
ATOM      3  C   UNL     1     -44.351 -23.549  46.865  1.00  0.00     0.368 A 
ATOM      4  C   UNL     1     -45.233 -23.254  47.908  1.00  0.00     0.162 A 
ATOM      5  C   UNL     1     -44.772 -23.200  49.226  1.00  0.00     0.128 A 
ATOM      6  C   UNL     1     -43.425 -23.442  49.503  1.00  0.00     0.093 A 
ATOM      7  C   UNL     1     -42.521 -23.740  48.476  1.00  0.00     0.136 A 
ATOM      8  C   UNL     1     -42.984 -23.799  47.136  1.00  0.00     0.125 A 
ATOM      9  C   UNL     1     -42.153 -24.102  46.044  1.00  0.00     0.078 A 
ATOM     10  C   UNL     1     -42.682 -24.146  44.752  1.00  0.00     0.223 A 
ENDROOT
BRANCH   1  11
ATOM     11  C   UNL     1     -44.679 -23.869  43.226  1.00  0.00     0.084 A 
ATOM     12  C   UNL     1     -44.336 -22.876  42.293  1.00  0.00     0.022 A 
ATOM     13  C   UNL     1     -44.903 -22.877  41.015  1.00  0.00     0.047 A 
ATOM     14  C   UNL     1     -45.807 -23.878  40.647  1.00  0.00     0.115 A 
ATOM     15  C   UNL     1     -45.574 -24.885  42.843  1.00  0.00     0.022 A 
ATOM     16  C   UNL     1     -46.139 -24.885  41.563  1.00  0.00     0.047 A 
BRANCH  14  17
ATOM     17  O   UNL     1     -46.365 -23.866  39.372  1.00  0.00    -0.508 OA
ATOM     18  H   UNL     1     -45.786 -23.907  38.540  1.00  0.00     0.293 HD
ENDBRANCH  14  17
ENDBRANCH   1  11
BRANCH  10  19
ATOM     19  O   UNL     1     -41.868 -24.498  43.674  1.00  0.00    -0.500 OA
ATOM     20  H   UNL     1     -42.172 -24.373  42.715  1.00  0.00     0.294 HD
ENDBRANCH  10  19
BRANCH   5  21
ATOM     21  O   UNL     1     -45.646 -22.906  50.271  1.00  0.00    -0.507 OA
ATOM     22  H   UNL     1     -45.988 -21.965  50.428  1.00  0.00     0.293 HD
ENDBRANCH   5  21
BRANCH   7  23
ATOM     23  O   UNL     1     -41.189 -23.967  48.836  1.00  0.00    -0.507 OA
ATOM     24  H   UNL     1     -40.621 -23.316  49.357  1.00  0.00     0.293 HD
ENDBRANCH   7  23
TORSDOF 5
ENDMDL
MODEL 3
REMARK VINA RESULT:    -3.506      2.127      3.385
REMARK INTER + INTRA:          -4.319
REMARK INTER:                  -4.001
REMARK INTRA:                  -0.318
REMARK UNBOUND:                -0.198
REMARK SMILES Oc1ccc(-c2[o+]c3cc(O)cc(O)c3cc2O)cc1
REMARK SMILES IDX 6 1 7 2 8 3 9 4 10 5 12 6 13 7 15 8 16 9 17 10 5 11 4 12
REMARK SMILES IDX 3 13 2 14 19 15 20 16 1 17 18 19 11 21 14 23
REMARK H PARENT 1 18 18 20 11 22 14 24
REMARK Flexibility Score: inf
ROOT
ATOM      1  C   UNL     1     -44.819 -24.843  45.334  1.00  0.00     0.401 A 
ATOM      2  O   UNL     1     -44.913 -24.026  44.289  1.00  0.00    -0.202 OA
ATOM      3  C   UNL     1     -45.465 -24.382  43.133  1.00  0.00     0.368 A 
ATOM      4  C   UNL     1     -45.521 -23.451  42.092  1.00  0.00     0.162 A 
ATOM      5  C   UNL     1     -46.098 -23.798  40.867  1.00  0.00     0.128 A 
ATOM      6  C   UNL     1     -46.621 -25.080  40.682  1.00  0.00     0.093 A 
ATOM      7  C   UNL     1     -46.577 -26.030  41.710  1.00  0.00     0.136 A 
ATOM      8  C   UNL     1     -45.990 -25.684  42.954  1.00  0.00     0.125 A 
ATOM      9  C   UNL     1     -45.890 -26.575  44.036  1.00  0.00     0.078 A 
ATOM     10  C   UNL     1     -45.293 -26.164  45.231  1.00  0.00     0.223 A 
ENDROOT
BRANCH   1  11
ATOM     11  C   UNL     1     -44.192 -24.325  46.572  1.00  0.00     0.084 A 
ATOM     12  C   UNL     1     -44.998 -23.757  47.571  1.00  0.00     0.022 A 
ATOM     13  C   UNL     1     -44.431 -23.282  48.758  1.00  0.00     0.047 A 
ATOM     14  C   UNL     1     -43.052 -23.383  48.967  1.00  0.00     0.115 A 
ATOM     15  C   UNL     1     -42.807 -24.442  46.797  1.00  0.00     0.022 A 
ATOM     16  C   UNL     1     -42.241 -23.967  47.985  1.00  0.00     0.047 A 
BRANCH  14  17
ATOM     17  O   UNL     1     -42.499 -22.905  50.152  1.00  0.00    -0.508 OA
ATOM     18  H   UNL     1     -42.217 -21.937  50.252  1.00  0.00     0.293 HD
ENDBRANCH  14  17
ENDBRANCH   1  11
BRANCH  10  19
ATOM     19  O   UNL     1     -45.148 -27.064  46.287  1.00  0.00    -0.500 OA
ATOM     20  H   UNL     1     -45.114 -26.752  47.250  1.00  0.00     0.294 HD
ENDBRANCH  10  19
BRANCH   5  21
ATOM     21  O   UNL     1     -46.158 -22.875  39.825  1.00  0.00    -0.507 OA
ATOM     22  H   UNL     1     -47.000 -22.345  39.634  1.00  0.00     0.293 HD
ENDBRANCH   5  21
BRANCH   7  23
ATOM     23  O   UNL     1     -47.124 -27.289  41.446  1.00  0.00    -0.507 OA
ATOM     24  H   UNL     1     -46.616 -28.056  41.031  1.00  0.00     0.293 HD
ENDBRANCH   7  23
TORSDOF 5
ENDMDL
MODEL 4
REMARK VINA RESULT:    -3.375     14.710     16.246
REMARK INTER + INTRA:          -4.165
REMARK INTER:                  -3.852
REMARK INTRA:                  -0.313
REMARK UNBOUND:                -0.198
REMARK SMILES Oc1ccc(-c2[o+]c3cc(O)cc(O)c3cc2O)cc1
REMARK SMILES IDX 6 1 7 2 8 3 9 4 10 5 12 6 13 7 15 8 16 9 17 10 5 11 4 12
REMARK SMILES IDX 3 13 2 14 19 15 20 16 1 17 18 19 11 21 14 23
REMARK H PARENT 1 18 18 20 11 22 14 24
REMARK Flexibility Score: inf
ROOT
ATOM      1  C   UNL     1     -28.808 -25.478  45.598  1.00  0.00     0.401 A 
ATOM      2  O   UNL     1     -28.002 -25.369  44.545  1.00  0.00    -0.202 OA
ATOM      3  C   UNL     1     -28.357 -24.767  43.414  1.00  0.00     0.368 A 
ATOM      4  C   UNL     1     -27.439 -24.698  42.363  1.00  0.00     0.162 A 
ATOM      5  C   UNL     1     -27.786 -24.069  41.163  1.00  0.00     0.128 A 
ATOM      6  C   UNL     1     -29.056 -23.507  41.015  1.00  0.00     0.093 A 
ATOM      7  C   UNL     1     -29.994 -23.563  42.053  1.00  0.00     0.136 A 
ATOM      8  C   UNL     1     -29.648 -24.202  43.271  1.00  0.00     0.125 A 
ATOM      9  C   UNL     1     -30.527 -24.317  44.361  1.00  0.00     0.078 A 
ATOM     10  C   UNL     1     -30.117 -24.966  45.529  1.00  0.00     0.223 A 
ENDROOT
BRANCH   1  11
ATOM     11  C   UNL     1     -28.291 -26.162  46.805  1.00  0.00     0.084 A 
ATOM     12  C   UNL     1     -27.750 -25.400  47.854  1.00  0.00     0.022 A 
ATOM     13  C   UNL     1     -27.277 -26.023  49.013  1.00  0.00     0.047 A 
ATOM     14  C   UNL     1     -27.353 -27.413  49.146  1.00  0.00     0.115 A 
ATOM     15  C   UNL     1     -28.383 -27.559  46.953  1.00  0.00     0.022 A 
ATOM     16  C   UNL     1     -27.910 -28.180  48.114  1.00  0.00     0.047 A 
BRANCH  14  17
ATOM     17  O   UNL     1     -26.877 -28.020  50.304  1.00  0.00    -0.508 OA
ATOM     18  H   UNL     1     -26.111 -27.621  50.836  1.00  0.00     0.293 HD
ENDBRANCH  14  17
ENDBRANCH   1  11
BRANCH  10  19
ATOM     19  O   UNL     1     -31.007 -25.125  46.591  1.00  0.00    -0.500 OA
ATOM     20  H   UNL     1     -31.831 -25.708  46.512  1.00  0.00     0.294 HD
ENDBRANCH  10  19
BRANCH   5  21
ATOM     21  O   UNL     1     -26.875 -23.997  40.112  1.00  0.00    -0.507 OA
ATOM     22  H   UNL     1     -27.179 -23.853  39.156  1.00  0.00     0.293 HD
ENDBRANCH   5  21
BRANCH   7  23
ATOM     23  O   UNL     1     -31.241 -22.974  41.826  1.00  0.00    -0.507 OA
ATOM     24  H   UNL     1     -31.376 -22.078  41.382  1.00  0.00     0.293 HD
ENDBRANCH   7  23
TORSDOF 5
ENDMDL
MODEL 5
REMARK VINA RESULT:    -3.353     16.040     18.286
REMARK INTER + INTRA:          -4.139
REMARK INTER:                  -3.910
REMARK INTRA:                  -0.229
REMARK UNBOUND:                -0.198
REMARK SMILES Oc1ccc(-c2[o+]c3cc(O)cc(O)c3cc2O)cc1
REMARK SMILES IDX 6 1 7 2 8 3 9 4 10 5 12 6 13 7 15 8 16 9 17 10 5 11 4 12
REMARK SMILES IDX 3 13 2 14 19 15 20 16 1 17 18 19 11 21 14 23
REMARK H PARENT 1 18 18 20 11 22 14 24
REMARK Flexibility Score: inf
ROOT
ATOM      1  C   UNL     1     -27.883 -26.158  44.595  1.00  0.00     0.401 A 
ATOM      2  O   UNL     1     -27.617 -25.429  45.676  1.00  0.00    -0.202 OA
ATOM      3  C   UNL     1     -27.575 -25.935  46.905  1.00  0.00     0.368 A 
ATOM      4  C   UNL     1     -27.283 -25.089  47.978  1.00  0.00     0.162 A 
ATOM      5  C   UNL     1     -27.229 -25.597  49.280  1.00  0.00     0.128 A 
ATOM      6  C   UNL     1     -27.468 -26.953  49.509  1.00  0.00     0.093 A 
ATOM      7  C   UNL     1     -27.762 -27.821  48.450  1.00  0.00     0.136 A 
ATOM      8  C   UNL     1     -27.821 -27.312  47.127  1.00  0.00     0.125 A 
ATOM      9  C   UNL     1     -28.121 -28.104  46.006  1.00  0.00     0.078 A 
ATOM     10  C   UNL     1     -28.165 -27.530  44.733  1.00  0.00     0.223 A 
ENDROOT
BRANCH   1  11
ATOM     11  C   UNL     1     -27.891 -25.479  43.279  1.00  0.00     0.084 A 
ATOM     12  C   UNL     1     -26.876 -25.759  42.350  1.00  0.00     0.022 A 
ATOM     13  C   UNL     1     -26.875 -25.147  41.093  1.00  0.00     0.047 A 
ATOM     14  C   UNL     1     -27.898 -24.260  40.742  1.00  0.00     0.115 A 
ATOM     15  C   UNL     1     -28.928 -24.601  42.912  1.00  0.00     0.022 A 
ATOM     16  C   UNL     1     -28.927 -23.991  41.654  1.00  0.00     0.047 A 
BRANCH  14  17
ATOM     17  O   UNL     1     -27.885 -23.657  39.487  1.00  0.00    -0.508 OA
ATOM     18  H   UNL     1     -28.649 -23.070  39.174  1.00  0.00     0.293 HD
ENDBRANCH  14  17
ENDBRANCH   1  11
BRANCH  10  19
ATOM     19  O   UNL     1     -28.513 -28.306  43.626  1.00  0.00    -0.500 OA
ATOM     20  H   UNL     1     -28.325 -29.300  43.594  1.00  0.00     0.294 HD
ENDBRANCH  10  19
BRANCH   5  21
ATOM     21  O   UNL     1     -26.939 -24.759  50.355  1.00  0.00    -0.507 OA
ATOM     22  H   UNL     1     -26.381 -25.077  51.139  1.00  0.00     0.293 HD
ENDBRANCH   5  21
BRANCH   7  23
ATOM     23  O   UNL     1     -27.986 -29.165  48.762  1.00  0.00    -0.507 OA
ATOM     24  H   UNL     1     -27.639 -29.942  48.220  1.00  0.00     0.293 HD
ENDBRANCH   7  23
TORSDOF 5
ENDMDL
MODEL 6
REMARK VINA RESULT:    -3.343     15.516     17.915
REMARK INTER + INTRA:          -4.127
REMARK INTER:                  -3.973
REMARK INTRA:                  -0.154
REMARK UNBOUND:                -0.198
REMARK SMILES Oc1ccc(-c2[o+]c3cc(O)cc(O)c3cc2O)cc1
REMARK SMILES IDX 6 1 7 2 8 3 9 4 10 5 12 6 13 7 15 8 16 9 17 10 5 11 4 12
REMARK SMILES IDX 3 13 2 14 19 15 20 16 1 17 18 19 11 21 14 23
REMARK H PARENT 1 18 18 20 11 22 14 24
REMARK Flexibility Score: inf
ROOT
ATOM      1  C   UNL     1     -46.171 -40.233  44.645  1.00  0.00     0.401 A 
ATOM      2  O   UNL     1     -46.277 -40.907  45.787  1.00  0.00    -0.202 OA
ATOM      3  C   UNL     1     -46.343 -40.318  46.978  1.00  0.00     0.368 A 
ATOM      4  C   UNL     1     -46.457 -41.112  48.122  1.00  0.00     0.162 A 
ATOM      5  C   UNL     1     -46.531 -40.519  49.386  1.00  0.00     0.128 A 
ATOM      6  C   UNL     1     -46.491 -39.128  49.506  1.00  0.00     0.093 A 
ATOM      7  C   UNL     1     -46.378 -38.311  48.374  1.00  0.00     0.136 A 
ATOM      8  C   UNL     1     -46.300 -38.908  47.089  1.00  0.00     0.125 A 
ATOM      9  C   UNL     1     -46.172 -38.169  45.901  1.00  0.00     0.078 A 
ATOM     10  C   UNL     1     -46.096 -38.828  44.670  1.00  0.00     0.223 A 
ENDROOT
BRANCH   1  11
ATOM     11  C   UNL     1     -46.117 -41.003  43.381  1.00  0.00     0.084 A 
ATOM     12  C   UNL     1     -47.125 -40.826  42.420  1.00  0.00     0.022 A 
ATOM     13  C   UNL     1     -47.082 -41.526  41.210  1.00  0.00     0.047 A 
ATOM     14  C   UNL     1     -46.024 -42.399  40.939  1.00  0.00     0.115 A 
ATOM     15  C   UNL     1     -45.044 -41.867  43.095  1.00  0.00     0.022 A 
ATOM     16  C   UNL     1     -45.003 -42.566  41.883  1.00  0.00     0.047 A 
BRANCH  14  17
ATOM     17  O   UNL     1     -45.994 -43.090  39.731  1.00  0.00    -0.508 OA
ATOM     18  H   UNL     1     -46.506 -43.956  39.604  1.00  0.00     0.293 HD
ENDBRANCH  14  17
ENDBRANCH   1  11
BRANCH  10  19
ATOM     19  O   UNL     1     -45.917 -38.097  43.495  1.00  0.00    -0.500 OA
ATOM     20  H   UNL     1     -45.088 -37.538  43.337  1.00  0.00     0.294 HD
ENDBRANCH  10  19
BRANCH   5  21
ATOM     21  O   UNL     1     -46.645 -41.304  50.532  1.00  0.00    -0.507 OA
ATOM     22  H   UNL     1     -46.001 -42.063  50.721  1.00  0.00     0.293 HD
ENDBRANCH   5  21
BRANCH   7  23
ATOM     23  O   UNL     1     -46.348 -36.929  48.578  1.00  0.00    -0.507 OA
ATOM     24  H   UNL     1     -46.348 -36.243  47.838  1.00  0.00     0.293 HD
ENDBRANCH   7  23
TORSDOF 5
ENDMDL
MODEL 7
REMARK VINA RESULT:    -3.237      1.849      7.236
REMARK INTER + INTRA:          -4.002
REMARK INTER:                  -3.718
REMARK INTRA:                  -0.283
REMARK UNBOUND:                -0.198
REMARK SMILES Oc1ccc(-c2[o+]c3cc(O)cc(O)c3cc2O)cc1
REMARK SMILES IDX 6 1 7 2 8 3 9 4 10 5 12 6 13 7 15 8 16 9 17 10 5 11 4 12
REMARK SMILES IDX 3 13 2 14 19 15 20 16 1 17 18 19 11 21 14 23
REMARK H PARENT 1 18 18 20 11 22 14 24
REMARK Flexibility Score: inf
ROOT
ATOM      1  C   UNL     1     -44.769 -25.015  44.577  1.00  0.00     0.401 A 
ATOM      2  O   UNL     1     -44.899 -24.195  45.616  1.00  0.00    -0.202 OA
ATOM      3  C   UNL     1     -44.666 -24.565  46.871  1.00  0.00     0.368 A 
ATOM      4  C   UNL     1     -44.827 -23.629  47.897  1.00  0.00     0.162 A 
ATOM      5  C   UNL     1     -44.586 -23.992  49.226  1.00  0.00     0.128 A 
ATOM      6  C   UNL     1     -44.182 -25.294  49.529  1.00  0.00     0.093 A 
ATOM      7  C   UNL     1     -44.014 -26.249  48.520  1.00  0.00     0.136 A 
ATOM      8  C   UNL     1     -44.260 -25.888  47.170  1.00  0.00     0.125 A 
ATOM      9  C   UNL     1     -44.129 -26.782  46.095  1.00  0.00     0.078 A 
ATOM     10  C   UNL     1     -44.394 -26.355  44.790  1.00  0.00     0.223 A 
ENDROOT
BRANCH   1  11
ATOM     11  C   UNL     1     -45.048 -24.481  43.224  1.00  0.00     0.084 A 
ATOM     12  C   UNL     1     -46.296 -24.725  42.628  1.00  0.00     0.022 A 
ATOM     13  C   UNL     1     -46.589 -24.212  41.361  1.00  0.00     0.047 A 
ATOM     14  C   UNL     1     -45.647 -23.435  40.681  1.00  0.00     0.115 A 
ATOM     15  C   UNL     1     -44.111 -23.681  42.544  1.00  0.00     0.022 A 
ATOM     16  C   UNL     1     -44.407 -23.168  41.277  1.00  0.00     0.047 A 
BRANCH  14  17
ATOM     17  O   UNL     1     -45.951 -22.931  39.419  1.00  0.00    -0.508 OA
ATOM     18  H   UNL     1     -45.885 -23.508  38.588  1.00  0.00     0.293 HD
ENDBRANCH  14  17
ENDBRANCH   1  11
BRANCH  10  19
ATOM     19  O   UNL     1     -44.314 -27.256  43.728  1.00  0.00    -0.500 OA
ATOM     20  H   UNL     1     -43.422 -27.574  43.366  1.00  0.00     0.294 HD
ENDBRANCH  10  19
BRANCH   5  21
ATOM     21  O   UNL     1     -44.744 -23.064  50.253  1.00  0.00    -0.507 OA
ATOM     22  H   UNL     1     -45.587 -22.508  50.340  1.00  0.00     0.293 HD
ENDBRANCH   5  21
BRANCH   7  23
ATOM     23  O   UNL     1     -43.605 -27.529  48.906  1.00  0.00    -0.507 OA
ATOM     24  H   UNL     1     -43.854 -27.967  49.780  1.00  0.00     0.293 HD
ENDBRANCH   7  23
TORSDOF 5
ENDMDL
MODEL 8
REMARK VINA RESULT:    -3.162     16.777     18.481
REMARK INTER + INTRA:          -3.914
REMARK INTER:                  -3.614
REMARK INTRA:                  -0.300
REMARK UNBOUND:                -0.198
REMARK SMILES Oc1ccc(-c2[o+]c3cc(O)cc(O)c3cc2O)cc1
REMARK SMILES IDX 6 1 7 2 8 3 9 4 10 5 12 6 13 7 15 8 16 9 17 10 5 11 4 12
REMARK SMILES IDX 3 13 2 14 19 15 20 16 1 17 18 19 11 21 14 23
REMARK H PARENT 1 18 18 20 11 22 14 24
REMARK Flexibility Score: inf
ROOT
ATOM      1  C   UNL     1     -44.838 -41.101  44.617  1.00  0.00     0.401 A 
ATOM      2  O   UNL     1     -45.692 -41.143  45.635  1.00  0.00    -0.202 OA
ATOM      3  C   UNL     1     -45.352 -40.846  46.886  1.00  0.00     0.368 A 
ATOM      4  C   UNL     1     -46.322 -40.915  47.889  1.00  0.00     0.162 A 
ATOM      5  C   UNL     1     -45.991 -40.605  49.212  1.00  0.00     0.128 A 
ATOM      6  C   UNL     1     -44.686 -40.224  49.531  1.00  0.00     0.093 A 
ATOM      7  C   UNL     1     -43.696 -40.147  48.544  1.00  0.00     0.136 A 
ATOM      8  C   UNL     1     -44.026 -40.462  47.201  1.00  0.00     0.125 A 
ATOM      9  C   UNL     1     -43.096 -40.425  46.148  1.00  0.00     0.078 A 
ATOM     10  C   UNL     1     -43.494 -40.754  44.849  1.00  0.00     0.223 A 
ENDROOT
BRANCH   1  11
ATOM     11  C   UNL     1     -45.342 -41.444  43.267  1.00  0.00     0.084 A 
ATOM     12  C   UNL     1     -45.948 -40.451  42.481  1.00  0.00     0.022 A 
ATOM     13  C   UNL     1     -46.411 -40.747  41.196  1.00  0.00     0.047 A 
ATOM     14  C   UNL     1     -46.259 -42.035  40.673  1.00  0.00     0.115 A 
ATOM     15  C   UNL     1     -45.174 -42.734  42.728  1.00  0.00     0.022 A 
ATOM     16  C   UNL     1     -45.637 -43.028  41.441  1.00  0.00     0.047 A 
BRANCH  14  17
ATOM     17  O   UNL     1     -46.726 -42.317  39.392  1.00  0.00    -0.508 OA
ATOM     18  H   UNL     1     -46.886 -41.582  38.712  1.00  0.00     0.293 HD
ENDBRANCH  14  17
ENDBRANCH   1  11
BRANCH  10  19
ATOM     19  O   UNL     1     -42.560 -40.766  43.812  1.00  0.00    -0.500 OA
ATOM     20  H   UNL     1     -42.248 -39.911  43.368  1.00  0.00     0.294 HD
ENDBRANCH  10  19
BRANCH   5  21
ATOM     21  O   UNL     1     -46.953 -40.673  50.217  1.00  0.00    -0.507 OA
ATOM     22  H   UNL     1     -47.879 -40.279  50.093  1.00  0.00     0.293 HD
ENDBRANCH   5  21
BRANCH   7  23
ATOM     23  O   UNL     1     -42.416 -39.755  48.945  1.00  0.00    -0.507 OA
ATOM     24  H   UNL     1     -41.560 -40.164  48.602  1.00  0.00     0.293 HD
ENDBRANCH   7  23
TORSDOF 5
ENDMDL
