MODEL 1
REMARK VINA RESULT:    30.242      0.000      0.000
REMARK INTER + INTRA:          36.402
REMARK INTER:                  36.429
REMARK INTRA:                  -0.027
REMARK UNBOUND:                -0.027
REMARK SMILES O=c1ccn([C@H]2O[C@H](CO)[C@@H](O)[C@@H]2O)c(=O)[nH]1
REMARK SMILES IDX 6 1 13 2 11 3 8 4 7 5 5 6 3 7 4 8 2 9 17 10 1 11 15 12 16 14
REMARK SMILES IDX 14 15 12 17 9 19 10 20
REMARK H PARENT 17 13 14 16 12 18 10 21
REMARK Flexibility Score: inf
ROOT
ATOM      1  C   UNL     1      25.423  -8.947  12.877  1.00  0.00     0.255 C 
ATOM      2  C   UNL     1      26.498  -9.936  12.441  1.00  0.00     0.196 C 
ATOM      3  C   UNL     1      26.254 -11.089  13.383  1.00  0.00     0.179 C 
ATOM      4  C   UNL     1      24.750 -10.988  13.656  1.00  0.00     0.178 C 
ATOM      5  O   UNL     1      24.331  -9.657  13.427  1.00  0.00    -0.347 OA
ENDROOT
BRANCH   1   6
ATOM      6  N   UNL     1      24.984  -8.102  11.747  1.00  0.00    -0.271 N 
ATOM      7  C   UNL     1      25.109  -7.580   9.410  1.00  0.00     0.090 A 
ATOM      8  C   UNL     1      25.506  -8.340  10.506  1.00  0.00     0.099 A 
ATOM      9  C   UNL     1      24.161  -6.580   9.599  1.00  0.00     0.253 A 
ATOM     10  N   UNL     1      23.641  -6.368  10.835  1.00  0.00    -0.274 N 
ATOM     11  O   UNL     1      23.785  -5.875   8.625  1.00  0.00    -0.269 OA
ATOM     12  C   UNL     1      24.035  -7.117  11.902  1.00  0.00     0.330 A 
ATOM     13  H   UNL     1      22.924  -5.619  10.969  1.00  0.00     0.175 HD
ATOM     14  O   UNL     1      23.511  -6.899  13.030  1.00  0.00    -0.248 OA
ENDBRANCH   1   6
BRANCH   2  15
ATOM     15  O   UNL     1      27.779  -9.389  12.617  1.00  0.00    -0.386 OA
ATOM     16  H   UNL     1      28.214  -9.403  11.725  1.00  0.00     0.211 HD
ENDBRANCH   2  15
BRANCH   3  17
ATOM     17  O   UNL     1      26.624 -12.328  12.829  1.00  0.00    -0.387 OA
ATOM     18  H   UNL     1      26.252 -13.049  13.400  1.00  0.00     0.211 HD
ENDBRANCH   3  17
BRANCH   4  19
ATOM     19  C   UNL     1      24.401 -11.406  15.091  1.00  0.00     0.191 C 
BRANCH  19  20
ATOM     20  O   UNL     1      23.234 -12.184  15.104  1.00  0.00    -0.394 OA
ATOM     21  H   UNL     1      22.541 -11.647  15.570  1.00  0.00     0.210 HD
ENDBRANCH  19  20
ENDBRANCH   4  19
TORSDOF 5
ENDMDL
MODEL 2
REMARK VINA RESULT:    30.862      2.523      5.919
REMARK INTER + INTRA:          37.149
REMARK INTER:                  37.695
REMARK INTRA:                  -0.546
REMARK UNBOUND:                -0.027
REMARK SMILES O=c1ccn([C@H]2O[C@H](CO)[C@@H](O)[C@@H]2O)c(=O)[nH]1
REMARK SMILES IDX 6 1 13 2 11 3 8 4 7 5 5 6 3 7 4 8 2 9 17 10 1 11 15 12 16 14
REMARK SMILES IDX 14 15 12 17 9 19 10 20
REMARK H PARENT 17 13 14 16 12 18 10 21
REMARK Flexibility Score: inf
ROOT
ATOM      1  C   UNL     1      25.163 -10.053  13.574  1.00  0.00     0.255 C 
ATOM      2  C   UNL     1      26.555  -9.516  13.263  1.00  0.00     0.196 C 
ATOM      3  C   UNL     1      26.254  -8.466  12.223  1.00  0.00     0.179 C 
ATOM      4  C   UNL     1      24.844  -8.005  12.609  1.00  0.00     0.178 C 
ATOM      5  O   UNL     1      24.207  -9.039  13.335  1.00  0.00    -0.347 OA
ENDROOT
BRANCH   1   6
ATOM      6  N   UNL     1      25.075 -10.539  14.967  1.00  0.00    -0.271 N 
ATOM      7  C   UNL     1      25.863 -10.424  17.229  1.00  0.00     0.090 A 
ATOM      8  C   UNL     1      25.921 -10.009  15.902  1.00  0.00     0.099 A 
ATOM      9  C   UNL     1      24.919 -11.380  17.589  1.00  0.00     0.253 A 
ATOM     10  N   UNL     1      24.077 -11.883  16.650  1.00  0.00    -0.274 N 
ATOM     11  O   UNL     1      24.846 -11.775  18.783  1.00  0.00    -0.269 OA
ATOM     12  C   UNL     1      24.140 -11.471  15.354  1.00  0.00     0.330 A 
ATOM     13  H   UNL     1      23.365 -12.597  16.929  1.00  0.00     0.175 HD
ATOM     14  O   UNL     1      23.325 -11.951  14.518  1.00  0.00    -0.248 OA
ENDBRANCH   1   6
BRANCH   2  15
ATOM     15  O   UNL     1      27.376 -10.531  12.746  1.00  0.00    -0.386 OA
ATOM     16  H   UNL     1      27.595 -10.266  11.814  1.00  0.00     0.211 HD
ENDBRANCH   2  15
BRANCH   3  17
ATOM     17  O   UNL     1      27.189  -7.414  12.229  1.00  0.00    -0.387 OA
ATOM     18  H   UNL     1      27.367  -7.149  11.289  1.00  0.00     0.211 HD
ENDBRANCH   3  17
BRANCH   4  19
ATOM     19  C   UNL     1      24.006  -7.639  11.377  1.00  0.00     0.191 C 
BRANCH  19  20
ATOM     20  O   UNL     1      24.749  -6.833  10.503  1.00  0.00    -0.394 OA
ATOM     21  H   UNL     1      25.635  -6.692  10.930  1.00  0.00     0.210 HD
ENDBRANCH  19  20
ENDBRANCH   4  19
TORSDOF 5
ENDMDL
MODEL 3
REMARK VINA RESULT:    31.128     11.620     13.665
REMARK INTER + INTRA:          37.470
REMARK INTER:                  37.996
REMARK INTRA:                  -0.526
REMARK UNBOUND:                -0.027
REMARK SMILES O=c1ccn([C@H]2O[C@H](CO)[C@@H](O)[C@@H]2O)c(=O)[nH]1
REMARK SMILES IDX 6 1 13 2 11 3 8 4 7 5 5 6 3 7 4 8 2 9 17 10 1 11 15 12 16 14
REMARK SMILES IDX 14 15 12 17 9 19 10 20
REMARK H PARENT 17 13 14 16 12 18 10 21
REMARK Flexibility Score: inf
ROOT
ATOM      1  C   UNL     1      31.128 -11.746   1.594  1.00  0.00     0.255 C 
ATOM      2  C   UNL     1      30.349 -10.436   1.553  1.00  0.00     0.196 C 
ATOM      3  C   UNL     1      31.394  -9.474   1.046  1.00  0.00     0.179 C 
ATOM      4  C   UNL     1      32.287 -10.372   0.182  1.00  0.00     0.178 C 
ATOM      5  O   UNL     1      32.156 -11.708   0.624  1.00  0.00    -0.347 OA
ENDROOT
BRANCH   1   6
ATOM      6  N   UNL     1      30.239 -12.905   1.372  1.00  0.00    -0.271 N 
ATOM      7  C   UNL     1      29.381 -14.571  -0.125  1.00  0.00     0.090 A 
ATOM      8  C   UNL     1      30.191 -13.468   0.126  1.00  0.00     0.099 A 
ATOM      9  C   UNL     1      28.627 -15.097   0.919  1.00  0.00     0.253 A 
ATOM     10  N   UNL     1      28.699 -14.536   2.153  1.00  0.00    -0.274 N 
ATOM     11  O   UNL     1      27.884 -16.095   0.720  1.00  0.00    -0.269 OA
ATOM     12  C   UNL     1      29.496 -13.457   2.390  1.00  0.00     0.330 A 
ATOM     13  H   UNL     1      28.135 -14.941   2.935  1.00  0.00     0.175 HD
ATOM     14  O   UNL     1      29.547 -12.978   3.557  1.00  0.00    -0.248 OA
ENDBRANCH   1   6
BRANCH   2  15
ATOM     15  O   UNL     1      29.903 -10.082   2.836  1.00  0.00    -0.386 OA
ATOM     16  H   UNL     1      29.589  -9.142   2.773  1.00  0.00     0.211 HD
ENDBRANCH   2  15
BRANCH   3  17
ATOM     17  O   UNL     1      30.837  -8.404   0.321  1.00  0.00    -0.387 OA
ATOM     18  H   UNL     1      30.415  -7.777   0.965  1.00  0.00     0.211 HD
ENDBRANCH   3  17
BRANCH   4  19
ATOM     19  C   UNL     1      33.759  -9.942   0.246  1.00  0.00     0.191 C 
BRANCH  19  20
ATOM     20  O   UNL     1      34.157  -9.759   1.578  1.00  0.00    -0.394 OA
ATOM     21  H   UNL     1      33.403 -10.067   2.145  1.00  0.00     0.210 HD
ENDBRANCH  19  20
ENDBRANCH   4  19
TORSDOF 5
ENDMDL
MODEL 4
REMARK VINA RESULT:    33.031      1.911      5.729
REMARK INTER + INTRA:          39.762
REMARK INTER:                  40.141
REMARK INTRA:                  -0.379
REMARK UNBOUND:                -0.027
REMARK SMILES O=c1ccn([C@H]2O[C@H](CO)[C@@H](O)[C@@H]2O)c(=O)[nH]1
REMARK SMILES IDX 6 1 13 2 11 3 8 4 7 5 5 6 3 7 4 8 2 9 17 10 1 11 15 12 16 14
REMARK SMILES IDX 14 15 12 17 9 19 10 20
REMARK H PARENT 17 13 14 16 12 18 10 21
REMARK Flexibility Score: inf
ROOT
ATOM      1  C   UNL     1      25.160  -8.671  12.753  1.00  0.00     0.255 C 
ATOM      2  C   UNL     1      24.387  -7.696  13.633  1.00  0.00     0.196 C 
ATOM      3  C   UNL     1      24.107  -6.569  12.669  1.00  0.00     0.179 C 
ATOM      4  C   UNL     1      24.035  -7.291  11.320  1.00  0.00     0.178 C 
ATOM      5  O   UNL     1      24.766  -8.498  11.407  1.00  0.00    -0.347 OA
ENDROOT
BRANCH   1   6
ATOM      6  N   UNL     1      24.948 -10.067  13.188  1.00  0.00    -0.271 N 
ATOM      7  C   UNL     1      23.504 -11.708  14.177  1.00  0.00     0.090 A 
ATOM      8  C   UNL     1      23.755 -10.401  13.768  1.00  0.00     0.099 A 
ATOM      9  C   UNL     1      24.487 -12.671  13.974  1.00  0.00     0.253 A 
ATOM     10  N   UNL     1      25.659 -12.325  13.381  1.00  0.00    -0.274 N 
ATOM     11  O   UNL     1      24.288 -13.861  14.336  1.00  0.00    -0.269 OA
ATOM     12  C   UNL     1      25.896 -11.044  12.983  1.00  0.00     0.330 A 
ATOM     13  H   UNL     1      26.390 -13.056  13.225  1.00  0.00     0.175 HD
ATOM     14  O   UNL     1      26.991 -10.770  12.419  1.00  0.00    -0.248 OA
ENDBRANCH   1   6
BRANCH   2  15
ATOM     15  O   UNL     1      25.175  -7.265  14.713  1.00  0.00    -0.386 OA
ATOM     16  H   UNL     1      25.708  -6.497  14.380  1.00  0.00     0.211 HD
ENDBRANCH   2  15
BRANCH   3  17
ATOM     17  O   UNL     1      22.922  -5.875  12.978  1.00  0.00    -0.387 OA
ATOM     18  H   UNL     1      22.155  -6.492  12.845  1.00  0.00     0.211 HD
ENDBRANCH   3  17
BRANCH   4  19
ATOM     19  C   UNL     1      24.588  -6.426  10.180  1.00  0.00     0.191 C 
BRANCH  19  20
ATOM     20  O   UNL     1      25.120  -7.235   9.166  1.00  0.00    -0.394 OA
ATOM     21  H   UNL     1      25.210  -6.660   8.361  1.00  0.00     0.210 HD
ENDBRANCH  19  20
ENDBRANCH   4  19
TORSDOF 5
ENDMDL
