MODEL 1
REMARK VINA RESULT:    -6.946      0.000      0.000
REMARK INTER + INTRA:          -7.555
REMARK INTER:                  -7.555
REMARK INTRA:                   0.000
REMARK UNBOUND:                 0.000
REMARK SMILES Cc1cc(O)c2c(c1)C(=O)c1cc(O)cc(O)c1C2=O
REMARK SMILES IDX 1 1 2 2 8 3 7 4 6 5 4 6 3 7 19 8 20 9 18 10 11 11 9 12 10 13
REMARK SMILES IDX 12 14 13 15 15 16 16 17 5 18 17 20 14 22
REMARK H PARENT 5 19 17 21 14 23
REMARK Flexibility Score: inf
ROOT
ATOM      1  C   UNL     1      13.373 -14.914  13.729  1.00  0.00     0.044 C 
ATOM      2  C   UNL     1      12.659 -13.657  14.131  1.00  0.00    -0.047 A 
ATOM      3  C   UNL     1      11.695 -13.689  15.145  1.00  0.00     0.016 A 
ATOM      4  C   UNL     1      11.042 -12.512  15.548  1.00  0.00     0.038 A 
ATOM      5  C   UNL     1      11.359 -11.283  14.928  1.00  0.00     0.076 A 
ATOM      6  C   UNL     1      12.397 -11.244  13.962  1.00  0.00     0.127 A 
ATOM      7  C   UNL     1      13.018 -12.432  13.562  1.00  0.00     0.050 A 
ATOM      8  C   UNL     1      10.546 -10.090  15.276  1.00  0.00     0.201 C 
ATOM      9  O   UNL     1      10.371  -9.180  14.422  1.00  0.00    -0.288 OA
ATOM     10  C   UNL     1       9.790 -10.060  16.555  1.00  0.00     0.076 A 
ATOM     11  C   UNL     1       9.476 -11.290  17.174  1.00  0.00     0.041 A 
ATOM     12  C   UNL     1      10.026 -12.553  16.628  1.00  0.00     0.194 C 
ATOM     13  O   UNL     1       9.650 -13.662  17.098  1.00  0.00    -0.289 OA
ATOM     14  C   UNL     1       8.646 -11.312  18.308  1.00  0.00     0.059 A 
ATOM     15  C   UNL     1       8.141 -10.121  18.839  1.00  0.00     0.120 A 
ATOM     16  C   UNL     1       8.481  -8.902  18.255  1.00  0.00     0.093 A 
ATOM     17  C   UNL     1       9.321  -8.853  17.138  1.00  0.00     0.131 A 
ENDROOT
BRANCH   6  18
ATOM     18  O   UNL     1      12.865 -10.052  13.404  1.00  0.00    -0.507 OA
ATOM     19  H   UNL     1      12.328  -9.197  13.383  1.00  0.00     0.293 HD
ENDBRANCH   6  18
BRANCH  17  20
ATOM     20  O   UNL     1       9.691  -7.591  16.664  1.00  0.00    -0.507 OA
ATOM     21  H   UNL     1      10.651  -7.300  16.542  1.00  0.00     0.293 HD
ENDBRANCH  17  20
BRANCH  15  22
ATOM     22  O   UNL     1       7.308 -10.138  19.955  1.00  0.00    -0.508 OA
ATOM     23  H   UNL     1       6.486 -10.730  19.995  1.00  0.00     0.293 HD
ENDBRANCH  15  22
TORSDOF 3
ENDMDL
MODEL 2
REMARK VINA RESULT:    -6.422      2.715      5.499
REMARK INTER + INTRA:          -6.986
REMARK INTER:                  -6.986
REMARK INTRA:                   0.000
REMARK UNBOUND:                 0.000
REMARK SMILES Cc1cc(O)c2c(c1)C(=O)c1cc(O)cc(O)c1C2=O
REMARK SMILES IDX 1 1 2 2 8 3 7 4 6 5 4 6 3 7 19 8 20 9 18 10 11 11 9 12 10 13
REMARK SMILES IDX 12 14 13 15 15 16 16 17 5 18 17 20 14 22
REMARK H PARENT 5 19 17 21 14 23
REMARK Flexibility Score: inf
ROOT
ATOM      1  C   UNL     1      10.076 -17.349  16.994  1.00  0.00     0.044 C 
ATOM      2  C   UNL     1      10.354 -15.953  16.519  1.00  0.00    -0.047 A 
ATOM      3  C   UNL     1      11.594 -15.635  15.957  1.00  0.00     0.016 A 
ATOM      4  C   UNL     1      11.854 -14.337  15.484  1.00  0.00     0.038 A 
ATOM      5  C   UNL     1      10.855 -13.343  15.573  1.00  0.00     0.076 A 
ATOM      6  C   UNL     1       9.572 -13.695  16.065  1.00  0.00     0.127 A 
ATOM      7  C   UNL     1       9.344 -14.987  16.550  1.00  0.00     0.050 A 
ATOM      8  C   UNL     1      11.214 -11.950  15.199  1.00  0.00     0.201 C 
ATOM      9  O   UNL     1      10.634 -10.982  15.759  1.00  0.00    -0.288 OA
ATOM     10  C   UNL     1      12.379 -11.702  14.310  1.00  0.00     0.076 A 
ATOM     11  C   UNL     1      13.375 -12.699  14.222  1.00  0.00     0.041 A 
ATOM     12  C   UNL     1      13.170 -14.010  14.883  1.00  0.00     0.194 C 
ATOM     13  O   UNL     1      14.106 -14.855  14.913  1.00  0.00    -0.289 OA
ATOM     14  C   UNL     1      14.556 -12.447  13.503  1.00  0.00     0.059 A 
ATOM     15  C   UNL     1      14.746 -11.220  12.861  1.00  0.00     0.120 A 
ATOM     16  C   UNL     1      13.747 -10.248  12.912  1.00  0.00     0.093 A 
ATOM     17  C   UNL     1      12.555 -10.483  13.605  1.00  0.00     0.131 A 
ENDROOT
BRANCH   6  18
ATOM     18  O   UNL     1       8.491 -12.809  16.057  1.00  0.00    -0.507 OA
ATOM     19  H   UNL     1       7.627 -12.987  15.564  1.00  0.00     0.293 HD
ENDBRANCH   6  18
BRANCH  17  20
ATOM     20  O   UNL     1      11.564  -9.500  13.535  1.00  0.00    -0.507 OA
ATOM     21  H   UNL     1      11.680  -8.565  13.899  1.00  0.00     0.293 HD
ENDBRANCH  17  20
BRANCH  15  22
ATOM     22  O   UNL     1      15.920 -10.960  12.157  1.00  0.00    -0.508 OA
ATOM     23  H   UNL     1      15.923 -10.381  11.326  1.00  0.00     0.293 HD
ENDBRANCH  15  22
TORSDOF 3
ENDMDL
MODEL 3
REMARK VINA RESULT:    -6.404      2.264      3.153
REMARK INTER + INTRA:          -6.965
REMARK INTER:                  -6.965
REMARK INTRA:                   0.000
REMARK UNBOUND:                 0.000
REMARK SMILES Cc1cc(O)c2c(c1)C(=O)c1cc(O)cc(O)c1C2=O
REMARK SMILES IDX 1 1 2 2 8 3 7 4 6 5 4 6 3 7 19 8 20 9 18 10 11 11 9 12 10 13
REMARK SMILES IDX 12 14 13 15 15 16 16 17 5 18 17 20 14 22
REMARK H PARENT 5 19 17 21 14 23
REMARK Flexibility Score: inf
ROOT
ATOM      1  C   UNL     1      17.184 -13.036  15.576  1.00  0.00     0.044 C 
ATOM      2  C   UNL     1      15.936 -12.447  14.989  1.00  0.00    -0.047 A 
ATOM      3  C   UNL     1      14.732 -12.496  15.700  1.00  0.00     0.016 A 
ATOM      4  C   UNL     1      13.563 -11.923  15.170  1.00  0.00     0.038 A 
ATOM      5  C   UNL     1      13.601 -11.289  13.909  1.00  0.00     0.076 A 
ATOM      6  C   UNL     1      14.842 -11.168  13.232  1.00  0.00     0.127 A 
ATOM      7  C   UNL     1      15.987 -11.765  13.769  1.00  0.00     0.050 A 
ATOM      8  C   UNL     1      12.319 -10.826  13.317  1.00  0.00     0.201 C 
ATOM      9  O   UNL     1      12.181 -10.798  12.064  1.00  0.00    -0.288 OA
ATOM     10  C   UNL     1      11.147 -10.578  14.196  1.00  0.00     0.076 A 
ATOM     11  C   UNL     1      11.114 -11.212  15.459  1.00  0.00     0.041 A 
ATOM     12  C   UNL     1      12.293 -11.973  15.934  1.00  0.00     0.194 C 
ATOM     13  O   UNL     1      12.225 -12.643  17.001  1.00  0.00    -0.289 OA
ATOM     14  C   UNL     1       9.964 -11.114  16.261  1.00  0.00     0.059 A 
ATOM     15  C   UNL     1       8.857 -10.380  15.825  1.00  0.00     0.120 A 
ATOM     16  C   UNL     1       8.901  -9.720  14.598  1.00  0.00     0.093 A 
ATOM     17  C   UNL     1      10.042  -9.786  13.791  1.00  0.00     0.131 A 
ENDROOT
BRANCH   6  18
ATOM     18  O   UNL     1      14.989 -10.438  12.050  1.00  0.00    -0.507 OA
ATOM     19  H   UNL     1      14.966 -10.854  11.130  1.00  0.00     0.293 HD
ENDBRANCH   6  18
BRANCH  17  20
ATOM     20  O   UNL     1      10.046  -9.025  12.619  1.00  0.00    -0.507 OA
ATOM     21  H   UNL     1       9.438  -8.233  12.465  1.00  0.00     0.293 HD
ENDBRANCH  17  20
BRANCH  15  22
ATOM     22  O   UNL     1       7.711 -10.291  16.611  1.00  0.00    -0.508 OA
ATOM     23  H   UNL     1       6.946 -10.949  16.511  1.00  0.00     0.293 HD
ENDBRANCH  15  22
TORSDOF 3
ENDMDL
MODEL 4
REMARK VINA RESULT:    -6.382      2.432      3.363
REMARK INTER + INTRA:          -6.941
REMARK INTER:                  -6.941
REMARK INTRA:                   0.000
REMARK UNBOUND:                 0.000
REMARK SMILES Cc1cc(O)c2c(c1)C(=O)c1cc(O)cc(O)c1C2=O
REMARK SMILES IDX 1 1 2 2 8 3 7 4 6 5 4 6 3 7 19 8 20 9 18 10 11 11 9 12 10 13
REMARK SMILES IDX 12 14 13 15 15 16 16 17 5 18 17 20 14 22
REMARK H PARENT 5 19 17 21 14 23
REMARK Flexibility Score: inf
ROOT
ATOM      1  C   UNL     1      14.322 -15.866  18.727  1.00  0.00     0.044 C 
ATOM      2  C   UNL     1      13.843 -14.842  17.742  1.00  0.00    -0.047 A 
ATOM      3  C   UNL     1      12.476 -14.569  17.619  1.00  0.00     0.016 A 
ATOM      4  C   UNL     1      12.019 -13.591  16.718  1.00  0.00     0.038 A 
ATOM      5  C   UNL     1      12.945 -12.875  15.929  1.00  0.00     0.076 A 
ATOM      6  C   UNL     1      14.334 -13.096  16.120  1.00  0.00     0.127 A 
ATOM      7  C   UNL     1      14.763 -14.089  17.006  1.00  0.00     0.050 A 
ATOM      8  C   UNL     1      12.418 -11.957  14.886  1.00  0.00     0.201 C 
ATOM      9  O   UNL     1      13.084 -11.753  13.836  1.00  0.00    -0.288 OA
ATOM     10  C   UNL     1      11.032 -11.434  14.996  1.00  0.00     0.076 A 
ATOM     11  C   UNL     1      10.108 -12.152  15.789  1.00  0.00     0.041 A 
ATOM     12  C   UNL     1      10.569 -13.303  16.600  1.00  0.00     0.194 C 
ATOM     13  O   UNL     1       9.731 -14.023  17.209  1.00  0.00    -0.289 OA
ATOM     14  C   UNL     1       8.756 -11.769  15.808  1.00  0.00     0.059 A 
ATOM     15  C   UNL     1       8.320 -10.671  15.061  1.00  0.00     0.120 A 
ATOM     16  C   UNL     1       9.236  -9.936  14.309  1.00  0.00     0.093 A 
ATOM     17  C   UNL     1      10.590 -10.285  14.290  1.00  0.00     0.131 A 
ENDROOT
BRANCH   6  18
ATOM     18  O   UNL     1      15.315 -12.334  15.481  1.00  0.00    -0.507 OA
ATOM     19  H   UNL     1      15.119 -11.694  14.724  1.00  0.00     0.293 HD
ENDBRANCH   6  18
BRANCH  17  20
ATOM     20  O   UNL     1      11.462  -9.448  13.588  1.00  0.00    -0.507 OA
ATOM     21  H   UNL     1      12.056  -9.765  12.836  1.00  0.00     0.293 HD
ENDBRANCH  17  20
BRANCH  15  22
ATOM     22  O   UNL     1       6.979 -10.295  15.067  1.00  0.00    -0.508 OA
ATOM     23  H   UNL     1       6.577  -9.779  15.841  1.00  0.00     0.293 HD
ENDBRANCH  15  22
TORSDOF 3
ENDMDL
MODEL 5
REMARK VINA RESULT:    -6.354      2.476      4.291
REMARK INTER + INTRA:          -6.911
REMARK INTER:                  -6.911
REMARK INTRA:                   0.000
REMARK UNBOUND:                 0.000
REMARK SMILES Cc1cc(O)c2c(c1)C(=O)c1cc(O)cc(O)c1C2=O
REMARK SMILES IDX 1 1 2 2 8 3 7 4 6 5 4 6 3 7 19 8 20 9 18 10 11 11 9 12 10 13
REMARK SMILES IDX 12 14 13 15 15 16 16 17 5 18 17 20 14 22
REMARK H PARENT 5 19 17 21 14 23
REMARK Flexibility Score: inf
ROOT
ATOM      1  C   UNL     1      15.699 -13.850  16.330  1.00  0.00     0.044 C 
ATOM      2  C   UNL     1      14.277 -13.372  16.308  1.00  0.00    -0.047 A 
ATOM      3  C   UNL     1      13.898 -12.331  15.454  1.00  0.00     0.016 A 
ATOM      4  C   UNL     1      12.562 -11.895  15.405  1.00  0.00     0.038 A 
ATOM      5  C   UNL     1      11.591 -12.513  16.224  1.00  0.00     0.076 A 
ATOM      6  C   UNL     1      11.966 -13.623  17.024  1.00  0.00     0.127 A 
ATOM      7  C   UNL     1      13.305 -14.025  17.072  1.00  0.00     0.050 A 
ATOM      8  C   UNL     1      10.225 -11.930  16.255  1.00  0.00     0.201 C 
ATOM      9  O   UNL     1       9.527 -12.024  17.300  1.00  0.00    -0.288 OA
ATOM     10  C   UNL     1       9.760 -11.079  15.129  1.00  0.00     0.076 A 
ATOM     11  C   UNL     1      10.734 -10.465  14.310  1.00  0.00     0.041 A 
ATOM     12  C   UNL     1      12.167 -10.796  14.492  1.00  0.00     0.194 C 
ATOM     13  O   UNL     1      13.048 -10.160  13.851  1.00  0.00    -0.289 OA
ATOM     14  C   UNL     1      10.339  -9.546  13.323  1.00  0.00     0.059 A 
ATOM     15  C   UNL     1       8.987  -9.246  13.134  1.00  0.00     0.120 A 
ATOM     16  C   UNL     1       8.021  -9.880  13.913  1.00  0.00     0.093 A 
ATOM     17  C   UNL     1       8.387 -10.813  14.888  1.00  0.00     0.131 A 
ENDROOT
BRANCH   6  18
ATOM     18  O   UNL     1      11.041 -14.373  17.755  1.00  0.00    -0.507 OA
ATOM     19  H   UNL     1      10.204 -13.983  18.164  1.00  0.00     0.293 HD
ENDBRANCH   6  18
BRANCH  17  20
ATOM     20  O   UNL     1       7.359 -11.475  15.566  1.00  0.00    -0.507 OA
ATOM     21  H   UNL     1       6.379 -11.349  15.353  1.00  0.00     0.293 HD
ENDBRANCH  17  20
BRANCH  15  22
ATOM     22  O   UNL     1       8.593  -8.326  12.165  1.00  0.00    -0.508 OA
ATOM     23  H   UNL     1       7.960  -7.565  12.383  1.00  0.00     0.293 HD
ENDBRANCH  15  22
TORSDOF 3
ENDMDL
MODEL 6
REMARK VINA RESULT:    -6.305      3.760      5.230
REMARK INTER + INTRA:          -6.858
REMARK INTER:                  -6.858
REMARK INTRA:                   0.000
REMARK UNBOUND:                 0.000
REMARK SMILES Cc1cc(O)c2c(c1)C(=O)c1cc(O)cc(O)c1C2=O
REMARK SMILES IDX 1 1 2 2 8 3 7 4 6 5 4 6 3 7 19 8 20 9 18 10 11 11 9 12 10 13
REMARK SMILES IDX 12 14 13 15 15 16 16 17 5 18 17 20 14 22
REMARK H PARENT 5 19 17 21 14 23
REMARK Flexibility Score: inf
ROOT
ATOM      1  C   UNL     1       4.251 -14.224  12.099  1.00  0.00     0.044 C 
ATOM      2  C   UNL     1       5.318 -13.562  12.921  1.00  0.00    -0.047 A 
ATOM      3  C   UNL     1       6.235 -14.336  13.639  1.00  0.00     0.016 A 
ATOM      4  C   UNL     1       7.255 -13.726  14.389  1.00  0.00     0.038 A 
ATOM      5  C   UNL     1       7.358 -12.317  14.420  1.00  0.00     0.076 A 
ATOM      6  C   UNL     1       6.478 -11.542  13.622  1.00  0.00     0.127 A 
ATOM      7  C   UNL     1       5.458 -12.171  12.901  1.00  0.00     0.050 A 
ATOM      8  C   UNL     1       8.353 -11.705  15.338  1.00  0.00     0.201 C 
ATOM      9  O   UNL     1       8.131 -10.569  15.836  1.00  0.00    -0.288 OA
ATOM     10  C   UNL     1       9.511 -12.508  15.813  1.00  0.00     0.076 A 
ATOM     11  C   UNL     1       9.405 -13.917  15.779  1.00  0.00     0.041 A 
ATOM     12  C   UNL     1       8.228 -14.554  15.142  1.00  0.00     0.194 C 
ATOM     13  O   UNL     1       8.067 -15.803  15.219  1.00  0.00    -0.289 OA
ATOM     14  C   UNL     1      10.419 -14.708  16.345  1.00  0.00     0.059 A 
ATOM     15  C   UNL     1      11.540 -14.112  16.928  1.00  0.00     0.120 A 
ATOM     16  C   UNL     1      11.667 -12.724  16.928  1.00  0.00     0.093 A 
ATOM     17  C   UNL     1      10.681 -11.915  16.353  1.00  0.00     0.131 A 
ENDROOT
BRANCH   6  18
ATOM     18  O   UNL     1       6.602 -10.157  13.489  1.00  0.00    -0.507 OA
ATOM     19  H   UNL     1       6.972  -9.557  14.213  1.00  0.00     0.293 HD
ENDBRANCH   6  18
BRANCH  17  20
ATOM     20  O   UNL     1      10.922 -10.539  16.309  1.00  0.00    -0.507 OA
ATOM     21  H   UNL     1      10.512  -9.923  15.622  1.00  0.00     0.293 HD
ENDBRANCH  17  20
BRANCH  15  22
ATOM     22  O   UNL     1      12.542 -14.893  17.502  1.00  0.00    -0.508 OA
ATOM     23  H   UNL     1      12.476 -15.903  17.529  1.00  0.00     0.293 HD
ENDBRANCH  15  22
TORSDOF 3
ENDMDL
MODEL 7
REMARK VINA RESULT:    -6.287      2.188      5.986
REMARK INTER + INTRA:          -6.838
REMARK INTER:                  -6.838
REMARK INTRA:                   0.000
REMARK UNBOUND:                 0.000
REMARK SMILES Cc1cc(O)c2c(c1)C(=O)c1cc(O)cc(O)c1C2=O
REMARK SMILES IDX 1 1 2 2 8 3 7 4 6 5 4 6 3 7 19 8 20 9 18 10 11 11 9 12 10 13
REMARK SMILES IDX 12 14 13 15 15 16 16 17 5 18 17 20 14 22
REMARK H PARENT 5 19 17 21 14 23
REMARK Flexibility Score: inf
ROOT
ATOM      1  C   UNL     1       7.796 -10.642  16.701  1.00  0.00     0.044 C 
ATOM      2  C   UNL     1       9.093 -10.860  15.981  1.00  0.00    -0.047 A 
ATOM      3  C   UNL     1       9.826 -12.033  16.191  1.00  0.00     0.016 A 
ATOM      4  C   UNL     1      11.029 -12.259  15.499  1.00  0.00     0.038 A 
ATOM      5  C   UNL     1      11.504 -11.296  14.581  1.00  0.00     0.076 A 
ATOM      6  C   UNL     1      10.713 -10.150  14.310  1.00  0.00     0.127 A 
ATOM      7  C   UNL     1       9.531  -9.937  15.026  1.00  0.00     0.050 A 
ATOM      8  C   UNL     1      12.848 -11.500  13.982  1.00  0.00     0.201 C 
ATOM      9  O   UNL     1      13.546 -10.504  13.654  1.00  0.00    -0.288 OA
ATOM     10  C   UNL     1      13.440 -12.863  13.944  1.00  0.00     0.076 A 
ATOM     11  C   UNL     1      12.961 -13.824  14.862  1.00  0.00     0.041 A 
ATOM     12  C   UNL     1      11.797 -13.508  15.723  1.00  0.00     0.194 C 
ATOM     13  O   UNL     1      11.444 -14.312  16.629  1.00  0.00    -0.289 OA
ATOM     14  C   UNL     1      13.587 -15.079  14.951  1.00  0.00     0.059 A 
ATOM     15  C   UNL     1      14.673 -15.390  14.128  1.00  0.00     0.120 A 
ATOM     16  C   UNL     1      15.123 -14.459  13.193  1.00  0.00     0.093 A 
ATOM     17  C   UNL     1      14.503 -13.210  13.071  1.00  0.00     0.131 A 
ENDROOT
BRANCH   6  18
ATOM     18  O   UNL     1      11.043  -9.223  13.319  1.00  0.00    -0.507 OA
ATOM     19  H   UNL     1      10.526  -9.118  12.457  1.00  0.00     0.293 HD
ENDBRANCH   6  18
BRANCH  17  20
ATOM     20  O   UNL     1      14.950 -12.366  12.050  1.00  0.00    -0.507 OA
ATOM     21  H   UNL     1      14.440 -11.554  11.735  1.00  0.00     0.293 HD
ENDBRANCH  17  20
BRANCH  15  22
ATOM     22  O   UNL     1      15.305 -16.628  14.222  1.00  0.00    -0.508 OA
ATOM     23  H   UNL     1      15.159 -17.238  15.017  1.00  0.00     0.293 HD
ENDBRANCH  15  22
TORSDOF 3
ENDMDL
MODEL 8
REMARK VINA RESULT:    -6.179      1.836      2.946
REMARK INTER + INTRA:          -6.720
REMARK INTER:                  -6.720
REMARK INTRA:                   0.000
REMARK UNBOUND:                 0.000
REMARK SMILES Cc1cc(O)c2c(c1)C(=O)c1cc(O)cc(O)c1C2=O
REMARK SMILES IDX 1 1 2 2 8 3 7 4 6 5 4 6 3 7 19 8 20 9 18 10 11 11 9 12 10 13
REMARK SMILES IDX 12 14 13 15 15 16 16 17 5 18 17 20 14 22
REMARK H PARENT 5 19 17 21 14 23
REMARK Flexibility Score: inf
ROOT
ATOM      1  C   UNL     1      16.764 -12.669  12.215  1.00  0.00     0.044 C 
ATOM      2  C   UNL     1      15.467 -12.128  12.739  1.00  0.00    -0.047 A 
ATOM      3  C   UNL     1      14.633 -12.932  13.522  1.00  0.00     0.016 A 
ATOM      4  C   UNL     1      13.429 -12.425  14.041  1.00  0.00     0.038 A 
ATOM      5  C   UNL     1      13.054 -11.090  13.770  1.00  0.00     0.076 A 
ATOM      6  C   UNL     1      13.944 -10.255  13.047  1.00  0.00     0.127 A 
ATOM      7  C   UNL     1      15.127 -10.788  12.523  1.00  0.00     0.050 A 
ATOM      8  C   UNL     1      11.709 -10.635  14.208  1.00  0.00     0.201 C 
ATOM      9  O   UNL     1      11.104  -9.745  13.553  1.00  0.00    -0.288 OA
ATOM     10  C   UNL     1      11.006 -11.358  15.300  1.00  0.00     0.076 A 
ATOM     11  C   UNL     1      11.384 -12.693  15.569  1.00  0.00     0.041 A 
ATOM     12  C   UNL     1      12.555 -13.282  14.877  1.00  0.00     0.194 C 
ATOM     13  O   UNL     1      12.821 -14.507  15.018  1.00  0.00    -0.289 OA
ATOM     14  C   UNL     1      10.653 -13.454  16.496  1.00  0.00     0.059 A 
ATOM     15  C   UNL     1       9.560 -12.896  17.167  1.00  0.00     0.120 A 
ATOM     16  C   UNL     1       9.208 -11.568  16.933  1.00  0.00     0.093 A 
ATOM     17  C   UNL     1       9.933 -10.783  16.030  1.00  0.00     0.131 A 
ENDROOT
BRANCH   6  18
ATOM     18  O   UNL     1      13.712  -8.891  12.856  1.00  0.00    -0.507 OA
ATOM     19  H   UNL     1      14.277  -8.164  13.275  1.00  0.00     0.293 HD
ENDBRANCH   6  18
BRANCH  17  20
ATOM     20  O   UNL     1       9.578  -9.436  15.917  1.00  0.00    -0.507 OA
ATOM     21  H   UNL     1       8.800  -9.109  15.363  1.00  0.00     0.293 HD
ENDBRANCH  17  20
BRANCH  15  22
ATOM     22  O   UNL     1       8.825 -13.651  18.077  1.00  0.00    -0.508 OA
ATOM     23  H   UNL     1       8.779 -14.661  18.014  1.00  0.00     0.293 HD
ENDBRANCH  15  22
TORSDOF 3
ENDMDL
MODEL 9
REMARK VINA RESULT:    -6.129      1.938      4.422
REMARK INTER + INTRA:          -6.667
REMARK INTER:                  -6.667
REMARK INTRA:                   0.000
REMARK UNBOUND:                 0.000
REMARK SMILES Cc1cc(O)c2c(c1)C(=O)c1cc(O)cc(O)c1C2=O
REMARK SMILES IDX 1 1 2 2 8 3 7 4 6 5 4 6 3 7 19 8 20 9 18 10 11 11 9 12 10 13
REMARK SMILES IDX 12 14 13 15 15 16 16 17 5 18 17 20 14 22
REMARK H PARENT 5 19 17 21 14 23
REMARK Flexibility Score: inf
ROOT
ATOM      1  C   UNL     1      15.791 -15.231  11.091  1.00  0.00     0.044 C 
ATOM      2  C   UNL     1      14.947 -14.741  12.230  1.00  0.00    -0.047 A 
ATOM      3  C   UNL     1      14.289 -13.510  12.139  1.00  0.00     0.016 A 
ATOM      4  C   UNL     1      13.473 -13.055  13.190  1.00  0.00     0.038 A 
ATOM      5  C   UNL     1      13.312 -13.846  14.349  1.00  0.00     0.076 A 
ATOM      6  C   UNL     1      13.914 -15.130  14.398  1.00  0.00     0.127 A 
ATOM      7  C   UNL     1      14.738 -15.552  13.350  1.00  0.00     0.050 A 
ATOM      8  C   UNL     1      12.565 -13.268  15.496  1.00  0.00     0.201 C 
ATOM      9  O   UNL     1      12.854 -13.616  16.672  1.00  0.00    -0.288 OA
ATOM     10  C   UNL     1      11.613 -12.150  15.268  1.00  0.00     0.076 A 
ATOM     11  C   UNL     1      11.775 -11.362  14.106  1.00  0.00     0.041 A 
ATOM     12  C   UNL     1      12.773 -11.752  13.082  1.00  0.00     0.194 C 
ATOM     13  O   UNL     1      13.009 -10.987  12.107  1.00  0.00    -0.289 OA
ATOM     14  C   UNL     1      10.985 -10.214  13.923  1.00  0.00     0.059 A 
ATOM     15  C   UNL     1      10.028  -9.854  14.876  1.00  0.00     0.120 A 
ATOM     16  C   UNL     1       9.838 -10.651  16.004  1.00  0.00     0.093 A 
ATOM     17  C   UNL     1      10.598 -11.809  16.199  1.00  0.00     0.131 A 
ENDROOT
BRANCH   6  18
ATOM     18  O   UNL     1      13.692 -16.027  15.446  1.00  0.00    -0.507 OA
ATOM     19  H   UNL     1      13.765 -17.030  15.347  1.00  0.00     0.293 HD
ENDBRANCH   6  18
BRANCH  17  20
ATOM     20  O   UNL     1      10.288 -12.605  17.305  1.00  0.00    -0.507 OA
ATOM     21  H   UNL     1      10.626 -12.420  18.238  1.00  0.00     0.293 HD
ENDBRANCH  17  20
BRANCH  15  22
ATOM     22  O   UNL     1       9.251  -8.710  14.706  1.00  0.00    -0.508 OA
ATOM     23  H   UNL     1       8.745  -8.536  13.845  1.00  0.00     0.293 HD
ENDBRANCH  15  22
TORSDOF 3
ENDMDL
