MODEL 1
REMARK VINA RESULT:    -3.843      0.000      0.000
REMARK INTER + INTRA:         -11.543
REMARK INTER:                  -8.337
REMARK INTRA:                  -3.206
REMARK UNBOUND:                -3.206
REMARK SMILES CCCCCCCCCCCCCCCCCCCCCC(=O)[O-]
REMARK SMILES IDX 12 1 11 2 10 3 9 4 8 5 7 6 6 7 5 8 4 9 3 10 2 11 1 12 13 13
REMARK SMILES IDX 14 14 15 15 16 16 17 17 18 18 19 19 20 20 21 21 22 22 23 23
REMARK SMILES IDX 24 24
REMARK H PARENT
REMARK Flexibility Score: inf
ROOT
ATOM      1  C   UNL     1      12.661  36.235  20.803  1.00  0.00     0.000 C 
ENDROOT
BRANCH   1   2
ATOM      2  C   UNL     1      13.851  35.706  19.987  1.00  0.00     0.000 C 
BRANCH   2   3
ATOM      3  C   UNL     1      14.373  34.355  20.509  1.00  0.00     0.000 C 
BRANCH   3   4
ATOM      4  C   UNL     1      14.209  33.223  19.483  1.00  0.00    -0.000 C 
BRANCH   4   5
ATOM      5  C   UNL     1      13.545  31.972  20.080  1.00  0.00    -0.000 C 
BRANCH   5   6
ATOM      6  C   UNL     1      13.757  31.912  21.597  1.00  0.00    -0.000 C 
BRANCH   6   7
ATOM      7  C   UNL     1      14.268  30.531  22.030  1.00  0.00    -0.000 C 
BRANCH   7   8
ATOM      8  C   UNL     1      15.417  30.620  23.049  1.00  0.00    -0.000 C 
BRANCH   8   9
ATOM      9  C   UNL     1      16.795  30.385  22.408  1.00  0.00    -0.000 C 
BRANCH   9  10
ATOM     10  C   UNL     1      17.599  31.685  22.226  1.00  0.00    -0.000 C 
BRANCH  10  11
ATOM     11  C   UNL     1      17.576  32.268  20.802  1.00  0.00    -0.003 C 
ATOM     12  C   UNL     1      17.283  31.218  19.731  1.00  0.00     0.004 C 
ENDBRANCH  10  11
ENDBRANCH   9  10
ENDBRANCH   8   9
ENDBRANCH   7   8
ENDBRANCH   6   7
ENDBRANCH   5   6
ENDBRANCH   4   5
ENDBRANCH   3   4
ENDBRANCH   2   3
ENDBRANCH   1   2
BRANCH   1  13
ATOM     13  C   UNL     1      12.281  35.301  21.964  1.00  0.00     0.000 C 
BRANCH  13  14
ATOM     14  C   UNL     1      10.906  35.635  22.569  1.00  0.00     0.000 C 
BRANCH  14  15
ATOM     15  C   UNL     1       9.961  36.425  21.642  1.00  0.00     0.000 C 
BRANCH  15  16
ATOM     16  C   UNL     1       9.032  35.532  20.794  1.00  0.00     0.000 C 
BRANCH  16  17
ATOM     17  C   UNL     1       9.478  35.456  19.323  1.00  0.00     0.000 C 
BRANCH  17  18
ATOM     18  C   UNL     1      10.265  34.174  19.012  1.00  0.00     0.000 C 
BRANCH  18  19
ATOM     19  C   UNL     1       9.734  32.955  19.785  1.00  0.00     0.000 C 
BRANCH  19  20
ATOM     20  C   UNL     1       8.443  32.380  19.176  1.00  0.00     0.006 C 
BRANCH  20  21
ATOM     21  C   UNL     1       7.583  31.574  20.164  1.00  0.00     0.053 C 
BRANCH  21  22
ATOM     22  C   UNL     1       6.262  32.230  20.426  1.00  0.00     0.041 C 
ATOM     23  O   UNL     1       5.229  31.530  20.594  1.00  0.00    -0.550 OA
ATOM     24  O   UNL     1       6.180  33.612  20.526  1.00  0.00    -0.550 OA
ENDBRANCH  21  22
ENDBRANCH  20  21
ENDBRANCH  19  20
ENDBRANCH  18  19
ENDBRANCH  17  18
ENDBRANCH  16  17
ENDBRANCH  15  16
ENDBRANCH  14  15
ENDBRANCH  13  14
ENDBRANCH   1  13
TORSDOF 20
ENDMDL
MODEL 2
REMARK VINA RESULT:    -3.703      1.282      2.468
REMARK INTER + INTRA:         -11.240
REMARK INTER:                  -8.873
REMARK INTRA:                  -2.366
REMARK UNBOUND:                -3.206
REMARK SMILES CCCCCCCCCCCCCCCCCCCCCC(=O)[O-]
REMARK SMILES IDX 12 1 11 2 10 3 9 4 8 5 7 6 6 7 5 8 4 9 3 10 2 11 1 12 13 13
REMARK SMILES IDX 14 14 15 15 16 16 17 17 18 18 19 19 20 20 21 21 22 22 23 23
REMARK SMILES IDX 24 24
REMARK H PARENT
REMARK Flexibility Score: inf
ROOT
ATOM      1  C   UNL     1      13.403  35.685  19.686  1.00  0.00     0.000 C 
ENDROOT
BRANCH   1   2
ATOM      2  C   UNL     1      14.313  34.690  18.948  1.00  0.00     0.000 C 
BRANCH   2   3
ATOM      3  C   UNL     1      14.940  33.647  19.892  1.00  0.00     0.000 C 
BRANCH   3   4
ATOM      4  C   UNL     1      15.325  32.350  19.167  1.00  0.00    -0.000 C 
BRANCH   4   5
ATOM      5  C   UNL     1      16.658  31.766  19.662  1.00  0.00    -0.000 C 
BRANCH   5   6
ATOM      6  C   UNL     1      17.226  32.602  20.815  1.00  0.00    -0.000 C 
BRANCH   6   7
ATOM      7  C   UNL     1      17.233  31.804  22.126  1.00  0.00    -0.000 C 
BRANCH   7   8
ATOM      8  C   UNL     1      16.624  30.400  21.966  1.00  0.00    -0.000 C 
BRANCH   8   9
ATOM      9  C   UNL     1      15.673  30.035  23.117  1.00  0.00    -0.000 C 
BRANCH   9  10
ATOM     10  C   UNL     1      14.200  29.968  22.678  1.00  0.00    -0.000 C 
BRANCH  10  11
ATOM     11  C   UNL     1      13.585  31.316  22.261  1.00  0.00    -0.003 C 
ATOM     12  C   UNL     1      12.462  31.169  21.235  1.00  0.00     0.004 C 
ENDBRANCH  10  11
ENDBRANCH   9  10
ENDBRANCH   8   9
ENDBRANCH   7   8
ENDBRANCH   6   7
ENDBRANCH   5   6
ENDBRANCH   4   5
ENDBRANCH   3   4
ENDBRANCH   2   3
ENDBRANCH   1   2
BRANCH   1  13
ATOM     13  C   UNL     1      13.290  35.377  21.188  1.00  0.00     0.000 C 
BRANCH  13  14
ATOM     14  C   UNL     1      11.892  34.871  21.586  1.00  0.00     0.000 C 
BRANCH  14  15
ATOM     15  C   UNL     1      11.098  35.812  22.512  1.00  0.00     0.000 C 
BRANCH  15  16
ATOM     16  C   UNL     1       9.864  36.450  21.842  1.00  0.00     0.000 C 
BRANCH  16  17
ATOM     17  C   UNL     1       9.775  36.113  20.343  1.00  0.00     0.000 C 
BRANCH  17  18
ATOM     18  C   UNL     1       8.362  35.680  19.920  1.00  0.00     0.000 C 
BRANCH  18  19
ATOM     19  C   UNL     1       8.153  34.160  20.035  1.00  0.00     0.000 C 
BRANCH  19  20
ATOM     20  C   UNL     1       6.688  33.780  20.311  1.00  0.00     0.006 C 
BRANCH  20  21
ATOM     21  C   UNL     1       6.227  32.491  19.611  1.00  0.00     0.053 C 
BRANCH  21  22
ATOM     22  C   UNL     1       5.482  31.582  20.539  1.00  0.00     0.041 C 
ATOM     23  O   UNL     1       6.084  30.643  21.124  1.00  0.00    -0.550 OA
ATOM     24  O   UNL     1       4.134  31.799  20.792  1.00  0.00    -0.550 OA
ENDBRANCH  21  22
ENDBRANCH  20  21
ENDBRANCH  19  20
ENDBRANCH  18  19
ENDBRANCH  17  18
ENDBRANCH  16  17
ENDBRANCH  15  16
ENDBRANCH  14  15
ENDBRANCH  13  14
ENDBRANCH   1  13
TORSDOF 20
ENDMDL
MODEL 3
REMARK VINA RESULT:    -3.653      4.001      7.739
REMARK INTER + INTRA:         -11.131
REMARK INTER:                  -8.530
REMARK INTRA:                  -2.601
REMARK UNBOUND:                -3.206
REMARK SMILES CCCCCCCCCCCCCCCCCCCCCC(=O)[O-]
REMARK SMILES IDX 12 1 11 2 10 3 9 4 8 5 7 6 6 7 5 8 4 9 3 10 2 11 1 12 13 13
REMARK SMILES IDX 14 14 15 15 16 16 17 17 18 18 19 19 20 20 21 21 22 22 23 23
REMARK SMILES IDX 24 24
REMARK H PARENT
REMARK Flexibility Score: inf
ROOT
ATOM      1  C   UNL     1      10.970  36.097  22.350  1.00  0.00     0.000 C 
ENDROOT
BRANCH   1   2
ATOM      2  C   UNL     1       9.632  36.212  21.603  1.00  0.00     0.000 C 
BRANCH   2   3
ATOM      3  C   UNL     1       9.814  36.531  20.107  1.00  0.00     0.000 C 
BRANCH   3   4
ATOM      4  C   UNL     1       8.603  36.110  19.262  1.00  0.00    -0.000 C 
BRANCH   4   5
ATOM      5  C   UNL     1       7.600  35.251  20.047  1.00  0.00    -0.000 C 
BRANCH   5   6
ATOM      6  C   UNL     1       7.346  33.918  19.333  1.00  0.00    -0.000 C 
BRANCH   6   7
ATOM      7  C   UNL     1       6.635  32.920  20.259  1.00  0.00    -0.000 C 
BRANCH   7   8
ATOM      8  C   UNL     1       7.185  31.490  20.118  1.00  0.00    -0.000 C 
BRANCH   8   9
ATOM      9  C   UNL     1       8.473  31.434  19.281  1.00  0.00    -0.000 C 
BRANCH   9  10
ATOM     10  C   UNL     1       9.696  30.978  20.097  1.00  0.00    -0.000 C 
BRANCH  10  11
ATOM     11  C   UNL     1      10.931  31.888  19.978  1.00  0.00    -0.003 C 
ATOM     12  C   UNL     1      10.795  32.940  18.879  1.00  0.00     0.004 C 
ENDBRANCH  10  11
ENDBRANCH   9  10
ENDBRANCH   8   9
ENDBRANCH   7   8
ENDBRANCH   6   7
ENDBRANCH   5   6
ENDBRANCH   4   5
ENDBRANCH   3   4
ENDBRANCH   2   3
ENDBRANCH   1   2
BRANCH   1  13
ATOM     13  C   UNL     1      11.938  35.111  21.676  1.00  0.00     0.000 C 
BRANCH  13  14
ATOM     14  C   UNL     1      13.168  35.809  21.068  1.00  0.00     0.000 C 
BRANCH  14  15
ATOM     15  C   UNL     1      13.921  34.989  20.002  1.00  0.00     0.000 C 
BRANCH  15  16
ATOM     16  C   UNL     1      15.023  34.078  20.582  1.00  0.00     0.000 C 
BRANCH  16  17
ATOM     17  C   UNL     1      14.645  32.588  20.511  1.00  0.00     0.000 C 
BRANCH  17  18
ATOM     18  C   UNL     1      14.103  32.053  21.845  1.00  0.00     0.000 C 
BRANCH  18  19
ATOM     19  C   UNL     1      14.616  30.639  22.165  1.00  0.00     0.000 C 
BRANCH  19  20
ATOM     20  C   UNL     1      15.777  30.642  23.175  1.00  0.00     0.006 C 
BRANCH  20  21
ATOM     21  C   UNL     1      17.148  30.307  22.563  1.00  0.00     0.053 C 
BRANCH  21  22
ATOM     22  C   UNL     1      18.279  30.778  23.423  1.00  0.00     0.041 C 
ATOM     23  O   UNL     1      18.045  31.351  24.520  1.00  0.00    -0.550 OA
ATOM     24  O   UNL     1      19.592  30.547  23.034  1.00  0.00    -0.550 OA
ENDBRANCH  21  22
ENDBRANCH  20  21
ENDBRANCH  19  20
ENDBRANCH  18  19
ENDBRANCH  17  18
ENDBRANCH  16  17
ENDBRANCH  15  16
ENDBRANCH  14  15
ENDBRANCH  13  14
ENDBRANCH   1  13
TORSDOF 20
ENDMDL
MODEL 4
REMARK VINA RESULT:    -3.602      3.665      7.790
REMARK INTER + INTRA:         -11.019
REMARK INTER:                  -8.013
REMARK INTRA:                  -3.006
REMARK UNBOUND:                -3.206
REMARK SMILES CCCCCCCCCCCCCCCCCCCCCC(=O)[O-]
REMARK SMILES IDX 12 1 11 2 10 3 9 4 8 5 7 6 6 7 5 8 4 9 3 10 2 11 1 12 13 13
REMARK SMILES IDX 14 14 15 15 16 16 17 17 18 18 19 19 20 20 21 21 22 22 23 23
REMARK SMILES IDX 24 24
REMARK H PARENT
REMARK Flexibility Score: inf
ROOT
ATOM      1  C   UNL     1      12.740  36.192  20.889  1.00  0.00     0.000 C 
ENDROOT
BRANCH   1   2
ATOM      2  C   UNL     1      11.747  35.911  22.029  1.00  0.00     0.000 C 
BRANCH   2   3
ATOM      3  C   UNL     1      10.297  35.768  21.530  1.00  0.00     0.000 C 
BRANCH   3   4
ATOM      4  C   UNL     1      10.038  36.557  20.238  1.00  0.00    -0.000 C 
BRANCH   4   5
ATOM      5  C   UNL     1       8.741  36.131  19.532  1.00  0.00    -0.000 C 
BRANCH   5   6
ATOM      6  C   UNL     1       7.938  35.160  20.405  1.00  0.00    -0.000 C 
BRANCH   6   7
ATOM      7  C   UNL     1       7.365  34.007  19.568  1.00  0.00    -0.000 C 
BRANCH   7   8
ATOM      8  C   UNL     1       8.380  32.870  19.359  1.00  0.00    -0.000 C 
BRANCH   8   9
ATOM      9  C   UNL     1       7.919  31.544  19.987  1.00  0.00    -0.000 C 
BRANCH   9  10
ATOM     10  C   UNL     1       6.459  31.197  19.645  1.00  0.00    -0.000 C 
BRANCH  10  11
ATOM     11  C   UNL     1       5.559  30.907  20.859  1.00  0.00    -0.003 C 
ATOM     12  C   UNL     1       4.807  32.141  21.354  1.00  0.00     0.004 C 
ENDBRANCH  10  11
ENDBRANCH   9  10
ENDBRANCH   8   9
ENDBRANCH   7   8
ENDBRANCH   6   7
ENDBRANCH   5   6
ENDBRANCH   4   5
ENDBRANCH   3   4
ENDBRANCH   2   3
ENDBRANCH   1   2
BRANCH   1  13
ATOM     13  C   UNL     1      13.817  35.102  20.764  1.00  0.00     0.000 C 
BRANCH  13  14
ATOM     14  C   UNL     1      13.809  34.416  19.386  1.00  0.00     0.000 C 
BRANCH  14  15
ATOM     15  C   UNL     1      12.418  33.997  18.875  1.00  0.00     0.000 C 
BRANCH  15  16
ATOM     16  C   UNL     1      12.015  32.562  19.271  1.00  0.00     0.000 C 
BRANCH  16  17
ATOM     17  C   UNL     1      11.617  32.455  20.754  1.00  0.00     0.000 C 
BRANCH  17  18
ATOM     18  C   UNL     1      12.093  31.144  21.398  1.00  0.00     0.000 C 
BRANCH  18  19
ATOM     19  C   UNL     1      13.553  30.810  21.045  1.00  0.00     0.000 C 
BRANCH  19  20
ATOM     20  C   UNL     1      14.542  31.220  22.150  1.00  0.00     0.006 C 
BRANCH  20  21
ATOM     21  C   UNL     1      15.779  31.979  21.641  1.00  0.00     0.053 C 
BRANCH  21  22
ATOM     22  C   UNL     1      17.029  31.555  22.349  1.00  0.00     0.041 C 
ATOM     23  O   UNL     1      18.155  31.772  21.830  1.00  0.00    -0.550 OA
ATOM     24  O   UNL     1      16.951  30.961  23.601  1.00  0.00    -0.550 OA
ENDBRANCH  21  22
ENDBRANCH  20  21
ENDBRANCH  19  20
ENDBRANCH  18  19
ENDBRANCH  17  18
ENDBRANCH  16  17
ENDBRANCH  15  16
ENDBRANCH  14  15
ENDBRANCH  13  14
ENDBRANCH   1  13
TORSDOF 20
ENDMDL
MODEL 5
REMARK VINA RESULT:    -3.556      3.735      7.792
REMARK INTER + INTRA:         -10.920
REMARK INTER:                  -8.175
REMARK INTRA:                  -2.745
REMARK UNBOUND:                -3.206
REMARK SMILES CCCCCCCCCCCCCCCCCCCCCC(=O)[O-]
REMARK SMILES IDX 12 1 11 2 10 3 9 4 8 5 7 6 6 7 5 8 4 9 3 10 2 11 1 12 13 13
REMARK SMILES IDX 14 14 15 15 16 16 17 17 18 18 19 19 20 20 21 21 22 22 23 23
REMARK SMILES IDX 24 24
REMARK H PARENT
REMARK Flexibility Score: inf
ROOT
ATOM      1  C   UNL     1      12.284  36.450  19.859  1.00  0.00     0.000 C 
ENDROOT
BRANCH   1   2
ATOM      2  C   UNL     1      11.949  36.109  21.319  1.00  0.00     0.000 C 
BRANCH   2   3
ATOM      3  C   UNL     1      10.491  35.647  21.500  1.00  0.00     0.000 C 
BRANCH   3   4
ATOM      4  C   UNL     1      10.152  34.415  20.647  1.00  0.00    -0.000 C 
BRANCH   4   5
ATOM      5  C   UNL     1       9.296  34.760  19.418  1.00  0.00    -0.000 C 
BRANCH   5   6
ATOM      6  C   UNL     1       8.022  35.505  19.832  1.00  0.00    -0.000 C 
BRANCH   6   7
ATOM      7  C   UNL     1       6.987  34.541  20.431  1.00  0.00    -0.000 C 
BRANCH   7   8
ATOM      8  C   UNL     1       6.834  33.253  19.603  1.00  0.00    -0.000 C 
BRANCH   8   9
ATOM      9  C   UNL     1       6.372  32.057  20.453  1.00  0.00    -0.000 C 
BRANCH   9  10
ATOM     10  C   UNL     1       7.270  30.819  20.279  1.00  0.00    -0.000 C 
BRANCH  10  11
ATOM     11  C   UNL     1       8.520  31.040  19.411  1.00  0.00    -0.003 C 
ATOM     12  C   UNL     1       9.822  30.717  20.143  1.00  0.00     0.004 C 
ENDBRANCH  10  11
ENDBRANCH   9  10
ENDBRANCH   8   9
ENDBRANCH   7   8
ENDBRANCH   6   7
ENDBRANCH   5   6
ENDBRANCH   4   5
ENDBRANCH   3   4
ENDBRANCH   2   3
ENDBRANCH   1   2
BRANCH   1  13
ATOM     13  C   UNL     1      13.655  35.905  19.425  1.00  0.00     0.000 C 
BRANCH  13  14
ATOM     14  C   UNL     1      14.262  34.938  20.458  1.00  0.00     0.000 C 
BRANCH  14  15
ATOM     15  C   UNL     1      14.456  33.493  19.961  1.00  0.00     0.000 C 
BRANCH  15  16
ATOM     16  C   UNL     1      13.213  32.599  20.145  1.00  0.00     0.000 C 
BRANCH  16  17
ATOM     17  C   UNL     1      13.135  31.990  21.557  1.00  0.00     0.000 C 
BRANCH  17  18
ATOM     18  C   UNL     1      13.387  30.475  21.558  1.00  0.00     0.000 C 
BRANCH  18  19
ATOM     19  C   UNL     1      14.780  30.109  22.099  1.00  0.00     0.000 C 
BRANCH  19  20
ATOM     20  C   UNL     1      15.537  31.325  22.663  1.00  0.00     0.006 C 
BRANCH  20  21
ATOM     21  C   UNL     1      17.003  31.040  23.031  1.00  0.00     0.053 C 
BRANCH  21  22
ATOM     22  C   UNL     1      17.944  31.420  21.929  1.00  0.00     0.041 C 
ATOM     23  O   UNL     1      18.889  30.652  21.610  1.00  0.00    -0.550 OA
ATOM     24  O   UNL     1      17.749  32.600  21.225  1.00  0.00    -0.550 OA
ENDBRANCH  21  22
ENDBRANCH  20  21
ENDBRANCH  19  20
ENDBRANCH  18  19
ENDBRANCH  17  18
ENDBRANCH  16  17
ENDBRANCH  15  16
ENDBRANCH  14  15
ENDBRANCH  13  14
ENDBRANCH   1  13
TORSDOF 20
ENDMDL
MODEL 6
REMARK VINA RESULT:    -3.514      0.923      2.654
REMARK INTER + INTRA:         -10.830
REMARK INTER:                  -7.960
REMARK INTRA:                  -2.869
REMARK UNBOUND:                -3.206
REMARK SMILES CCCCCCCCCCCCCCCCCCCCCC(=O)[O-]
REMARK SMILES IDX 12 1 11 2 10 3 9 4 8 5 7 6 6 7 5 8 4 9 3 10 2 11 1 12 13 13
REMARK SMILES IDX 14 14 15 15 16 16 17 17 18 18 19 19 20 20 21 21 22 22 23 23
REMARK SMILES IDX 24 24
REMARK H PARENT
REMARK Flexibility Score: inf
ROOT
ATOM      1  C   UNL     1       9.965  36.405  21.800  1.00  0.00     0.000 C 
ENDROOT
BRANCH   1   2
ATOM      2  C   UNL     1      11.216  35.572  22.122  1.00  0.00     0.000 C 
BRANCH   2   3
ATOM      3  C   UNL     1      12.518  36.266  21.682  1.00  0.00     0.000 C 
BRANCH   3   4
ATOM      4  C   UNL     1      13.277  35.471  20.609  1.00  0.00    -0.000 C 
BRANCH   4   5
ATOM      5  C   UNL     1      13.644  34.052  21.069  1.00  0.00    -0.000 C 
BRANCH   5   6
ATOM      6  C   UNL     1      13.848  33.123  19.866  1.00  0.00    -0.000 C 
BRANCH   6   7
ATOM      7  C   UNL     1      13.645  31.653  20.262  1.00  0.00    -0.000 C 
BRANCH   7   8
ATOM      8  C   UNL     1      13.445  31.473  21.776  1.00  0.00    -0.000 C 
BRANCH   8   9
ATOM      9  C   UNL     1      14.614  30.727  22.442  1.00  0.00    -0.000 C 
BRANCH   9  10
ATOM     10  C   UNL     1      15.827  30.566  21.509  1.00  0.00    -0.000 C 
BRANCH  10  11
ATOM     11  C   UNL     1      17.077  31.361  21.925  1.00  0.00    -0.003 C 
ATOM     12  C   UNL     1      17.326  32.587  21.048  1.00  0.00     0.004 C 
ENDBRANCH  10  11
ENDBRANCH   9  10
ENDBRANCH   8   9
ENDBRANCH   7   8
ENDBRANCH   6   7
ENDBRANCH   5   6
ENDBRANCH   4   5
ENDBRANCH   3   4
ENDBRANCH   2   3
ENDBRANCH   1   2
BRANCH   1  13
ATOM     13  C   UNL     1       9.101  35.769  20.698  1.00  0.00     0.000 C 
BRANCH  13  14
ATOM     14  C   UNL     1       9.856  35.616  19.366  1.00  0.00     0.000 C 
BRANCH  14  15
ATOM     15  C   UNL     1      10.124  34.161  18.933  1.00  0.00     0.000 C 
BRANCH  15  16
ATOM     16  C   UNL     1       9.622  33.109  19.943  1.00  0.00     0.000 C 
BRANCH  16  17
ATOM     17  C   UNL     1       9.992  31.675  19.525  1.00  0.00     0.000 C 
BRANCH  17  18
ATOM     18  C   UNL     1       8.756  30.790  19.301  1.00  0.00     0.000 C 
BRANCH  18  19
ATOM     19  C   UNL     1       8.257  30.135  20.601  1.00  0.00     0.000 C 
BRANCH  19  20
ATOM     20  C   UNL     1       6.731  30.241  20.773  1.00  0.00     0.006 C 
BRANCH  20  21
ATOM     21  C   UNL     1       6.078  31.358  19.942  1.00  0.00     0.053 C 
BRANCH  21  22
ATOM     22  C   UNL     1       5.625  32.503  20.795  1.00  0.00     0.041 C 
ATOM     23  O   UNL     1       4.665  32.354  21.596  1.00  0.00    -0.550 OA
ATOM     24  O   UNL     1       6.291  33.719  20.738  1.00  0.00    -0.550 OA
ENDBRANCH  21  22
ENDBRANCH  20  21
ENDBRANCH  19  20
ENDBRANCH  18  19
ENDBRANCH  17  18
ENDBRANCH  16  17
ENDBRANCH  15  16
ENDBRANCH  14  15
ENDBRANCH  13  14
ENDBRANCH   1  13
TORSDOF 20
ENDMDL
MODEL 7
REMARK VINA RESULT:    -3.492      2.382      7.092
REMARK INTER + INTRA:         -10.781
REMARK INTER:                  -7.997
REMARK INTRA:                  -2.784
REMARK UNBOUND:                -3.206
REMARK SMILES CCCCCCCCCCCCCCCCCCCCCC(=O)[O-]
REMARK SMILES IDX 12 1 11 2 10 3 9 4 8 5 7 6 6 7 5 8 4 9 3 10 2 11 1 12 13 13
REMARK SMILES IDX 14 14 15 15 16 16 17 17 18 18 19 19 20 20 21 21 22 22 23 23
REMARK SMILES IDX 24 24
REMARK H PARENT
REMARK Flexibility Score: inf
ROOT
ATOM      1  C   UNL     1      11.975  33.972  21.614  1.00  0.00     0.000 C 
ENDROOT
BRANCH   1   2
ATOM      2  C   UNL     1      12.076  35.504  21.679  1.00  0.00     0.000 C 
BRANCH   2   3
ATOM      3  C   UNL     1      11.008  36.129  22.596  1.00  0.00     0.000 C 
BRANCH   3   4
ATOM      4  C   UNL     1       9.725  36.503  21.838  1.00  0.00    -0.000 C 
BRANCH   4   5
ATOM      5  C   UNL     1       9.966  36.727  20.337  1.00  0.00    -0.000 C 
BRANCH   5   6
ATOM      6  C   UNL     1       9.071  35.808  19.498  1.00  0.00    -0.000 C 
BRANCH   6   7
ATOM      7  C   UNL     1       8.558  34.624  20.331  1.00  0.00    -0.000 C 
BRANCH   7   8
ATOM      8  C   UNL     1       7.024  34.507  20.307  1.00  0.00    -0.000 C 
BRANCH   8   9
ATOM      9  C   UNL     1       6.545  33.049  20.201  1.00  0.00    -0.000 C 
BRANCH   9  10
ATOM     10  C   UNL     1       7.702  32.053  20.004  1.00  0.00    -0.000 C 
BRANCH  10  11
ATOM     11  C   UNL     1       7.406  30.615  20.465  1.00  0.00    -0.003 C 
ATOM     12  C   UNL     1       5.916  30.348  20.669  1.00  0.00     0.004 C 
ENDBRANCH  10  11
ENDBRANCH   9  10
ENDBRANCH   8   9
ENDBRANCH   7   8
ENDBRANCH   6   7
ENDBRANCH   5   6
ENDBRANCH   4   5
ENDBRANCH   3   4
ENDBRANCH   2   3
ENDBRANCH   1   2
BRANCH   1  13
ATOM     13  C   UNL     1      12.099  33.434  20.179  1.00  0.00     0.000 C 
BRANCH  13  14
ATOM     14  C   UNL     1      12.625  34.491  19.192  1.00  0.00     0.000 C 
BRANCH  14  15
ATOM     15  C   UNL     1      14.151  34.486  18.985  1.00  0.00     0.000 C 
BRANCH  15  16
ATOM     16  C   UNL     1      14.834  33.171  19.414  1.00  0.00     0.000 C 
BRANCH  16  17
ATOM     17  C   UNL     1      15.835  33.381  20.564  1.00  0.00     0.000 C 
BRANCH  17  18
ATOM     18  C   UNL     1      16.267  32.059  21.217  1.00  0.00     0.000 C 
BRANCH  18  19
ATOM     19  C   UNL     1      15.277  31.583  22.294  1.00  0.00     0.000 C 
BRANCH  19  20
ATOM     20  C   UNL     1      14.770  30.151  22.044  1.00  0.00     0.006 C 
BRANCH  20  21
ATOM     21  C   UNL     1      14.000  29.976  20.725  1.00  0.00     0.053 C 
BRANCH  21  22
ATOM     22  C   UNL     1      12.518  29.940  20.939  1.00  0.00     0.041 C 
ATOM     23  O   UNL     1      11.737  29.876  19.953  1.00  0.00    -0.550 OA
ATOM     24  O   UNL     1      12.002  29.933  22.228  1.00  0.00    -0.550 OA
ENDBRANCH  21  22
ENDBRANCH  20  21
ENDBRANCH  19  20
ENDBRANCH  18  19
ENDBRANCH  17  18
ENDBRANCH  16  17
ENDBRANCH  15  16
ENDBRANCH  14  15
ENDBRANCH  13  14
ENDBRANCH   1  13
TORSDOF 20
ENDMDL
MODEL 8
REMARK VINA RESULT:    -3.428      1.378      2.228
REMARK INTER + INTRA:         -10.642
REMARK INTER:                  -8.378
REMARK INTRA:                  -2.264
REMARK UNBOUND:                -3.206
REMARK SMILES CCCCCCCCCCCCCCCCCCCCCC(=O)[O-]
REMARK SMILES IDX 12 1 11 2 10 3 9 4 8 5 7 6 6 7 5 8 4 9 3 10 2 11 1 12 13 13
REMARK SMILES IDX 14 14 15 15 16 16 17 17 18 18 19 19 20 20 21 21 22 22 23 23
REMARK SMILES IDX 24 24
REMARK H PARENT
REMARK Flexibility Score: inf
ROOT
ATOM      1  C   UNL     1      11.570  33.913  20.382  1.00  0.00     0.000 C 
ENDROOT
BRANCH   1   2
ATOM      2  C   UNL     1      11.370  32.390  20.438  1.00  0.00     0.000 C 
BRANCH   2   3
ATOM      3  C   UNL     1      12.629  31.612  20.013  1.00  0.00     0.000 C 
BRANCH   3   4
ATOM      4  C   UNL     1      12.599  30.146  20.470  1.00  0.00    -0.000 C 
BRANCH   4   5
ATOM      5  C   UNL     1      12.948  29.981  21.957  1.00  0.00    -0.000 C 
BRANCH   5   6
ATOM      6  C   UNL     1      14.008  31.002  22.386  1.00  0.00    -0.000 C 
BRANCH   6   7
ATOM      7  C   UNL     1      15.259  30.303  22.937  1.00  0.00    -0.000 C 
BRANCH   7   8
ATOM      8  C   UNL     1      16.455  30.389  21.972  1.00  0.00    -0.000 C 
BRANCH   8   9
ATOM      9  C   UNL     1      17.313  31.643  22.206  1.00  0.00    -0.000 C 
BRANCH   9  10
ATOM     10  C   UNL     1      17.388  32.555  20.968  1.00  0.00    -0.000 C 
BRANCH  10  11
ATOM     11  C   UNL     1      16.062  32.725  20.206  1.00  0.00    -0.003 C 
ATOM     12  C   UNL     1      15.336  34.024  20.554  1.00  0.00     0.004 C 
ENDBRANCH  10  11
ENDBRANCH   9  10
ENDBRANCH   8   9
ENDBRANCH   7   8
ENDBRANCH   6   7
ENDBRANCH   5   6
ENDBRANCH   4   5
ENDBRANCH   3   4
ENDBRANCH   2   3
ENDBRANCH   1   2
BRANCH   1  13
ATOM     13  C   UNL     1      11.668  34.546  21.780  1.00  0.00     0.000 C 
BRANCH  13  14
ATOM     14  C   UNL     1      11.319  36.045  21.779  1.00  0.00     0.000 C 
BRANCH  14  15
ATOM     15  C   UNL     1       9.894  36.381  21.299  1.00  0.00     0.000 C 
BRANCH  15  16
ATOM     16  C   UNL     1       9.799  36.670  19.786  1.00  0.00     0.000 C 
BRANCH  16  17
ATOM     17  C   UNL     1       8.356  36.569  19.262  1.00  0.00     0.000 C 
BRANCH  17  18
ATOM     18  C   UNL     1       7.605  35.358  19.836  1.00  0.00     0.000 C 
BRANCH  18  19
ATOM     19  C   UNL     1       8.010  34.038  19.158  1.00  0.00     0.000 C 
BRANCH  19  20
ATOM     20  C   UNL     1       7.479  32.800  19.902  1.00  0.00     0.006 C 
BRANCH  20  21
ATOM     21  C   UNL     1       6.134  33.020  20.615  1.00  0.00     0.053 C 
BRANCH  21  22
ATOM     22  C   UNL     1       5.376  31.740  20.793  1.00  0.00     0.041 C 
ATOM     23  O   UNL     1       5.988  30.675  21.071  1.00  0.00    -0.550 OA
ATOM     24  O   UNL     1       3.992  31.733  20.696  1.00  0.00    -0.550 OA
ENDBRANCH  21  22
ENDBRANCH  20  21
ENDBRANCH  19  20
ENDBRANCH  18  19
ENDBRANCH  17  18
ENDBRANCH  16  17
ENDBRANCH  15  16
ENDBRANCH  14  15
ENDBRANCH  13  14
ENDBRANCH   1  13
TORSDOF 20
ENDMDL
MODEL 9
REMARK VINA RESULT:    -2.485      1.505      2.334
REMARK INTER + INTRA:          -8.597
REMARK INTER:                  -5.594
REMARK INTRA:                  -3.003
REMARK UNBOUND:                -3.206
REMARK SMILES CCCCCCCCCCCCCCCCCCCCCC(=O)[O-]
REMARK SMILES IDX 12 1 11 2 10 3 9 4 8 5 7 6 6 7 5 8 4 9 3 10 2 11 1 12 13 13
REMARK SMILES IDX 14 14 15 15 16 16 17 17 18 18 19 19 20 20 21 21 22 22 23 23
REMARK SMILES IDX 24 24
REMARK H PARENT
REMARK Flexibility Score: inf
ROOT
ATOM      1  C   UNL     1      11.789  36.228  19.439  1.00  0.00     0.000 C 
ENDROOT
BRANCH   1   2
ATOM      2  C   UNL     1      13.217  36.149  18.875  1.00  0.00     0.000 C 
BRANCH   2   3
ATOM      3  C   UNL     1      13.883  34.786  19.141  1.00  0.00     0.000 C 
BRANCH   3   4
ATOM      4  C   UNL     1      14.865  34.830  20.322  1.00  0.00    -0.000 C 
BRANCH   4   5
ATOM      5  C   UNL     1      15.654  33.522  20.488  1.00  0.00    -0.000 C 
BRANCH   5   6
ATOM      6  C   UNL     1      14.944  32.363  19.777  1.00  0.00    -0.000 C 
BRANCH   6   7
ATOM      7  C   UNL     1      14.827  31.138  20.696  1.00  0.00    -0.000 C 
BRANCH   7   8
ATOM      8  C   UNL     1      15.154  31.469  22.163  1.00  0.00    -0.000 C 
BRANCH   8   9
ATOM      9  C   UNL     1      15.551  30.225  22.974  1.00  0.00    -0.000 C 
BRANCH   9  10
ATOM     10  C   UNL     1      16.649  30.514  24.013  1.00  0.00    -0.000 C 
BRANCH  10  11
ATOM     11  C   UNL     1      17.865  31.288  23.475  1.00  0.00    -0.003 C 
ATOM     12  C   UNL     1      18.801  30.420  22.635  1.00  0.00     0.004 C 
ENDBRANCH  10  11
ENDBRANCH   9  10
ENDBRANCH   8   9
ENDBRANCH   7   8
ENDBRANCH   6   7
ENDBRANCH   5   6
ENDBRANCH   4   5
ENDBRANCH   3   4
ENDBRANCH   2   3
ENDBRANCH   1   2
BRANCH   1  13
ATOM     13  C   UNL     1      11.765  36.615  20.927  1.00  0.00     0.000 C 
BRANCH  13  14
ATOM     14  C   UNL     1      10.651  35.897  21.709  1.00  0.00     0.000 C 
BRANCH  14  15
ATOM     15  C   UNL     1      11.133  34.769  22.641  1.00  0.00     0.000 C 
BRANCH  15  16
ATOM     16  C   UNL     1      12.191  33.845  22.005  1.00  0.00     0.000 C 
BRANCH  16  17
ATOM     17  C   UNL     1      11.608  32.478  21.604  1.00  0.00     0.000 C 
BRANCH  17  18
ATOM     18  C   UNL     1      11.245  32.408  20.113  1.00  0.00     0.000 C 
BRANCH  18  19
ATOM     19  C   UNL     1       9.943  31.628  19.860  1.00  0.00     0.000 C 
BRANCH  19  20
ATOM     20  C   UNL     1       8.920  32.430  19.036  1.00  0.00     0.006 C 
BRANCH  20  21
ATOM     21  C   UNL     1       8.686  33.863  19.543  1.00  0.00     0.053 C 
BRANCH  21  22
ATOM     22  C   UNL     1       7.317  34.036  20.127  1.00  0.00     0.041 C 
ATOM     23  O   UNL     1       6.944  35.164  20.545  1.00  0.00    -0.550 OA
ATOM     24  O   UNL     1       6.439  32.962  20.171  1.00  0.00    -0.550 OA
ENDBRANCH  21  22
ENDBRANCH  20  21
ENDBRANCH  19  20
ENDBRANCH  18  19
ENDBRANCH  17  18
ENDBRANCH  16  17
ENDBRANCH  15  16
ENDBRANCH  14  15
ENDBRANCH  13  14
ENDBRANCH   1  13
TORSDOF 20
ENDMDL
