MODEL 1
REMARK VINA RESULT:    -4.336      0.000      0.000
REMARK INTER + INTRA:          -5.023
REMARK INTER:                  -4.970
REMARK INTRA:                  -0.053
REMARK UNBOUND:                -0.053
REMARK SMILES CC(C)[C@@H]([NH3+])C(=O)[O-]
REMARK SMILES IDX 4 1 5 2 6 6 7 7 8 8 2 9 1 10 3 11
REMARK H PARENT 5 3 5 4 5 5
REMARK Flexibility Score: inf
ROOT
ATOM      1  C   UNL     1      21.137  12.501  37.219  1.00  0.00     0.230 C 
ENDROOT
BRANCH   1   2
ATOM      2  N   UNL     1      22.590  12.263  37.181  1.00  0.00    -0.350 N 
ATOM      3  H   UNL     1      22.834  11.492  36.521  1.00  0.00     0.345 HD
ATOM      4  H   UNL     1      23.076  13.134  36.867  1.00  0.00     0.345 HD
ATOM      5  H   UNL     1      22.946  12.030  38.135  1.00  0.00     0.345 HD
ENDBRANCH   1   2
BRANCH   1   6
ATOM      6  C   UNL     1      20.633  12.526  38.641  1.00  0.00     0.099 C 
ATOM      7  O   UNL     1      20.947  11.619  39.456  1.00  0.00    -0.544 OA
ATOM      8  O   UNL     1      19.851  13.591  39.075  1.00  0.00    -0.544 OA
ENDBRANCH   1   6
BRANCH   1   9
ATOM      9  C   UNL     1      20.710  13.791  36.455  1.00  0.00     0.047 C 
ATOM     10  C   UNL     1      21.798  14.877  36.421  1.00  0.00     0.014 C 
ATOM     11  C   UNL     1      20.231  13.478  35.029  1.00  0.00     0.014 C 
ENDBRANCH   1   9
TORSDOF 3
ENDMDL
MODEL 2
REMARK VINA RESULT:    -4.091     20.238     21.294
REMARK INTER + INTRA:          -4.742
REMARK INTER:                  -4.686
REMARK INTRA:                  -0.056
REMARK UNBOUND:                -0.053
REMARK SMILES CC(C)[C@@H]([NH3+])C(=O)[O-]
REMARK SMILES IDX 4 1 5 2 6 6 7 7 8 8 2 9 1 10 3 11
REMARK H PARENT 5 3 5 4 5 5
REMARK Flexibility Score: inf
ROOT
ATOM      1  C   UNL     1      36.946  26.458  33.208  1.00  0.00     0.230 C 
ENDROOT
BRANCH   1   2
ATOM      2  N   UNL     1      37.245  27.747  33.854  1.00  0.00    -0.350 N 
ATOM      3  H   UNL     1      36.405  28.141  34.332  1.00  0.00     0.345 HD
ATOM      4  H   UNL     1      37.999  27.611  34.567  1.00  0.00     0.345 HD
ATOM      5  H   UNL     1      37.599  28.434  33.150  1.00  0.00     0.345 HD
ENDBRANCH   1   2
BRANCH   1   6
ATOM      6  C   UNL     1      38.179  25.884  32.555  1.00  0.00     0.099 C 
ATOM      7  O   UNL     1      39.125  26.630  32.188  1.00  0.00    -0.544 OA
ATOM      8  O   UNL     1      38.297  24.508  32.399  1.00  0.00    -0.544 OA
ENDBRANCH   1   6
BRANCH   1   9
ATOM      9  C   UNL     1      36.298  25.425  34.178  1.00  0.00     0.047 C 
ATOM     10  C   UNL     1      36.291  25.879  35.648  1.00  0.00     0.014 C 
ATOM     11  C   UNL     1      34.878  25.038  33.737  1.00  0.00     0.014 C 
ENDBRANCH   1   9
TORSDOF 3
ENDMDL
MODEL 3
REMARK VINA RESULT:    -4.046      2.359      3.354
REMARK INTER + INTRA:          -4.690
REMARK INTER:                  -4.678
REMARK INTRA:                  -0.013
REMARK UNBOUND:                -0.053
REMARK SMILES CC(C)[C@@H]([NH3+])C(=O)[O-]
REMARK SMILES IDX 4 1 5 2 6 6 7 7 8 8 2 9 1 10 3 11
REMARK H PARENT 5 3 5 4 5 5
REMARK Flexibility Score: inf
ROOT
ATOM      1  C   UNL     1      20.977  12.316  37.232  1.00  0.00     0.230 C 
ENDROOT
BRANCH   1   2
ATOM      2  N   UNL     1      20.025  11.247  36.888  1.00  0.00    -0.350 N 
ATOM      3  H   UNL     1      19.594  10.829  37.742  1.00  0.00     0.345 HD
ATOM      4  H   UNL     1      19.262  11.640  36.290  1.00  0.00     0.345 HD
ATOM      5  H   UNL     1      20.502  10.498  36.336  1.00  0.00     0.345 HD
ENDBRANCH   1   2
BRANCH   1   6
ATOM      6  C   UNL     1      20.932  13.426  36.210  1.00  0.00     0.099 C 
ATOM      7  O   UNL     1      20.041  13.452  35.321  1.00  0.00    -0.544 OA
ATOM      8  O   UNL     1      21.856  14.463  36.280  1.00  0.00    -0.544 OA
ENDBRANCH   1   6
BRANCH   1   9
ATOM      9  C   UNL     1      20.771  12.877  38.671  1.00  0.00     0.047 C 
ATOM     10  C   UNL     1      19.658  13.933  38.768  1.00  0.00     0.014 C 
ATOM     11  C   UNL     1      20.527  11.756  39.693  1.00  0.00     0.014 C 
ENDBRANCH   1   9
TORSDOF 3
ENDMDL
MODEL 4
REMARK VINA RESULT:    -4.034      2.168      3.359
REMARK INTER + INTRA:          -4.677
REMARK INTER:                  -4.630
REMARK INTRA:                  -0.046
REMARK UNBOUND:                -0.053
REMARK SMILES CC(C)[C@@H]([NH3+])C(=O)[O-]
REMARK SMILES IDX 4 1 5 2 6 6 7 7 8 8 2 9 1 10 3 11
REMARK H PARENT 5 3 5 4 5 5
REMARK Flexibility Score: inf
ROOT
ATOM      1  C   UNL     1      21.703  13.103  37.593  1.00  0.00     0.230 C 
ENDROOT
BRANCH   1   2
ATOM      2  N   UNL     1      22.680  12.265  36.879  1.00  0.00    -0.350 N 
ATOM      3  H   UNL     1      22.742  11.310  37.295  1.00  0.00     0.345 HD
ATOM      4  H   UNL     1      22.390  12.171  35.877  1.00  0.00     0.345 HD
ATOM      5  H   UNL     1      23.624  12.713  36.892  1.00  0.00     0.345 HD
ENDBRANCH   1   2
BRANCH   1   6
ATOM      6  C   UNL     1      21.170  14.193  36.696  1.00  0.00     0.099 C 
ATOM      7  O   UNL     1      21.502  15.395  36.870  1.00  0.00    -0.544 OA
ATOM      8  O   UNL     1      20.340  13.863  35.630  1.00  0.00    -0.544 OA
ENDBRANCH   1   6
BRANCH   1   9
ATOM      9  C   UNL     1      20.537  12.281  38.222  1.00  0.00     0.047 C 
ATOM     10  C   UNL     1      20.379  10.875  37.620  1.00  0.00     0.014 C 
ATOM     11  C   UNL     1      20.661  12.191  39.751  1.00  0.00     0.014 C 
ENDBRANCH   1   9
TORSDOF 3
ENDMDL
MODEL 5
REMARK VINA RESULT:    -3.979     21.267     22.004
REMARK INTER + INTRA:          -4.614
REMARK INTER:                  -4.613
REMARK INTRA:                  -0.001
REMARK UNBOUND:                -0.053
REMARK SMILES CC(C)[C@@H]([NH3+])C(=O)[O-]
REMARK SMILES IDX 4 1 5 2 6 6 7 7 8 8 2 9 1 10 3 11
REMARK H PARENT 5 3 5 4 5 5
REMARK Flexibility Score: inf
ROOT
ATOM      1  C   UNL     1      37.477  26.441  35.764  1.00  0.00     0.230 C 
ENDROOT
BRANCH   1   2
ATOM      2  N   UNL     1      36.097  25.944  35.889  1.00  0.00    -0.350 N 
ATOM      3  H   UNL     1      35.811  25.853  36.889  1.00  0.00     0.345 HD
ATOM      4  H   UNL     1      35.443  26.612  35.417  1.00  0.00     0.345 HD
ATOM      5  H   UNL     1      35.998  25.019  35.413  1.00  0.00     0.345 HD
ENDBRANCH   1   2
BRANCH   1   6
ATOM      6  C   UNL     1      37.892  26.523  34.315  1.00  0.00     0.099 C 
ATOM      7  O   UNL     1      39.107  26.485  33.987  1.00  0.00    -0.544 OA
ATOM      8  O   UNL     1      36.919  26.589  33.324  1.00  0.00    -0.544 OA
ENDBRANCH   1   6
BRANCH   1   9
ATOM      9  C   UNL     1      37.702  27.805  36.484  1.00  0.00     0.047 C 
ATOM     10  C   UNL     1      36.667  28.101  37.582  1.00  0.00     0.014 C 
ATOM     11  C   UNL     1      39.125  27.923  37.053  1.00  0.00     0.014 C 
ENDBRANCH   1   9
TORSDOF 3
ENDMDL
MODEL 6
REMARK VINA RESULT:    -3.971      2.534      3.323
REMARK INTER + INTRA:          -4.604
REMARK INTER:                  -4.536
REMARK INTRA:                  -0.068
REMARK UNBOUND:                -0.053
REMARK SMILES CC(C)[C@@H]([NH3+])C(=O)[O-]
REMARK SMILES IDX 4 1 5 2 6 6 7 7 8 8 2 9 1 10 3 11
REMARK H PARENT 5 3 5 4 5 5
REMARK Flexibility Score: inf
ROOT
ATOM      1  C   UNL     1      20.372  13.287  37.048  1.00  0.00     0.230 C 
ENDROOT
BRANCH   1   2
ATOM      2  N   UNL     1      19.939  13.843  38.341  1.00  0.00    -0.350 N 
ATOM      3  H   UNL     1      20.552  13.520  39.121  1.00  0.00     0.345 HD
ATOM      4  H   UNL     1      19.978  14.888  38.300  1.00  0.00     0.345 HD
ATOM      5  H   UNL     1      18.949  13.573  38.541  1.00  0.00     0.345 HD
ENDBRANCH   1   2
BRANCH   1   6
ATOM      6  C   UNL     1      21.169  14.301  36.265  1.00  0.00     0.099 C 
ATOM      7  O   UNL     1      21.399  14.136  35.038  1.00  0.00    -0.544 OA
ATOM      8  O   UNL     1      21.614  15.459  36.892  1.00  0.00    -0.544 OA
ENDBRANCH   1   6
BRANCH   1   9
ATOM      9  C   UNL     1      21.160  11.950  37.191  1.00  0.00     0.047 C 
ATOM     10  C   UNL     1      22.612  12.138  37.663  1.00  0.00     0.014 C 
ATOM     11  C   UNL     1      20.432  10.952  38.104  1.00  0.00     0.014 C 
ENDBRANCH   1   9
TORSDOF 3
ENDMDL
MODEL 7
REMARK VINA RESULT:    -3.966     20.376     21.350
REMARK INTER + INTRA:          -4.598
REMARK INTER:                  -4.559
REMARK INTRA:                  -0.039
REMARK UNBOUND:                -0.053
REMARK SMILES CC(C)[C@@H]([NH3+])C(=O)[O-]
REMARK SMILES IDX 4 1 5 2 6 6 7 7 8 8 2 9 1 10 3 11
REMARK H PARENT 5 3 5 4 5 5
REMARK Flexibility Score: inf
ROOT
ATOM      1  C   UNL     1      36.775  26.693  34.340  1.00  0.00     0.230 C 
ENDROOT
BRANCH   1   2
ATOM      2  N   UNL     1      37.355  27.761  33.509  1.00  0.00    -0.350 N 
ATOM      3  H   UNL     1      37.024  27.700  32.521  1.00  0.00     0.345 HD
ATOM      4  H   UNL     1      37.075  28.693  33.895  1.00  0.00     0.345 HD
ATOM      5  H   UNL     1      38.399  27.713  33.529  1.00  0.00     0.345 HD
ENDBRANCH   1   2
BRANCH   1   6
ATOM      6  C   UNL     1      36.697  25.396  33.574  1.00  0.00     0.099 C 
ATOM      7  O   UNL     1      35.658  24.685  33.609  1.00  0.00    -0.544 OA
ATOM      8  O   UNL     1      37.765  25.002  32.777  1.00  0.00    -0.544 OA
ENDBRANCH   1   6
BRANCH   1   9
ATOM      9  C   UNL     1      37.525  26.496  35.692  1.00  0.00     0.047 C 
ATOM     10  C   UNL     1      39.049  26.678  35.584  1.00  0.00     0.014 C 
ATOM     11  C   UNL     1      36.962  27.404  36.797  1.00  0.00     0.014 C 
ENDBRANCH   1   9
TORSDOF 3
ENDMDL
MODEL 8
REMARK VINA RESULT:    -3.901     20.714     21.749
REMARK INTER + INTRA:          -4.524
REMARK INTER:                  -4.556
REMARK INTRA:                   0.032
REMARK UNBOUND:                -0.053
REMARK SMILES CC(C)[C@@H]([NH3+])C(=O)[O-]
REMARK SMILES IDX 4 1 5 2 6 6 7 7 8 8 2 9 1 10 3 11
REMARK H PARENT 5 3 5 4 5 5
REMARK Flexibility Score: inf
ROOT
ATOM      1  C   UNL     1      38.167  26.776  33.960  1.00  0.00     0.230 C 
ENDROOT
BRANCH   1   2
ATOM      2  N   UNL     1      37.258  27.850  33.529  1.00  0.00    -0.350 N 
ATOM      3  H   UNL     1      36.620  28.145  34.301  1.00  0.00     0.345 HD
ATOM      4  H   UNL     1      37.820  28.681  33.229  1.00  0.00     0.345 HD
ATOM      5  H   UNL     1      36.691  27.541  32.708  1.00  0.00     0.345 HD
ENDBRANCH   1   2
BRANCH   1   6
ATOM      6  C   UNL     1      38.105  26.585  35.456  1.00  0.00     0.099 C 
ATOM      7  O   UNL     1      39.123  26.767  36.174  1.00  0.00    -0.544 OA
ATOM      8  O   UNL     1      36.897  26.253  36.057  1.00  0.00    -0.544 OA
ENDBRANCH   1   6
BRANCH   1   9
ATOM      9  C   UNL     1      37.916  25.429  33.217  1.00  0.00     0.047 C 
ATOM     10  C   UNL     1      36.428  25.127  32.973  1.00  0.00     0.014 C 
ATOM     11  C   UNL     1      38.696  25.351  31.895  1.00  0.00     0.014 C 
ENDBRANCH   1   9
TORSDOF 3
ENDMDL
MODEL 9
REMARK VINA RESULT:    -3.625      1.691      2.250
REMARK INTER + INTRA:          -4.208
REMARK INTER:                  -4.279
REMARK INTRA:                   0.070
REMARK UNBOUND:                -0.053
REMARK SMILES CC(C)[C@@H]([NH3+])C(=O)[O-]
REMARK SMILES IDX 4 1 5 2 6 6 7 7 8 8 2 9 1 10 3 11
REMARK H PARENT 5 3 5 4 5 5
REMARK Flexibility Score: inf
ROOT
ATOM      1  C   UNL     1      20.636  13.383  38.126  1.00  0.00     0.230 C 
ENDROOT
BRANCH   1   2
ATOM      2  N   UNL     1      19.280  13.916  38.339  1.00  0.00    -0.350 N 
ATOM      3  H   UNL     1      19.148  14.246  39.321  1.00  0.00     0.345 HD
ATOM      4  H   UNL     1      19.119  14.724  37.694  1.00  0.00     0.345 HD
ATOM      5  H   UNL     1      18.563  13.189  38.117  1.00  0.00     0.345 HD
ENDBRANCH   1   2
BRANCH   1   6
ATOM      6  C   UNL     1      20.713  11.931  38.528  1.00  0.00     0.099 C 
ATOM      7  O   UNL     1      20.735  11.595  39.742  1.00  0.00    -0.544 OA
ATOM      8  O   UNL     1      20.710  10.945  37.549  1.00  0.00    -0.544 OA
ENDBRANCH   1   6
BRANCH   1   9
ATOM      9  C   UNL     1      21.150  13.585  36.669  1.00  0.00     0.047 C 
ATOM     10  C   UNL     1      20.048  13.458  35.604  1.00  0.00     0.014 C 
ATOM     11  C   UNL     1      21.894  14.919  36.504  1.00  0.00     0.014 C 
ENDBRANCH   1   9
TORSDOF 3
ENDMDL
