MODEL 1
REMARK VINA RESULT:    -4.333      0.000      0.000
REMARK INTER + INTRA:          -9.214
REMARK INTER:                  -7.880
REMARK INTRA:                  -1.335
REMARK UNBOUND:                -1.335
REMARK SMILES CCCCCCCCCCCCCC[C@@H](C)C(=O)[O-]
REMARK SMILES IDX 9 1 10 2 11 3 12 4 13 5 14 6 15 7 16 8 17 9 18 10 19 11 8 12
REMARK SMILES IDX 7 13 6 14 5 15 4 16 3 17 2 18 1 19
REMARK H PARENT
REMARK Flexibility Score: inf
ROOT
ATOM      1  C   UNL     1      50.052  33.740   1.734  1.00  0.00     0.000 C 
ENDROOT
BRANCH   1   2
ATOM      2  C   UNL     1      50.020  33.356   0.247  1.00  0.00     0.000 C 
BRANCH   2   3
ATOM      3  C   UNL     1      50.863  32.103  -0.015  1.00  0.00     0.000 C 
BRANCH   3   4
ATOM      4  C   UNL     1      51.791  32.306  -1.223  1.00  0.00     0.000 C 
BRANCH   4   5
ATOM      5  C   UNL     1      52.291  33.755  -1.347  1.00  0.00     0.001 C 
BRANCH   5   6
ATOM      6  C   UNL     1      53.779  33.901  -0.983  1.00  0.00     0.009 C 
BRANCH   6   7
ATOM      7  C   UNL     1      54.004  34.821   0.236  1.00  0.00     0.032 C 
ATOM      8  C   UNL     1      54.988  34.216   1.247  1.00  0.00     0.014 C 
BRANCH   7   9
ATOM      9  C   UNL     1      54.515  36.159  -0.225  1.00  0.00     0.044 C 
ATOM     10  O   UNL     1      55.276  36.835   0.516  1.00  0.00    -0.550 OA
ATOM     11  O   UNL     1      54.150  36.658  -1.471  1.00  0.00    -0.550 OA
ENDBRANCH   7   9
ENDBRANCH   6   7
ENDBRANCH   5   6
ENDBRANCH   4   5
ENDBRANCH   3   4
ENDBRANCH   2   3
ENDBRANCH   1   2
BRANCH   1  12
ATOM     12  C   UNL     1      51.411  33.451   2.391  1.00  0.00     0.000 C 
BRANCH  12  13
ATOM     13  C   UNL     1      51.276  32.982   3.848  1.00  0.00    -0.000 C 
BRANCH  13  14
ATOM     14  C   UNL     1      49.963  33.486   4.466  1.00  0.00    -0.000 C 
BRANCH  14  15
ATOM     15  C   UNL     1      49.434  32.569   5.585  1.00  0.00    -0.000 C 
BRANCH  15  16
ATOM     16  C   UNL     1      49.784  33.015   7.018  1.00  0.00    -0.000 C 
BRANCH  16  17
ATOM     17  C   UNL     1      49.682  34.538   7.214  1.00  0.00    -0.000 C 
BRANCH  17  18
ATOM     18  C   UNL     1      50.162  34.984   8.604  1.00  0.00    -0.003 C 
ATOM     19  C   UNL     1      49.030  35.052   9.629  1.00  0.00     0.004 C 
ENDBRANCH  17  18
ENDBRANCH  16  17
ENDBRANCH  15  16
ENDBRANCH  14  15
ENDBRANCH  13  14
ENDBRANCH  12  13
ENDBRANCH   1  12
TORSDOF 14
ENDMDL
MODEL 2
REMARK VINA RESULT:    -4.331      4.563      9.334
REMARK INTER + INTRA:          -9.210
REMARK INTER:                  -8.329
REMARK INTRA:                  -0.881
REMARK UNBOUND:                -1.335
REMARK SMILES CCCCCCCCCCCCCC[C@@H](C)C(=O)[O-]
REMARK SMILES IDX 9 1 10 2 11 3 12 4 13 5 14 6 15 7 16 8 17 9 18 10 19 11 8 12
REMARK SMILES IDX 7 13 6 14 5 15 4 16 3 17 2 18 1 19
REMARK H PARENT
REMARK Flexibility Score: inf
ROOT
ATOM      1  C   UNL     1      50.353  33.728   4.231  1.00  0.00     0.000 C 
ENDROOT
BRANCH   1   2
ATOM      2  C   UNL     1      50.927  32.448   4.859  1.00  0.00     0.000 C 
BRANCH   2   3
ATOM      3  C   UNL     1      50.236  32.133   6.191  1.00  0.00     0.000 C 
BRANCH   3   4
ATOM      4  C   UNL     1      49.519  33.375   6.746  1.00  0.00     0.000 C 
BRANCH   4   5
ATOM      5  C   UNL     1      49.611  33.475   8.277  1.00  0.00     0.001 C 
BRANCH   5   6
ATOM      6  C   UNL     1      49.870  34.913   8.762  1.00  0.00     0.009 C 
BRANCH   6   7
ATOM      7  C   UNL     1      49.080  35.259  10.043  1.00  0.00     0.032 C 
ATOM      8  C   UNL     1      47.621  34.789   9.970  1.00  0.00     0.014 C 
BRANCH   7   9
ATOM      9  C   UNL     1      49.751  34.634  11.237  1.00  0.00     0.044 C 
ATOM     10  O   UNL     1      50.978  34.824  11.443  1.00  0.00    -0.550 OA
ATOM     11  O   UNL     1      49.021  33.843  12.117  1.00  0.00    -0.550 OA
ENDBRANCH   7   9
ENDBRANCH   6   7
ENDBRANCH   5   6
ENDBRANCH   4   5
ENDBRANCH   3   4
ENDBRANCH   2   3
ENDBRANCH   1   2
BRANCH   1  12
ATOM     12  C   UNL     1      50.533  33.772   2.706  1.00  0.00     0.000 C 
BRANCH  12  13
ATOM     13  C   UNL     1      51.709  32.908   2.223  1.00  0.00    -0.000 C 
BRANCH  13  14
ATOM     14  C   UNL     1      51.550  32.546   0.739  1.00  0.00    -0.000 C 
BRANCH  14  15
ATOM     15  C   UNL     1      50.242  33.080   0.126  1.00  0.00    -0.000 C 
BRANCH  15  16
ATOM     16  C   UNL     1      49.698  32.271  -1.067  1.00  0.00    -0.000 C 
BRANCH  16  17
ATOM     17  C   UNL     1      50.740  32.077  -2.184  1.00  0.00    -0.000 C 
BRANCH  17  18
ATOM     18  C   UNL     1      50.271  32.653  -3.529  1.00  0.00    -0.003 C 
ATOM     19  C   UNL     1      49.060  33.576  -3.391  1.00  0.00     0.004 C 
ENDBRANCH  17  18
ENDBRANCH  16  17
ENDBRANCH  15  16
ENDBRANCH  14  15
ENDBRANCH  13  14
ENDBRANCH  12  13
ENDBRANCH   1  12
TORSDOF 14
ENDMDL
MODEL 3
REMARK VINA RESULT:    -4.289      1.816      4.528
REMARK INTER + INTRA:          -9.134
REMARK INTER:                  -8.012
REMARK INTRA:                  -1.122
REMARK UNBOUND:                -1.335
REMARK SMILES CCCCCCCCCCCCCC[C@@H](C)C(=O)[O-]
REMARK SMILES IDX 9 1 10 2 11 3 12 4 13 5 14 6 15 7 16 8 17 9 18 10 19 11 8 12
REMARK SMILES IDX 7 13 6 14 5 15 4 16 3 17 2 18 1 19
REMARK H PARENT
REMARK Flexibility Score: inf
ROOT
ATOM      1  C   UNL     1      49.473  31.881   6.653  1.00  0.00     0.000 C 
ENDROOT
BRANCH   1   2
ATOM      2  C   UNL     1      50.898  32.195   6.172  1.00  0.00     0.000 C 
BRANCH   2   3
ATOM      3  C   UNL     1      50.955  32.276   4.642  1.00  0.00     0.000 C 
BRANCH   3   4
ATOM      4  C   UNL     1      50.699  33.712   4.158  1.00  0.00     0.000 C 
BRANCH   4   5
ATOM      5  C   UNL     1      50.492  33.795   2.637  1.00  0.00     0.001 C 
BRANCH   5   6
ATOM      6  C   UNL     1      51.763  33.437   1.845  1.00  0.00     0.009 C 
BRANCH   6   7
ATOM      7  C   UNL     1      51.450  32.883   0.438  1.00  0.00     0.032 C 
ATOM      8  C   UNL     1      49.968  33.037   0.070  1.00  0.00     0.014 C 
BRANCH   7   9
ATOM      9  C   UNL     1      52.299  33.587  -0.585  1.00  0.00     0.044 C 
ATOM     10  O   UNL     1      53.312  34.241  -0.224  1.00  0.00    -0.550 OA
ATOM     11  O   UNL     1      51.971  33.520  -1.935  1.00  0.00    -0.550 OA
ENDBRANCH   7   9
ENDBRANCH   6   7
ENDBRANCH   5   6
ENDBRANCH   4   5
ENDBRANCH   3   4
ENDBRANCH   2   3
ENDBRANCH   1   2
BRANCH   1  12
ATOM     12  C   UNL     1      49.342  31.922   8.184  1.00  0.00     0.000 C 
BRANCH  12  13
ATOM     13  C   UNL     1      48.525  33.127   8.675  1.00  0.00    -0.000 C 
BRANCH  13  14
ATOM     14  C   UNL     1      49.099  34.440   8.121  1.00  0.00    -0.000 C 
BRANCH  14  15
ATOM     15  C   UNL     1      50.050  35.144   9.108  1.00  0.00    -0.000 C 
BRANCH  15  16
ATOM     16  C   UNL     1      49.909  34.709  10.579  1.00  0.00    -0.000 C 
BRANCH  16  17
ATOM     17  C   UNL     1      49.104  35.710  11.425  1.00  0.00    -0.000 C 
BRANCH  17  18
ATOM     18  C   UNL     1      47.627  35.308  11.563  1.00  0.00    -0.003 C 
ATOM     19  C   UNL     1      46.710  36.080  10.613  1.00  0.00     0.004 C 
ENDBRANCH  17  18
ENDBRANCH  16  17
ENDBRANCH  15  16
ENDBRANCH  14  15
ENDBRANCH  13  14
ENDBRANCH  12  13
ENDBRANCH   1  12
TORSDOF 14
ENDMDL
MODEL 4
REMARK VINA RESULT:    -4.287     14.239     16.582
REMARK INTER + INTRA:          -9.130
REMARK INTER:                  -7.018
REMARK INTRA:                  -2.112
REMARK UNBOUND:                -1.335
REMARK SMILES CCCCCCCCCCCCCC[C@@H](C)C(=O)[O-]
REMARK SMILES IDX 9 1 10 2 11 3 12 4 13 5 14 6 15 7 16 8 17 9 18 10 19 11 8 12
REMARK SMILES IDX 7 13 6 14 5 15 4 16 3 17 2 18 1 19
REMARK H PARENT
REMARK Flexibility Score: inf
ROOT
ATOM      1  C   UNL     1      49.973  49.377  11.263  1.00  0.00     0.000 C 
ENDROOT
BRANCH   1   2
ATOM      2  C   UNL     1      51.187  49.771  12.119  1.00  0.00     0.000 C 
BRANCH   2   3
ATOM      3  C   UNL     1      50.935  49.468  13.601  1.00  0.00     0.000 C 
BRANCH   3   4
ATOM      4  C   UNL     1      51.930  48.421  14.125  1.00  0.00     0.000 C 
BRANCH   4   5
ATOM      5  C   UNL     1      52.695  47.715  12.994  1.00  0.00     0.001 C 
BRANCH   5   6
ATOM      6  C   UNL     1      52.515  46.186  13.020  1.00  0.00     0.009 C 
BRANCH   6   7
ATOM      7  C   UNL     1      52.536  45.562  11.608  1.00  0.00     0.032 C 
ATOM      8  C   UNL     1      52.258  46.598  10.511  1.00  0.00     0.014 C 
BRANCH   7   9
ATOM      9  C   UNL     1      53.870  44.911  11.360  1.00  0.00     0.044 C 
ATOM     10  O   UNL     1      54.883  45.280  12.010  1.00  0.00    -0.550 OA
ATOM     11  O   UNL     1      53.993  43.902  10.413  1.00  0.00    -0.550 OA
ENDBRANCH   7   9
ENDBRANCH   6   7
ENDBRANCH   5   6
ENDBRANCH   4   5
ENDBRANCH   3   4
ENDBRANCH   2   3
ENDBRANCH   1   2
BRANCH   1  12
ATOM     12  C   UNL     1      48.866  48.696  12.083  1.00  0.00     0.000 C 
BRANCH  12  13
ATOM     13  C   UNL     1      48.730  47.199  11.765  1.00  0.00    -0.000 C 
BRANCH  13  14
ATOM     14  C   UNL     1      48.964  46.348  13.023  1.00  0.00    -0.000 C 
BRANCH  14  15
ATOM     15  C   UNL     1      47.666  45.736  13.584  1.00  0.00    -0.000 C 
BRANCH  15  16
ATOM     16  C   UNL     1      46.508  45.617  12.575  1.00  0.00    -0.000 C 
BRANCH  16  17
ATOM     17  C   UNL     1      46.244  44.167  12.133  1.00  0.00    -0.000 C 
BRANCH  17  18
ATOM     18  C   UNL     1      45.646  44.084  10.720  1.00  0.00    -0.003 C 
ATOM     19  C   UNL     1      45.264  45.452  10.156  1.00  0.00     0.004 C 
ENDBRANCH  17  18
ENDBRANCH  16  17
ENDBRANCH  15  16
ENDBRANCH  14  15
ENDBRANCH  13  14
ENDBRANCH  12  13
ENDBRANCH   1  12
TORSDOF 14
ENDMDL
MODEL 5
REMARK VINA RESULT:    -4.280      2.694      3.779
REMARK INTER + INTRA:          -9.117
REMARK INTER:                  -8.316
REMARK INTRA:                  -0.801
REMARK UNBOUND:                -1.335
REMARK SMILES CCCCCCCCCCCCCC[C@@H](C)C(=O)[O-]
REMARK SMILES IDX 9 1 10 2 11 3 12 4 13 5 14 6 15 7 16 8 17 9 18 10 19 11 8 12
REMARK SMILES IDX 7 13 6 14 5 15 4 16 3 17 2 18 1 19
REMARK H PARENT
REMARK Flexibility Score: inf
ROOT
ATOM      1  C   UNL     1      50.271  33.755   3.851  1.00  0.00     0.000 C 
ENDROOT
BRANCH   1   2
ATOM      2  C   UNL     1      50.547  33.764   2.340  1.00  0.00     0.000 C 
BRANCH   2   3
ATOM      3  C   UNL     1      51.781  32.918   2.003  1.00  0.00     0.000 C 
BRANCH   3   4
ATOM      4  C   UNL     1      51.643  32.272   0.615  1.00  0.00     0.000 C 
BRANCH   4   5
ATOM      5  C   UNL     1      50.287  32.573  -0.044  1.00  0.00     0.001 C 
BRANCH   5   6
ATOM      6  C   UNL     1      50.353  32.528  -1.582  1.00  0.00     0.009 C 
BRANCH   6   7
ATOM      7  C   UNL     1      50.585  33.920  -2.207  1.00  0.00     0.032 C 
ATOM      8  C   UNL     1      52.072  34.195  -2.476  1.00  0.00     0.014 C 
BRANCH   7   9
ATOM      9  C   UNL     1      49.811  34.035  -3.492  1.00  0.00     0.044 C 
ATOM     10  O   UNL     1      48.777  33.340  -3.672  1.00  0.00    -0.550 OA
ATOM     11  O   UNL     1      50.232  34.909  -4.488  1.00  0.00    -0.550 OA
ENDBRANCH   7   9
ENDBRANCH   6   7
ENDBRANCH   5   6
ENDBRANCH   4   5
ENDBRANCH   3   4
ENDBRANCH   2   3
ENDBRANCH   1   2
BRANCH   1  12
ATOM     12  C   UNL     1      50.953  32.581   4.571  1.00  0.00     0.000 C 
BRANCH  12  13
ATOM     13  C   UNL     1      50.585  32.507   6.061  1.00  0.00    -0.000 C 
BRANCH  13  14
ATOM     14  C   UNL     1      49.787  33.747   6.491  1.00  0.00    -0.000 C 
BRANCH  14  15
ATOM     15  C   UNL     1      49.453  33.756   7.995  1.00  0.00    -0.000 C 
BRANCH  15  16
ATOM     16  C   UNL     1      49.910  35.013   8.760  1.00  0.00    -0.000 C 
BRANCH  16  17
ATOM     17  C   UNL     1      49.629  34.931  10.270  1.00  0.00    -0.000 C 
BRANCH  17  18
ATOM     18  C   UNL     1      48.255  35.509  10.643  1.00  0.00    -0.003 C 
ATOM     19  C   UNL     1      48.356  36.798  11.460  1.00  0.00     0.004 C 
ENDBRANCH  17  18
ENDBRANCH  16  17
ENDBRANCH  15  16
ENDBRANCH  14  15
ENDBRANCH  13  14
ENDBRANCH  12  13
ENDBRANCH   1  12
TORSDOF 14
ENDMDL
MODEL 6
REMARK VINA RESULT:    -4.164      4.749      9.823
REMARK INTER + INTRA:          -8.906
REMARK INTER:                  -7.789
REMARK INTRA:                  -1.117
REMARK UNBOUND:                -1.335
REMARK SMILES CCCCCCCCCCCCCC[C@@H](C)C(=O)[O-]
REMARK SMILES IDX 9 1 10 2 11 3 12 4 13 5 14 6 15 7 16 8 17 9 18 10 19 11 8 12
REMARK SMILES IDX 7 13 6 14 5 15 4 16 3 17 2 18 1 19
REMARK H PARENT
REMARK Flexibility Score: inf
ROOT
ATOM      1  C   UNL     1      49.296  33.225   5.963  1.00  0.00     0.000 C 
ENDROOT
BRANCH   1   2
ATOM      2  C   UNL     1      49.176  33.583   7.452  1.00  0.00     0.000 C 
BRANCH   2   3
ATOM      3  C   UNL     1      50.096  34.757   7.809  1.00  0.00     0.000 C 
BRANCH   3   4
ATOM      4  C   UNL     1      49.936  35.151   9.285  1.00  0.00     0.000 C 
BRANCH   4   5
ATOM      5  C   UNL     1      49.554  33.959  10.177  1.00  0.00     0.001 C 
BRANCH   5   6
ATOM      6  C   UNL     1      48.306  34.236  11.035  1.00  0.00     0.009 C 
BRANCH   6   7
ATOM      7  C   UNL     1      47.456  35.402  10.488  1.00  0.00     0.032 C 
ATOM      8  C   UNL     1      46.064  34.942  10.032  1.00  0.00     0.014 C 
BRANCH   7   9
ATOM      9  C   UNL     1      47.314  36.466  11.543  1.00  0.00     0.044 C 
ATOM     10  O   UNL     1      46.386  36.395  12.391  1.00  0.00    -0.550 OA
ATOM     11  O   UNL     1      48.203  37.534  11.586  1.00  0.00    -0.550 OA
ENDBRANCH   7   9
ENDBRANCH   6   7
ENDBRANCH   5   6
ENDBRANCH   4   5
ENDBRANCH   3   4
ENDBRANCH   2   3
ENDBRANCH   1   2
BRANCH   1  12
ATOM     12  C   UNL     1      50.426  32.221   5.683  1.00  0.00     0.000 C 
BRANCH  12  13
ATOM     13  C   UNL     1      51.235  32.577   4.426  1.00  0.00    -0.000 C 
BRANCH  13  14
ATOM     14  C   UNL     1      50.690  33.852   3.766  1.00  0.00    -0.000 C 
BRANCH  14  15
ATOM     15  C   UNL     1      50.520  33.715   2.241  1.00  0.00    -0.000 C 
BRANCH  15  16
ATOM     16  C   UNL     1      51.753  33.178   1.490  1.00  0.00    -0.000 C 
BRANCH  16  17
ATOM     17  C   UNL     1      51.571  33.179  -0.038  1.00  0.00    -0.000 C 
BRANCH  17  18
ATOM     18  C   UNL     1      52.863  33.552  -0.782  1.00  0.00    -0.003 C 
ATOM     19  C   UNL     1      53.815  34.396   0.067  1.00  0.00     0.004 C 
ENDBRANCH  17  18
ENDBRANCH  16  17
ENDBRANCH  15  16
ENDBRANCH  14  15
ENDBRANCH  13  14
ENDBRANCH  12  13
ENDBRANCH   1  12
TORSDOF 14
ENDMDL
MODEL 7
REMARK VINA RESULT:    -4.144     14.674     16.836
REMARK INTER + INTRA:          -8.870
REMARK INTER:                  -7.145
REMARK INTRA:                  -1.725
REMARK UNBOUND:                -1.335
REMARK SMILES CCCCCCCCCCCCCC[C@@H](C)C(=O)[O-]
REMARK SMILES IDX 9 1 10 2 11 3 12 4 13 5 14 6 15 7 16 8 17 9 18 10 19 11 8 12
REMARK SMILES IDX 7 13 6 14 5 15 4 16 3 17 2 18 1 19
REMARK H PARENT
REMARK Flexibility Score: inf
ROOT
ATOM      1  C   UNL     1      50.487  49.206  11.221  1.00  0.00     0.000 C 
ENDROOT
BRANCH   1   2
ATOM      2  C   UNL     1      51.268  50.089  12.206  1.00  0.00     0.000 C 
BRANCH   2   3
ATOM      3  C   UNL     1      51.518  49.349  13.526  1.00  0.00     0.000 C 
BRANCH   3   4
ATOM      4  C   UNL     1      52.680  48.354  13.386  1.00  0.00     0.000 C 
BRANCH   4   5
ATOM      5  C   UNL     1      52.351  46.974  13.978  1.00  0.00     0.001 C 
BRANCH   5   6
ATOM      6  C   UNL     1      52.321  45.863  12.913  1.00  0.00     0.009 C 
BRANCH   6   7
ATOM      7  C   UNL     1      53.647  45.754  12.131  1.00  0.00     0.032 C 
ATOM      8  C   UNL     1      54.533  44.612  12.647  1.00  0.00     0.014 C 
BRANCH   7   9
ATOM      9  C   UNL     1      53.359  45.547  10.668  1.00  0.00     0.044 C 
ATOM     10  O   UNL     1      54.165  44.898   9.951  1.00  0.00    -0.550 OA
ATOM     11  O   UNL     1      52.204  46.072  10.100  1.00  0.00    -0.550 OA
ENDBRANCH   7   9
ENDBRANCH   6   7
ENDBRANCH   5   6
ENDBRANCH   4   5
ENDBRANCH   3   4
ENDBRANCH   2   3
ENDBRANCH   1   2
BRANCH   1  12
ATOM     12  C   UNL     1      49.149  48.716  11.797  1.00  0.00     0.000 C 
BRANCH  12  13
ATOM     13  C   UNL     1      49.067  47.183  11.877  1.00  0.00    -0.000 C 
BRANCH  13  14
ATOM     14  C   UNL     1      48.206  46.743  13.071  1.00  0.00    -0.000 C 
BRANCH  14  15
ATOM     15  C   UNL     1      47.330  45.515  12.760  1.00  0.00    -0.000 C 
BRANCH  15  16
ATOM     16  C   UNL     1      46.345  45.692  11.589  1.00  0.00    -0.000 C 
BRANCH  16  17
ATOM     17  C   UNL     1      45.498  46.971  11.705  1.00  0.00    -0.000 C 
BRANCH  17  18
ATOM     18  C   UNL     1      45.665  47.898  10.490  1.00  0.00    -0.003 C 
ATOM     19  C   UNL     1      44.369  48.074   9.697  1.00  0.00     0.004 C 
ENDBRANCH  17  18
ENDBRANCH  16  17
ENDBRANCH  15  16
ENDBRANCH  14  15
ENDBRANCH  13  14
ENDBRANCH  12  13
ENDBRANCH   1  12
TORSDOF 14
ENDMDL
MODEL 8
REMARK VINA RESULT:    -4.141      4.420      9.113
REMARK INTER + INTRA:          -8.865
REMARK INTER:                  -7.781
REMARK INTRA:                  -1.084
REMARK UNBOUND:                -1.335
REMARK SMILES CCCCCCCCCCCCCC[C@@H](C)C(=O)[O-]
REMARK SMILES IDX 9 1 10 2 11 3 12 4 13 5 14 6 15 7 16 8 17 9 18 10 19 11 8 12
REMARK SMILES IDX 7 13 6 14 5 15 4 16 3 17 2 18 1 19
REMARK H PARENT
REMARK Flexibility Score: inf
ROOT
ATOM      1  C   UNL     1      49.904  33.173   4.733  1.00  0.00     0.000 C 
ENDROOT
BRANCH   1   2
ATOM      2  C   UNL     1      50.617  32.603   5.968  1.00  0.00     0.000 C 
BRANCH   2   3
ATOM      3  C   UNL     1      49.634  32.419   7.131  1.00  0.00     0.000 C 
BRANCH   3   4
ATOM      4  C   UNL     1      48.982  33.755   7.517  1.00  0.00     0.000 C 
BRANCH   4   5
ATOM      5  C   UNL     1      50.015  34.843   7.852  1.00  0.00     0.001 C 
BRANCH   5   6
ATOM      6  C   UNL     1      50.115  35.121   9.363  1.00  0.00     0.009 C 
BRANCH   6   7
ATOM      7  C   UNL     1      48.902  34.576  10.148  1.00  0.00     0.032 C 
ATOM      8  C   UNL     1      49.325  33.698  11.334  1.00  0.00     0.014 C 
BRANCH   7   9
ATOM      9  C   UNL     1      48.062  35.722  10.644  1.00  0.00     0.044 C 
ATOM     10  O   UNL     1      46.828  35.754  10.400  1.00  0.00    -0.550 OA
ATOM     11  O   UNL     1      48.644  36.754  11.373  1.00  0.00    -0.550 OA
ENDBRANCH   7   9
ENDBRANCH   6   7
ENDBRANCH   5   6
ENDBRANCH   4   5
ENDBRANCH   3   4
ENDBRANCH   2   3
ENDBRANCH   1   2
BRANCH   1  12
ATOM     12  C   UNL     1      50.874  33.838   3.743  1.00  0.00     0.000 C 
BRANCH  12  13
ATOM     13  C   UNL     1      50.915  33.122   2.384  1.00  0.00    -0.000 C 
BRANCH  13  14
ATOM     14  C   UNL     1      49.862  33.701   1.427  1.00  0.00    -0.000 C 
BRANCH  14  15
ATOM     15  C   UNL     1      50.104  33.308  -0.042  1.00  0.00    -0.000 C 
BRANCH  15  16
ATOM     16  C   UNL     1      51.407  32.529  -0.307  1.00  0.00    -0.000 C 
BRANCH  16  17
ATOM     17  C   UNL     1      52.288  33.183  -1.386  1.00  0.00    -0.000 C 
BRANCH  17  18
ATOM     18  C   UNL     1      53.706  33.490  -0.880  1.00  0.00    -0.003 C 
ATOM     19  C   UNL     1      53.713  34.398   0.350  1.00  0.00     0.004 C 
ENDBRANCH  17  18
ENDBRANCH  16  17
ENDBRANCH  15  16
ENDBRANCH  14  15
ENDBRANCH  13  14
ENDBRANCH  12  13
ENDBRANCH   1  12
TORSDOF 14
ENDMDL
MODEL 9
REMARK VINA RESULT:    -4.109     14.027     16.000
REMARK INTER + INTRA:          -8.806
REMARK INTER:                  -7.622
REMARK INTRA:                  -1.184
REMARK UNBOUND:                -1.335
REMARK SMILES CCCCCCCCCCCCCC[C@@H](C)C(=O)[O-]
REMARK SMILES IDX 9 1 10 2 11 3 12 4 13 5 14 6 15 7 16 8 17 9 18 10 19 11 8 12
REMARK SMILES IDX 7 13 6 14 5 15 4 16 3 17 2 18 1 19
REMARK H PARENT
REMARK Flexibility Score: inf
ROOT
ATOM      1  C   UNL     1      47.516  48.002  11.140  1.00  0.00     0.000 C 
ENDROOT
BRANCH   1   2
ATOM      2  C   UNL     1      48.851  48.701  10.841  1.00  0.00     0.000 C 
BRANCH   2   3
ATOM      3  C   UNL     1      50.033  47.864  11.346  1.00  0.00     0.000 C 
BRANCH   3   4
ATOM      4  C   UNL     1      51.202  47.908  10.350  1.00  0.00     0.000 C 
BRANCH   4   5
ATOM      5  C   UNL     1      51.740  46.509  10.009  1.00  0.00     0.001 C 
BRANCH   5   6
ATOM      6  C   UNL     1      52.515  45.870  11.176  1.00  0.00     0.009 C 
BRANCH   6   7
ATOM      7  C   UNL     1      53.958  45.483  10.790  1.00  0.00     0.032 C 
ATOM      8  C   UNL     1      54.996  46.446  11.383  1.00  0.00     0.014 C 
BRANCH   7   9
ATOM      9  C   UNL     1      54.249  44.081  11.253  1.00  0.00     0.044 C 
ATOM     10  O   UNL     1      54.155  43.117  10.449  1.00  0.00    -0.550 OA
ATOM     11  O   UNL     1      54.621  43.841  12.571  1.00  0.00    -0.550 OA
ENDBRANCH   7   9
ENDBRANCH   6   7
ENDBRANCH   5   6
ENDBRANCH   4   5
ENDBRANCH   3   4
ENDBRANCH   2   3
ENDBRANCH   1   2
BRANCH   1  12
ATOM     12  C   UNL     1      46.551  48.886  11.946  1.00  0.00     0.000 C 
BRANCH  12  13
ATOM     13  C   UNL     1      45.089  48.722  11.505  1.00  0.00    -0.000 C 
BRANCH  13  14
ATOM     14  C   UNL     1      44.993  48.531   9.984  1.00  0.00    -0.000 C 
BRANCH  14  15
ATOM     15  C   UNL     1      44.129  47.321   9.582  1.00  0.00    -0.000 C 
BRANCH  15  16
ATOM     16  C   UNL     1      44.846  45.958   9.632  1.00  0.00    -0.000 C 
BRANCH  16  17
ATOM     17  C   UNL     1      44.737  45.273  11.005  1.00  0.00    -0.000 C 
BRANCH  17  18
ATOM     18  C   UNL     1      45.950  44.380  11.314  1.00  0.00    -0.003 C 
ATOM     19  C   UNL     1      46.640  44.750  12.627  1.00  0.00     0.004 C 
ENDBRANCH  17  18
ENDBRANCH  16  17
ENDBRANCH  15  16
ENDBRANCH  14  15
ENDBRANCH  13  14
ENDBRANCH  12  13
ENDBRANCH   1  12
TORSDOF 14
ENDMDL
