MODEL 1
REMARK VINA RESULT:    -5.033      0.000      0.000
REMARK INTER + INTRA:         -10.813
REMARK INTER:                  -9.152
REMARK INTRA:                  -1.661
REMARK UNBOUND:                -1.661
REMARK SMILES CCCCCCCCCCCCCCCC(=O)[O-]
REMARK SMILES IDX 9 1 10 2 11 3 12 4 13 5 14 6 15 7 16 8 17 9 18 10 8 11 7 12
REMARK SMILES IDX 6 13 5 14 4 15 3 16 2 17 1 18
REMARK H PARENT
REMARK Flexibility Score: inf
ROOT
ATOM      1  C   UNL     1      43.972  58.673  83.711  1.00  0.00     0.000 C 
ENDROOT
BRANCH   1   2
ATOM      2  C   UNL     1      44.633  58.184  82.411  1.00  0.00     0.000 C 
BRANCH   2   3
ATOM      3  C   UNL     1      45.028  56.698  82.474  1.00  0.00     0.000 C 
BRANCH   3   4
ATOM      4  C   UNL     1      44.140  55.806  81.587  1.00  0.00     0.000 C 
BRANCH   4   5
ATOM      5  C   UNL     1      43.163  56.564  80.665  1.00  0.00     0.000 C 
BRANCH   5   6
ATOM      6  C   UNL     1      43.440  56.419  79.154  1.00  0.00     0.006 C 
BRANCH   6   7
ATOM      7  C   UNL     1      44.461  57.424  78.599  1.00  0.00     0.053 C 
BRANCH   7   8
ATOM      8  C   UNL     1      45.759  56.765  78.247  1.00  0.00     0.041 C 
ATOM      9  O   UNL     1      45.913  55.529  78.432  1.00  0.00    -0.550 OA
ATOM     10  O   UNL     1      46.788  57.510  77.684  1.00  0.00    -0.550 OA
ENDBRANCH   7   8
ENDBRANCH   6   7
ENDBRANCH   5   6
ENDBRANCH   4   5
ENDBRANCH   3   4
ENDBRANCH   2   3
ENDBRANCH   1   2
BRANCH   1  11
ATOM     11  C   UNL     1      42.435  58.670  83.628  1.00  0.00     0.000 C 
BRANCH  11  12
ATOM     12  C   UNL     1      41.780  58.013  84.854  1.00  0.00    -0.000 C 
BRANCH  12  13
ATOM     13  C   UNL     1      42.736  57.077  85.608  1.00  0.00    -0.000 C 
BRANCH  13  14
ATOM     14  C   UNL     1      42.153  55.663  85.710  1.00  0.00    -0.000 C 
BRANCH  14  15
ATOM     15  C   UNL     1      43.266  54.609  85.767  1.00  0.00    -0.000 C 
BRANCH  15  16
ATOM     16  C   UNL     1      43.471  53.950  84.396  1.00  0.00    -0.000 C 
BRANCH  16  17
ATOM     17  C   UNL     1      44.262  52.636  84.484  1.00  0.00    -0.003 C 
ATOM     18  C   UNL     1      44.762  52.341  85.898  1.00  0.00     0.004 C 
ENDBRANCH  16  17
ENDBRANCH  15  16
ENDBRANCH  14  15
ENDBRANCH  13  14
ENDBRANCH  12  13
ENDBRANCH  11  12
ENDBRANCH   1  11
TORSDOF 14
ENDMDL
MODEL 2
REMARK VINA RESULT:    -5.026      1.269      2.872
REMARK INTER + INTRA:         -10.800
REMARK INTER:                  -9.593
REMARK INTRA:                  -1.207
REMARK UNBOUND:                -1.661
REMARK SMILES CCCCCCCCCCCCCCCC(=O)[O-]
REMARK SMILES IDX 9 1 10 2 11 3 12 4 13 5 14 6 15 7 16 8 17 9 18 10 8 11 7 12
REMARK SMILES IDX 6 13 5 14 4 15 3 16 2 17 1 18
REMARK H PARENT
REMARK Flexibility Score: inf
ROOT
ATOM      1  C   UNL     1      42.587  57.348  85.577  1.00  0.00     0.000 C 
ENDROOT
BRANCH   1   2
ATOM      2  C   UNL     1      41.673  58.394  84.917  1.00  0.00     0.000 C 
BRANCH   2   3
ATOM      3  C   UNL     1      42.151  58.789  83.508  1.00  0.00     0.000 C 
BRANCH   3   4
ATOM      4  C   UNL     1      43.525  58.192  83.154  1.00  0.00     0.000 C 
BRANCH   4   5
ATOM      5  C   UNL     1      43.576  57.406  81.828  1.00  0.00     0.000 C 
BRANCH   5   6
ATOM      6  C   UNL     1      44.714  57.810  80.869  1.00  0.00     0.006 C 
BRANCH   6   7
ATOM      7  C   UNL     1      44.337  57.756  79.381  1.00  0.00     0.053 C 
BRANCH   7   8
ATOM      8  C   UNL     1      44.275  56.349  78.870  1.00  0.00     0.041 C 
ATOM      9  O   UNL     1      45.333  55.684  78.717  1.00  0.00    -0.550 OA
ATOM     10  O   UNL     1      43.046  55.762  78.597  1.00  0.00    -0.550 OA
ENDBRANCH   7   8
ENDBRANCH   6   7
ENDBRANCH   5   6
ENDBRANCH   4   5
ENDBRANCH   3   4
ENDBRANCH   2   3
ENDBRANCH   1   2
BRANCH   1  11
ATOM     11  C   UNL     1      41.918  55.967  85.688  1.00  0.00     0.000 C 
BRANCH  11  12
ATOM     12  C   UNL     1      42.909  54.812  85.472  1.00  0.00    -0.000 C 
BRANCH  12  13
ATOM     13  C   UNL     1      43.098  54.462  83.989  1.00  0.00    -0.000 C 
BRANCH  13  14
ATOM     14  C   UNL     1      44.372  53.634  83.778  1.00  0.00    -0.000 C 
BRANCH  14  15
ATOM     15  C   UNL     1      44.642  52.722  84.981  1.00  0.00    -0.000 C 
BRANCH  15  16
ATOM     16  C   UNL     1      45.147  51.345  84.525  1.00  0.00    -0.000 C 
BRANCH  16  17
ATOM     17  C   UNL     1      45.805  50.551  85.663  1.00  0.00    -0.003 C 
ATOM     18  C   UNL     1      46.051  51.398  86.911  1.00  0.00     0.004 C 
ENDBRANCH  16  17
ENDBRANCH  15  16
ENDBRANCH  14  15
ENDBRANCH  13  14
ENDBRANCH  12  13
ENDBRANCH  11  12
ENDBRANCH   1  11
TORSDOF 14
ENDMDL
MODEL 3
REMARK VINA RESULT:    -5.020      2.174      4.842
REMARK INTER + INTRA:         -10.789
REMARK INTER:                  -9.638
REMARK INTRA:                  -1.151
REMARK UNBOUND:                -1.661
REMARK SMILES CCCCCCCCCCCCCCCC(=O)[O-]
REMARK SMILES IDX 9 1 10 2 11 3 12 4 13 5 14 6 15 7 16 8 17 9 18 10 8 11 7 12
REMARK SMILES IDX 6 13 5 14 4 15 3 16 2 17 1 18
REMARK H PARENT
REMARK Flexibility Score: inf
ROOT
ATOM      1  C   UNL     1      42.193  55.642  85.589  1.00  0.00     0.000 C 
ENDROOT
BRANCH   1   2
ATOM      2  C   UNL     1      43.491  54.817  85.570  1.00  0.00     0.000 C 
BRANCH   2   3
ATOM      3  C   UNL     1      43.527  53.800  84.417  1.00  0.00     0.000 C 
BRANCH   3   4
ATOM      4  C   UNL     1      44.350  52.544  84.753  1.00  0.00     0.000 C 
BRANCH   4   5
ATOM      5  C   UNL     1      44.953  51.810  83.538  1.00  0.00     0.000 C 
BRANCH   5   6
ATOM      6  C   UNL     1      46.119  52.542  82.842  1.00  0.00     0.006 C 
BRANCH   6   7
ATOM      7  C   UNL     1      45.943  52.715  81.326  1.00  0.00     0.053 C 
BRANCH   7   8
ATOM      8  C   UNL     1      47.185  52.346  80.574  1.00  0.00     0.041 C 
ATOM      9  O   UNL     1      47.954  51.454  81.019  1.00  0.00    -0.550 OA
ATOM     10  O   UNL     1      47.474  52.962  79.363  1.00  0.00    -0.550 OA
ENDBRANCH   7   8
ENDBRANCH   6   7
ENDBRANCH   5   6
ENDBRANCH   4   5
ENDBRANCH   3   4
ENDBRANCH   2   3
ENDBRANCH   1   2
BRANCH   1  11
ATOM     11  C   UNL     1      42.458  57.156  85.648  1.00  0.00     0.000 C 
BRANCH  11  12
ATOM     12  C   UNL     1      41.593  57.946  84.652  1.00  0.00    -0.000 C 
BRANCH  12  13
ATOM     13  C   UNL     1      42.423  58.614  83.545  1.00  0.00    -0.000 C 
BRANCH  13  14
ATOM     14  C   UNL     1      43.813  57.976  83.441  1.00  0.00    -0.000 C 
BRANCH  14  15
ATOM     15  C   UNL     1      43.846  56.897  82.352  1.00  0.00    -0.000 C 
BRANCH  15  16
ATOM     16  C   UNL     1      43.587  57.505  80.966  1.00  0.00    -0.000 C 
BRANCH  16  17
ATOM     17  C   UNL     1      42.731  56.595  80.072  1.00  0.00    -0.003 C 
ATOM     18  C   UNL     1      43.537  55.941  78.950  1.00  0.00     0.004 C 
ENDBRANCH  16  17
ENDBRANCH  15  16
ENDBRANCH  14  15
ENDBRANCH  13  14
ENDBRANCH  12  13
ENDBRANCH  11  12
ENDBRANCH   1  11
TORSDOF 14
ENDMDL
MODEL 4
REMARK VINA RESULT:    -5.005      1.779      3.290
REMARK INTER + INTRA:         -10.763
REMARK INTER:                  -9.573
REMARK INTRA:                  -1.189
REMARK UNBOUND:                -1.661
REMARK SMILES CCCCCCCCCCCCCCCC(=O)[O-]
REMARK SMILES IDX 9 1 10 2 11 3 12 4 13 5 14 6 15 7 16 8 17 9 18 10 8 11 7 12
REMARK SMILES IDX 6 13 5 14 4 15 3 16 2 17 1 18
REMARK H PARENT
REMARK Flexibility Score: inf
ROOT
ATOM      1  C   UNL     1      42.501  57.359  85.584  1.00  0.00     0.000 C 
ENDROOT
BRANCH   1   2
ATOM      2  C   UNL     1      41.658  58.329  84.740  1.00  0.00     0.000 C 
BRANCH   2   3
ATOM      3  C   UNL     1      42.420  58.858  83.512  1.00  0.00     0.000 C 
BRANCH   3   4
ATOM      4  C   UNL     1      43.925  58.534  83.558  1.00  0.00     0.000 C 
BRANCH   4   5
ATOM      5  C   UNL     1      44.456  57.718  82.363  1.00  0.00     0.000 C 
BRANCH   5   6
ATOM      6  C   UNL     1      43.399  57.337  81.307  1.00  0.00     0.006 C 
BRANCH   6   7
ATOM      7  C   UNL     1      43.782  57.705  79.865  1.00  0.00     0.053 C 
BRANCH   7   8
ATOM      8  C   UNL     1      44.254  56.514  79.090  1.00  0.00     0.041 C 
ATOM      9  O   UNL     1      45.487  56.296  78.951  1.00  0.00    -0.550 OA
ATOM     10  O   UNL     1      43.333  55.625  78.552  1.00  0.00    -0.550 OA
ENDBRANCH   7   8
ENDBRANCH   6   7
ENDBRANCH   5   6
ENDBRANCH   4   5
ENDBRANCH   3   4
ENDBRANCH   2   3
ENDBRANCH   1   2
BRANCH   1  11
ATOM     11  C   UNL     1      41.944  55.925  85.565  1.00  0.00     0.000 C 
BRANCH  11  12
ATOM     12  C   UNL     1      43.051  54.860  85.635  1.00  0.00    -0.000 C 
BRANCH  12  13
ATOM     13  C   UNL     1      43.383  54.258  84.261  1.00  0.00    -0.000 C 
BRANCH  13  14
ATOM     14  C   UNL     1      44.129  52.927  84.411  1.00  0.00    -0.000 C 
BRANCH  14  15
ATOM     15  C   UNL     1      45.497  52.979  83.720  1.00  0.00    -0.000 C 
BRANCH  15  16
ATOM     16  C   UNL     1      45.677  51.790  82.766  1.00  0.00    -0.000 C 
BRANCH  16  17
ATOM     17  C   UNL     1      46.128  52.222  81.362  1.00  0.00    -0.003 C 
ATOM     18  C   UNL     1      47.622  52.004  81.127  1.00  0.00     0.004 C 
ENDBRANCH  16  17
ENDBRANCH  15  16
ENDBRANCH  14  15
ENDBRANCH  13  14
ENDBRANCH  12  13
ENDBRANCH  11  12
ENDBRANCH   1  11
TORSDOF 14
ENDMDL
MODEL 5
REMARK VINA RESULT:    -5.001      2.677      6.042
REMARK INTER + INTRA:         -10.755
REMARK INTER:                  -9.424
REMARK INTRA:                  -1.330
REMARK UNBOUND:                -1.661
REMARK SMILES CCCCCCCCCCCCCCCC(=O)[O-]
REMARK SMILES IDX 9 1 10 2 11 3 12 4 13 5 14 6 15 7 16 8 17 9 18 10 8 11 7 12
REMARK SMILES IDX 6 13 5 14 4 15 3 16 2 17 1 18
REMARK H PARENT
REMARK Flexibility Score: inf
ROOT
ATOM      1  C   UNL     1      41.787  58.440  84.989  1.00  0.00     0.000 C 
ENDROOT
BRANCH   1   2
ATOM      2  C   UNL     1      42.537  57.379  85.811  1.00  0.00     0.000 C 
BRANCH   2   3
ATOM      3  C   UNL     1      42.000  55.958  85.571  1.00  0.00     0.000 C 
BRANCH   3   4
ATOM      4  C   UNL     1      43.117  54.901  85.497  1.00  0.00     0.000 C 
BRANCH   4   5
ATOM      5  C   UNL     1      43.399  54.343  84.088  1.00  0.00     0.000 C 
BRANCH   5   6
ATOM      6  C   UNL     1      44.017  52.930  84.053  1.00  0.00     0.006 C 
BRANCH   6   7
ATOM      7  C   UNL     1      44.646  52.481  85.381  1.00  0.00     0.053 C 
BRANCH   7   8
ATOM      8  C   UNL     1      46.032  51.947  85.190  1.00  0.00     0.041 C 
ATOM      9  O   UNL     1      46.415  50.933  85.831  1.00  0.00    -0.550 OA
ATOM     10  O   UNL     1      46.890  52.549  84.277  1.00  0.00    -0.550 OA
ENDBRANCH   7   8
ENDBRANCH   6   7
ENDBRANCH   5   6
ENDBRANCH   4   5
ENDBRANCH   3   4
ENDBRANCH   2   3
ENDBRANCH   1   2
BRANCH   1  11
ATOM     11  C   UNL     1      42.352  58.592  83.566  1.00  0.00     0.000 C 
BRANCH  11  12
ATOM     12  C   UNL     1      43.866  58.330  83.501  1.00  0.00    -0.000 C 
BRANCH  12  13
ATOM     13  C   UNL     1      44.284  57.578  82.228  1.00  0.00    -0.000 C 
BRANCH  13  14
ATOM     14  C   UNL     1      43.136  57.537  81.213  1.00  0.00    -0.000 C 
BRANCH  14  15
ATOM     15  C   UNL     1      43.180  56.250  80.381  1.00  0.00    -0.000 C 
BRANCH  15  16
ATOM     16  C   UNL     1      44.033  56.439  79.119  1.00  0.00    -0.000 C 
BRANCH  16  17
ATOM     17  C   UNL     1      44.339  57.916  78.829  1.00  0.00    -0.003 C 
ATOM     18  C   UNL     1      45.837  58.195  78.697  1.00  0.00     0.004 C 
ENDBRANCH  16  17
ENDBRANCH  15  16
ENDBRANCH  14  15
ENDBRANCH  13  14
ENDBRANCH  12  13
ENDBRANCH  11  12
ENDBRANCH   1  11
TORSDOF 14
ENDMDL
MODEL 6
REMARK VINA RESULT:    -4.982      2.631      6.506
REMARK INTER + INTRA:         -10.720
REMARK INTER:                  -9.349
REMARK INTRA:                  -1.371
REMARK UNBOUND:                -1.661
REMARK SMILES CCCCCCCCCCCCCCCC(=O)[O-]
REMARK SMILES IDX 9 1 10 2 11 3 12 4 13 5 14 6 15 7 16 8 17 9 18 10 8 11 7 12
REMARK SMILES IDX 6 13 5 14 4 15 3 16 2 17 1 18
REMARK H PARENT
REMARK Flexibility Score: inf
ROOT
ATOM      1  C   UNL     1      46.109  51.882  83.344  1.00  0.00     0.000 C 
ENDROOT
BRANCH   1   2
ATOM      2  C   UNL     1      44.686  51.694  83.894  1.00  0.00     0.000 C 
BRANCH   2   3
ATOM      3  C   UNL     1      44.373  52.648  85.060  1.00  0.00     0.000 C 
BRANCH   3   4
ATOM      4  C   UNL     1      43.521  53.856  84.631  1.00  0.00     0.000 C 
BRANCH   4   5
ATOM      5  C   UNL     1      43.163  54.840  85.763  1.00  0.00     0.000 C 
BRANCH   5   6
ATOM      6  C   UNL     1      42.044  55.848  85.428  1.00  0.00     0.006 C 
BRANCH   6   7
ATOM      7  C   UNL     1      42.426  57.318  85.660  1.00  0.00     0.053 C 
BRANCH   7   8
ATOM      8  C   UNL     1      42.893  57.979  84.400  1.00  0.00     0.041 C 
ATOM      9  O   UNL     1      44.089  57.854  84.025  1.00  0.00    -0.550 OA
ATOM     10  O   UNL     1      42.000  58.706  83.623  1.00  0.00    -0.550 OA
ENDBRANCH   7   8
ENDBRANCH   6   7
ENDBRANCH   5   6
ENDBRANCH   4   5
ENDBRANCH   3   4
ENDBRANCH   2   3
ENDBRANCH   1   2
BRANCH   1  11
ATOM     11  C   UNL     1      46.118  52.394  81.893  1.00  0.00     0.000 C 
BRANCH  11  12
ATOM     12  C   UNL     1      46.206  53.926  81.807  1.00  0.00    -0.000 C 
BRANCH  12  13
ATOM     13  C   UNL     1      45.171  54.528  80.844  1.00  0.00    -0.000 C 
BRANCH  13  14
ATOM     14  C   UNL     1      44.252  55.515  81.574  1.00  0.00    -0.000 C 
BRANCH  14  15
ATOM     15  C   UNL     1      43.414  56.328  80.579  1.00  0.00    -0.000 C 
BRANCH  15  16
ATOM     16  C   UNL     1      43.828  56.022  79.133  1.00  0.00    -0.000 C 
BRANCH  16  17
ATOM     17  C   UNL     1      44.296  57.273  78.375  1.00  0.00    -0.003 C 
ATOM     18  C   UNL     1      45.157  58.198  79.236  1.00  0.00     0.004 C 
ENDBRANCH  16  17
ENDBRANCH  15  16
ENDBRANCH  14  15
ENDBRANCH  13  14
ENDBRANCH  12  13
ENDBRANCH  11  12
ENDBRANCH   1  11
TORSDOF 14
ENDMDL
MODEL 7
REMARK VINA RESULT:    -4.962      2.877      5.713
REMARK INTER + INTRA:         -10.683
REMARK INTER:                  -9.133
REMARK INTRA:                  -1.551
REMARK UNBOUND:                -1.661
REMARK SMILES CCCCCCCCCCCCCCCC(=O)[O-]
REMARK SMILES IDX 9 1 10 2 11 3 12 4 13 5 14 6 15 7 16 8 17 9 18 10 8 11 7 12
REMARK SMILES IDX 6 13 5 14 4 15 3 16 2 17 1 18
REMARK H PARENT
REMARK Flexibility Score: inf
ROOT
ATOM      1  C   UNL     1      42.118  59.298  85.358  1.00  0.00     0.000 C 
ENDROOT
BRANCH   1   2
ATOM      2  C   UNL     1      41.706  57.844  85.071  1.00  0.00     0.000 C 
BRANCH   2   3
ATOM      3  C   UNL     1      42.727  56.825  85.605  1.00  0.00     0.000 C 
BRANCH   3   4
ATOM      4  C   UNL     1      42.255  55.368  85.450  1.00  0.00     0.000 C 
BRANCH   4   5
ATOM      5  C   UNL     1      43.074  54.516  84.460  1.00  0.00     0.000 C 
BRANCH   5   6
ATOM      6  C   UNL     1      43.942  53.415  85.103  1.00  0.00     0.006 C 
BRANCH   6   7
ATOM      7  C   UNL     1      44.441  52.346  84.118  1.00  0.00     0.053 C 
BRANCH   7   8
ATOM      8  C   UNL     1      45.674  51.659  84.618  1.00  0.00     0.041 C 
ATOM      9  O   UNL     1      46.814  52.103  84.317  1.00  0.00    -0.550 OA
ATOM     10  O   UNL     1      45.565  50.547  85.444  1.00  0.00    -0.550 OA
ENDBRANCH   7   8
ENDBRANCH   6   7
ENDBRANCH   5   6
ENDBRANCH   4   5
ENDBRANCH   3   4
ENDBRANCH   2   3
ENDBRANCH   1   2
BRANCH   1  11
ATOM     11  C   UNL     1      43.629  59.444  85.606  1.00  0.00     0.000 C 
BRANCH  11  12
ATOM     12  C   UNL     1      44.289  60.456  84.655  1.00  0.00    -0.000 C 
BRANCH  12  13
ATOM     13  C   UNL     1      45.480  59.862  83.888  1.00  0.00    -0.000 C 
BRANCH  13  14
ATOM     14  C   UNL     1      45.255  58.374  83.594  1.00  0.00    -0.000 C 
BRANCH  14  15
ATOM     15  C   UNL     1      44.954  58.144  82.108  1.00  0.00    -0.000 C 
BRANCH  15  16
ATOM     16  C   UNL     1      43.566  57.517  81.918  1.00  0.00    -0.000 C 
BRANCH  16  17
ATOM     17  C   UNL     1      43.612  56.214  81.106  1.00  0.00    -0.003 C 
ATOM     18  C   UNL     1      43.021  56.368  79.705  1.00  0.00     0.004 C 
ENDBRANCH  16  17
ENDBRANCH  15  16
ENDBRANCH  14  15
ENDBRANCH  13  14
ENDBRANCH  12  13
ENDBRANCH  11  12
ENDBRANCH   1  11
TORSDOF 14
ENDMDL
MODEL 8
REMARK VINA RESULT:    -4.939     12.002     13.268
REMARK INTER + INTRA:         -10.642
REMARK INTER:                  -9.347
REMARK INTRA:                  -1.294
REMARK UNBOUND:                -1.661
REMARK SMILES CCCCCCCCCCCCCCCC(=O)[O-]
REMARK SMILES IDX 9 1 10 2 11 3 12 4 13 5 14 6 15 7 16 8 17 9 18 10 8 11 7 12
REMARK SMILES IDX 6 13 5 14 4 15 3 16 2 17 1 18
REMARK H PARENT
REMARK Flexibility Score: inf
ROOT
ATOM      1  C   UNL     1      56.239  59.506  84.517  1.00  0.00     0.000 C 
ENDROOT
BRANCH   1   2
ATOM      2  C   UNL     1      55.374  58.691  83.541  1.00  0.00     0.000 C 
BRANCH   2   3
ATOM      3  C   UNL     1      55.206  59.387  82.179  1.00  0.00     0.000 C 
BRANCH   3   4
ATOM      4  C   UNL     1      55.127  58.394  81.006  1.00  0.00     0.000 C 
BRANCH   4   5
ATOM      5  C   UNL     1      56.158  57.247  81.048  1.00  0.00     0.000 C 
BRANCH   5   6
ATOM      6  C   UNL     1      57.043  57.115  79.792  1.00  0.00     0.006 C 
BRANCH   6   7
ATOM      7  C   UNL     1      57.522  55.684  79.503  1.00  0.00     0.053 C 
BRANCH   7   8
ATOM      8  C   UNL     1      56.691  55.019  78.449  1.00  0.00     0.041 C 
ATOM      9  O   UNL     1      56.535  53.769  78.458  1.00  0.00    -0.550 OA
ATOM     10  O   UNL     1      56.059  55.784  77.476  1.00  0.00    -0.550 OA
ENDBRANCH   7   8
ENDBRANCH   6   7
ENDBRANCH   5   6
ENDBRANCH   4   5
ENDBRANCH   3   4
ENDBRANCH   2   3
ENDBRANCH   1   2
BRANCH   1  11
ATOM     11  C   UNL     1      56.972  58.619  85.537  1.00  0.00     0.000 C 
BRANCH  11  12
ATOM     12  C   UNL     1      57.720  57.451  84.874  1.00  0.00    -0.000 C 
BRANCH  12  13
ATOM     13  C   UNL     1      57.801  56.209  85.775  1.00  0.00    -0.000 C 
BRANCH  13  14
ATOM     14  C   UNL     1      59.227  55.646  85.806  1.00  0.00    -0.000 C 
BRANCH  14  15
ATOM     15  C   UNL     1      59.234  54.144  85.495  1.00  0.00    -0.000 C 
BRANCH  15  16
ATOM     16  C   UNL     1      57.939  53.723  84.785  1.00  0.00    -0.000 C 
BRANCH  16  17
ATOM     17  C   UNL     1      58.078  53.723  83.255  1.00  0.00    -0.003 C 
ATOM     18  C   UNL     1      56.732  53.828  82.538  1.00  0.00     0.004 C 
ENDBRANCH  16  17
ENDBRANCH  15  16
ENDBRANCH  14  15
ENDBRANCH  13  14
ENDBRANCH  12  13
ENDBRANCH  11  12
ENDBRANCH   1  11
TORSDOF 14
ENDMDL
MODEL 9
REMARK VINA RESULT:    -4.897      2.766      5.823
REMARK INTER + INTRA:         -10.566
REMARK INTER:                  -8.583
REMARK INTRA:                  -1.983
REMARK UNBOUND:                -1.661
REMARK SMILES CCCCCCCCCCCCCCCC(=O)[O-]
REMARK SMILES IDX 9 1 10 2 11 3 12 4 13 5 14 6 15 7 16 8 17 9 18 10 8 11 7 12
REMARK SMILES IDX 6 13 5 14 4 15 3 16 2 17 1 18
REMARK H PARENT
REMARK Flexibility Score: inf
ROOT
ATOM      1  C   UNL     1      44.179  60.329  84.638  1.00  0.00     0.000 C 
ENDROOT
BRANCH   1   2
ATOM      2  C   UNL     1      43.027  59.685  85.428  1.00  0.00     0.000 C 
BRANCH   2   3
ATOM      3  C   UNL     1      41.988  59.013  84.514  1.00  0.00     0.000 C 
BRANCH   3   4
ATOM      4  C   UNL     1      41.603  57.599  84.986  1.00  0.00     0.000 C 
BRANCH   4   5
ATOM      5  C   UNL     1      42.733  56.807  85.675  1.00  0.00     0.000 C 
BRANCH   5   6
ATOM      6  C   UNL     1      42.513  55.283  85.754  1.00  0.00     0.006 C 
BRANCH   6   7
ATOM      7  C   UNL     1      43.099  54.496  84.572  1.00  0.00     0.053 C 
BRANCH   7   8
ATOM      8  C   UNL     1      43.984  53.377  85.029  1.00  0.00     0.041 C 
ATOM      9  O   UNL     1      44.182  52.382  84.284  1.00  0.00    -0.550 OA
ATOM     10  O   UNL     1      44.616  53.451  86.263  1.00  0.00    -0.550 OA
ENDBRANCH   7   8
ENDBRANCH   6   7
ENDBRANCH   5   6
ENDBRANCH   4   5
ENDBRANCH   3   4
ENDBRANCH   2   3
ENDBRANCH   1   2
BRANCH   1  11
ATOM     11  C   UNL     1      45.347  59.357  84.401  1.00  0.00     0.000 C 
BRANCH  11  12
ATOM     12  C   UNL     1      45.353  58.776  82.977  1.00  0.00    -0.000 C 
BRANCH  12  13
ATOM     13  C   UNL     1      45.647  57.268  82.952  1.00  0.00    -0.000 C 
BRANCH  13  14
ATOM     14  C   UNL     1      44.602  56.519  82.117  1.00  0.00    -0.000 C 
BRANCH  14  15
ATOM     15  C   UNL     1      43.485  57.463  81.654  1.00  0.00    -0.000 C 
BRANCH  15  16
ATOM     16  C   UNL     1      42.937  57.037  80.285  1.00  0.00    -0.000 C 
BRANCH  16  17
ATOM     17  C   UNL     1      43.992  56.329  79.421  1.00  0.00    -0.003 C 
ATOM     18  C   UNL     1      44.657  57.266  78.413  1.00  0.00     0.004 C 
ENDBRANCH  16  17
ENDBRANCH  15  16
ENDBRANCH  14  15
ENDBRANCH  13  14
ENDBRANCH  12  13
ENDBRANCH  11  12
ENDBRANCH   1  11
TORSDOF 14
ENDMDL
