MODEL 1
REMARK VINA RESULT:    -5.084      0.000      0.000
REMARK INTER + INTRA:          -6.271
REMARK INTER:                  -5.976
REMARK INTRA:                  -0.295
REMARK UNBOUND:                -0.295
REMARK SMILES O=c1c(O)c(-c2ccc(O)cc2)oc2cc(O)cc(O)c12
REMARK SMILES IDX 5 1 3 2 2 3 1 4 21 5 19 6 18 7 16 8 15 9 14 10 13 11 6 12
REMARK SMILES IDX 7 13 8 14 9 15 12 16 11 17 10 18 4 20 20 22 17 24
REMARK H PARENT 10 19 4 21 20 23 17 25
REMARK Flexibility Score: inf
ROOT
ATOM      1  C   UNL     1      -9.615  83.503  -8.778  1.00  0.00     0.180 A 
ATOM      2  C   UNL     1     -10.468  82.399  -8.950  1.00  0.00     0.208 A 
ATOM      3  C   UNL     1     -11.808  82.621  -9.300  1.00  0.00     0.238 A 
ATOM      4  O   UNL     1     -12.583  81.633  -9.379  1.00  0.00    -0.285 OA
ATOM      5  C   UNL     1     -12.268  83.941  -9.529  1.00  0.00     0.111 A 
ATOM      6  C   UNL     1     -13.596  84.280  -9.933  1.00  0.00     0.134 A 
ATOM      7  C   UNL     1     -13.965  85.628 -10.026  1.00  0.00     0.093 A 
ATOM      8  C   UNL     1     -13.042  86.646  -9.796  1.00  0.00     0.123 A 
ATOM      9  C   UNL     1     -11.728  86.326  -9.455  1.00  0.00     0.094 A 
ATOM     10  C   UNL     1     -11.339  84.991  -9.315  1.00  0.00     0.146 A 
ATOM     11  O   UNL     1     -10.084  84.731  -8.968  1.00  0.00    -0.452 OA
ENDROOT
BRANCH   1  12
ATOM     12  C   UNL     1      -8.194  83.351  -8.395  1.00  0.00     0.021 A 
ATOM     13  C   UNL     1      -7.208  83.321  -9.395  1.00  0.00     0.016 A 
ATOM     14  C   UNL     1      -5.857  83.200  -9.056  1.00  0.00     0.047 A 
ATOM     15  C   UNL     1      -5.473  83.123  -7.714  1.00  0.00     0.115 A 
ATOM     16  C   UNL     1      -7.800  83.292  -7.046  1.00  0.00     0.016 A 
ATOM     17  C   UNL     1      -6.448  83.172  -6.709  1.00  0.00     0.047 A 
BRANCH  15  18
ATOM     18  O   UNL     1      -4.124  83.002  -7.390  1.00  0.00    -0.508 OA
ATOM     19  H   UNL     1      -3.470  83.759  -7.553  1.00  0.00     0.293 HD
ENDBRANCH  15  18
ENDBRANCH   1  12
BRANCH   2  20
ATOM     20  O   UNL     1      -9.975  81.100  -8.794  1.00  0.00    -0.502 OA
ATOM     21  H   UNL     1     -10.003  80.611  -7.906  1.00  0.00     0.293 HD
ENDBRANCH   2  20
BRANCH   6  22
ATOM     22  O   UNL     1     -14.575  83.342 -10.275  1.00  0.00    -0.507 OA
ATOM     23  H   UNL     1     -14.405  82.361 -10.434  1.00  0.00     0.293 HD
ENDBRANCH   6  22
BRANCH   8  24
ATOM     24  O   UNL     1     -13.441  87.976  -9.915  1.00  0.00    -0.508 OA
ATOM     25  H   UNL     1     -13.722  88.520  -9.108  1.00  0.00     0.293 HD
ENDBRANCH   8  24
TORSDOF 5
ENDMDL
MODEL 2
REMARK VINA RESULT:    -5.056     10.664     12.084
REMARK INTER + INTRA:          -6.238
REMARK INTER:                  -5.998
REMARK INTRA:                  -0.241
REMARK UNBOUND:                -0.295
REMARK SMILES O=c1c(O)c(-c2ccc(O)cc2)oc2cc(O)cc(O)c12
REMARK SMILES IDX 5 1 3 2 2 3 1 4 21 5 19 6 18 7 16 8 15 9 14 10 13 11 6 12
REMARK SMILES IDX 7 13 8 14 9 15 12 16 11 17 10 18 4 20 20 22 17 24
REMARK H PARENT 10 19 4 21 20 23 17 25
REMARK Flexibility Score: inf
ROOT
ATOM      1  C   UNL     1      -4.663  91.125 -15.448  1.00  0.00     0.180 A 
ATOM      2  C   UNL     1      -5.177  89.957 -14.861  1.00  0.00     0.208 A 
ATOM      3  C   UNL     1      -5.302  89.894 -13.464  1.00  0.00     0.238 A 
ATOM      4  O   UNL     1      -5.692  88.819 -12.941  1.00  0.00    -0.285 OA
ATOM      5  C   UNL     1      -4.964  91.020 -12.675  1.00  0.00     0.111 A 
ATOM      6  C   UNL     1      -5.094  91.086 -11.254  1.00  0.00     0.134 A 
ATOM      7  C   UNL     1      -4.628  92.215 -10.569  1.00  0.00     0.093 A 
ATOM      8  C   UNL     1      -4.099  93.306 -11.256  1.00  0.00     0.123 A 
ATOM      9  C   UNL     1      -4.018  93.277 -12.648  1.00  0.00     0.094 A 
ATOM     10  C   UNL     1      -4.438  92.148 -13.357  1.00  0.00     0.146 A 
ATOM     11  O   UNL     1      -4.324  92.153 -14.680  1.00  0.00    -0.452 OA
ENDROOT
BRANCH   1  12
ATOM     12  C   UNL     1      -4.488  91.261 -16.912  1.00  0.00     0.021 A 
ATOM     13  C   UNL     1      -5.605  91.532 -17.719  1.00  0.00     0.016 A 
ATOM     14  C   UNL     1      -5.461  91.687 -19.101  1.00  0.00     0.047 A 
ATOM     15  C   UNL     1      -4.197  91.587 -19.692  1.00  0.00     0.115 A 
ATOM     16  C   UNL     1      -3.217  91.182 -17.509  1.00  0.00     0.016 A 
ATOM     17  C   UNL     1      -3.075  91.338 -18.891  1.00  0.00     0.047 A 
BRANCH  15  18
ATOM     18  O   UNL     1      -4.068  91.742 -21.069  1.00  0.00    -0.508 OA
ATOM     19  H   UNL     1      -3.873  90.954 -21.676  1.00  0.00     0.293 HD
ENDBRANCH  15  18
ENDBRANCH   1  12
BRANCH   2  20
ATOM     20  O   UNL     1      -5.577  88.883 -15.663  1.00  0.00    -0.502 OA
ATOM     21  H   UNL     1      -6.172  89.004 -16.474  1.00  0.00     0.293 HD
ENDBRANCH   2  20
BRANCH   6  22
ATOM     22  O   UNL     1      -5.689  90.088 -10.475  1.00  0.00    -0.507 OA
ATOM     23  H   UNL     1      -6.669  89.849 -10.492  1.00  0.00     0.293 HD
ENDBRANCH   6  22
BRANCH   8  24
ATOM     24  O   UNL     1      -3.661  94.421 -10.543  1.00  0.00    -0.508 OA
ATOM     25  H   UNL     1      -4.187  94.788  -9.757  1.00  0.00     0.293 HD
ENDBRANCH   8  24
TORSDOF 5
ENDMDL
MODEL 3
REMARK VINA RESULT:    -4.907      9.315     11.325
REMARK INTER + INTRA:          -6.062
REMARK INTER:                  -5.880
REMARK INTRA:                  -0.182
REMARK UNBOUND:                -0.295
REMARK SMILES O=c1c(O)c(-c2ccc(O)cc2)oc2cc(O)cc(O)c12
REMARK SMILES IDX 5 1 3 2 2 3 1 4 21 5 19 6 18 7 16 8 15 9 14 10 13 11 6 12
REMARK SMILES IDX 7 13 8 14 9 15 12 16 11 17 10 18 4 20 20 22 17 24
REMARK H PARENT 10 19 4 21 20 23 17 25
REMARK Flexibility Score: inf
ROOT
ATOM      1  C   UNL     1      -5.751  91.393 -14.339  1.00  0.00     0.180 A 
ATOM      2  C   UNL     1      -4.985  92.186 -13.467  1.00  0.00     0.208 A 
ATOM      3  C   UNL     1      -4.890  91.816 -12.116  1.00  0.00     0.238 A 
ATOM      4  O   UNL     1      -4.265  92.572 -11.327  1.00  0.00    -0.285 OA
ATOM      5  C   UNL     1      -5.514  90.629 -11.665  1.00  0.00     0.111 A 
ATOM      6  C   UNL     1      -5.445  90.132 -10.327  1.00  0.00     0.134 A 
ATOM      7  C   UNL     1      -6.191  89.001  -9.971  1.00  0.00     0.093 A 
ATOM      8  C   UNL     1      -6.949  88.312 -10.915  1.00  0.00     0.123 A 
ATOM      9  C   UNL     1      -6.979  88.755 -12.238  1.00  0.00     0.094 A 
ATOM     10  C   UNL     1      -6.277  89.903 -12.615  1.00  0.00     0.146 A 
ATOM     11  O   UNL     1      -6.351  90.302 -13.879  1.00  0.00    -0.452 OA
ENDROOT
BRANCH   1  12
ATOM     12  C   UNL     1      -5.911  91.726 -15.772  1.00  0.00     0.021 A 
ATOM     13  C   UNL     1      -5.392  90.857 -16.746  1.00  0.00     0.016 A 
ATOM     14  C   UNL     1      -5.551  91.139 -18.106  1.00  0.00     0.047 A 
ATOM     15  C   UNL     1      -6.243  92.285 -18.510  1.00  0.00     0.115 A 
ATOM     16  C   UNL     1      -6.623  92.867 -16.185  1.00  0.00     0.016 A 
ATOM     17  C   UNL     1      -6.782  93.147 -17.546  1.00  0.00     0.047 A 
BRANCH  15  18
ATOM     18  O   UNL     1      -6.393  92.555 -19.868  1.00  0.00    -0.508 OA
ATOM     19  H   UNL     1      -6.030  91.927 -20.577  1.00  0.00     0.293 HD
ENDBRANCH  15  18
ENDBRANCH   1  12
BRANCH   2  20
ATOM     20  O   UNL     1      -4.314  93.314 -13.949  1.00  0.00    -0.502 OA
ATOM     21  H   UNL     1      -3.879  93.992 -13.333  1.00  0.00     0.293 HD
ENDBRANCH   2  20
BRANCH   6  22
ATOM     22  O   UNL     1      -4.648  90.692  -9.324  1.00  0.00    -0.507 OA
ATOM     23  H   UNL     1      -4.620  90.379  -8.365  1.00  0.00     0.293 HD
ENDBRANCH   6  22
BRANCH   8  24
ATOM     24  O   UNL     1      -7.664  87.180 -10.529  1.00  0.00    -0.508 OA
ATOM     25  H   UNL     1      -7.489  86.719  -9.644  1.00  0.00     0.293 HD
ENDBRANCH   8  24
TORSDOF 5
ENDMDL
MODEL 4
REMARK VINA RESULT:    -4.887      1.724      7.049
REMARK INTER + INTRA:          -6.039
REMARK INTER:                  -5.795
REMARK INTRA:                  -0.244
REMARK UNBOUND:                -0.295
REMARK SMILES O=c1c(O)c(-c2ccc(O)cc2)oc2cc(O)cc(O)c12
REMARK SMILES IDX 5 1 3 2 2 3 1 4 21 5 19 6 18 7 16 8 15 9 14 10 13 11 6 12
REMARK SMILES IDX 7 13 8 14 9 15 12 16 11 17 10 18 4 20 20 22 17 24
REMARK H PARENT 10 19 4 21 20 23 17 25
REMARK Flexibility Score: inf
ROOT
ATOM      1  C   UNL     1      -9.131  83.384  -8.358  1.00  0.00     0.180 A 
ATOM      2  C   UNL     1      -8.870  83.481  -6.980  1.00  0.00     0.208 A 
ATOM      3  C   UNL     1      -7.546  83.372  -6.528  1.00  0.00     0.238 A 
ATOM      4  O   UNL     1      -7.329  83.384  -5.289  1.00  0.00    -0.285 OA
ATOM      5  C   UNL     1      -6.492  83.222  -7.462  1.00  0.00     0.111 A 
ATOM      6  C   UNL     1      -5.108  83.146  -7.120  1.00  0.00     0.134 A 
ATOM      7  C   UNL     1      -4.162  82.891  -8.121  1.00  0.00     0.093 A 
ATOM      8  C   UNL     1      -4.541  82.775  -9.457  1.00  0.00     0.123 A 
ATOM      9  C   UNL     1      -5.884  82.902  -9.811  1.00  0.00     0.094 A 
ATOM     10  C   UNL     1      -6.856  83.117  -8.830  1.00  0.00     0.146 A 
ATOM     11  O   UNL     1      -8.126  83.211  -9.207  1.00  0.00    -0.452 OA
ENDROOT
BRANCH   1  12
ATOM     12  C   UNL     1     -10.502  83.475  -8.909  1.00  0.00     0.021 A 
ATOM     13  C   UNL     1     -11.184  82.299  -9.262  1.00  0.00     0.016 A 
ATOM     14  C   UNL     1     -12.487  82.359  -9.764  1.00  0.00     0.047 A 
ATOM     15  C   UNL     1     -13.131  83.592  -9.906  1.00  0.00     0.115 A 
ATOM     16  C   UNL     1     -11.161  84.711  -9.035  1.00  0.00     0.016 A 
ATOM     17  C   UNL     1     -12.465  84.769  -9.537  1.00  0.00     0.047 A 
BRANCH  15  18
ATOM     18  O   UNL     1     -14.429  83.638 -10.408  1.00  0.00    -0.508 OA
ATOM     19  H   UNL     1     -15.233  83.708  -9.794  1.00  0.00     0.293 HD
ENDBRANCH  15  18
ENDBRANCH   1  12
BRANCH   2  20
ATOM     20  O   UNL     1      -9.917  83.706  -6.081  1.00  0.00    -0.502 OA
ATOM     21  H   UNL     1     -10.606  82.996  -5.861  1.00  0.00     0.293 HD
ENDBRANCH   2  20
BRANCH   6  22
ATOM     22  O   UNL     1      -4.609  83.336  -5.827  1.00  0.00    -0.507 OA
ATOM     23  H   UNL     1      -4.586  84.219  -5.340  1.00  0.00     0.293 HD
ENDBRANCH   6  22
BRANCH   8  24
ATOM     24  O   UNL     1      -3.570  82.539 -10.428  1.00  0.00    -0.508 OA
ATOM     25  H   UNL     1      -3.151  83.297 -10.954  1.00  0.00     0.293 HD
ENDBRANCH   8  24
TORSDOF 5
ENDMDL
MODEL 5
REMARK VINA RESULT:    -4.850      4.227      7.088
REMARK INTER + INTRA:          -5.996
REMARK INTER:                  -5.755
REMARK INTRA:                  -0.241
REMARK UNBOUND:                -0.295
REMARK SMILES O=c1c(O)c(-c2ccc(O)cc2)oc2cc(O)cc(O)c12
REMARK SMILES IDX 5 1 3 2 2 3 1 4 21 5 19 6 18 7 16 8 15 9 14 10 13 11 6 12
REMARK SMILES IDX 7 13 8 14 9 15 12 16 11 17 10 18 4 20 20 22 17 24
REMARK H PARENT 10 19 4 21 20 23 17 25
REMARK Flexibility Score: inf
ROOT
ATOM      1  C   UNL     1     -13.279  81.541  -7.819  1.00  0.00     0.180 A 
ATOM      2  C   UNL     1     -12.159  80.722  -7.600  1.00  0.00     0.208 A 
ATOM      3  C   UNL     1     -12.314  79.537  -6.863  1.00  0.00     0.238 A 
ATOM      4  O   UNL     1     -11.292  78.848  -6.607  1.00  0.00    -0.285 OA
ATOM      5  C   UNL     1     -13.597  79.156  -6.402  1.00  0.00     0.111 A 
ATOM      6  C   UNL     1     -13.879  77.954  -5.685  1.00  0.00     0.134 A 
ATOM      7  C   UNL     1     -15.170  77.734  -5.187  1.00  0.00     0.093 A 
ATOM      8  C   UNL     1     -16.201  78.637  -5.434  1.00  0.00     0.123 A 
ATOM      9  C   UNL     1     -15.951  79.788  -6.181  1.00  0.00     0.094 A 
ATOM     10  C   UNL     1     -14.665  80.055  -6.658  1.00  0.00     0.146 A 
ATOM     11  O   UNL     1     -14.464  81.173  -7.346  1.00  0.00    -0.452 OA
ENDROOT
BRANCH   1  12
ATOM     12  C   UNL     1     -13.193  82.811  -8.573  1.00  0.00     0.021 A 
ATOM     13  C   UNL     1     -13.746  82.889  -9.862  1.00  0.00     0.016 A 
ATOM     14  C   UNL     1     -13.696  84.085 -10.583  1.00  0.00     0.047 A 
ATOM     15  C   UNL     1     -13.106  85.222 -10.022  1.00  0.00     0.115 A 
ATOM     16  C   UNL     1     -12.619  83.963  -8.005  1.00  0.00     0.016 A 
ATOM     17  C   UNL     1     -12.571  85.159  -8.728  1.00  0.00     0.047 A 
BRANCH  15  18
ATOM     18  O   UNL     1     -13.063  86.407 -10.752  1.00  0.00    -0.508 OA
ATOM     19  H   UNL     1     -12.687  87.261 -10.355  1.00  0.00     0.293 HD
ENDBRANCH  15  18
ENDBRANCH   1  12
BRANCH   2  20
ATOM     20  O   UNL     1     -10.914  81.077  -8.129  1.00  0.00    -0.502 OA
ATOM     21  H   UNL     1     -10.158  80.410  -8.235  1.00  0.00     0.293 HD
ENDBRANCH   2  20
BRANCH   6  22
ATOM     22  O   UNL     1     -12.944  76.940  -5.457  1.00  0.00    -0.507 OA
ATOM     23  H   UNL     1     -12.182  76.993  -4.798  1.00  0.00     0.293 HD
ENDBRANCH   6  22
BRANCH   8  24
ATOM     24  O   UNL     1     -17.477  78.377  -4.938  1.00  0.00    -0.508 OA
ATOM     25  H   UNL     1     -17.640  77.653  -4.247  1.00  0.00     0.293 HD
ENDBRANCH   8  24
TORSDOF 5
ENDMDL
MODEL 6
REMARK VINA RESULT:    -4.840      6.983      9.505
REMARK INTER + INTRA:          -5.984
REMARK INTER:                  -5.696
REMARK INTRA:                  -0.289
REMARK UNBOUND:                -0.295
REMARK SMILES O=c1c(O)c(-c2ccc(O)cc2)oc2cc(O)cc(O)c12
REMARK SMILES IDX 5 1 3 2 2 3 1 4 21 5 19 6 18 7 16 8 15 9 14 10 13 11 6 12
REMARK SMILES IDX 7 13 8 14 9 15 12 16 11 17 10 18 4 20 20 22 17 24
REMARK H PARENT 10 19 4 21 20 23 17 25
REMARK Flexibility Score: inf
ROOT
ATOM      1  C   UNL     1      -4.879  90.238  -8.172  1.00  0.00     0.180 A 
ATOM      2  C   UNL     1      -3.847  89.605  -7.457  1.00  0.00     0.208 A 
ATOM      3  C   UNL     1      -3.754  88.205  -7.489  1.00  0.00     0.238 A 
ATOM      4  O   UNL     1      -2.875  87.643  -6.787  1.00  0.00    -0.285 OA
ATOM      5  C   UNL     1      -4.660  87.457  -8.280  1.00  0.00     0.111 A 
ATOM      6  C   UNL     1      -4.631  86.036  -8.423  1.00  0.00     0.134 A 
ATOM      7  C   UNL     1      -5.643  85.394  -9.148  1.00  0.00     0.093 A 
ATOM      8  C   UNL     1      -6.643  86.123  -9.788  1.00  0.00     0.123 A 
ATOM      9  C   UNL     1      -6.650  87.515  -9.702  1.00  0.00     0.094 A 
ATOM     10  C   UNL     1      -5.677  88.182  -8.953  1.00  0.00     0.146 A 
ATOM     11  O   UNL     1      -5.732  89.507  -8.879  1.00  0.00    -0.452 OA
ENDROOT
BRANCH   1  12
ATOM     12  C   UNL     1      -5.050  91.707  -8.175  1.00  0.00     0.021 A 
ATOM     13  C   UNL     1      -5.850  92.312  -7.191  1.00  0.00     0.016 A 
ATOM     14  C   UNL     1      -6.009  93.701  -7.161  1.00  0.00     0.047 A 
ATOM     15  C   UNL     1      -5.359  94.504  -8.103  1.00  0.00     0.115 A 
ATOM     16  C   UNL     1      -4.383  92.522  -9.108  1.00  0.00     0.016 A 
ATOM     17  C   UNL     1      -4.543  93.911  -9.075  1.00  0.00     0.047 A 
BRANCH  15  18
ATOM     18  O   UNL     1      -5.527  95.886  -8.061  1.00  0.00    -0.508 OA
ATOM     19  H   UNL     1      -4.868  96.513  -8.508  1.00  0.00     0.293 HD
ENDBRANCH  15  18
ENDBRANCH   1  12
BRANCH   2  20
ATOM     20  O   UNL     1      -2.917  90.367  -6.744  1.00  0.00    -0.502 OA
ATOM     21  H   UNL     1      -2.813  91.366  -6.880  1.00  0.00     0.293 HD
ENDBRANCH   2  20
BRANCH   6  22
ATOM     22  O   UNL     1      -3.626  85.216  -7.899  1.00  0.00    -0.507 OA
ATOM     23  H   UNL     1      -3.249  84.400  -8.356  1.00  0.00     0.293 HD
ENDBRANCH   6  22
BRANCH   8  24
ATOM     24  O   UNL     1      -7.624  85.452 -10.516  1.00  0.00    -0.508 OA
ATOM     25  H   UNL     1      -8.161  85.919 -11.238  1.00  0.00     0.293 HD
ENDBRANCH   8  24
TORSDOF 5
ENDMDL
MODEL 7
REMARK VINA RESULT:    -4.831      7.631     10.413
REMARK INTER + INTRA:          -5.974
REMARK INTER:                  -5.818
REMARK INTRA:                  -0.156
REMARK UNBOUND:                -0.295
REMARK SMILES O=c1c(O)c(-c2ccc(O)cc2)oc2cc(O)cc(O)c12
REMARK SMILES IDX 5 1 3 2 2 3 1 4 21 5 19 6 18 7 16 8 15 9 14 10 13 11 6 12
REMARK SMILES IDX 7 13 8 14 9 15 12 16 11 17 10 18 4 20 20 22 17 24
REMARK H PARENT 10 19 4 21 20 23 17 25
REMARK Flexibility Score: inf
ROOT
ATOM      1  C   UNL     1      -8.493  90.436 -13.139  1.00  0.00     0.180 A 
ATOM      2  C   UNL     1      -7.610  89.419 -13.541  1.00  0.00     0.208 A 
ATOM      3  C   UNL     1      -6.240  89.707 -13.642  1.00  0.00     0.238 A 
ATOM      4  O   UNL     1      -5.466  88.814 -14.074  1.00  0.00    -0.285 OA
ATOM      5  C   UNL     1      -5.761  90.991 -13.286  1.00  0.00     0.111 A 
ATOM      6  C   UNL     1      -4.387  91.381 -13.306  1.00  0.00     0.134 A 
ATOM      7  C   UNL     1      -4.043  92.711 -13.034  1.00  0.00     0.093 A 
ATOM      8  C   UNL     1      -5.011  93.648 -12.681  1.00  0.00     0.123 A 
ATOM      9  C   UNL     1      -6.350  93.266 -12.604  1.00  0.00     0.094 A 
ATOM     10  C   UNL     1      -6.730  91.956 -12.907  1.00  0.00     0.146 A 
ATOM     11  O   UNL     1      -8.018  91.640 -12.843  1.00  0.00    -0.452 OA
ENDROOT
BRANCH   1  12
ATOM     12  C   UNL     1      -9.952  90.214 -13.024  1.00  0.00     0.021 A 
ATOM     13  C   UNL     1     -10.820  90.834 -13.938  1.00  0.00     0.016 A 
ATOM     14  C   UNL     1     -12.199  90.621 -13.862  1.00  0.00     0.047 A 
ATOM     15  C   UNL     1     -12.728  89.774 -12.883  1.00  0.00     0.115 A 
ATOM     16  C   UNL     1     -10.487  89.347 -12.053  1.00  0.00     0.016 A 
ATOM     17  C   UNL     1     -11.868  89.135 -11.980  1.00  0.00     0.047 A 
BRANCH  15  18
ATOM     18  O   UNL     1     -14.104  89.571 -12.818  1.00  0.00    -0.508 OA
ATOM     19  H   UNL     1     -14.597  89.556 -11.932  1.00  0.00     0.293 HD
ENDBRANCH  15  18
ENDBRANCH   1  12
BRANCH   2  20
ATOM     20  O   UNL     1      -8.093  88.136 -13.815  1.00  0.00    -0.502 OA
ATOM     21  H   UNL     1      -8.858  87.969 -14.458  1.00  0.00     0.293 HD
ENDBRANCH   2  20
BRANCH   6  22
ATOM     22  O   UNL     1      -3.328  90.503 -13.559  1.00  0.00    -0.507 OA
ATOM     23  H   UNL     1      -3.161  90.037 -14.438  1.00  0.00     0.293 HD
ENDBRANCH   6  22
BRANCH   8  24
ATOM     24  O   UNL     1      -4.629  94.959 -12.400  1.00  0.00    -0.508 OA
ATOM     25  H   UNL     1      -4.607  95.670 -13.121  1.00  0.00     0.293 HD
ENDBRANCH   8  24
TORSDOF 5
ENDMDL
MODEL 8
REMARK VINA RESULT:    -4.781      6.170      8.823
REMARK INTER + INTRA:          -5.914
REMARK INTER:                  -5.626
REMARK INTRA:                  -0.289
REMARK UNBOUND:                -0.295
REMARK SMILES O=c1c(O)c(-c2ccc(O)cc2)oc2cc(O)cc(O)c12
REMARK SMILES IDX 5 1 3 2 2 3 1 4 21 5 19 6 18 7 16 8 15 9 14 10 13 11 6 12
REMARK SMILES IDX 7 13 8 14 9 15 12 16 11 17 10 18 4 20 20 22 17 24
REMARK H PARENT 10 19 4 21 20 23 17 25
REMARK Flexibility Score: inf
ROOT
ATOM      1  C   UNL     1      -4.571  87.565  -7.434  1.00  0.00     0.180 A 
ATOM      2  C   UNL     1      -3.921  87.093  -6.281  1.00  0.00     0.208 A 
ATOM      3  C   UNL     1      -3.619  85.726  -6.180  1.00  0.00     0.238 A 
ATOM      4  O   UNL     1      -3.105  85.299  -5.114  1.00  0.00    -0.285 OA
ATOM      5  C   UNL     1      -3.922  84.856  -7.255  1.00  0.00     0.111 A 
ATOM      6  C   UNL     1      -3.620  83.459  -7.280  1.00  0.00     0.134 A 
ATOM      7  C   UNL     1      -4.062  82.677  -8.354  1.00  0.00     0.093 A 
ATOM      8  C   UNL     1      -4.736  83.248  -9.433  1.00  0.00     0.123 A 
ATOM      9  C   UNL     1      -4.987  84.620  -9.445  1.00  0.00     0.094 A 
ATOM     10  C   UNL     1      -4.593  85.421  -8.370  1.00  0.00     0.146 A 
ATOM     11  O   UNL     1      -4.871  86.719  -8.412  1.00  0.00    -0.452 OA
ENDROOT
BRANCH   1  12
ATOM     12  C   UNL     1      -4.935  88.989  -7.608  1.00  0.00     0.021 A 
ATOM     13  C   UNL     1      -6.165  89.453  -7.114  1.00  0.00     0.016 A 
ATOM     14  C   UNL     1      -6.520  90.799  -7.247  1.00  0.00     0.047 A 
ATOM     15  C   UNL     1      -5.645  91.700  -7.860  1.00  0.00     0.115 A 
ATOM     16  C   UNL     1      -4.050  89.904  -8.206  1.00  0.00     0.016 A 
ATOM     17  C   UNL     1      -4.406  91.250  -8.336  1.00  0.00     0.047 A 
BRANCH  15  18
ATOM     18  O   UNL     1      -6.011  93.038  -7.986  1.00  0.00    -0.508 OA
ATOM     19  H   UNL     1      -6.983  93.316  -8.065  1.00  0.00     0.293 HD
ENDBRANCH  15  18
ENDBRANCH   1  12
BRANCH   2  20
ATOM     20  O   UNL     1      -3.562  87.981  -5.263  1.00  0.00    -0.502 OA
ATOM     21  H   UNL     1      -3.527  88.984  -5.404  1.00  0.00     0.293 HD
ENDBRANCH   2  20
BRANCH   6  22
ATOM     22  O   UNL     1      -2.875  82.801  -6.297  1.00  0.00    -0.507 OA
ATOM     23  H   UNL     1      -2.054  83.174  -5.847  1.00  0.00     0.293 HD
ENDBRANCH   6  22
BRANCH   8  24
ATOM     24  O   UNL     1      -5.145  82.441 -10.492  1.00  0.00    -0.508 OA
ATOM     25  H   UNL     1      -4.496  82.139 -11.210  1.00  0.00     0.293 HD
ENDBRANCH   8  24
TORSDOF 5
ENDMDL
MODEL 9
REMARK VINA RESULT:    -4.780      7.538      9.196
REMARK INTER + INTRA:          -5.914
REMARK INTER:                  -5.681
REMARK INTRA:                  -0.234
REMARK UNBOUND:                -0.295
REMARK SMILES O=c1c(O)c(-c2ccc(O)cc2)oc2cc(O)cc(O)c12
REMARK SMILES IDX 5 1 3 2 2 3 1 4 21 5 19 6 18 7 16 8 15 9 14 10 13 11 6 12
REMARK SMILES IDX 7 13 8 14 9 15 12 16 11 17 10 18 4 20 20 22 17 24
REMARK H PARENT 10 19 4 21 20 23 17 25
REMARK Flexibility Score: inf
ROOT
ATOM      1  C   UNL     1      -6.257  89.017 -11.456  1.00  0.00     0.180 A 
ATOM      2  C   UNL     1      -5.670  90.156 -10.879  1.00  0.00     0.208 A 
ATOM      3  C   UNL     1      -5.079  91.116 -11.716  1.00  0.00     0.238 A 
ATOM      4  O   UNL     1      -4.490  92.095 -11.189  1.00  0.00    -0.285 OA
ATOM      5  C   UNL     1      -5.130  90.953 -13.121  1.00  0.00     0.111 A 
ATOM      6  C   UNL     1      -4.604  91.886 -14.067  1.00  0.00     0.134 A 
ATOM      7  C   UNL     1      -4.618  91.568 -15.431  1.00  0.00     0.093 A 
ATOM      8  C   UNL     1      -5.197  90.386 -15.890  1.00  0.00     0.123 A 
ATOM      9  C   UNL     1      -5.764  89.493 -14.980  1.00  0.00     0.094 A 
ATOM     10  C   UNL     1      -5.730  89.763 -13.609  1.00  0.00     0.146 A 
ATOM     11  O   UNL     1      -6.261  88.877 -12.776  1.00  0.00    -0.452 OA
ENDROOT
BRANCH   1  12
ATOM     12  C   UNL     1      -6.887  87.955 -10.640  1.00  0.00     0.021 A 
ATOM     13  C   UNL     1      -8.164  88.168 -10.096  1.00  0.00     0.016 A 
ATOM     14  C   UNL     1      -8.788  87.170  -9.340  1.00  0.00     0.047 A 
ATOM     15  C   UNL     1      -8.150  85.943  -9.131  1.00  0.00     0.115 A 
ATOM     16  C   UNL     1      -6.259  86.712 -10.443  1.00  0.00     0.016 A 
ATOM     17  C   UNL     1      -6.885  85.715  -9.688  1.00  0.00     0.047 A 
BRANCH  15  18
ATOM     18  O   UNL     1      -8.783  84.959  -8.376  1.00  0.00    -0.508 OA
ATOM     19  H   UNL     1      -9.786  84.820  -8.420  1.00  0.00     0.293 HD
ENDBRANCH  15  18
ENDBRANCH   1  12
BRANCH   2  20
ATOM     20  O   UNL     1      -5.697  90.335  -9.493  1.00  0.00    -0.502 OA
ATOM     21  H   UNL     1      -5.035  90.932  -9.009  1.00  0.00     0.293 HD
ENDBRANCH   2  20
BRANCH   6  22
ATOM     22  O   UNL     1      -4.082  93.138 -13.726  1.00  0.00    -0.507 OA
ATOM     23  H   UNL     1      -3.188  93.493 -14.027  1.00  0.00     0.293 HD
ENDBRANCH   6  22
BRANCH   8  24
ATOM     24  O   UNL     1      -5.208  90.111 -17.256  1.00  0.00    -0.508 OA
ATOM     25  H   UNL     1      -5.013  89.183 -17.611  1.00  0.00     0.293 HD
ENDBRANCH   8  24
TORSDOF 5
ENDMDL
