MODEL 1
REMARK VINA RESULT:    -5.131      0.000      0.000
REMARK INTER + INTRA:          -5.974
REMARK INTER:                  -5.881
REMARK INTRA:                  -0.093
REMARK UNBOUND:                -0.093
REMARK SMILES COc1cc(C(=O)[O-])ccc1O
REMARK SMILES IDX 5 1 9 2 4 3 10 4 3 5 11 6 6 7 7 8 8 9 2 10 1 11 12 12
REMARK H PARENT 12 13
REMARK Flexibility Score: inf
ROOT
ATOM      1  C   UNL     1      13.215  19.910  36.793  1.00  0.00     0.001 A 
ATOM      2  C   UNL     1      14.368  20.246  37.521  1.00  0.00     0.014 A 
ATOM      3  C   UNL     1      12.455  18.796  37.193  1.00  0.00     0.060 A 
ATOM      4  C   UNL     1      14.754  19.484  38.626  1.00  0.00     0.051 A 
ATOM      5  C   UNL     1      12.840  18.024  38.309  1.00  0.00     0.161 A 
ATOM      6  C   UNL     1      13.995  18.377  39.021  1.00  0.00     0.157 A 
ENDROOT
BRANCH   1   7
ATOM      7  C   UNL     1      12.810  20.719  35.623  1.00  0.00     0.072 C 
ATOM      8  O   UNL     1      13.476  21.732  35.281  1.00  0.00    -0.545 OA
ATOM      9  O   UNL     1      11.686  20.372  34.881  1.00  0.00    -0.545 OA
ENDBRANCH   1   7
BRANCH   5  10
ATOM     10  O   UNL     1      12.107  16.906  38.737  1.00  0.00    -0.493 OA
ATOM     11  C   UNL     1      11.676  15.850  37.884  1.00  0.00     0.278 C 
ENDBRANCH   5  10
BRANCH   6  12
ATOM     12  O   UNL     1      14.381  17.618  40.125  1.00  0.00    -0.504 OA
ATOM     13  H   UNL     1      13.698  17.208  40.752  1.00  0.00     0.293 HD
ENDBRANCH   6  12
TORSDOF 3
ENDMDL
MODEL 2
REMARK VINA RESULT:    -4.877      1.011      4.338
REMARK INTER + INTRA:          -5.683
REMARK INTER:                  -5.608
REMARK INTRA:                  -0.075
REMARK UNBOUND:                -0.093
REMARK SMILES COc1cc(C(=O)[O-])ccc1O
REMARK SMILES IDX 5 1 9 2 4 3 10 4 3 5 11 6 6 7 7 8 8 9 2 10 1 11 12 12
REMARK H PARENT 12 13
REMARK Flexibility Score: inf
ROOT
ATOM      1  C   UNL     1      13.457  18.865  38.073  1.00  0.00     0.001 A 
ATOM      2  C   UNL     1      14.567  19.714  38.210  1.00  0.00     0.014 A 
ATOM      3  C   UNL     1      12.523  19.120  37.052  1.00  0.00     0.060 A 
ATOM      4  C   UNL     1      14.741  20.796  37.345  1.00  0.00     0.051 A 
ATOM      5  C   UNL     1      12.695  20.212  36.176  1.00  0.00     0.161 A 
ATOM      6  C   UNL     1      13.810  21.047  36.331  1.00  0.00     0.157 A 
ENDROOT
BRANCH   1   7
ATOM      7  C   UNL     1      13.277  17.720  38.993  1.00  0.00     0.072 C 
ATOM      8  O   UNL     1      13.830  17.711  40.124  1.00  0.00    -0.545 OA
ATOM      9  O   UNL     1      12.491  16.634  38.620  1.00  0.00    -0.545 OA
ENDBRANCH   1   7
BRANCH   5  10
ATOM     10  O   UNL     1      11.784  20.497  35.147  1.00  0.00    -0.493 OA
ATOM     11  C   UNL     1      10.648  21.345  35.288  1.00  0.00     0.278 C 
ENDBRANCH   5  10
BRANCH   6  12
ATOM     12  O   UNL     1      13.985  22.127  35.468  1.00  0.00    -0.504 OA
ATOM     13  H   UNL     1      14.869  22.620  35.406  1.00  0.00     0.293 HD
ENDBRANCH   6  12
TORSDOF 3
ENDMDL
MODEL 3
REMARK VINA RESULT:    -4.866      1.282      1.722
REMARK INTER + INTRA:          -5.670
REMARK INTER:                  -5.594
REMARK INTRA:                  -0.076
REMARK UNBOUND:                -0.093
REMARK SMILES COc1cc(C(=O)[O-])ccc1O
REMARK SMILES IDX 5 1 9 2 4 3 10 4 3 5 11 6 6 7 7 8 8 9 2 10 1 11 12 12
REMARK H PARENT 12 13
REMARK Flexibility Score: inf
ROOT
ATOM      1  C   UNL     1      12.667  20.213  36.078  1.00  0.00     0.001 A 
ATOM      2  C   UNL     1      13.791  21.043  36.221  1.00  0.00     0.014 A 
ATOM      3  C   UNL     1      12.515  19.113  36.942  1.00  0.00     0.060 A 
ATOM      4  C   UNL     1      14.743  20.780  37.208  1.00  0.00     0.051 A 
ATOM      5  C   UNL     1      13.474  18.845  37.940  1.00  0.00     0.161 A 
ATOM      6  C   UNL     1      14.588  19.686  38.066  1.00  0.00     0.157 A 
ENDROOT
BRANCH   1   7
ATOM      7  C   UNL     1      11.661  20.495  35.030  1.00  0.00     0.072 C 
ATOM      8  O   UNL     1      11.395  19.637  34.147  1.00  0.00    -0.545 OA
ATOM      9  O   UNL     1      10.992  21.714  35.006  1.00  0.00    -0.545 OA
ENDBRANCH   1   7
BRANCH   5  10
ATOM     10  O   UNL     1      13.355  17.757  38.820  1.00  0.00    -0.493 OA
ATOM     11  C   UNL     1      12.396  16.713  38.687  1.00  0.00     0.278 C 
ENDBRANCH   5  10
BRANCH   6  12
ATOM     12  O   UNL     1      15.539  19.425  39.051  1.00  0.00    -0.504 OA
ATOM     13  H   UNL     1      15.632  20.016  39.869  1.00  0.00     0.293 HD
ENDBRANCH   6  12
TORSDOF 3
ENDMDL
MODEL 4
REMARK VINA RESULT:    -4.799      3.184      4.174
REMARK INTER + INTRA:          -5.593
REMARK INTER:                  -5.573
REMARK INTRA:                  -0.021
REMARK UNBOUND:                -0.093
REMARK SMILES COc1cc(C(=O)[O-])ccc1O
REMARK SMILES IDX 5 1 9 2 4 3 10 4 3 5 11 6 6 7 7 8 8 9 2 10 1 11 12 12
REMARK H PARENT 12 13
REMARK Flexibility Score: inf
ROOT
ATOM      1  C   UNL     1      13.876  22.929  38.764  1.00  0.00     0.001 A 
ATOM      2  C   UNL     1      14.059  22.804  37.377  1.00  0.00     0.014 A 
ATOM      3  C   UNL     1      14.069  21.802  39.583  1.00  0.00     0.060 A 
ATOM      4  C   UNL     1      14.428  21.578  36.820  1.00  0.00     0.051 A 
ATOM      5  C   UNL     1      14.441  20.562  39.025  1.00  0.00     0.161 A 
ATOM      6  C   UNL     1      14.619  20.459  37.639  1.00  0.00     0.157 A 
ENDROOT
BRANCH   1   7
ATOM      7  C   UNL     1      13.484  24.231  39.349  1.00  0.00     0.072 C 
ATOM      8  O   UNL     1      12.495  24.315  40.125  1.00  0.00    -0.545 OA
ATOM      9  O   UNL     1      14.205  25.382  39.051  1.00  0.00    -0.545 OA
ENDBRANCH   1   7
BRANCH   5  10
ATOM     10  O   UNL     1      14.642  19.417  39.812  1.00  0.00    -0.493 OA
ATOM     11  C   UNL     1      13.674  18.389  40.003  1.00  0.00     0.278 C 
ENDBRANCH   5  10
BRANCH   6  12
ATOM     12  O   UNL     1      14.987  19.235  37.082  1.00  0.00    -0.504 OA
ATOM     13  H   UNL     1      14.295  18.551  36.798  1.00  0.00     0.293 HD
ENDBRANCH   6  12
TORSDOF 3
ENDMDL
MODEL 5
REMARK VINA RESULT:    -4.482      2.167      3.711
REMARK INTER + INTRA:          -5.230
REMARK INTER:                  -5.147
REMARK INTRA:                  -0.083
REMARK UNBOUND:                -0.093
REMARK SMILES COc1cc(C(=O)[O-])ccc1O
REMARK SMILES IDX 5 1 9 2 4 3 10 4 3 5 11 6 6 7 7 8 8 9 2 10 1 11 12 12
REMARK H PARENT 12 13
REMARK Flexibility Score: inf
ROOT
ATOM      1  C   UNL     1      13.625  21.432  37.782  1.00  0.00     0.001 A 
ATOM      2  C   UNL     1      13.839  21.926  36.485  1.00  0.00     0.014 A 
ATOM      3  C   UNL     1      12.921  20.225  37.945  1.00  0.00     0.060 A 
ATOM      4  C   UNL     1      13.360  21.229  35.374  1.00  0.00     0.051 A 
ATOM      5  C   UNL     1      12.436  19.517  36.826  1.00  0.00     0.161 A 
ATOM      6  C   UNL     1      12.661  20.028  35.540  1.00  0.00     0.157 A 
ENDROOT
BRANCH   1   7
ATOM      7  C   UNL     1      14.133  22.175  38.956  1.00  0.00     0.072 C 
ATOM      8  O   UNL     1      14.770  21.580  39.866  1.00  0.00    -0.545 OA
ATOM      9  O   UNL     1      13.916  23.543  39.072  1.00  0.00    -0.545 OA
ENDBRANCH   1   7
BRANCH   5  10
ATOM     10  O   UNL     1      11.729  18.311  36.951  1.00  0.00    -0.493 OA
ATOM     11  C   UNL     1      12.019  17.302  37.915  1.00  0.00     0.278 C 
ENDBRANCH   5  10
BRANCH   6  12
ATOM     12  O   UNL     1      12.184  19.333  34.431  1.00  0.00    -0.504 OA
ATOM     13  H   UNL     1      11.415  19.687  33.873  1.00  0.00     0.293 HD
ENDBRANCH   6  12
TORSDOF 3
ENDMDL
MODEL 6
REMARK VINA RESULT:    -4.427      3.159      4.357
REMARK INTER + INTRA:          -5.167
REMARK INTER:                  -5.079
REMARK INTRA:                  -0.087
REMARK UNBOUND:                -0.093
REMARK SMILES COc1cc(C(=O)[O-])ccc1O
REMARK SMILES IDX 5 1 9 2 4 3 10 4 3 5 11 6 6 7 7 8 8 9 2 10 1 11 12 12
REMARK H PARENT 12 13
REMARK Flexibility Score: inf
ROOT
ATOM      1  C   UNL     1      13.896  23.002  38.850  1.00  0.00     0.001 A 
ATOM      2  C   UNL     1      14.450  22.042  39.713  1.00  0.00     0.014 A 
ATOM      3  C   UNL     1      13.625  22.646  37.516  1.00  0.00     0.060 A 
ATOM      4  C   UNL     1      14.727  20.753  39.253  1.00  0.00     0.051 A 
ATOM      5  C   UNL     1      13.903  21.345  37.047  1.00  0.00     0.161 A 
ATOM      6  C   UNL     1      14.456  20.402  37.925  1.00  0.00     0.157 A 
ENDROOT
BRANCH   1   7
ATOM      7  C   UNL     1      13.605  24.366  39.342  1.00  0.00     0.072 C 
ATOM      8  O   UNL     1      14.368  25.328  39.058  1.00  0.00    -0.545 OA
ATOM      9  O   UNL     1      12.481  24.608  40.125  1.00  0.00    -0.545 OA
ENDBRANCH   1   7
BRANCH   5  10
ATOM     10  O   UNL     1      13.646  20.955  35.724  1.00  0.00    -0.493 OA
ATOM     11  C   UNL     1      12.389  20.479  35.253  1.00  0.00     0.278 C 
ENDBRANCH   5  10
BRANCH   6  12
ATOM     12  O   UNL     1      14.732  19.115  37.468  1.00  0.00    -0.504 OA
ATOM     13  H   UNL     1      15.684  18.789  37.344  1.00  0.00     0.293 HD
ENDBRANCH   6  12
TORSDOF 3
ENDMDL
MODEL 7
REMARK VINA RESULT:    -4.359     14.932     16.062
REMARK INTER + INTRA:          -5.089
REMARK INTER:                  -5.003
REMARK INTRA:                  -0.085
REMARK UNBOUND:                -0.093
REMARK SMILES COc1cc(C(=O)[O-])ccc1O
REMARK SMILES IDX 5 1 9 2 4 3 10 4 3 5 11 6 6 7 7 8 8 9 2 10 1 11 12 12
REMARK H PARENT 12 13
REMARK Flexibility Score: inf
ROOT
ATOM      1  C   UNL     1      27.829  16.701  32.548  1.00  0.00     0.001 A 
ATOM      2  C   UNL     1      28.690  17.618  31.924  1.00  0.00     0.014 A 
ATOM      3  C   UNL     1      26.821  16.083  31.786  1.00  0.00     0.060 A 
ATOM      4  C   UNL     1      28.548  17.912  30.566  1.00  0.00     0.051 A 
ATOM      5  C   UNL     1      26.674  16.375  30.415  1.00  0.00     0.161 A 
ATOM      6  C   UNL     1      27.544  17.294  29.811  1.00  0.00     0.157 A 
ENDROOT
BRANCH   1   7
ATOM      7  C   UNL     1      27.984  16.394  33.987  1.00  0.00     0.072 C 
ATOM      8  O   UNL     1      27.082  16.703  34.811  1.00  0.00    -0.545 OA
ATOM      9  O   UNL     1      29.130  15.758  34.453  1.00  0.00    -0.545 OA
ENDBRANCH   1   7
BRANCH   5  10
ATOM     10  O   UNL     1      25.680  15.778  29.624  1.00  0.00    -0.493 OA
ATOM     11  C   UNL     1      24.304  15.694  29.984  1.00  0.00     0.278 C 
ENDBRANCH   5  10
BRANCH   6  12
ATOM     12  O   UNL     1      27.403  17.587  28.456  1.00  0.00    -0.504 OA
ATOM     13  H   UNL     1      27.699  18.478  28.072  1.00  0.00     0.293 HD
ENDBRANCH   6  12
TORSDOF 3
ENDMDL
MODEL 8
REMARK VINA RESULT:    -4.194     15.062     15.885
REMARK INTER + INTRA:          -4.899
REMARK INTER:                  -4.798
REMARK INTRA:                  -0.101
REMARK UNBOUND:                -0.093
REMARK SMILES COc1cc(C(=O)[O-])ccc1O
REMARK SMILES IDX 5 1 9 2 4 3 10 4 3 5 11 6 6 7 7 8 8 9 2 10 1 11 12 12
REMARK H PARENT 12 13
REMARK Flexibility Score: inf
ROOT
ATOM      1  C   UNL     1      28.118  16.797  31.644  1.00  0.00     0.001 A 
ATOM      2  C   UNL     1      29.059  15.764  31.506  1.00  0.00     0.014 A 
ATOM      3  C   UNL     1      27.469  16.971  32.880  1.00  0.00     0.060 A 
ATOM      4  C   UNL     1      29.347  14.921  32.582  1.00  0.00     0.051 A 
ATOM      5  C   UNL     1      27.757  16.122  33.969  1.00  0.00     0.161 A 
ATOM      6  C   UNL     1      28.699  15.097  33.810  1.00  0.00     0.157 A 
ENDROOT
BRANCH   1   7
ATOM      7  C   UNL     1      27.817  17.687  30.501  1.00  0.00     0.072 C 
ATOM      8  O   UNL     1      28.698  17.948  29.640  1.00  0.00    -0.545 OA
ATOM      9  O   UNL     1      26.552  18.249  30.360  1.00  0.00    -0.545 OA
ENDBRANCH   1   7
BRANCH   5  10
ATOM     10  O   UNL     1      27.129  16.266  35.216  1.00  0.00    -0.493 OA
ATOM     11  C   UNL     1      25.823  15.786  35.522  1.00  0.00     0.278 C 
ENDBRANCH   5  10
BRANCH   6  12
ATOM     12  O   UNL     1      28.987  14.255  34.883  1.00  0.00    -0.504 OA
ATOM     13  H   UNL     1      29.704  14.487  35.562  1.00  0.00     0.293 HD
ENDBRANCH   6  12
TORSDOF 3
ENDMDL
MODEL 9
REMARK VINA RESULT:    -4.166     15.352     16.687
REMARK INTER + INTRA:          -4.867
REMARK INTER:                  -4.771
REMARK INTRA:                  -0.097
REMARK UNBOUND:                -0.093
REMARK SMILES COc1cc(C(=O)[O-])ccc1O
REMARK SMILES IDX 5 1 9 2 4 3 10 4 3 5 11 6 6 7 7 8 8 9 2 10 1 11 12 12
REMARK H PARENT 12 13
REMARK Flexibility Score: inf
ROOT
ATOM      1  C   UNL     1      27.722  16.166  32.692  1.00  0.00     0.001 A 
ATOM      2  C   UNL     1      26.805  15.246  32.159  1.00  0.00     0.014 A 
ATOM      3  C   UNL     1      28.257  17.161  31.853  1.00  0.00     0.060 A 
ATOM      4  C   UNL     1      26.430  15.318  30.816  1.00  0.00     0.051 A 
ATOM      5  C   UNL     1      27.881  17.238  30.497  1.00  0.00     0.161 A 
ATOM      6  C   UNL     1      26.964  16.309  29.985  1.00  0.00     0.157 A 
ENDROOT
BRANCH   1   7
ATOM      7  C   UNL     1      28.116  16.086  34.116  1.00  0.00     0.072 C 
ATOM      8  O   UNL     1      27.276  16.306  35.028  1.00  0.00    -0.545 OA
ATOM      9  O   UNL     1      29.423  15.764  34.467  1.00  0.00    -0.545 OA
ENDBRANCH   1   7
BRANCH   5  10
ATOM     10  O   UNL     1      28.395  18.216  29.631  1.00  0.00    -0.493 OA
ATOM     11  C   UNL     1      29.689  18.170  29.039  1.00  0.00     0.278 C 
ENDBRANCH   5  10
BRANCH   6  12
ATOM     12  O   UNL     1      26.589  16.380  28.644  1.00  0.00    -0.504 OA
ATOM     13  H   UNL     1      26.499  17.268  28.164  1.00  0.00     0.293 HD
ENDBRANCH   6  12
TORSDOF 3
ENDMDL
