MODEL 1
REMARK VINA RESULT:    -4.451      0.000      0.000
REMARK INTER + INTRA:         -13.458
REMARK INTER:                  -9.655
REMARK INTRA:                  -3.803
REMARK UNBOUND:                -3.803
REMARK SMILES CCCCCCCCCCCCCCCCCCCCCC(=O)[O-]
REMARK SMILES IDX 12 1 11 2 10 3 9 4 8 5 7 6 6 7 5 8 4 9 3 10 2 11 1 12 13 13
REMARK SMILES IDX 14 14 15 15 16 16 17 17 18 18 19 19 20 20 21 21 22 22 23 23
REMARK SMILES IDX 24 24
REMARK H PARENT
REMARK Flexibility Score: inf
ROOT
ATOM      1  C   UNL     1      15.030 -13.038  38.653  1.00  0.00     0.000 C 
ENDROOT
BRANCH   1   2
ATOM      2  C   UNL     1      15.883 -14.044  39.445  1.00  0.00     0.000 C 
BRANCH   2   3
ATOM      3  C   UNL     1      15.027 -15.021  40.267  1.00  0.00     0.000 C 
BRANCH   3   4
ATOM      4  C   UNL     1      15.426 -16.488  40.042  1.00  0.00    -0.000 C 
BRANCH   4   5
ATOM      5  C   UNL     1      14.443 -17.183  39.088  1.00  0.00    -0.000 C 
BRANCH   5   6
ATOM      6  C   UNL     1      14.973 -17.262  37.647  1.00  0.00    -0.000 C 
BRANCH   6   7
ATOM      7  C   UNL     1      16.510 -17.342  37.586  1.00  0.00    -0.000 C 
BRANCH   7   8
ATOM      8  C   UNL     1      17.119 -16.302  36.632  1.00  0.00    -0.000 C 
BRANCH   8   9
ATOM      9  C   UNL     1      16.057 -15.596  35.773  1.00  0.00    -0.000 C 
BRANCH   9  10
ATOM     10  C   UNL     1      16.433 -14.144  35.427  1.00  0.00    -0.000 C 
BRANCH  10  11
ATOM     11  C   UNL     1      17.889 -13.757  35.743  1.00  0.00    -0.003 C 
ATOM     12  C   UNL     1      18.724 -13.493  34.492  1.00  0.00     0.004 C 
ENDBRANCH  10  11
ENDBRANCH   9  10
ENDBRANCH   8   9
ENDBRANCH   7   8
ENDBRANCH   6   7
ENDBRANCH   5   6
ENDBRANCH   4   5
ENDBRANCH   3   4
ENDBRANCH   2   3
ENDBRANCH   1   2
BRANCH   1  13
ATOM     13  C   UNL     1      13.797 -13.688  38.004  1.00  0.00     0.000 C 
BRANCH  13  14
ATOM     14  C   UNL     1      12.571 -12.763  37.994  1.00  0.00     0.000 C 
BRANCH  14  15
ATOM     15  C   UNL     1      11.489 -13.278  38.951  1.00  0.00     0.000 C 
BRANCH  15  16
ATOM     16  C   UNL     1      11.660 -14.778  39.224  1.00  0.00     0.000 C 
BRANCH  16  17
ATOM     17  C   UNL     1      10.524 -15.629  38.629  1.00  0.00     0.000 C 
BRANCH  17  18
ATOM     18  C   UNL     1      10.545 -15.697  37.087  1.00  0.00     0.000 C 
BRANCH  18  19
ATOM     19  C   UNL     1      11.593 -16.696  36.564  1.00  0.00     0.000 C 
BRANCH  19  20
ATOM     20  C   UNL     1      11.337 -18.130  37.053  1.00  0.00     0.006 C 
BRANCH  20  21
ATOM     21  C   UNL     1      12.234 -19.159  36.354  1.00  0.00     0.053 C 
BRANCH  21  22
ATOM     22  C   UNL     1      12.296 -20.424  37.151  1.00  0.00     0.041 C 
ATOM     23  O   UNL     1      13.132 -20.545  38.084  1.00  0.00    -0.550 OA
ATOM     24  O   UNL     1      11.462 -21.489  36.830  1.00  0.00    -0.550 OA
ENDBRANCH  21  22
ENDBRANCH  20  21
ENDBRANCH  19  20
ENDBRANCH  18  19
ENDBRANCH  17  18
ENDBRANCH  16  17
ENDBRANCH  15  16
ENDBRANCH  14  15
ENDBRANCH  13  14
ENDBRANCH   1  13
TORSDOF 20
ENDMDL
MODEL 2
REMARK VINA RESULT:    -4.393     12.719     15.853
REMARK INTER + INTRA:         -13.332
REMARK INTER:                 -10.412
REMARK INTRA:                  -2.919
REMARK UNBOUND:                -3.803
REMARK SMILES CCCCCCCCCCCCCCCCCCCCCC(=O)[O-]
REMARK SMILES IDX 12 1 11 2 10 3 9 4 8 5 7 6 6 7 5 8 4 9 3 10 2 11 1 12 13 13
REMARK SMILES IDX 14 14 15 15 16 16 17 17 18 18 19 19 20 20 21 21 22 22 23 23
REMARK SMILES IDX 24 24
REMARK H PARENT
REMARK Flexibility Score: inf
ROOT
ATOM      1  C   UNL     1      21.319 -21.051  32.132  1.00  0.00     0.000 C 
ENDROOT
BRANCH   1   2
ATOM      2  C   UNL     1      19.908 -21.588  32.424  1.00  0.00     0.000 C 
BRANCH   2   3
ATOM      3  C   UNL     1      19.905 -22.674  33.511  1.00  0.00     0.000 C 
BRANCH   3   4
ATOM      4  C   UNL     1      19.632 -24.076  32.945  1.00  0.00    -0.000 C 
BRANCH   4   5
ATOM      5  C   UNL     1      20.944 -24.780  32.567  1.00  0.00    -0.000 C 
BRANCH   5   6
ATOM      6  C   UNL     1      21.603 -25.484  33.764  1.00  0.00    -0.000 C 
BRANCH   6   7
ATOM      7  C   UNL     1      23.133 -25.315  33.783  1.00  0.00    -0.000 C 
BRANCH   7   8
ATOM      8  C   UNL     1      23.877 -26.659  33.839  1.00  0.00    -0.000 C 
BRANCH   8   9
ATOM      9  C   UNL     1      25.107 -26.690  32.915  1.00  0.00    -0.000 C 
BRANCH   9  10
ATOM     10  C   UNL     1      24.910 -27.600  31.688  1.00  0.00    -0.000 C 
BRANCH  10  11
ATOM     11  C   UNL     1      24.800 -26.861  30.343  1.00  0.00    -0.003 C 
ATOM     12  C   UNL     1      23.487 -26.096  30.185  1.00  0.00     0.004 C 
ENDBRANCH  10  11
ENDBRANCH   9  10
ENDBRANCH   8   9
ENDBRANCH   7   8
ENDBRANCH   6   7
ENDBRANCH   5   6
ENDBRANCH   4   5
ENDBRANCH   3   4
ENDBRANCH   2   3
ENDBRANCH   1   2
BRANCH   1  13
ATOM     13  C   UNL     1      22.333 -21.425  33.227  1.00  0.00     0.000 C 
BRANCH  13  14
ATOM     14  C   UNL     1      23.775 -21.500  32.704  1.00  0.00     0.000 C 
BRANCH  14  15
ATOM     15  C   UNL     1      23.891 -22.515  31.560  1.00  0.00     0.000 C 
BRANCH  15  16
ATOM     16  C   UNL     1      25.264 -23.200  31.565  1.00  0.00     0.000 C 
BRANCH  16  17
ATOM     17  C   UNL     1      25.948 -23.181  30.187  1.00  0.00     0.000 C 
BRANCH  17  18
ATOM     18  C   UNL     1      27.191 -24.093  30.101  1.00  0.00     0.000 C 
BRANCH  18  19
ATOM     19  C   UNL     1      28.228 -23.567  29.093  1.00  0.00     0.000 C 
BRANCH  19  20
ATOM     20  C   UNL     1      28.031 -22.079  28.764  1.00  0.00     0.006 C 
BRANCH  20  21
ATOM     21  C   UNL     1      29.300 -21.427  28.201  1.00  0.00     0.053 C 
BRANCH  21  22
ATOM     22  C   UNL     1      28.963 -20.551  27.036  1.00  0.00     0.041 C 
ATOM     23  O   UNL     1      28.963 -19.299  27.164  1.00  0.00    -0.550 OA
ATOM     24  O   UNL     1      28.601 -21.120  25.821  1.00  0.00    -0.550 OA
ENDBRANCH  21  22
ENDBRANCH  20  21
ENDBRANCH  19  20
ENDBRANCH  18  19
ENDBRANCH  17  18
ENDBRANCH  16  17
ENDBRANCH  15  16
ENDBRANCH  14  15
ENDBRANCH  13  14
ENDBRANCH   1  13
TORSDOF 20
ENDMDL
MODEL 3
REMARK VINA RESULT:    -4.318      1.472      2.397
REMARK INTER + INTRA:         -13.169
REMARK INTER:                  -9.268
REMARK INTRA:                  -3.900
REMARK UNBOUND:                -3.803
REMARK SMILES CCCCCCCCCCCCCCCCCCCCCC(=O)[O-]
REMARK SMILES IDX 12 1 11 2 10 3 9 4 8 5 7 6 6 7 5 8 4 9 3 10 2 11 1 12 13 13
REMARK SMILES IDX 14 14 15 15 16 16 17 17 18 18 19 19 20 20 21 21 22 22 23 23
REMARK SMILES IDX 24 24
REMARK H PARENT
REMARK Flexibility Score: inf
ROOT
ATOM      1  C   UNL     1      12.715 -12.983  38.036  1.00  0.00     0.000 C 
ENDROOT
BRANCH   1   2
ATOM      2  C   UNL     1      14.204 -12.959  37.650  1.00  0.00     0.000 C 
BRANCH   2   3
ATOM      3  C   UNL     1      15.125 -12.802  38.871  1.00  0.00     0.000 C 
BRANCH   3   4
ATOM      4  C   UNL     1      15.901 -14.088  39.194  1.00  0.00    -0.000 C 
BRANCH   4   5
ATOM      5  C   UNL     1      15.129 -14.958  40.198  1.00  0.00    -0.000 C 
BRANCH   5   6
ATOM      6  C   UNL     1      14.883 -16.383  39.678  1.00  0.00    -0.000 C 
BRANCH   6   7
ATOM      7  C   UNL     1      15.020 -16.487  38.148  1.00  0.00    -0.000 C 
BRANCH   7   8
ATOM      8  C   UNL     1      16.247 -17.308  37.718  1.00  0.00    -0.000 C 
BRANCH   8   9
ATOM      9  C   UNL     1      16.870 -16.794  36.409  1.00  0.00    -0.000 C 
BRANCH   9  10
ATOM     10  C   UNL     1      16.081 -15.627  35.788  1.00  0.00    -0.000 C 
BRANCH  10  11
ATOM     11  C   UNL     1      16.905 -14.358  35.513  1.00  0.00    -0.003 C 
ATOM     12  C   UNL     1      18.128 -14.230  36.419  1.00  0.00     0.004 C 
ENDBRANCH  10  11
ENDBRANCH   9  10
ENDBRANCH   8   9
ENDBRANCH   7   8
ENDBRANCH   6   7
ENDBRANCH   5   6
ENDBRANCH   4   5
ENDBRANCH   3   4
ENDBRANCH   2   3
ENDBRANCH   1   2
BRANCH   1  13
ATOM     13  C   UNL     1      12.068 -14.360  37.814  1.00  0.00     0.000 C 
BRANCH  13  14
ATOM     14  C   UNL     1      10.688 -14.485  38.475  1.00  0.00     0.000 C 
BRANCH  14  15
ATOM     15  C   UNL     1      10.777 -14.221  39.983  1.00  0.00     0.000 C 
BRANCH  15  16
ATOM     16  C   UNL     1      11.463 -15.386  40.709  1.00  0.00     0.000 C 
BRANCH  16  17
ATOM     17  C   UNL     1      10.693 -16.711  40.575  1.00  0.00     0.000 C 
BRANCH  17  18
ATOM     18  C   UNL     1      11.588 -17.911  40.199  1.00  0.00     0.000 C 
BRANCH  18  19
ATOM     19  C   UNL     1      11.503 -18.252  38.700  1.00  0.00     0.000 C 
BRANCH  19  20
ATOM     20  C   UNL     1      12.670 -19.133  38.227  1.00  0.00     0.006 C 
BRANCH  20  21
ATOM     21  C   UNL     1      13.337 -19.896  39.379  1.00  0.00     0.053 C 
BRANCH  21  22
ATOM     22  C   UNL     1      13.507 -21.338  39.020  1.00  0.00     0.041 C 
ATOM     23  O   UNL     1      12.498 -22.078  38.875  1.00  0.00    -0.550 OA
ATOM     24  O   UNL     1      14.782 -21.878  38.893  1.00  0.00    -0.550 OA
ENDBRANCH  21  22
ENDBRANCH  20  21
ENDBRANCH  19  20
ENDBRANCH  18  19
ENDBRANCH  17  18
ENDBRANCH  16  17
ENDBRANCH  15  16
ENDBRANCH  14  15
ENDBRANCH  13  14
ENDBRANCH   1  13
TORSDOF 20
ENDMDL
MODEL 4
REMARK VINA RESULT:    -4.315      2.594      6.039
REMARK INTER + INTRA:         -13.163
REMARK INTER:                  -9.439
REMARK INTRA:                  -3.724
REMARK UNBOUND:                -3.803
REMARK SMILES CCCCCCCCCCCCCCCCCCCCCC(=O)[O-]
REMARK SMILES IDX 12 1 11 2 10 3 9 4 8 5 7 6 6 7 5 8 4 9 3 10 2 11 1 12 13 13
REMARK SMILES IDX 14 14 15 15 16 16 17 17 18 18 19 19 20 20 21 21 22 22 23 23
REMARK SMILES IDX 24 24
REMARK H PARENT
REMARK Flexibility Score: inf
ROOT
ATOM      1  C   UNL     1      15.026 -16.851  35.902  1.00  0.00     0.000 C 
ENDROOT
BRANCH   1   2
ATOM      2  C   UNL     1      14.658 -17.521  37.237  1.00  0.00     0.000 C 
BRANCH   2   3
ATOM      3  C   UNL     1      15.871 -17.685  38.166  1.00  0.00     0.000 C 
BRANCH   3   4
ATOM      4  C   UNL     1      15.467 -17.993  39.616  1.00  0.00    -0.000 C 
BRANCH   4   5
ATOM      5  C   UNL     1      13.957 -18.260  39.720  1.00  0.00    -0.000 C 
BRANCH   5   6
ATOM      6  C   UNL     1      13.640 -19.602  40.396  1.00  0.00    -0.000 C 
BRANCH   6   7
ATOM      7  C   UNL     1      14.378 -20.784  39.743  1.00  0.00    -0.000 C 
BRANCH   7   8
ATOM      8  C   UNL     1      13.425 -21.903  39.292  1.00  0.00    -0.000 C 
BRANCH   8   9
ATOM      9  C   UNL     1      13.519 -22.184  37.782  1.00  0.00    -0.000 C 
BRANCH   9  10
ATOM     10  C   UNL     1      12.268 -21.729  37.009  1.00  0.00    -0.000 C 
BRANCH  10  11
ATOM     11  C   UNL     1      12.279 -20.256  36.564  1.00  0.00    -0.003 C 
ATOM     12  C   UNL     1      11.337 -19.375  37.383  1.00  0.00     0.004 C 
ENDBRANCH  10  11
ENDBRANCH   9  10
ENDBRANCH   8   9
ENDBRANCH   7   8
ENDBRANCH   6   7
ENDBRANCH   5   6
ENDBRANCH   4   5
ENDBRANCH   3   4
ENDBRANCH   2   3
ENDBRANCH   1   2
BRANCH   1  13
ATOM     13  C   UNL     1      16.488 -16.377  35.861  1.00  0.00     0.000 C 
BRANCH  13  14
ATOM     14  C   UNL     1      16.628 -14.916  35.407  1.00  0.00     0.000 C 
BRANCH  14  15
ATOM     15  C   UNL     1      17.743 -14.205  36.184  1.00  0.00     0.000 C 
BRANCH  15  16
ATOM     16  C   UNL     1      17.538 -14.347  37.699  1.00  0.00     0.000 C 
BRANCH  16  17
ATOM     17  C   UNL     1      16.248 -13.672  38.194  1.00  0.00     0.000 C 
BRANCH  17  18
ATOM     18  C   UNL     1      15.776 -14.177  39.575  1.00  0.00     0.000 C 
BRANCH  18  19
ATOM     19  C   UNL     1      14.300 -14.610  39.562  1.00  0.00     0.000 C 
BRANCH  19  20
ATOM     20  C   UNL     1      13.511 -13.988  38.399  1.00  0.00     0.006 C 
BRANCH  20  21
ATOM     21  C   UNL     1      12.398 -14.909  37.882  1.00  0.00     0.053 C 
BRANCH  21  22
ATOM     22  C   UNL     1      11.059 -14.273  38.086  1.00  0.00     0.041 C 
ATOM     23  O   UNL     1      10.082 -14.612  37.369  1.00  0.00    -0.550 OA
ATOM     24  O   UNL     1      10.904 -13.269  39.034  1.00  0.00    -0.550 OA
ENDBRANCH  21  22
ENDBRANCH  20  21
ENDBRANCH  19  20
ENDBRANCH  18  19
ENDBRANCH  17  18
ENDBRANCH  16  17
ENDBRANCH  15  16
ENDBRANCH  14  15
ENDBRANCH  13  14
ENDBRANCH   1  13
TORSDOF 20
ENDMDL
MODEL 5
REMARK VINA RESULT:    -4.308      1.740      4.906
REMARK INTER + INTRA:         -13.147
REMARK INTER:                  -9.240
REMARK INTRA:                  -3.907
REMARK UNBOUND:                -3.803
REMARK SMILES CCCCCCCCCCCCCCCCCCCCCC(=O)[O-]
REMARK SMILES IDX 12 1 11 2 10 3 9 4 8 5 7 6 6 7 5 8 4 9 3 10 2 11 1 12 13 13
REMARK SMILES IDX 14 14 15 15 16 16 17 17 18 18 19 19 20 20 21 21 22 22 23 23
REMARK SMILES IDX 24 24
REMARK H PARENT
REMARK Flexibility Score: inf
ROOT
ATOM      1  C   UNL     1      15.530 -15.750  36.054  1.00  0.00     0.000 C 
ENDROOT
BRANCH   1   2
ATOM      2  C   UNL     1      16.998 -15.314  36.200  1.00  0.00     0.000 C 
BRANCH   2   3
ATOM      3  C   UNL     1      17.160 -14.086  37.111  1.00  0.00     0.000 C 
BRANCH   3   4
ATOM      4  C   UNL     1      15.940 -13.154  37.067  1.00  0.00    -0.000 C 
BRANCH   4   5
ATOM      5  C   UNL     1      15.306 -13.013  38.459  1.00  0.00    -0.000 C 
BRANCH   5   6
ATOM      6  C   UNL     1      15.862 -14.031  39.467  1.00  0.00    -0.000 C 
BRANCH   6   7
ATOM      7  C   UNL     1      14.781 -14.990  39.998  1.00  0.00    -0.000 C 
BRANCH   7   8
ATOM      8  C   UNL     1      13.448 -14.856  39.243  1.00  0.00    -0.000 C 
BRANCH   8   9
ATOM      9  C   UNL     1      12.352 -15.772  39.816  1.00  0.00    -0.000 C 
BRANCH   9  10
ATOM     10  C   UNL     1      11.223 -16.057  38.809  1.00  0.00    -0.000 C 
BRANCH  10  11
ATOM     11  C   UNL     1      11.695 -16.437  37.394  1.00  0.00    -0.003 C 
ATOM     12  C   UNL     1      10.545 -16.591  36.401  1.00  0.00     0.004 C 
ENDBRANCH  10  11
ENDBRANCH   9  10
ENDBRANCH   8   9
ENDBRANCH   7   8
ENDBRANCH   6   7
ENDBRANCH   5   6
ENDBRANCH   4   5
ENDBRANCH   3   4
ENDBRANCH   2   3
ENDBRANCH   1   2
BRANCH   1  13
ATOM     13  C   UNL     1      15.214 -17.035  36.836  1.00  0.00     0.000 C 
BRANCH  13  14
ATOM     14  C   UNL     1      16.385 -17.503  37.713  1.00  0.00     0.000 C 
BRANCH  14  15
ATOM     15  C   UNL     1      15.883 -18.343  38.894  1.00  0.00     0.000 C 
BRANCH  15  16
ATOM     16  C   UNL     1      14.376 -18.609  38.782  1.00  0.00     0.000 C 
BRANCH  16  17
ATOM     17  C   UNL     1      13.793 -19.285  40.036  1.00  0.00     0.000 C 
BRANCH  17  18
ATOM     18  C   UNL     1      12.259 -19.456  39.989  1.00  0.00     0.000 C 
BRANCH  18  19
ATOM     19  C   UNL     1      11.773 -19.968  38.621  1.00  0.00     0.000 C 
BRANCH  19  20
ATOM     20  C   UNL     1      11.972 -21.482  38.452  1.00  0.00     0.006 C 
BRANCH  20  21
ATOM     21  C   UNL     1      12.838 -21.830  37.235  1.00  0.00     0.053 C 
BRANCH  21  22
ATOM     22  C   UNL     1      13.957 -22.740  37.635  1.00  0.00     0.041 C 
ATOM     23  O   UNL     1      14.142 -23.824  37.022  1.00  0.00    -0.550 OA
ATOM     24  O   UNL     1      14.766 -22.413  38.717  1.00  0.00    -0.550 OA
ENDBRANCH  21  22
ENDBRANCH  20  21
ENDBRANCH  19  20
ENDBRANCH  18  19
ENDBRANCH  17  18
ENDBRANCH  16  17
ENDBRANCH  15  16
ENDBRANCH  14  15
ENDBRANCH  13  14
ENDBRANCH   1  13
TORSDOF 20
ENDMDL
MODEL 6
REMARK VINA RESULT:    -4.280      2.995      6.216
REMARK INTER + INTRA:         -13.086
REMARK INTER:                  -9.718
REMARK INTRA:                  -3.369
REMARK UNBOUND:                -3.803
REMARK SMILES CCCCCCCCCCCCCCCCCCCCCC(=O)[O-]
REMARK SMILES IDX 12 1 11 2 10 3 9 4 8 5 7 6 6 7 5 8 4 9 3 10 2 11 1 12 13 13
REMARK SMILES IDX 14 14 15 15 16 16 17 17 18 18 19 19 20 20 21 21 22 22 23 23
REMARK SMILES IDX 24 24
REMARK H PARENT
REMARK Flexibility Score: inf
ROOT
ATOM      1  C   UNL     1      14.013 -16.510  39.695  1.00  0.00     0.000 C 
ENDROOT
BRANCH   1   2
ATOM      2  C   UNL     1      15.128 -17.559  39.851  1.00  0.00     0.000 C 
BRANCH   2   3
ATOM      3  C   UNL     1      14.960 -18.744  38.886  1.00  0.00     0.000 C 
BRANCH   3   4
ATOM      4  C   UNL     1      14.915 -20.096  39.614  1.00  0.00    -0.000 C 
BRANCH   4   5
ATOM      5  C   UNL     1      13.871 -20.078  40.741  1.00  0.00    -0.000 C 
BRANCH   5   6
ATOM      6  C   UNL     1      12.699 -21.037  40.475  1.00  0.00    -0.000 C 
BRANCH   6   7
ATOM      7  C   UNL     1      11.674 -20.458  39.483  1.00  0.00    -0.000 C 
BRANCH   7   8
ATOM      8  C   UNL     1      11.471 -21.355  38.251  1.00  0.00    -0.000 C 
BRANCH   8   9
ATOM      9  C   UNL     1      12.422 -20.994  37.097  1.00  0.00    -0.000 C 
BRANCH   9  10
ATOM     10  C   UNL     1      12.062 -19.660  36.419  1.00  0.00    -0.000 C 
BRANCH  10  11
ATOM     11  C   UNL     1      10.560 -19.449  36.156  1.00  0.00    -0.003 C 
ATOM     12  C   UNL     1      10.059 -18.079  36.608  1.00  0.00     0.004 C 
ENDBRANCH  10  11
ENDBRANCH   9  10
ENDBRANCH   8   9
ENDBRANCH   7   8
ENDBRANCH   6   7
ENDBRANCH   5   6
ENDBRANCH   4   5
ENDBRANCH   3   4
ENDBRANCH   2   3
ENDBRANCH   1   2
BRANCH   1  13
ATOM     13  C   UNL     1      13.019 -16.865  38.577  1.00  0.00     0.000 C 
BRANCH  13  14
ATOM     14  C   UNL     1      12.623 -15.651  37.723  1.00  0.00     0.000 C 
BRANCH  14  15
ATOM     15  C   UNL     1      12.301 -14.441  38.608  1.00  0.00     0.000 C 
BRANCH  15  16
ATOM     16  C   UNL     1      12.767 -13.135  37.948  1.00  0.00     0.000 C 
BRANCH  16  17
ATOM     17  C   UNL     1      14.252 -13.163  37.547  1.00  0.00     0.000 C 
BRANCH  17  18
ATOM     18  C   UNL     1      15.210 -12.786  38.697  1.00  0.00     0.000 C 
BRANCH  18  19
ATOM     19  C   UNL     1      16.278 -13.867  38.941  1.00  0.00     0.000 C 
BRANCH  19  20
ATOM     20  C   UNL     1      16.549 -14.723  37.694  1.00  0.00     0.006 C 
BRANCH  20  21
ATOM     21  C   UNL     1      17.869 -14.356  37.004  1.00  0.00     0.053 C 
BRANCH  21  22
ATOM     22  C   UNL     1      17.624 -13.982  35.576  1.00  0.00     0.041 C 
ATOM     23  O   UNL     1      18.499 -13.351  34.928  1.00  0.00    -0.550 OA
ATOM     24  O   UNL     1      16.409 -14.289  34.975  1.00  0.00    -0.550 OA
ENDBRANCH  21  22
ENDBRANCH  20  21
ENDBRANCH  19  20
ENDBRANCH  18  19
ENDBRANCH  17  18
ENDBRANCH  16  17
ENDBRANCH  15  16
ENDBRANCH  14  15
ENDBRANCH  13  14
ENDBRANCH   1  13
TORSDOF 20
ENDMDL
MODEL 7
REMARK VINA RESULT:    -4.236      2.974      5.993
REMARK INTER + INTRA:         -12.991
REMARK INTER:                  -9.067
REMARK INTRA:                  -3.924
REMARK UNBOUND:                -3.803
REMARK SMILES CCCCCCCCCCCCCCCCCCCCCC(=O)[O-]
REMARK SMILES IDX 12 1 11 2 10 3 9 4 8 5 7 6 6 7 5 8 4 9 3 10 2 11 1 12 13 13
REMARK SMILES IDX 14 14 15 15 16 16 17 17 18 18 19 19 20 20 21 21 22 22 23 23
REMARK SMILES IDX 24 24
REMARK H PARENT
REMARK Flexibility Score: inf
ROOT
ATOM      1  C   UNL     1      13.357 -20.616  38.598  1.00  0.00     0.000 C 
ENDROOT
BRANCH   1   2
ATOM      2  C   UNL     1      13.481 -19.982  39.994  1.00  0.00     0.000 C 
BRANCH   2   3
ATOM      3  C   UNL     1      14.372 -18.729  39.995  1.00  0.00     0.000 C 
BRANCH   3   4
ATOM      4  C   UNL     1      13.558 -17.426  39.995  1.00  0.00    -0.000 C 
BRANCH   4   5
ATOM      5  C   UNL     1      12.070 -17.708  40.253  1.00  0.00    -0.000 C 
BRANCH   5   6
ATOM      6  C   UNL     1      11.168 -16.531  39.853  1.00  0.00    -0.000 C 
BRANCH   6   7
ATOM      7  C   UNL     1      11.901 -15.178  39.908  1.00  0.00    -0.000 C 
BRANCH   7   8
ATOM      8  C   UNL     1      11.624 -14.303  38.674  1.00  0.00    -0.000 C 
BRANCH   8   9
ATOM      9  C   UNL     1      12.535 -13.065  38.614  1.00  0.00    -0.000 C 
BRANCH   9  10
ATOM     10  C   UNL     1      13.877 -13.343  37.911  1.00  0.00    -0.000 C 
BRANCH  10  11
ATOM     11  C   UNL     1      15.127 -13.085  38.772  1.00  0.00    -0.003 C 
ATOM     12  C   UNL     1      15.516 -14.282  39.636  1.00  0.00     0.004 C 
ENDBRANCH  10  11
ENDBRANCH   9  10
ENDBRANCH   8   9
ENDBRANCH   7   8
ENDBRANCH   6   7
ENDBRANCH   5   6
ENDBRANCH   4   5
ENDBRANCH   3   4
ENDBRANCH   2   3
ENDBRANCH   1   2
BRANCH   1  13
ATOM     13  C   UNL     1      11.896 -20.842  38.178  1.00  0.00     0.000 C 
BRANCH  13  14
ATOM     14  C   UNL     1      11.633 -20.471  36.711  1.00  0.00     0.000 C 
BRANCH  14  15
ATOM     15  C   UNL     1      12.567 -19.344  36.255  1.00  0.00     0.000 C 
BRANCH  15  16
ATOM     16  C   UNL     1      11.957 -17.966  36.548  1.00  0.00     0.000 C 
BRANCH  16  17
ATOM     17  C   UNL     1      13.013 -16.852  36.648  1.00  0.00     0.000 C 
BRANCH  17  18
ATOM     18  C   UNL     1      14.386 -17.248  36.064  1.00  0.00     0.000 C 
BRANCH  18  19
ATOM     19  C   UNL     1      15.548 -16.848  36.991  1.00  0.00     0.000 C 
BRANCH  19  20
ATOM     20  C   UNL     1      16.704 -16.176  36.233  1.00  0.00     0.006 C 
BRANCH  20  21
ATOM     21  C   UNL     1      16.260 -14.920  35.474  1.00  0.00     0.053 C 
BRANCH  21  22
ATOM     22  C   UNL     1      17.130 -13.758  35.835  1.00  0.00     0.041 C 
ATOM     23  O   UNL     1      16.663 -12.589  35.825  1.00  0.00    -0.550 OA
ATOM     24  O   UNL     1      18.472 -13.961  36.135  1.00  0.00    -0.550 OA
ENDBRANCH  21  22
ENDBRANCH  20  21
ENDBRANCH  19  20
ENDBRANCH  18  19
ENDBRANCH  17  18
ENDBRANCH  16  17
ENDBRANCH  15  16
ENDBRANCH  14  15
ENDBRANCH  13  14
ENDBRANCH   1  13
TORSDOF 20
ENDMDL
MODEL 8
REMARK VINA RESULT:    -4.225      2.179      4.374
REMARK INTER + INTRA:         -12.968
REMARK INTER:                  -9.149
REMARK INTRA:                  -3.819
REMARK UNBOUND:                -3.803
REMARK SMILES CCCCCCCCCCCCCCCCCCCCCC(=O)[O-]
REMARK SMILES IDX 12 1 11 2 10 3 9 4 8 5 7 6 6 7 5 8 4 9 3 10 2 11 1 12 13 13
REMARK SMILES IDX 14 14 15 15 16 16 17 17 18 18 19 19 20 20 21 21 22 22 23 23
REMARK SMILES IDX 24 24
REMARK H PARENT
REMARK Flexibility Score: inf
ROOT
ATOM      1  C   UNL     1      14.275 -16.471  39.317  1.00  0.00     0.000 C 
ENDROOT
BRANCH   1   2
ATOM      2  C   UNL     1      13.088 -15.780  40.009  1.00  0.00     0.000 C 
BRANCH   2   3
ATOM      3  C   UNL     1      12.475 -14.662  39.150  1.00  0.00     0.000 C 
BRANCH   3   4
ATOM      4  C   UNL     1      13.298 -14.372  37.885  1.00  0.00    -0.000 C 
BRANCH   4   5
ATOM      5  C   UNL     1      13.995 -13.007  37.985  1.00  0.00    -0.000 C 
BRANCH   5   6
ATOM      6  C   UNL     1      15.522 -13.112  37.852  1.00  0.00    -0.000 C 
BRANCH   6   7
ATOM      7  C   UNL     1      16.009 -12.867  36.412  1.00  0.00    -0.000 C 
BRANCH   7   8
ATOM      8  C   UNL     1      17.075 -13.882  35.966  1.00  0.00    -0.000 C 
BRANCH   8   9
ATOM      9  C   UNL     1      17.596 -14.739  37.132  1.00  0.00    -0.000 C 
BRANCH   9  10
ATOM     10  C   UNL     1      17.110 -16.198  37.066  1.00  0.00    -0.000 C 
BRANCH  10  11
ATOM     11  C   UNL     1      16.531 -16.630  35.707  1.00  0.00    -0.003 C 
ATOM     12  C   UNL     1      15.035 -16.937  35.763  1.00  0.00     0.004 C 
ENDBRANCH  10  11
ENDBRANCH   9  10
ENDBRANCH   8   9
ENDBRANCH   7   8
ENDBRANCH   6   7
ENDBRANCH   5   6
ENDBRANCH   4   5
ENDBRANCH   3   4
ENDBRANCH   2   3
ENDBRANCH   1   2
BRANCH   1  13
ATOM     13  C   UNL     1      14.674 -17.789  40.001  1.00  0.00     0.000 C 
BRANCH  13  14
ATOM     14  C   UNL     1      15.127 -18.866  39.003  1.00  0.00     0.000 C 
BRANCH  14  15
ATOM     15  C   UNL     1      14.762 -20.267  39.506  1.00  0.00     0.000 C 
BRANCH  15  16
ATOM     16  C   UNL     1      13.961 -20.195  40.814  1.00  0.00     0.000 C 
BRANCH  16  17
ATOM     17  C   UNL     1      12.841 -21.247  40.889  1.00  0.00     0.000 C 
BRANCH  17  18
ATOM     18  C   UNL     1      11.430 -20.664  40.658  1.00  0.00     0.000 C 
BRANCH  18  19
ATOM     19  C   UNL     1      11.415 -19.127  40.739  1.00  0.00     0.000 C 
BRANCH  19  20
ATOM     20  C   UNL     1      10.838 -18.474  39.473  1.00  0.00     0.006 C 
BRANCH  20  21
ATOM     21  C   UNL     1      10.956 -19.376  38.238  1.00  0.00     0.053 C 
BRANCH  21  22
ATOM     22  C   UNL     1      11.791 -18.715  37.188  1.00  0.00     0.041 C 
ATOM     23  O   UNL     1      11.727 -17.469  37.020  1.00  0.00    -0.550 OA
ATOM     24  O   UNL     1      12.604 -19.481  36.361  1.00  0.00    -0.550 OA
ENDBRANCH  21  22
ENDBRANCH  20  21
ENDBRANCH  19  20
ENDBRANCH  18  19
ENDBRANCH  17  18
ENDBRANCH  16  17
ENDBRANCH  15  16
ENDBRANCH  14  15
ENDBRANCH  13  14
ENDBRANCH   1  13
TORSDOF 20
ENDMDL
MODEL 9
REMARK VINA RESULT:    -4.155      2.981      6.766
REMARK INTER + INTRA:         -12.816
REMARK INTER:                  -9.085
REMARK INTRA:                  -3.731
REMARK UNBOUND:                -3.803
REMARK SMILES CCCCCCCCCCCCCCCCCCCCCC(=O)[O-]
REMARK SMILES IDX 12 1 11 2 10 3 9 4 8 5 7 6 6 7 5 8 4 9 3 10 2 11 1 12 13 13
REMARK SMILES IDX 14 14 15 15 16 16 17 17 18 18 19 19 20 20 21 21 22 22 23 23
REMARK SMILES IDX 24 24
REMARK H PARENT
REMARK Flexibility Score: inf
ROOT
ATOM      1  C   UNL     1      12.196 -17.449  36.876  1.00  0.00     0.000 C 
ENDROOT
BRANCH   1   2
ATOM      2  C   UNL     1      12.618 -18.924  36.770  1.00  0.00     0.000 C 
BRANCH   2   3
ATOM      3  C   UNL     1      11.471 -19.889  37.112  1.00  0.00     0.000 C 
BRANCH   3   4
ATOM      4  C   UNL     1      10.797 -19.555  38.451  1.00  0.00    -0.000 C 
BRANCH   4   5
ATOM      5  C   UNL     1      10.784 -20.780  39.379  1.00  0.00    -0.000 C 
BRANCH   5   6
ATOM      6  C   UNL     1      11.453 -20.502  40.734  1.00  0.00    -0.000 C 
BRANCH   6   7
ATOM      7  C   UNL     1      12.646 -19.536  40.618  1.00  0.00    -0.000 C 
BRANCH   7   8
ATOM      8  C   UNL     1      14.001 -20.250  40.750  1.00  0.00    -0.000 C 
BRANCH   8   9
ATOM      9  C   UNL     1      14.563 -20.703  39.391  1.00  0.00    -0.000 C 
BRANCH   9  10
ATOM     10  C   UNL     1      14.460 -22.224  39.177  1.00  0.00    -0.000 C 
BRANCH  10  11
ATOM     11  C   UNL     1      13.733 -22.652  37.890  1.00  0.00    -0.003 C 
ATOM     12  C   UNL     1      12.630 -23.679  38.139  1.00  0.00     0.004 C 
ENDBRANCH  10  11
ENDBRANCH   9  10
ENDBRANCH   8   9
ENDBRANCH   7   8
ENDBRANCH   6   7
ENDBRANCH   5   6
ENDBRANCH   4   5
ENDBRANCH   3   4
ENDBRANCH   2   3
ENDBRANCH   1   2
BRANCH   1  13
ATOM     13  C   UNL     1      12.995 -16.679  37.940  1.00  0.00     0.000 C 
BRANCH  13  14
ATOM     14  C   UNL     1      14.398 -17.262  38.170  1.00  0.00     0.000 C 
BRANCH  14  15
ATOM     15  C   UNL     1      14.968 -16.803  39.517  1.00  0.00     0.000 C 
BRANCH  15  16
ATOM     16  C   UNL     1      14.518 -15.374  39.850  1.00  0.00     0.000 C 
BRANCH  16  17
ATOM     17  C   UNL     1      15.655 -14.344  39.733  1.00  0.00     0.000 C 
BRANCH  17  18
ATOM     18  C   UNL     1      15.292 -13.119  38.867  1.00  0.00     0.000 C 
BRANCH  18  19
ATOM     19  C   UNL     1      14.846 -13.521  37.450  1.00  0.00     0.000 C 
BRANCH  19  20
ATOM     20  C   UNL     1      15.873 -13.135  36.374  1.00  0.00     0.006 C 
BRANCH  20  21
ATOM     21  C   UNL     1      16.500 -14.358  35.692  1.00  0.00     0.053 C 
BRANCH  21  22
ATOM     22  C   UNL     1      17.524 -14.985  36.585  1.00  0.00     0.041 C 
ATOM     23  O   UNL     1      17.366 -16.163  37.000  1.00  0.00    -0.550 OA
ATOM     24  O   UNL     1      18.628 -14.250  37.000  1.00  0.00    -0.550 OA
ENDBRANCH  21  22
ENDBRANCH  20  21
ENDBRANCH  19  20
ENDBRANCH  18  19
ENDBRANCH  17  18
ENDBRANCH  16  17
ENDBRANCH  15  16
ENDBRANCH  14  15
ENDBRANCH  13  14
ENDBRANCH   1  13
TORSDOF 20
ENDMDL
