MODEL 1
REMARK VINA RESULT:    -5.887      0.000      0.000
REMARK INTER + INTRA:         -10.220
REMARK INTER:                  -9.157
REMARK INTRA:                  -1.062
REMARK UNBOUND:                -1.062
REMARK SMILES COc1cc(CNC(=O)CCCCC=CC(C)C)ccc1O
REMARK SMILES IDX 11 1 12 2 13 3 14 4 15 5 16 6 17 7 18 8 10 9 8 10 9 11 7 12
REMARK SMILES IDX 6 14 5 15 4 16 19 17 3 18 20 19 21 20 2 21 1 22 22 23
REMARK H PARENT 7 13 22 24
REMARK Flexibility Score: inf
ROOT
ATOM      1  C   UNL     1      17.758  -5.971 -11.891  1.00  0.00     0.010 C 
ENDROOT
BRANCH   1   2
ATOM      2  C   UNL     1      16.566  -6.218 -12.835  1.00  0.00     0.005 C 
BRANCH   2   3
ATOM      3  C   UNL     1      16.931  -5.984 -14.307  1.00  0.00     0.027 C 
BRANCH   3   4
ATOM      4  C   UNL     1      16.563  -4.589 -14.745  1.00  0.00    -0.031 C 
ATOM      5  C   UNL     1      17.400  -3.540 -14.890  1.00  0.00    -0.028 C 
BRANCH   5   6
ATOM      6  C   UNL     1      18.895  -3.486 -14.624  1.00  0.00     0.005 C 
ATOM      7  C   UNL     1      19.688  -2.816 -15.757  1.00  0.00     0.012 C 
ATOM      8  C   UNL     1      19.237  -2.914 -13.242  1.00  0.00     0.012 C 
ENDBRANCH   5   6
ENDBRANCH   3   4
ENDBRANCH   2   3
ENDBRANCH   1   2
BRANCH   1   9
ATOM      9  C   UNL     1      17.361  -5.148 -10.654  1.00  0.00     0.100 C 
BRANCH   9  10
ATOM     10  C   UNL     1      17.985  -5.703  -9.407  1.00  0.00     0.220 C 
ATOM     11  O   UNL     1      18.711  -6.731  -9.483  1.00  0.00    -0.275 OA
ATOM     12  N   UNL     1      17.704  -5.111  -8.132  1.00  0.00    -0.352 N 
ATOM     13  H   UNL     1      17.183  -4.204  -8.101  1.00  0.00     0.163 HD
BRANCH  12  14
ATOM     14  C   UNL     1      17.850  -5.855  -6.884  1.00  0.00     0.151 C 
BRANCH  14  15
ATOM     15  C   UNL     1      16.516  -5.949  -6.196  1.00  0.00    -0.025 A 
ATOM     16  C   UNL     1      15.497  -5.035  -6.513  1.00  0.00     0.056 A 
ATOM     17  C   UNL     1      16.239  -7.017  -5.329  1.00  0.00     0.009 A 
ATOM     18  C   UNL     1      14.210  -5.170  -5.953  1.00  0.00     0.160 A 
ATOM     19  C   UNL     1      14.969  -7.153  -4.765  1.00  0.00     0.050 A 
ATOM     20  C   UNL     1      13.956  -6.234  -5.067  1.00  0.00     0.157 A 
BRANCH  18  21
ATOM     21  O   UNL     1      13.167  -4.277  -6.259  1.00  0.00    -0.493 OA
ATOM     22  C   UNL     1      13.340  -2.881  -6.471  1.00  0.00     0.278 C 
ENDBRANCH  18  21
BRANCH  20  23
ATOM     23  O   UNL     1      12.701  -6.393  -4.476  1.00  0.00    -0.504 OA
ATOM     24  H   UNL     1      12.410  -5.848  -3.672  1.00  0.00     0.293 HD
ENDBRANCH  20  23
ENDBRANCH  14  15
ENDBRANCH  12  14
ENDBRANCH   9  10
ENDBRANCH   1   9
TORSDOF 10
ENDMDL
MODEL 2
REMARK VINA RESULT:    -5.887      2.818      3.423
REMARK INTER + INTRA:         -10.218
REMARK INTER:                  -9.031
REMARK INTRA:                  -1.187
REMARK UNBOUND:                -1.062
REMARK SMILES COc1cc(CNC(=O)CCCCC=CC(C)C)ccc1O
REMARK SMILES IDX 11 1 12 2 13 3 14 4 15 5 16 6 17 7 18 8 10 9 8 10 9 11 7 12
REMARK SMILES IDX 6 14 5 15 4 16 19 17 3 18 20 19 21 20 2 21 1 22 22 23
REMARK H PARENT 7 13 22 24
REMARK Flexibility Score: inf
ROOT
ATOM      1  C   UNL     1      17.718  -6.402 -11.997  1.00  0.00     0.010 C 
ENDROOT
BRANCH   1   2
ATOM      2  C   UNL     1      16.560  -5.906 -12.883  1.00  0.00     0.005 C 
BRANCH   2   3
ATOM      3  C   UNL     1      16.959  -5.814 -14.362  1.00  0.00     0.027 C 
BRANCH   3   4
ATOM      4  C   UNL     1      16.615  -4.463 -14.937  1.00  0.00    -0.031 C 
ATOM      5  C   UNL     1      17.436  -3.397 -15.042  1.00  0.00    -0.028 C 
BRANCH   5   6
ATOM      6  C   UNL     1      18.882  -3.274 -14.590  1.00  0.00     0.005 C 
ATOM      7  C   UNL     1      19.839  -2.873 -15.723  1.00  0.00     0.012 C 
ATOM      8  C   UNL     1      19.045  -2.403 -13.338  1.00  0.00     0.012 C 
ENDBRANCH   5   6
ENDBRANCH   3   4
ENDBRANCH   2   3
ENDBRANCH   1   2
BRANCH   1   9
ATOM      9  C   UNL     1      18.451  -5.246 -11.295  1.00  0.00     0.100 C 
BRANCH   9  10
ATOM     10  C   UNL     1      17.579  -4.596 -10.260  1.00  0.00     0.220 C 
ATOM     11  O   UNL     1      17.646  -3.349 -10.089  1.00  0.00    -0.275 OA
ATOM     12  N   UNL     1      16.727  -5.394  -9.428  1.00  0.00    -0.352 N 
ATOM     13  H   UNL     1      16.611  -6.409  -9.652  1.00  0.00     0.163 HD
BRANCH  12  14
ATOM     14  C   UNL     1      16.256  -4.924  -8.127  1.00  0.00     0.151 C 
BRANCH  14  15
ATOM     15  C   UNL     1      17.365  -5.044  -7.119  1.00  0.00    -0.025 A 
ATOM     16  C   UNL     1      17.812  -3.905  -6.427  1.00  0.00     0.056 A 
ATOM     17  C   UNL     1      17.877  -6.305  -6.774  1.00  0.00     0.009 A 
ATOM     18  C   UNL     1      18.779  -4.016  -5.408  1.00  0.00     0.160 A 
ATOM     19  C   UNL     1      18.841  -6.421  -5.771  1.00  0.00     0.050 A 
ATOM     20  C   UNL     1      19.299  -5.286  -5.091  1.00  0.00     0.157 A 
BRANCH  18  21
ATOM     21  O   UNL     1      19.238  -2.897  -4.691  1.00  0.00    -0.493 OA
ATOM     22  C   UNL     1      20.243  -2.002  -5.155  1.00  0.00     0.278 C 
ENDBRANCH  18  21
BRANCH  20  23
ATOM     23  O   UNL     1      20.272  -5.437  -4.101  1.00  0.00    -0.504 OA
ATOM     24  H   UNL     1      21.179  -5.849  -4.293  1.00  0.00     0.293 HD
ENDBRANCH  20  23
ENDBRANCH  14  15
ENDBRANCH  12  14
ENDBRANCH   9  10
ENDBRANCH   1   9
TORSDOF 10
ENDMDL
MODEL 3
REMARK VINA RESULT:    -5.822      1.998      2.950
REMARK INTER + INTRA:         -10.117
REMARK INTER:                  -9.426
REMARK INTRA:                  -0.691
REMARK UNBOUND:                -1.062
REMARK SMILES COc1cc(CNC(=O)CCCCC=CC(C)C)ccc1O
REMARK SMILES IDX 11 1 12 2 13 3 14 4 15 5 16 6 17 7 18 8 10 9 8 10 9 11 7 12
REMARK SMILES IDX 6 14 5 15 4 16 19 17 3 18 20 19 21 20 2 21 1 22 22 23
REMARK H PARENT 7 13 22 24
REMARK Flexibility Score: inf
ROOT
ATOM      1  C   UNL     1      16.715  -6.011 -12.365  1.00  0.00     0.010 C 
ENDROOT
BRANCH   1   2
ATOM      2  C   UNL     1      17.355  -6.079 -13.764  1.00  0.00     0.005 C 
BRANCH   2   3
ATOM      3  C   UNL     1      16.395  -5.612 -14.866  1.00  0.00     0.027 C 
BRANCH   3   4
ATOM      4  C   UNL     1      16.239  -4.112 -14.854  1.00  0.00    -0.031 C 
ATOM      5  C   UNL     1      17.225  -3.198 -14.733  1.00  0.00    -0.028 C 
BRANCH   5   6
ATOM      6  C   UNL     1      18.714  -3.439 -14.549  1.00  0.00     0.005 C 
ATOM      7  C   UNL     1      19.557  -2.956 -15.738  1.00  0.00     0.012 C 
ATOM      8  C   UNL     1      19.240  -2.928 -13.202  1.00  0.00     0.012 C 
ENDBRANCH   5   6
ENDBRANCH   3   4
ENDBRANCH   2   3
ENDBRANCH   1   2
BRANCH   1   9
ATOM      9  C   UNL     1      17.765  -5.859 -11.251  1.00  0.00     0.100 C 
BRANCH   9  10
ATOM     10  C   UNL     1      17.304  -4.897 -10.196  1.00  0.00     0.220 C 
ATOM     11  O   UNL     1      17.741  -3.714 -10.203  1.00  0.00    -0.275 OA
ATOM     12  N   UNL     1      16.428  -5.335  -9.149  1.00  0.00    -0.352 N 
ATOM     13  H   UNL     1      16.000  -6.287  -9.217  1.00  0.00     0.163 HD
BRANCH  12  14
ATOM     14  C   UNL     1      16.344  -4.639  -7.868  1.00  0.00     0.151 C 
BRANCH  14  15
ATOM     15  C   UNL     1      17.005  -5.469  -6.802  1.00  0.00    -0.025 A 
ATOM     16  C   UNL     1      16.223  -6.249  -5.933  1.00  0.00     0.056 A 
ATOM     17  C   UNL     1      18.404  -5.565  -6.744  1.00  0.00     0.009 A 
ATOM     18  C   UNL     1      16.830  -7.109  -4.996  1.00  0.00     0.160 A 
ATOM     19  C   UNL     1      19.012  -6.410  -5.812  1.00  0.00     0.050 A 
ATOM     20  C   UNL     1      18.235  -7.177  -4.936  1.00  0.00     0.157 A 
BRANCH  18  21
ATOM     21  O   UNL     1      16.074  -7.910  -4.120  1.00  0.00    -0.493 OA
ATOM     22  C   UNL     1      14.862  -8.567  -4.474  1.00  0.00     0.278 C 
ENDBRANCH  18  21
BRANCH  20  23
ATOM     23  O   UNL     1      18.876  -8.001  -4.009  1.00  0.00    -0.504 OA
ATOM     24  H   UNL     1      19.629  -8.627  -4.272  1.00  0.00     0.293 HD
ENDBRANCH  20  23
ENDBRANCH  14  15
ENDBRANCH  12  14
ENDBRANCH   9  10
ENDBRANCH   1   9
TORSDOF 10
ENDMDL
MODEL 4
REMARK VINA RESULT:    -5.718      2.620      3.815
REMARK INTER + INTRA:          -9.956
REMARK INTER:                  -8.700
REMARK INTRA:                  -1.256
REMARK UNBOUND:                -1.062
REMARK SMILES COc1cc(CNC(=O)CCCCC=CC(C)C)ccc1O
REMARK SMILES IDX 11 1 12 2 13 3 14 4 15 5 16 6 17 7 18 8 10 9 8 10 9 11 7 12
REMARK SMILES IDX 6 14 5 15 4 16 19 17 3 18 20 19 21 20 2 21 1 22 22 23
REMARK H PARENT 7 13 22 24
REMARK Flexibility Score: inf
ROOT
ATOM      1  C   UNL     1      18.369  -5.312 -11.219  1.00  0.00     0.010 C 
ENDROOT
BRANCH   1   2
ATOM      2  C   UNL     1      18.125  -6.351 -12.330  1.00  0.00     0.005 C 
BRANCH   2   3
ATOM      3  C   UNL     1      16.666  -6.362 -12.806  1.00  0.00     0.027 C 
BRANCH   3   4
ATOM      4  C   UNL     1      16.584  -6.369 -14.312  1.00  0.00    -0.031 C 
ATOM      5  C   UNL     1      16.631  -5.296 -15.129  1.00  0.00    -0.028 C 
BRANCH   5   6
ATOM      6  C   UNL     1      16.745  -3.829 -14.750  1.00  0.00     0.005 C 
ATOM      7  C   UNL     1      18.049  -3.177 -15.236  1.00  0.00     0.012 C 
ATOM      8  C   UNL     1      15.500  -3.015 -15.125  1.00  0.00     0.012 C 
ENDBRANCH   5   6
ENDBRANCH   3   4
ENDBRANCH   2   3
ENDBRANCH   1   2
BRANCH   1   9
ATOM      9  C   UNL     1      18.853  -3.964 -11.780  1.00  0.00     0.100 C 
BRANCH   9  10
ATOM     10  C   UNL     1      18.457  -2.827 -10.884  1.00  0.00     0.220 C 
ATOM     11  O   UNL     1      19.049  -1.719 -10.992  1.00  0.00    -0.275 OA
ATOM     12  N   UNL     1      17.462  -3.018  -9.869  1.00  0.00    -0.352 N 
ATOM     13  H   UNL     1      16.915  -3.909  -9.861  1.00  0.00     0.163 HD
BRANCH  12  14
ATOM     14  C   UNL     1      17.388  -2.162  -8.688  1.00  0.00     0.151 C 
BRANCH  14  15
ATOM     15  C   UNL     1      17.824  -2.939  -7.477  1.00  0.00    -0.025 A 
ATOM     16  C   UNL     1      17.388  -4.263  -7.297  1.00  0.00     0.056 A 
ATOM     17  C   UNL     1      18.761  -2.395  -6.584  1.00  0.00     0.009 A 
ATOM     18  C   UNL     1      17.868  -5.038  -6.222  1.00  0.00     0.160 A 
ATOM     19  C   UNL     1      19.234  -3.155  -5.513  1.00  0.00     0.050 A 
ATOM     20  C   UNL     1      18.790  -4.469  -5.323  1.00  0.00     0.157 A 
BRANCH  18  21
ATOM     21  O   UNL     1      17.459  -6.369  -6.022  1.00  0.00    -0.493 OA
ATOM     22  C   UNL     1      16.263  -6.750  -5.350  1.00  0.00     0.278 C 
ENDBRANCH  18  21
BRANCH  20  23
ATOM     23  O   UNL     1      19.275  -5.196  -4.234  1.00  0.00    -0.504 OA
ATOM     24  H   UNL     1      19.616  -4.746  -3.392  1.00  0.00     0.293 HD
ENDBRANCH  20  23
ENDBRANCH  14  15
ENDBRANCH  12  14
ENDBRANCH   9  10
ENDBRANCH   1   9
TORSDOF 10
ENDMDL
MODEL 5
REMARK VINA RESULT:    -5.700      3.695      5.098
REMARK INTER + INTRA:          -9.928
REMARK INTER:                  -8.664
REMARK INTRA:                  -1.263
REMARK UNBOUND:                -1.062
REMARK SMILES COc1cc(CNC(=O)CCCCC=CC(C)C)ccc1O
REMARK SMILES IDX 11 1 12 2 13 3 14 4 15 5 16 6 17 7 18 8 10 9 8 10 9 11 7 12
REMARK SMILES IDX 6 14 5 15 4 16 19 17 3 18 20 19 21 20 2 21 1 22 22 23
REMARK H PARENT 7 13 22 24
REMARK Flexibility Score: inf
ROOT
ATOM      1  C   UNL     1      18.351  -4.885 -11.290  1.00  0.00     0.010 C 
ENDROOT
BRANCH   1   2
ATOM      2  C   UNL     1      18.057  -6.157 -12.107  1.00  0.00     0.005 C 
BRANCH   2   3
ATOM      3  C   UNL     1      16.609  -6.202 -12.612  1.00  0.00     0.027 C 
BRANCH   3   4
ATOM      4  C   UNL     1      16.559  -6.360 -14.111  1.00  0.00    -0.031 C 
ATOM      5  C   UNL     1      16.611  -5.373 -15.030  1.00  0.00    -0.028 C 
BRANCH   5   6
ATOM      6  C   UNL     1      16.701  -3.874 -14.797  1.00  0.00     0.005 C 
ATOM      7  C   UNL     1      17.877  -3.216 -15.533  1.00  0.00     0.012 C 
ATOM      8  C   UNL     1      15.370  -3.151 -15.039  1.00  0.00     0.012 C 
ENDBRANCH   5   6
ENDBRANCH   3   4
ENDBRANCH   2   3
ENDBRANCH   1   2
BRANCH   1   9
ATOM      9  C   UNL     1      19.081  -3.816 -12.120  1.00  0.00     0.100 C 
BRANCH   9  10
ATOM     10  C   UNL     1      18.608  -2.436 -11.769  1.00  0.00     0.220 C 
ATOM     11  O   UNL     1      18.771  -1.498 -12.595  1.00  0.00    -0.275 OA
ATOM     12  N   UNL     1      18.036  -2.172 -10.481  1.00  0.00    -0.352 N 
ATOM     13  H   UNL     1      17.818  -2.979  -9.852  1.00  0.00     0.163 HD
BRANCH  12  14
ATOM     14  C   UNL     1      18.020  -0.832  -9.902  1.00  0.00     0.151 C 
BRANCH  14  15
ATOM     15  C   UNL     1      16.599  -0.419  -9.632  1.00  0.00    -0.025 A 
ATOM     16  C   UNL     1      15.997  -0.733  -8.401  1.00  0.00     0.056 A 
ATOM     17  C   UNL     1      15.906   0.384 -10.552  1.00  0.00     0.009 A 
ATOM     18  C   UNL     1      14.704  -0.267  -8.093  1.00  0.00     0.160 A 
ATOM     19  C   UNL     1      14.621   0.843 -10.256  1.00  0.00     0.050 A 
ATOM     20  C   UNL     1      14.014   0.518  -9.037  1.00  0.00     0.157 A 
BRANCH  18  21
ATOM     21  O   UNL     1      14.079  -0.556  -6.866  1.00  0.00    -0.493 OA
ATOM     22  C   UNL     1      13.289  -1.714  -6.620  1.00  0.00     0.278 C 
ENDBRANCH  18  21
BRANCH  20  23
ATOM     23  O   UNL     1      12.723   0.983  -8.779  1.00  0.00    -0.504 OA
ATOM     24  H   UNL     1      12.034   0.422  -8.292  1.00  0.00     0.293 HD
ENDBRANCH  20  23
ENDBRANCH  14  15
ENDBRANCH  12  14
ENDBRANCH   9  10
ENDBRANCH   1   9
TORSDOF 10
ENDMDL
MODEL 6
REMARK VINA RESULT:    -5.699      0.776      1.965
REMARK INTER + INTRA:          -9.927
REMARK INTER:                  -9.105
REMARK INTRA:                  -0.821
REMARK UNBOUND:                -1.062
REMARK SMILES COc1cc(CNC(=O)CCCCC=CC(C)C)ccc1O
REMARK SMILES IDX 11 1 12 2 13 3 14 4 15 5 16 6 17 7 18 8 10 9 8 10 9 11 7 12
REMARK SMILES IDX 6 14 5 15 4 16 19 17 3 18 20 19 21 20 2 21 1 22 22 23
REMARK H PARENT 7 13 22 24
REMARK Flexibility Score: inf
ROOT
ATOM      1  C   UNL     1      18.462  -5.176 -12.108  1.00  0.00     0.010 C 
ENDROOT
BRANCH   1   2
ATOM      2  C   UNL     1      19.286  -3.876 -12.054  1.00  0.00     0.005 C 
BRANCH   2   3
ATOM      3  C   UNL     1      18.708  -2.782 -12.961  1.00  0.00     0.027 C 
BRANCH   3   4
ATOM      4  C   UNL     1      18.881  -3.134 -14.418  1.00  0.00    -0.031 C 
ATOM      5  C   UNL     1      17.998  -3.789 -15.201  1.00  0.00    -0.028 C 
BRANCH   5   6
ATOM      6  C   UNL     1      16.643  -4.359 -14.819  1.00  0.00     0.005 C 
ATOM      7  C   UNL     1      15.480  -3.393 -15.095  1.00  0.00     0.012 C 
ATOM      8  C   UNL     1      16.399  -5.760 -15.393  1.00  0.00     0.012 C 
ENDBRANCH   5   6
ENDBRANCH   3   4
ENDBRANCH   2   3
ENDBRANCH   1   2
BRANCH   1   9
ATOM      9  C   UNL     1      17.423  -5.254 -10.978  1.00  0.00     0.100 C 
BRANCH   9  10
ATOM     10  C   UNL     1      18.035  -5.770  -9.709  1.00  0.00     0.220 C 
ATOM     11  O   UNL     1      18.752  -6.807  -9.744  1.00  0.00    -0.275 OA
ATOM     12  N   UNL     1      17.755  -5.130  -8.457  1.00  0.00    -0.352 N 
ATOM     13  H   UNL     1      17.243  -4.218  -8.461  1.00  0.00     0.163 HD
BRANCH  12  14
ATOM     14  C   UNL     1      17.888  -5.830  -7.182  1.00  0.00     0.151 C 
BRANCH  14  15
ATOM     15  C   UNL     1      16.572  -5.803  -6.454  1.00  0.00    -0.025 A 
ATOM     16  C   UNL     1      15.574  -4.892  -6.841  1.00  0.00     0.056 A 
ATOM     17  C   UNL     1      16.286  -6.761  -5.470  1.00  0.00     0.009 A 
ATOM     18  C   UNL     1      14.301  -4.921  -6.237  1.00  0.00     0.160 A 
ATOM     19  C   UNL     1      15.030  -6.791  -4.862  1.00  0.00     0.050 A 
ATOM     20  C   UNL     1      14.039  -5.875  -5.235  1.00  0.00     0.157 A 
BRANCH  18  21
ATOM     21  O   UNL     1      13.279  -4.030  -6.610  1.00  0.00    -0.493 OA
ATOM     22  C   UNL     1      13.309  -2.627  -6.371  1.00  0.00     0.278 C 
ENDBRANCH  18  21
BRANCH  20  23
ATOM     23  O   UNL     1      12.797  -5.925  -4.598  1.00  0.00    -0.504 OA
ATOM     24  H   UNL     1      12.258  -5.089  -4.400  1.00  0.00     0.293 HD
ENDBRANCH  20  23
ENDBRANCH  14  15
ENDBRANCH  12  14
ENDBRANCH   9  10
ENDBRANCH   1   9
TORSDOF 10
ENDMDL
MODEL 7
REMARK VINA RESULT:    -5.690      2.687      9.022
REMARK INTER + INTRA:          -9.913
REMARK INTER:                  -9.361
REMARK INTRA:                  -0.552
REMARK UNBOUND:                -1.062
REMARK SMILES COc1cc(CNC(=O)CCCCC=CC(C)C)ccc1O
REMARK SMILES IDX 11 1 12 2 13 3 14 4 15 5 16 6 17 7 18 8 10 9 8 10 9 11 7 12
REMARK SMILES IDX 6 14 5 15 4 16 19 17 3 18 20 19 21 20 2 21 1 22 22 23
REMARK H PARENT 7 13 22 24
REMARK Flexibility Score: inf
ROOT
ATOM      1  C   UNL     1      15.154  -5.305  -7.108  1.00  0.00     0.010 C 
ENDROOT
BRANCH   1   2
ATOM      2  C   UNL     1      14.738  -5.501  -5.638  1.00  0.00     0.005 C 
BRANCH   2   3
ATOM      3  C   UNL     1      14.919  -6.952  -5.171  1.00  0.00     0.027 C 
BRANCH   3   4
ATOM      4  C   UNL     1      13.753  -7.404  -4.328  1.00  0.00    -0.031 C 
ATOM      5  C   UNL     1      13.140  -8.605  -4.374  1.00  0.00    -0.028 C 
BRANCH   5   6
ATOM      6  C   UNL     1      13.440  -9.780  -5.290  1.00  0.00     0.005 C 
ATOM      7  C   UNL     1      14.473 -10.756  -4.706  1.00  0.00     0.012 C 
ATOM      8  C   UNL     1      12.174 -10.486  -5.792  1.00  0.00     0.012 C 
ENDBRANCH   5   6
ENDBRANCH   3   4
ENDBRANCH   2   3
ENDBRANCH   1   2
BRANCH   1   9
ATOM      9  C   UNL     1      16.583  -4.752  -7.239  1.00  0.00     0.100 C 
BRANCH   9  10
ATOM     10  C   UNL     1      17.405  -5.584  -8.179  1.00  0.00     0.220 C 
ATOM     11  O   UNL     1      18.359  -6.273  -7.724  1.00  0.00    -0.275 OA
ATOM     12  N   UNL     1      17.153  -5.544  -9.590  1.00  0.00    -0.352 N 
ATOM     13  H   UNL     1      16.300  -5.047  -9.936  1.00  0.00     0.163 HD
BRANCH  12  14
ATOM     14  C   UNL     1      18.175  -5.904 -10.569  1.00  0.00     0.151 C 
BRANCH  14  15
ATOM     15  C   UNL     1      17.737  -5.461 -11.938  1.00  0.00    -0.025 A 
ATOM     16  C   UNL     1      18.327  -4.332 -12.533  1.00  0.00     0.056 A 
ATOM     17  C   UNL     1      16.830  -6.235 -12.678  1.00  0.00     0.009 A 
ATOM     18  C   UNL     1      18.000  -3.963 -13.853  1.00  0.00     0.160 A 
ATOM     19  C   UNL     1      16.496  -5.870 -13.984  1.00  0.00     0.050 A 
ATOM     20  C   UNL     1      17.071  -4.738 -14.573  1.00  0.00     0.157 A 
BRANCH  18  21
ATOM     21  O   UNL     1      18.581  -2.845 -14.480  1.00  0.00    -0.493 OA
ATOM     22  C   UNL     1      19.728  -2.901 -15.322  1.00  0.00     0.278 C 
ENDBRANCH  18  21
BRANCH  20  23
ATOM     23  O   UNL     1      16.706  -4.395 -15.877  1.00  0.00    -0.504 OA
ATOM     24  H   UNL     1      16.699  -5.072 -16.632  1.00  0.00     0.293 HD
ENDBRANCH  20  23
ENDBRANCH  14  15
ENDBRANCH  12  14
ENDBRANCH   9  10
ENDBRANCH   1   9
TORSDOF 10
ENDMDL
MODEL 8
REMARK VINA RESULT:    -5.632      4.877      7.764
REMARK INTER + INTRA:          -9.822
REMARK INTER:                  -8.305
REMARK INTRA:                  -1.517
REMARK UNBOUND:                -1.062
REMARK SMILES COc1cc(CNC(=O)CCCCC=CC(C)C)ccc1O
REMARK SMILES IDX 11 1 12 2 13 3 14 4 15 5 16 6 17 7 18 8 10 9 8 10 9 11 7 12
REMARK SMILES IDX 6 14 5 15 4 16 19 17 3 18 20 19 21 20 2 21 1 22 22 23
REMARK H PARENT 7 13 22 24
REMARK Flexibility Score: inf
ROOT
ATOM      1  C   UNL     1      16.642  -0.239 -10.116  1.00  0.00     0.010 C 
ENDROOT
BRANCH   1   2
ATOM      2  C   UNL     1      15.681   0.946 -10.328  1.00  0.00     0.005 C 
BRANCH   2   3
ATOM      3  C   UNL     1      14.792   0.761 -11.565  1.00  0.00     0.027 C 
BRANCH   3   4
ATOM      4  C   UNL     1      15.611   0.377 -12.772  1.00  0.00    -0.031 C 
ATOM      5  C   UNL     1      15.147  -0.119 -13.939  1.00  0.00    -0.028 C 
BRANCH   5   6
ATOM      6  C   UNL     1      13.712  -0.443 -14.319  1.00  0.00     0.005 C 
ATOM      7  C   UNL     1      13.009   0.703 -15.062  1.00  0.00     0.012 C 
ATOM      8  C   UNL     1      13.574  -1.790 -15.040  1.00  0.00     0.012 C 
ENDBRANCH   5   6
ENDBRANCH   3   4
ENDBRANCH   2   3
ENDBRANCH   1   2
BRANCH   1   9
ATOM      9  C   UNL     1      18.106   0.214  -9.988  1.00  0.00     0.100 C 
BRANCH   9  10
ATOM     10  C   UNL     1      18.854   0.008 -11.272  1.00  0.00     0.220 C 
ATOM     11  O   UNL     1      19.331   1.006 -11.877  1.00  0.00    -0.275 OA
ATOM     12  N   UNL     1      18.970  -1.303 -11.840  1.00  0.00    -0.352 N 
ATOM     13  H   UNL     1      18.657  -2.126 -11.276  1.00  0.00     0.163 HD
BRANCH  12  14
ATOM     14  C   UNL     1      19.225  -1.510 -13.263  1.00  0.00     0.151 C 
BRANCH  14  15
ATOM     15  C   UNL     1      18.446  -2.703 -13.744  1.00  0.00    -0.025 A 
ATOM     16  C   UNL     1      18.471  -3.901 -13.009  1.00  0.00     0.056 A 
ATOM     17  C   UNL     1      17.598  -2.595 -14.857  1.00  0.00     0.009 A 
ATOM     18  C   UNL     1      17.668  -4.995 -13.391  1.00  0.00     0.160 A 
ATOM     19  C   UNL     1      16.805  -3.677 -15.245  1.00  0.00     0.050 A 
ATOM     20  C   UNL     1      16.839  -4.876 -14.523  1.00  0.00     0.157 A 
BRANCH  18  21
ATOM     21  O   UNL     1      17.663  -6.203 -12.670  1.00  0.00    -0.493 OA
ATOM     22  C   UNL     1      18.081  -6.332 -11.315  1.00  0.00     0.278 C 
ENDBRANCH  18  21
BRANCH  20  23
ATOM     23  O   UNL     1      16.043  -5.943 -14.946  1.00  0.00    -0.504 OA
ATOM     24  H   UNL     1      16.428  -6.743 -15.435  1.00  0.00     0.293 HD
ENDBRANCH  20  23
ENDBRANCH  14  15
ENDBRANCH  12  14
ENDBRANCH   9  10
ENDBRANCH   1   9
TORSDOF 10
ENDMDL
MODEL 9
REMARK VINA RESULT:    -5.605      0.978      2.168
REMARK INTER + INTRA:          -9.780
REMARK INTER:                  -8.766
REMARK INTRA:                  -1.014
REMARK UNBOUND:                -1.062
REMARK SMILES COc1cc(CNC(=O)CCCCC=CC(C)C)ccc1O
REMARK SMILES IDX 11 1 12 2 13 3 14 4 15 5 16 6 17 7 18 8 10 9 8 10 9 11 7 12
REMARK SMILES IDX 6 14 5 15 4 16 19 17 3 18 20 19 21 20 2 21 1 22 22 23
REMARK H PARENT 7 13 22 24
REMARK Flexibility Score: inf
ROOT
ATOM      1  C   UNL     1      18.183  -5.986 -12.013  1.00  0.00     0.010 C 
ENDROOT
BRANCH   1   2
ATOM      2  C   UNL     1      17.229  -6.685 -13.000  1.00  0.00     0.005 C 
BRANCH   2   3
ATOM      3  C   UNL     1      16.250  -5.703 -13.656  1.00  0.00     0.027 C 
BRANCH   3   4
ATOM      4  C   UNL     1      16.655  -5.395 -15.076  1.00  0.00    -0.031 C 
ATOM      5  C   UNL     1      17.513  -4.434 -15.482  1.00  0.00    -0.028 C 
BRANCH   5   6
ATOM      6  C   UNL     1      18.253  -3.415 -14.632  1.00  0.00     0.005 C 
ATOM      7  C   UNL     1      19.578  -2.953 -15.258  1.00  0.00     0.012 C 
ATOM      8  C   UNL     1      17.365  -2.244 -14.193  1.00  0.00     0.012 C 
ENDBRANCH   5   6
ENDBRANCH   3   4
ENDBRANCH   2   3
ENDBRANCH   1   2
BRANCH   1   9
ATOM      9  C   UNL     1      17.432  -5.328 -10.844  1.00  0.00     0.100 C 
BRANCH   9  10
ATOM     10  C   UNL     1      18.032  -5.715  -9.524  1.00  0.00     0.220 C 
ATOM     11  O   UNL     1      18.756  -6.746  -9.451  1.00  0.00    -0.275 OA
ATOM     12  N   UNL     1      17.732  -4.960  -8.343  1.00  0.00    -0.352 N 
ATOM     13  H   UNL     1      17.215  -4.056  -8.441  1.00  0.00     0.163 HD
BRANCH  12  14
ATOM     14  C   UNL     1      17.855  -5.534  -7.005  1.00  0.00     0.151 C 
BRANCH  14  15
ATOM     15  C   UNL     1      16.484  -5.805  -6.448  1.00  0.00    -0.025 A 
ATOM     16  C   UNL     1      16.307  -6.798  -5.469  1.00  0.00     0.056 A 
ATOM     17  C   UNL     1      15.398  -4.992  -6.810  1.00  0.00     0.009 A 
ATOM     18  C   UNL     1      15.050  -6.995  -4.865  1.00  0.00     0.160 A 
ATOM     19  C   UNL     1      14.148  -5.187  -6.220  1.00  0.00     0.050 A 
ATOM     20  C   UNL     1      13.965  -6.186  -5.256  1.00  0.00     0.157 A 
BRANCH  18  21
ATOM     21  O   UNL     1      14.843  -7.973  -3.875  1.00  0.00    -0.493 OA
ATOM     22  C   UNL     1      14.398  -9.300  -4.136  1.00  0.00     0.278 C 
ENDBRANCH  18  21
BRANCH  20  23
ATOM     23  O   UNL     1      12.699  -6.362  -4.695  1.00  0.00    -0.504 OA
ATOM     24  H   UNL     1      12.006  -6.978  -5.108  1.00  0.00     0.293 HD
ENDBRANCH  20  23
ENDBRANCH  14  15
ENDBRANCH  12  14
ENDBRANCH   9  10
ENDBRANCH   1   9
TORSDOF 10
ENDMDL
