MODEL 1
REMARK VINA RESULT:    -4.052      0.000      0.000
REMARK INTER + INTRA:          -5.832
REMARK INTER:                  -5.474
REMARK INTRA:                  -0.359
REMARK UNBOUND:                -0.359
REMARK SMILES CCCCCCCC(=O)[O-]
REMARK SMILES IDX 5 1 6 2 7 3 8 4 9 5 10 6 4 7 3 8 2 9 1 10
REMARK H PARENT
REMARK Flexibility Score: inf
ROOT
ATOM      1  C   UNL     1      11.397 -15.265  14.406  1.00  0.00     0.000 C 
ENDROOT
BRANCH   1   2
ATOM      2  C   UNL     1      11.943 -16.653  14.042  1.00  0.00     0.006 C 
BRANCH   2   3
ATOM      3  C   UNL     1      13.421 -16.573  13.646  1.00  0.00     0.053 C 
BRANCH   3   4
ATOM      4  C   UNL     1      14.259 -17.381  14.586  1.00  0.00     0.041 C 
ATOM      5  O   UNL     1      13.724 -17.981  15.555  1.00  0.00    -0.550 OA
ATOM      6  O   UNL     1      15.637 -17.434  14.420  1.00  0.00    -0.550 OA
ENDBRANCH   3   4
ENDBRANCH   2   3
ENDBRANCH   1   2
BRANCH   1   7
ATOM      7  C   UNL     1      11.277 -15.055  15.924  1.00  0.00     0.000 C 
BRANCH   7   8
ATOM      8  C   UNL     1      11.641 -13.627  16.357  1.00  0.00    -0.000 C 
BRANCH   8   9
ATOM      9  C   UNL     1      11.994 -12.759  15.143  1.00  0.00    -0.003 C 
ATOM     10  C   UNL     1      11.416 -11.354  15.284  1.00  0.00     0.004 C 
ENDBRANCH   8   9
ENDBRANCH   7   8
ENDBRANCH   1   7
TORSDOF 6
ENDMDL
MODEL 2
REMARK VINA RESULT:    -4.046      1.396      2.102
REMARK INTER + INTRA:          -5.824
REMARK INTER:                  -5.424
REMARK INTRA:                  -0.399
REMARK UNBOUND:                -0.359
REMARK SMILES CCCCCCCC(=O)[O-]
REMARK SMILES IDX 5 1 6 2 7 3 8 4 9 5 10 6 4 7 3 8 2 9 1 10
REMARK H PARENT
REMARK Flexibility Score: inf
ROOT
ATOM      1  C   UNL     1      11.467 -16.224  13.636  1.00  0.00     0.000 C 
ENDROOT
BRANCH   1   2
ATOM      2  C   UNL     1      12.904 -16.717  13.417  1.00  0.00     0.006 C 
BRANCH   2   3
ATOM      3  C   UNL     1      13.278 -17.791  14.444  1.00  0.00     0.053 C 
BRANCH   3   4
ATOM      4  C   UNL     1      14.521 -17.402  15.180  1.00  0.00     0.041 C 
ATOM      5  O   UNL     1      15.649 -17.759  14.748  1.00  0.00    -0.550 OA
ATOM      6  O   UNL     1      14.433 -16.687  16.367  1.00  0.00    -0.550 OA
ENDBRANCH   3   4
ENDBRANCH   2   3
ENDBRANCH   1   2
BRANCH   1   7
ATOM      7  C   UNL     1      11.409 -14.884  14.387  1.00  0.00     0.000 C 
BRANCH   7   8
ATOM      8  C   UNL     1      11.165 -15.057  15.893  1.00  0.00    -0.000 C 
BRANCH   8   9
ATOM      9  C   UNL     1      12.066 -14.121  16.706  1.00  0.00    -0.003 C 
ATOM     10  C   UNL     1      12.204 -14.602  18.148  1.00  0.00     0.004 C 
ENDBRANCH   8   9
ENDBRANCH   7   8
ENDBRANCH   1   7
TORSDOF 6
ENDMDL
MODEL 3
REMARK VINA RESULT:    -4.022      2.399      4.373
REMARK INTER + INTRA:          -5.792
REMARK INTER:                  -5.194
REMARK INTRA:                  -0.598
REMARK UNBOUND:                -0.359
REMARK SMILES CCCCCCCC(=O)[O-]
REMARK SMILES IDX 5 1 6 2 7 3 8 4 9 5 10 6 4 7 3 8 2 9 1 10
REMARK H PARENT
REMARK Flexibility Score: inf
ROOT
ATOM      1  C   UNL     1      11.670 -16.378  13.482  1.00  0.00     0.000 C 
ENDROOT
BRANCH   1   2
ATOM      2  C   UNL     1      11.243 -15.059  14.143  1.00  0.00     0.006 C 
BRANCH   2   3
ATOM      3  C   UNL     1      11.085 -15.231  15.657  1.00  0.00     0.053 C 
BRANCH   3   4
ATOM      4  C   UNL     1      12.209 -14.559  16.380  1.00  0.00     0.041 C 
ATOM      5  O   UNL     1      12.241 -14.559  17.639  1.00  0.00    -0.550 OA
ATOM      6  O   UNL     1      13.195 -13.891  15.666  1.00  0.00    -0.550 OA
ENDBRANCH   3   4
ENDBRANCH   2   3
ENDBRANCH   1   2
BRANCH   1   7
ATOM      7  C   UNL     1      13.079 -16.303  12.870  1.00  0.00     0.000 C 
BRANCH   7   8
ATOM      8  C   UNL     1      13.975 -17.474  13.299  1.00  0.00    -0.000 C 
BRANCH   8   9
ATOM      9  C   UNL     1      13.574 -17.993  14.685  1.00  0.00    -0.003 C 
ATOM     10  C   UNL     1      14.516 -17.466  15.764  1.00  0.00     0.004 C 
ENDBRANCH   8   9
ENDBRANCH   7   8
ENDBRANCH   1   7
TORSDOF 6
ENDMDL
MODEL 4
REMARK VINA RESULT:    -3.942      1.970      2.604
REMARK INTER + INTRA:          -5.683
REMARK INTER:                  -5.136
REMARK INTRA:                  -0.547
REMARK UNBOUND:                -0.359
REMARK SMILES CCCCCCCC(=O)[O-]
REMARK SMILES IDX 5 1 6 2 7 3 8 4 9 5 10 6 4 7 3 8 2 9 1 10
REMARK H PARENT
REMARK Flexibility Score: inf
ROOT
ATOM      1  C   UNL     1      13.552 -15.415  15.640  1.00  0.00     0.000 C 
ENDROOT
BRANCH   1   2
ATOM      2  C   UNL     1      14.026 -16.802  16.099  1.00  0.00     0.006 C 
BRANCH   2   3
ATOM      3  C   UNL     1      13.665 -17.874  15.066  1.00  0.00     0.053 C 
BRANCH   3   4
ATOM      4  C   UNL     1      14.429 -17.657  13.798  1.00  0.00     0.041 C 
ATOM      5  O   UNL     1      13.824 -17.606  12.695  1.00  0.00    -0.550 OA
ATOM      6  O   UNL     1      15.814 -17.559  13.828  1.00  0.00    -0.550 OA
ENDBRANCH   3   4
ENDBRANCH   2   3
ENDBRANCH   1   2
BRANCH   1   7
ATOM      7  C   UNL     1      12.159 -15.056  16.183  1.00  0.00     0.000 C 
BRANCH   7   8
ATOM      8  C   UNL     1      11.034 -15.365  15.184  1.00  0.00    -0.000 C 
BRANCH   8   9
ATOM      9  C   UNL     1      11.462 -15.022  13.753  1.00  0.00    -0.003 C 
ATOM     10  C   UNL     1      10.636 -15.798  12.730  1.00  0.00     0.004 C 
ENDBRANCH   8   9
ENDBRANCH   7   8
ENDBRANCH   1   7
TORSDOF 6
ENDMDL
MODEL 5
REMARK VINA RESULT:    -3.929      3.900      5.536
REMARK INTER + INTRA:          -5.666
REMARK INTER:                  -5.326
REMARK INTRA:                  -0.340
REMARK UNBOUND:                -0.359
REMARK SMILES CCCCCCCC(=O)[O-]
REMARK SMILES IDX 5 1 6 2 7 3 8 4 9 5 10 6 4 7 3 8 2 9 1 10
REMARK H PARENT
REMARK Flexibility Score: inf
ROOT
ATOM      1  C   UNL     1      11.810 -13.603  16.632  1.00  0.00     0.000 C 
ENDROOT
BRANCH   1   2
ATOM      2  C   UNL     1      11.409 -12.657  15.491  1.00  0.00     0.006 C 
BRANCH   2   3
ATOM      3  C   UNL     1      12.558 -11.707  15.136  1.00  0.00     0.053 C 
BRANCH   3   4
ATOM      4  C   UNL     1      12.093 -10.286  15.169  1.00  0.00     0.041 C 
ATOM      5  O   UNL     1      10.861 -10.023  15.166  1.00  0.00    -0.550 OA
ATOM      6  O   UNL     1      13.018  -9.250  15.154  1.00  0.00    -0.550 OA
ENDBRANCH   3   4
ENDBRANCH   2   3
ENDBRANCH   1   2
BRANCH   1   7
ATOM      7  C   UNL     1      11.797 -15.080  16.208  1.00  0.00     0.000 C 
BRANCH   7   8
ATOM      8  C   UNL     1      11.062 -15.310  14.880  1.00  0.00    -0.000 C 
BRANCH   8   9
ATOM      9  C   UNL     1      11.919 -16.137  13.914  1.00  0.00    -0.003 C 
ATOM     10  C   UNL     1      13.026 -16.880  14.657  1.00  0.00     0.004 C 
ENDBRANCH   8   9
ENDBRANCH   7   8
ENDBRANCH   1   7
TORSDOF 6
ENDMDL
MODEL 6
REMARK VINA RESULT:    -3.911      2.794      4.824
REMARK INTER + INTRA:          -5.641
REMARK INTER:                  -5.258
REMARK INTRA:                  -0.383
REMARK UNBOUND:                -0.359
REMARK SMILES CCCCCCCC(=O)[O-]
REMARK SMILES IDX 5 1 6 2 7 3 8 4 9 5 10 6 4 7 3 8 2 9 1 10
REMARK H PARENT
REMARK Flexibility Score: inf
ROOT
ATOM      1  C   UNL     1      10.920 -15.453  14.723  1.00  0.00     0.000 C 
ENDROOT
BRANCH   1   2
ATOM      2  C   UNL     1      11.856 -15.007  15.856  1.00  0.00     0.006 C 
BRANCH   2   3
ATOM      3  C   UNL     1      11.492 -13.602  16.346  1.00  0.00     0.053 C 
BRANCH   3   4
ATOM      4  C   UNL     1      12.076 -12.564  15.441  1.00  0.00     0.041 C 
ATOM      5  O   UNL     1      11.422 -11.523  15.168  1.00  0.00    -0.550 OA
ATOM      6  O   UNL     1      13.321 -12.767  14.861  1.00  0.00    -0.550 OA
ENDBRANCH   3   4
ENDBRANCH   2   3
ENDBRANCH   1   2
BRANCH   1   7
ATOM      7  C   UNL     1      11.637 -16.306  13.664  1.00  0.00     0.000 C 
BRANCH   7   8
ATOM      8  C   UNL     1      13.139 -16.461  13.943  1.00  0.00    -0.000 C 
BRANCH   8   9
ATOM      9  C   UNL     1      13.462 -17.875  14.438  1.00  0.00    -0.003 C 
ATOM     10  C   UNL     1      14.478 -17.842  15.577  1.00  0.00     0.004 C 
ENDBRANCH   8   9
ENDBRANCH   7   8
ENDBRANCH   1   7
TORSDOF 6
ENDMDL
MODEL 7
REMARK VINA RESULT:    -3.884      1.719      3.559
REMARK INTER + INTRA:          -5.605
REMARK INTER:                  -5.009
REMARK INTRA:                  -0.596
REMARK UNBOUND:                -0.359
REMARK SMILES CCCCCCCC(=O)[O-]
REMARK SMILES IDX 5 1 6 2 7 3 8 4 9 5 10 6 4 7 3 8 2 9 1 10
REMARK H PARENT
REMARK Flexibility Score: inf
ROOT
ATOM      1  C   UNL     1      11.140 -15.340  15.366  1.00  0.00     0.000 C 
ENDROOT
BRANCH   1   2
ATOM      2  C   UNL     1      12.431 -14.779  15.980  1.00  0.00     0.006 C 
BRANCH   2   3
ATOM      3  C   UNL     1      13.206 -15.873  16.720  1.00  0.00     0.053 C 
BRANCH   3   4
ATOM      4  C   UNL     1      14.089 -16.622  15.772  1.00  0.00     0.041 C 
ATOM      5  O   UNL     1      14.978 -16.013  15.120  1.00  0.00    -0.550 OA
ATOM      6  O   UNL     1      13.900 -17.983  15.572  1.00  0.00    -0.550 OA
ENDBRANCH   3   4
ENDBRANCH   2   3
ENDBRANCH   1   2
BRANCH   1   7
ATOM      7  C   UNL     1      11.115 -15.225  13.833  1.00  0.00     0.000 C 
BRANCH   7   8
ATOM      8  C   UNL     1      11.629 -16.492  13.134  1.00  0.00    -0.000 C 
BRANCH   8   9
ATOM      9  C   UNL     1      12.830 -16.174  12.235  1.00  0.00    -0.003 C 
ATOM     10  C   UNL     1      13.741 -17.389  12.083  1.00  0.00     0.004 C 
ENDBRANCH   8   9
ENDBRANCH   7   8
ENDBRANCH   1   7
TORSDOF 6
ENDMDL
MODEL 8
REMARK VINA RESULT:    -3.854      1.231      1.981
REMARK INTER + INTRA:          -5.565
REMARK INTER:                  -5.167
REMARK INTRA:                  -0.397
REMARK UNBOUND:                -0.359
REMARK SMILES CCCCCCCC(=O)[O-]
REMARK SMILES IDX 5 1 6 2 7 3 8 4 9 5 10 6 4 7 3 8 2 9 1 10
REMARK H PARENT
REMARK Flexibility Score: inf
ROOT
ATOM      1  C   UNL     1      11.068 -15.507  14.820  1.00  0.00     0.000 C 
ENDROOT
BRANCH   1   2
ATOM      2  C   UNL     1      11.856 -16.272  13.748  1.00  0.00     0.006 C 
BRANCH   2   3
ATOM      3  C   UNL     1      13.364 -16.062  13.922  1.00  0.00     0.053 C 
BRANCH   3   4
ATOM      4  C   UNL     1      14.020 -17.325  14.383  1.00  0.00     0.041 C 
ATOM      5  O   UNL     1      13.371 -18.163  15.062  1.00  0.00    -0.550 OA
ATOM      6  O   UNL     1      15.360 -17.556  14.103  1.00  0.00    -0.550 OA
ENDBRANCH   3   4
ENDBRANCH   2   3
ENDBRANCH   1   2
BRANCH   1   7
ATOM      7  C   UNL     1      11.678 -14.131  15.134  1.00  0.00     0.000 C 
BRANCH   7   8
ATOM      8  C   UNL     1      11.748 -13.842  16.641  1.00  0.00    -0.000 C 
BRANCH   8   9
ATOM      9  C   UNL     1      12.411 -15.003  17.392  1.00  0.00    -0.003 C 
ATOM     10  C   UNL     1      12.431 -14.747  18.896  1.00  0.00     0.004 C 
ENDBRANCH   8   9
ENDBRANCH   7   8
ENDBRANCH   1   7
TORSDOF 6
ENDMDL
MODEL 9
REMARK VINA RESULT:    -3.848      1.438      2.650
REMARK INTER + INTRA:          -5.556
REMARK INTER:                  -5.260
REMARK INTRA:                  -0.296
REMARK UNBOUND:                -0.359
REMARK SMILES CCCCCCCC(=O)[O-]
REMARK SMILES IDX 5 1 6 2 7 3 8 4 9 5 10 6 4 7 3 8 2 9 1 10
REMARK H PARENT
REMARK Flexibility Score: inf
ROOT
ATOM      1  C   UNL     1      11.380 -13.180  16.278  1.00  0.00     0.000 C 
ENDROOT
BRANCH   1   2
ATOM      2  C   UNL     1      11.331 -14.681  15.961  1.00  0.00     0.006 C 
BRANCH   2   3
ATOM      3  C   UNL     1      12.040 -14.984  14.637  1.00  0.00     0.053 C 
BRANCH   3   4
ATOM      4  C   UNL     1      12.796 -16.272  14.730  1.00  0.00     0.041 C 
ATOM      5  O   UNL     1      12.845 -17.050  13.741  1.00  0.00    -0.550 OA
ATOM      6  O   UNL     1      13.407 -16.635  15.923  1.00  0.00    -0.550 OA
ENDBRANCH   3   4
ENDBRANCH   2   3
ENDBRANCH   1   2
BRANCH   1   7
ATOM      7  C   UNL     1      11.813 -12.333  15.071  1.00  0.00     0.000 C 
BRANCH   7   8
ATOM      8  C   UNL     1      11.517 -10.838  15.256  1.00  0.00    -0.000 C 
BRANCH   8   9
ATOM      9  C   UNL     1      12.800 -10.006  15.138  1.00  0.00    -0.003 C 
ATOM     10  C   UNL     1      13.985 -10.876  14.729  1.00  0.00     0.004 C 
ENDBRANCH   8   9
ENDBRANCH   7   8
ENDBRANCH   1   7
TORSDOF 6
ENDMDL
