MODEL 1
REMARK VINA RESULT:    -3.853      0.000      0.000
REMARK INTER + INTRA:          -7.257
REMARK INTER:                  -6.556
REMARK INTRA:                  -0.701
REMARK UNBOUND:                -0.701
REMARK SMILES CCCCCCCCCCCCCC(=O)[O-]
REMARK SMILES IDX 8 1 9 2 10 3 11 4 12 5 13 6 14 7 15 8 16 9 7 10 6 11 5 12
REMARK SMILES IDX 4 13 3 14 2 15 1 16
REMARK H PARENT
REMARK Flexibility Score: inf
ROOT
ATOM      1  C   UNL     1       4.664 -36.522  19.735  1.00  0.00     0.000 C 
ENDROOT
BRANCH   1   2
ATOM      2  C   UNL     1       5.358 -35.407  20.534  1.00  0.00     0.000 C 
BRANCH   2   3
ATOM      3  C   UNL     1       4.388 -34.648  21.454  1.00  0.00     0.000 C 
BRANCH   3   4
ATOM      4  C   UNL     1       5.058 -34.294  22.786  1.00  0.00     0.000 C 
BRANCH   4   5
ATOM      5  C   UNL     1       6.013 -35.409  23.237  1.00  0.00     0.006 C 
BRANCH   5   6
ATOM      6  C   UNL     1       6.014 -35.594  24.759  1.00  0.00     0.053 C 
BRANCH   6   7
ATOM      7  C   UNL     1       5.625 -36.986  25.151  1.00  0.00     0.041 C 
ATOM      8  O   UNL     1       5.544 -37.302  26.367  1.00  0.00    -0.550 OA
ATOM      9  O   UNL     1       5.386 -37.945  24.174  1.00  0.00    -0.550 OA
ENDBRANCH   6   7
ENDBRANCH   5   6
ENDBRANCH   4   5
ENDBRANCH   3   4
ENDBRANCH   2   3
ENDBRANCH   1   2
BRANCH   1  10
ATOM     10  C   UNL     1       4.251 -36.068  18.324  1.00  0.00     0.000 C 
BRANCH  10  11
ATOM     11  C   UNL     1       3.106 -36.913  17.744  1.00  0.00    -0.000 C 
BRANCH  11  12
ATOM     12  C   UNL     1       2.155 -36.092  16.855  1.00  0.00    -0.000 C 
BRANCH  12  13
ATOM     13  C   UNL     1       2.906 -35.345  15.732  1.00  0.00    -0.000 C 
BRANCH  13  14
ATOM     14  C   UNL     1       2.910 -36.094  14.386  1.00  0.00    -0.000 C 
BRANCH  14  15
ATOM     15  C   UNL     1       4.302 -36.539  13.905  1.00  0.00    -0.003 C 
ATOM     16  C   UNL     1       4.574 -38.021  14.165  1.00  0.00     0.004 C 
ENDBRANCH  14  15
ENDBRANCH  13  14
ENDBRANCH  12  13
ENDBRANCH  11  12
ENDBRANCH  10  11
ENDBRANCH   1  10
TORSDOF 12
ENDMDL
MODEL 2
REMARK VINA RESULT:    -3.343      3.814      7.713
REMARK INTER + INTRA:          -6.389
REMARK INTER:                  -5.387
REMARK INTRA:                  -1.002
REMARK UNBOUND:                -0.701
REMARK SMILES CCCCCCCCCCCCCC(=O)[O-]
REMARK SMILES IDX 8 1 9 2 10 3 11 4 12 5 13 6 14 7 15 8 16 9 7 10 6 11 5 12
REMARK SMILES IDX 4 13 3 14 2 15 1 16
REMARK H PARENT
REMARK Flexibility Score: inf
ROOT
ATOM      1  C   UNL     1       4.679 -34.653  21.945  1.00  0.00     0.000 C 
ENDROOT
BRANCH   1   2
ATOM      2  C   UNL     1       5.824 -35.036  20.993  1.00  0.00     0.000 C 
BRANCH   2   3
ATOM      3  C   UNL     1       5.319 -35.613  19.662  1.00  0.00     0.000 C 
BRANCH   3   4
ATOM      4  C   UNL     1       4.108 -36.526  19.885  1.00  0.00     0.000 C 
BRANCH   4   5
ATOM      5  C   UNL     1       3.405 -36.844  18.557  1.00  0.00     0.006 C 
BRANCH   5   6
ATOM      6  C   UNL     1       3.858 -35.916  17.423  1.00  0.00     0.053 C 
BRANCH   6   7
ATOM      7  C   UNL     1       3.171 -36.239  16.131  1.00  0.00     0.041 C 
ATOM      8  O   UNL     1       3.668 -37.086  15.343  1.00  0.00    -0.550 OA
ATOM      9  O   UNL     1       1.998 -35.581  15.782  1.00  0.00    -0.550 OA
ENDBRANCH   6   7
ENDBRANCH   5   6
ENDBRANCH   4   5
ENDBRANCH   3   4
ENDBRANCH   2   3
ENDBRANCH   1   2
BRANCH   1  10
ATOM     10  C   UNL     1       5.188 -34.083  23.282  1.00  0.00     0.000 C 
BRANCH  10  11
ATOM     11  C   UNL     1       6.076 -35.077  24.046  1.00  0.00    -0.000 C 
BRANCH  11  12
ATOM     12  C   UNL     1       5.315 -35.812  25.164  1.00  0.00    -0.000 C 
BRANCH  12  13
ATOM     13  C   UNL     1       5.796 -37.269  25.335  1.00  0.00    -0.000 C 
BRANCH  13  14
ATOM     14  C   UNL     1       5.059 -38.273  24.428  1.00  0.00    -0.000 C 
BRANCH  14  15
ATOM     15  C   UNL     1       5.510 -38.260  22.958  1.00  0.00    -0.003 C 
ATOM     16  C   UNL     1       5.827 -39.656  22.422  1.00  0.00     0.004 C 
ENDBRANCH  14  15
ENDBRANCH  13  14
ENDBRANCH  12  13
ENDBRANCH  11  12
ENDBRANCH  10  11
ENDBRANCH   1  10
TORSDOF 12
ENDMDL
MODEL 3
REMARK VINA RESULT:    -3.051      1.811      3.585
REMARK INTER + INTRA:          -5.891
REMARK INTER:                  -5.424
REMARK INTRA:                  -0.467
REMARK UNBOUND:                -0.701
REMARK SMILES CCCCCCCCCCCCCC(=O)[O-]
REMARK SMILES IDX 8 1 9 2 10 3 11 4 12 5 13 6 14 7 15 8 16 9 7 10 6 11 5 12
REMARK SMILES IDX 4 13 3 14 2 15 1 16
REMARK H PARENT
REMARK Flexibility Score: inf
ROOT
ATOM      1  C   UNL     1       5.391 -34.406  22.964  1.00  0.00     0.000 C 
ENDROOT
BRANCH   1   2
ATOM      2  C   UNL     1       6.116 -34.926  24.215  1.00  0.00     0.000 C 
BRANCH   2   3
ATOM      3  C   UNL     1       5.156 -35.556  25.236  1.00  0.00     0.000 C 
BRANCH   3   4
ATOM      4  C   UNL     1       5.398 -37.064  25.359  1.00  0.00     0.000 C 
BRANCH   4   5
ATOM      5  C   UNL     1       5.579 -37.708  23.977  1.00  0.00     0.006 C 
BRANCH   5   6
ATOM      6  C   UNL     1       5.272 -39.211  23.991  1.00  0.00     0.053 C 
BRANCH   6   7
ATOM      7  C   UNL     1       5.728 -39.884  22.732  1.00  0.00     0.041 C 
ATOM      8  O   UNL     1       5.948 -41.123  22.721  1.00  0.00    -0.550 OA
ATOM      9  O   UNL     1       5.941 -39.136  21.580  1.00  0.00    -0.550 OA
ENDBRANCH   6   7
ENDBRANCH   5   6
ENDBRANCH   4   5
ENDBRANCH   3   4
ENDBRANCH   2   3
ENDBRANCH   1   2
BRANCH   1  10
ATOM     10  C   UNL     1       5.798 -35.164  21.687  1.00  0.00     0.000 C 
BRANCH  10  11
ATOM     11  C   UNL     1       4.660 -35.240  20.658  1.00  0.00    -0.000 C 
BRANCH  11  12
ATOM     12  C   UNL     1       4.946 -36.248  19.531  1.00  0.00    -0.000 C 
BRANCH  12  13
ATOM     13  C   UNL     1       3.697 -36.529  18.669  1.00  0.00    -0.000 C 
BRANCH  13  14
ATOM     14  C   UNL     1       3.719 -35.823  17.300  1.00  0.00    -0.000 C 
BRANCH  14  15
ATOM     15  C   UNL     1       3.262 -36.696  16.120  1.00  0.00    -0.003 C 
ATOM     16  C   UNL     1       3.470 -36.020  14.765  1.00  0.00     0.004 C 
ENDBRANCH  14  15
ENDBRANCH  13  14
ENDBRANCH  12  13
ENDBRANCH  11  12
ENDBRANCH  10  11
ENDBRANCH   1  10
TORSDOF 12
ENDMDL
MODEL 4
REMARK VINA RESULT:    -2.551      1.531      2.113
REMARK INTER + INTRA:          -5.041
REMARK INTER:                  -4.320
REMARK INTRA:                  -0.722
REMARK UNBOUND:                -0.701
REMARK SMILES CCCCCCCCCCCCCC(=O)[O-]
REMARK SMILES IDX 8 1 9 2 10 3 11 4 12 5 13 6 14 7 15 8 16 9 7 10 6 11 5 12
REMARK SMILES IDX 4 13 3 14 2 15 1 16
REMARK H PARENT
REMARK Flexibility Score: inf
ROOT
ATOM      1  C   UNL     1       4.727 -35.960  20.360  1.00  0.00     0.000 C 
ENDROOT
BRANCH   1   2
ATOM      2  C   UNL     1       5.755 -36.674  21.252  1.00  0.00     0.000 C 
BRANCH   2   3
ATOM      3  C   UNL     1       5.788 -38.192  21.018  1.00  0.00     0.000 C 
BRANCH   3   4
ATOM      4  C   UNL     1       5.712 -38.954  22.345  1.00  0.00     0.000 C 
BRANCH   4   5
ATOM      5  C   UNL     1       4.992 -38.123  23.417  1.00  0.00     0.006 C 
BRANCH   5   6
ATOM      6  C   UNL     1       5.359 -38.565  24.839  1.00  0.00     0.053 C 
BRANCH   6   7
ATOM      7  C   UNL     1       5.596 -37.394  25.743  1.00  0.00     0.041 C 
ATOM      8  O   UNL     1       6.005 -37.574  26.920  1.00  0.00    -0.550 OA
ATOM      9  O   UNL     1       5.335 -36.105  25.296  1.00  0.00    -0.550 OA
ENDBRANCH   6   7
ENDBRANCH   5   6
ENDBRANCH   4   5
ENDBRANCH   3   4
ENDBRANCH   2   3
ENDBRANCH   1   2
BRANCH   1  10
ATOM     10  C   UNL     1       4.286 -36.820  19.162  1.00  0.00     0.000 C 
BRANCH  10  11
ATOM     11  C   UNL     1       2.758 -36.909  19.030  1.00  0.00    -0.000 C 
BRANCH  11  12
ATOM     12  C   UNL     1       2.289 -36.920  17.564  1.00  0.00    -0.000 C 
BRANCH  12  13
ATOM     13  C   UNL     1       3.257 -36.155  16.637  1.00  0.00    -0.000 C 
BRANCH  13  14
ATOM     14  C   UNL     1       2.661 -35.832  15.253  1.00  0.00    -0.000 C 
BRANCH  14  15
ATOM     15  C   UNL     1       3.636 -36.013  14.077  1.00  0.00    -0.003 C 
ATOM     16  C   UNL     1       4.377 -37.350  14.121  1.00  0.00     0.004 C 
ENDBRANCH  14  15
ENDBRANCH  13  14
ENDBRANCH  12  13
ENDBRANCH  11  12
ENDBRANCH  10  11
ENDBRANCH   1  10
TORSDOF 12
ENDMDL
MODEL 5
REMARK VINA RESULT:    -2.362      3.903      8.016
REMARK INTER + INTRA:          -4.719
REMARK INTER:                  -4.118
REMARK INTRA:                  -0.601
REMARK UNBOUND:                -0.701
REMARK SMILES CCCCCCCCCCCCCC(=O)[O-]
REMARK SMILES IDX 8 1 9 2 10 3 11 4 12 5 13 6 14 7 15 8 16 9 7 10 6 11 5 12
REMARK SMILES IDX 4 13 3 14 2 15 1 16
REMARK H PARENT
REMARK Flexibility Score: inf
ROOT
ATOM      1  C   UNL     1       5.462 -38.963  21.608  1.00  0.00     0.000 C 
ENDROOT
BRANCH   1   2
ATOM      2  C   UNL     1       5.564 -37.502  21.142  1.00  0.00     0.000 C 
BRANCH   2   3
ATOM      3  C   UNL     1       5.244 -37.334  19.649  1.00  0.00     0.000 C 
BRANCH   3   4
ATOM      4  C   UNL     1       3.992 -36.472  19.450  1.00  0.00     0.000 C 
BRANCH   4   5
ATOM      5  C   UNL     1       3.346 -36.746  18.084  1.00  0.00     0.006 C 
BRANCH   5   6
ATOM      6  C   UNL     1       3.862 -35.797  16.995  1.00  0.00     0.053 C 
BRANCH   6   7
ATOM      7  C   UNL     1       2.938 -35.748  15.816  1.00  0.00     0.041 C 
ATOM      8  O   UNL     1       1.691 -35.771  15.988  1.00  0.00    -0.550 OA
ATOM      9  O   UNL     1       3.455 -35.710  14.527  1.00  0.00    -0.550 OA
ENDBRANCH   6   7
ENDBRANCH   5   6
ENDBRANCH   4   5
ENDBRANCH   3   4
ENDBRANCH   2   3
ENDBRANCH   1   2
BRANCH   1  10
ATOM     10  C   UNL     1       5.395 -39.091  23.141  1.00  0.00     0.000 C 
BRANCH  10  11
ATOM     11  C   UNL     1       5.841 -37.808  23.859  1.00  0.00    -0.000 C 
BRANCH  11  12
ATOM     12  C   UNL     1       5.058 -37.554  25.160  1.00  0.00    -0.000 C 
BRANCH  12  13
ATOM     13  C   UNL     1       5.135 -36.079  25.608  1.00  0.00    -0.000 C 
BRANCH  13  14
ATOM     14  C   UNL     1       6.083 -35.220  24.749  1.00  0.00    -0.000 C 
BRANCH  14  15
ATOM     15  C   UNL     1       5.380 -34.339  23.703  1.00  0.00    -0.003 C 
ATOM     16  C   UNL     1       5.915 -34.557  22.288  1.00  0.00     0.004 C 
ENDBRANCH  14  15
ENDBRANCH  13  14
ENDBRANCH  12  13
ENDBRANCH  11  12
ENDBRANCH  10  11
ENDBRANCH   1  10
TORSDOF 12
ENDMDL
MODEL 6
REMARK VINA RESULT:    -2.158      4.157      8.400
REMARK INTER + INTRA:          -4.373
REMARK INTER:                  -3.633
REMARK INTRA:                  -0.739
REMARK UNBOUND:                -0.701
REMARK SMILES CCCCCCCCCCCCCC(=O)[O-]
REMARK SMILES IDX 8 1 9 2 10 3 11 4 12 5 13 6 14 7 15 8 16 9 7 10 6 11 5 12
REMARK SMILES IDX 4 13 3 14 2 15 1 16
REMARK H PARENT
REMARK Flexibility Score: inf
ROOT
ATOM      1  C   UNL     1       5.515 -37.234  19.971  1.00  0.00     0.000 C 
ENDROOT
BRANCH   1   2
ATOM      2  C   UNL     1       4.384 -36.261  19.597  1.00  0.00     0.000 C 
BRANCH   2   3
ATOM      3  C   UNL     1       3.003 -36.934  19.594  1.00  0.00     0.000 C 
BRANCH   3   4
ATOM      4  C   UNL     1       2.389 -36.921  18.190  1.00  0.00     0.000 C 
BRANCH   4   5
ATOM      5  C   UNL     1       3.474 -36.751  17.116  1.00  0.00     0.006 C 
BRANCH   5   6
ATOM      6  C   UNL     1       3.167 -35.593  16.158  1.00  0.00     0.053 C 
BRANCH   6   7
ATOM      7  C   UNL     1       3.247 -36.020  14.725  1.00  0.00     0.041 C 
ATOM      8  O   UNL     1       2.307 -35.752  13.931  1.00  0.00    -0.550 OA
ATOM      9  O   UNL     1       4.343 -36.744  14.273  1.00  0.00    -0.550 OA
ENDBRANCH   6   7
ENDBRANCH   5   6
ENDBRANCH   4   5
ENDBRANCH   3   4
ENDBRANCH   2   3
ENDBRANCH   1   2
BRANCH   1  10
ATOM     10  C   UNL     1       5.642 -37.434  21.492  1.00  0.00     0.000 C 
BRANCH  10  11
ATOM     11  C   UNL     1       5.282 -38.862  21.932  1.00  0.00    -0.000 C 
BRANCH  11  12
ATOM     12  C   UNL     1       5.268 -39.025  23.462  1.00  0.00    -0.000 C 
BRANCH  12  13
ATOM     13  C   UNL     1       5.866 -37.799  24.185  1.00  0.00    -0.000 C 
BRANCH  13  14
ATOM     14  C   UNL     1       4.983 -37.264  25.328  1.00  0.00    -0.000 C 
BRANCH  14  15
ATOM     15  C   UNL     1       5.145 -35.762  25.613  1.00  0.00    -0.003 C 
ATOM     16  C   UNL     1       5.768 -34.999  24.443  1.00  0.00     0.004 C 
ENDBRANCH  14  15
ENDBRANCH  13  14
ENDBRANCH  12  13
ENDBRANCH  11  12
ENDBRANCH  10  11
ENDBRANCH   1  10
TORSDOF 12
ENDMDL
MODEL 7
REMARK VINA RESULT:    -1.909      3.362      7.105
REMARK INTER + INTRA:          -3.950
REMARK INTER:                  -3.034
REMARK INTRA:                  -0.916
REMARK UNBOUND:                -0.701
REMARK SMILES CCCCCCCCCCCCCC(=O)[O-]
REMARK SMILES IDX 8 1 9 2 10 3 11 4 12 5 13 6 14 7 15 8 16 9 7 10 6 11 5 12
REMARK SMILES IDX 4 13 3 14 2 15 1 16
REMARK H PARENT
REMARK Flexibility Score: inf
ROOT
ATOM      1  C   UNL     1       6.045 -34.495  24.543  1.00  0.00     0.000 C 
ENDROOT
BRANCH   1   2
ATOM      2  C   UNL     1       6.116 -34.758  23.029  1.00  0.00     0.000 C 
BRANCH   2   3
ATOM      3  C   UNL     1       4.868 -34.260  22.284  1.00  0.00     0.000 C 
BRANCH   3   4
ATOM      4  C   UNL     1       4.811 -34.834  20.864  1.00  0.00     0.000 C 
BRANCH   4   5
ATOM      5  C   UNL     1       5.137 -36.334  20.863  1.00  0.00     0.006 C 
BRANCH   5   6
ATOM      6  C   UNL     1       5.087 -36.939  19.454  1.00  0.00     0.053 C 
BRANCH   6   7
ATOM      7  C   UNL     1       3.732 -36.791  18.833  1.00  0.00     0.041 C 
ATOM      8  O   UNL     1       3.618 -36.349  17.659  1.00  0.00    -0.550 OA
ATOM      9  O   UNL     1       2.592 -37.109  19.561  1.00  0.00    -0.550 OA
ENDBRANCH   6   7
ENDBRANCH   5   6
ENDBRANCH   4   5
ENDBRANCH   3   4
ENDBRANCH   2   3
ENDBRANCH   1   2
BRANCH   1  10
ATOM     10  C   UNL     1       5.989 -35.795  25.366  1.00  0.00     0.000 C 
BRANCH  10  11
ATOM     11  C   UNL     1       4.572 -36.117  25.863  1.00  0.00    -0.000 C 
BRANCH  11  12
ATOM     12  C   UNL     1       4.265 -37.625  25.840  1.00  0.00    -0.000 C 
BRANCH  12  13
ATOM     13  C   UNL     1       5.421 -38.447  25.231  1.00  0.00    -0.000 C 
BRANCH  13  14
ATOM     14  C   UNL     1       5.421 -38.466  23.691  1.00  0.00    -0.000 C 
BRANCH  14  15
ATOM     15  C   UNL     1       5.288 -39.866  23.067  1.00  0.00    -0.003 C 
ATOM     16  C   UNL     1       6.125 -40.032  21.798  1.00  0.00     0.004 C 
ENDBRANCH  14  15
ENDBRANCH  13  14
ENDBRANCH  12  13
ENDBRANCH  11  12
ENDBRANCH  10  11
ENDBRANCH   1  10
TORSDOF 12
ENDMDL
MODEL 8
REMARK VINA RESULT:    -1.773      1.402      2.295
REMARK INTER + INTRA:          -3.717
REMARK INTER:                  -2.815
REMARK INTRA:                  -0.902
REMARK UNBOUND:                -0.701
REMARK SMILES CCCCCCCCCCCCCC(=O)[O-]
REMARK SMILES IDX 8 1 9 2 10 3 11 4 12 5 13 6 14 7 15 8 16 9 7 10 6 11 5 12
REMARK SMILES IDX 4 13 3 14 2 15 1 16
REMARK H PARENT
REMARK Flexibility Score: inf
ROOT
ATOM      1  C   UNL     1       3.490 -37.236  17.787  1.00  0.00     0.000 C 
ENDROOT
BRANCH   1   2
ATOM      2  C   UNL     1       3.506 -36.774  19.253  1.00  0.00     0.000 C 
BRANCH   2   3
ATOM      3  C   UNL     1       4.885 -36.265  19.698  1.00  0.00     0.000 C 
BRANCH   3   4
ATOM      4  C   UNL     1       4.768 -34.912  20.410  1.00  0.00     0.000 C 
BRANCH   4   5
ATOM      5  C   UNL     1       5.968 -34.672  21.337  1.00  0.00     0.006 C 
BRANCH   5   6
ATOM      6  C   UNL     1       6.022 -35.680  22.492  1.00  0.00     0.053 C 
BRANCH   6   7
ATOM      7  C   UNL     1       5.829 -35.015  23.821  1.00  0.00     0.041 C 
ATOM      8  O   UNL     1       5.498 -33.802  23.880  1.00  0.00    -0.550 OA
ATOM      9  O   UNL     1       6.046 -35.726  24.994  1.00  0.00    -0.550 OA
ENDBRANCH   6   7
ENDBRANCH   5   6
ENDBRANCH   4   5
ENDBRANCH   3   4
ENDBRANCH   2   3
ENDBRANCH   1   2
BRANCH   1  10
ATOM     10  C   UNL     1       2.176 -36.878  17.069  1.00  0.00     0.000 C 
BRANCH  10  11
ATOM     11  C   UNL     1       2.077 -35.383  16.730  1.00  0.00    -0.000 C 
BRANCH  11  12
ATOM     12  C   UNL     1       1.930 -35.126  15.220  1.00  0.00    -0.000 C 
BRANCH  12  13
ATOM     13  C   UNL     1       2.669 -36.184  14.374  1.00  0.00    -0.000 C 
BRANCH  13  14
ATOM     14  C   UNL     1       4.184 -35.931  14.253  1.00  0.00    -0.000 C 
BRANCH  14  15
ATOM     15  C   UNL     1       5.013 -37.170  13.875  1.00  0.00    -0.003 C 
ATOM     16  C   UNL     1       4.477 -38.457  14.504  1.00  0.00     0.004 C 
ENDBRANCH  14  15
ENDBRANCH  13  14
ENDBRANCH  12  13
ENDBRANCH  11  12
ENDBRANCH  10  11
ENDBRANCH   1  10
TORSDOF 12
ENDMDL
