MODEL 1
REMARK VINA RESULT:    -6.613      0.000      0.000
REMARK INTER + INTRA:          -6.807
REMARK INTER:                  -6.807
REMARK INTRA:                   0.000
REMARK UNBOUND:                 0.000
REMARK SMILES Oc1ccc2[nH]ccc2c1
REMARK SMILES IDX 3 1 4 2 5 3 9 4 8 5 7 6 6 7 10 8 2 9 1 11
REMARK H PARENT 6 10 1 12
REMARK Flexibility Score: inf
ROOT
ATOM      1  C   UNL     1      10.546  -3.688 -18.323  1.00  0.00     0.048 A 
ATOM      2  C   UNL     1       9.544  -3.265 -17.429  1.00  0.00     0.030 A 
ATOM      3  C   UNL     1       8.942  -2.031 -17.663  1.00  0.00     0.046 A 
ATOM      4  C   UNL     1       9.301  -1.245 -18.725  1.00  0.00     0.003 A 
ATOM      5  C   UNL     1       8.527  -0.105 -18.674  1.00  0.00     0.028 A 
ATOM      6  C   UNL     1       7.717  -0.267 -17.554  1.00  0.00     0.083 A 
ATOM      7  N   UNL     1       7.974  -1.444 -16.940  1.00  0.00    -0.361 N 
ATOM      8  C   UNL     1      10.288  -1.633 -19.628  1.00  0.00     0.056 A 
ATOM      9  C   UNL     1      10.919  -2.877 -19.420  1.00  0.00     0.116 A 
ATOM     10  H   UNL     1       7.512  -1.817 -16.081  1.00  0.00     0.166 HD
ENDROOT
BRANCH   9  11
ATOM     11  O   UNL     1      11.913  -3.318 -20.290  1.00  0.00    -0.508 OA
ATOM     12  H   UNL     1      12.291  -2.714 -21.011  1.00  0.00     0.293 HD
ENDBRANCH   9  11
TORSDOF 1
ENDMDL
MODEL 2
REMARK VINA RESULT:    -6.386      1.031      2.515
REMARK INTER + INTRA:          -6.572
REMARK INTER:                  -6.572
REMARK INTRA:                   0.000
REMARK UNBOUND:                 0.000
REMARK SMILES Oc1ccc2[nH]ccc2c1
REMARK SMILES IDX 3 1 4 2 5 3 9 4 8 5 7 6 6 7 10 8 2 9 1 11
REMARK H PARENT 6 10 1 12
REMARK Flexibility Score: inf
ROOT
ATOM      1  C   UNL     1      10.227  -0.942 -19.463  1.00  0.00     0.048 A 
ATOM      2  C   UNL     1       9.278  -1.002 -18.425  1.00  0.00     0.030 A 
ATOM      3  C   UNL     1       9.183  -2.187 -17.698  1.00  0.00     0.046 A 
ATOM      4  C   UNL     1       9.980  -3.266 -17.974  1.00  0.00     0.003 A 
ATOM      5  C   UNL     1       9.640  -4.265 -17.087  1.00  0.00     0.028 A 
ATOM      6  C   UNL     1       8.629  -3.723 -16.300  1.00  0.00     0.083 A 
ATOM      7  N   UNL     1       8.353  -2.454 -16.677  1.00  0.00    -0.361 N 
ATOM      8  C   UNL     1      10.928  -3.240 -18.993  1.00  0.00     0.056 A 
ATOM      9  C   UNL     1      11.051  -2.055 -19.749  1.00  0.00     0.116 A 
ATOM     10  H   UNL     1       7.640  -1.816 -16.257  1.00  0.00     0.166 HD
ENDROOT
BRANCH   9  11
ATOM     11  O   UNL     1      11.982  -1.970 -20.781  1.00  0.00    -0.508 OA
ATOM     12  H   UNL     1      12.467  -2.791 -21.126  1.00  0.00     0.293 HD
ENDBRANCH   9  11
TORSDOF 1
ENDMDL
MODEL 3
REMARK VINA RESULT:    -6.334      2.607      4.015
REMARK INTER + INTRA:          -6.520
REMARK INTER:                  -6.520
REMARK INTRA:                   0.000
REMARK UNBOUND:                 0.000
REMARK SMILES Oc1ccc2[nH]ccc2c1
REMARK SMILES IDX 3 1 4 2 5 3 9 4 8 5 7 6 6 7 10 8 2 9 1 11
REMARK H PARENT 6 10 1 12
REMARK Flexibility Score: inf
ROOT
ATOM      1  C   UNL     1       7.992  -0.261 -17.993  1.00  0.00     0.048 A 
ATOM      2  C   UNL     1       8.969  -0.129 -18.999  1.00  0.00     0.030 A 
ATOM      3  C   UNL     1       9.822  -1.207 -19.222  1.00  0.00     0.046 A 
ATOM      4  C   UNL     1       9.725  -2.365 -18.497  1.00  0.00     0.003 A 
ATOM      5  C   UNL     1      10.701  -3.223 -18.958  1.00  0.00     0.028 A 
ATOM      6  C   UNL     1      11.355  -2.520 -19.966  1.00  0.00     0.083 A 
ATOM      7  N   UNL     1      10.815  -1.291 -20.124  1.00  0.00    -0.361 N 
ATOM      8  C   UNL     1       8.771  -2.528 -17.496  1.00  0.00     0.056 A 
ATOM      9  C   UNL     1       7.891  -1.456 -17.243  1.00  0.00     0.116 A 
ATOM     10  H   UNL     1      11.111  -0.559 -20.808  1.00  0.00     0.166 HD
ENDROOT
BRANCH   9  11
ATOM     11  O   UNL     1       6.915  -1.561 -16.254  1.00  0.00    -0.508 OA
ATOM     12  H   UNL     1       6.376  -0.757 -15.956  1.00  0.00     0.293 HD
ENDBRANCH   9  11
TORSDOF 1
ENDMDL
MODEL 4
REMARK VINA RESULT:    -5.893      2.685      3.496
REMARK INTER + INTRA:          -6.066
REMARK INTER:                  -6.066
REMARK INTRA:                   0.000
REMARK UNBOUND:                 0.000
REMARK SMILES Oc1ccc2[nH]ccc2c1
REMARK SMILES IDX 3 1 4 2 5 3 9 4 8 5 7 6 6 7 10 8 2 9 1 11
REMARK H PARENT 6 10 1 12
REMARK Flexibility Score: inf
ROOT
ATOM      1  C   UNL     1       9.056  -3.723 -16.688  1.00  0.00     0.048 A 
ATOM      2  C   UNL     1      10.123  -4.046 -17.548  1.00  0.00     0.030 A 
ATOM      3  C   UNL     1      10.411  -3.163 -18.587  1.00  0.00     0.046 A 
ATOM      4  C   UNL     1       9.690  -2.015 -18.777  1.00  0.00     0.003 A 
ATOM      5  C   UNL     1      10.221  -1.372 -19.875  1.00  0.00     0.028 A 
ATOM      6  C   UNL     1      11.264  -2.187 -20.302  1.00  0.00     0.083 A 
ATOM      7  N   UNL     1      11.377  -3.279 -19.513  1.00  0.00    -0.361 N 
ATOM      8  C   UNL     1       8.629  -1.666 -17.945  1.00  0.00     0.056 A 
ATOM      9  C   UNL     1       8.310  -2.537 -16.882  1.00  0.00     0.116 A 
ATOM     10  H   UNL     1      12.073  -4.052 -19.608  1.00  0.00     0.166 HD
ENDROOT
BRANCH   9  11
ATOM     11  O   UNL     1       7.260  -2.241 -16.017  1.00  0.00    -0.508 OA
ATOM     12  H   UNL     1       6.336  -2.636 -16.152  1.00  0.00     0.293 HD
ENDBRANCH   9  11
TORSDOF 1
ENDMDL
MODEL 5
REMARK VINA RESULT:    -5.880      2.122      3.264
REMARK INTER + INTRA:          -6.052
REMARK INTER:                  -6.052
REMARK INTRA:                   0.000
REMARK UNBOUND:                 0.000
REMARK SMILES Oc1ccc2[nH]ccc2c1
REMARK SMILES IDX 3 1 4 2 5 3 9 4 8 5 7 6 6 7 10 8 2 9 1 11
REMARK H PARENT 6 10 1 12
REMARK Flexibility Score: inf
ROOT
ATOM      1  C   UNL     1      10.700  -1.287 -19.442  1.00  0.00     0.048 A 
ATOM      2  C   UNL     1      11.075  -2.561 -18.976  1.00  0.00     0.030 A 
ATOM      3  C   UNL     1      10.279  -3.157 -18.000  1.00  0.00     0.046 A 
ATOM      4  C   UNL     1       9.165  -2.536 -17.501  1.00  0.00     0.003 A 
ATOM      5  C   UNL     1       8.607  -3.379 -16.564  1.00  0.00     0.028 A 
ATOM      6  C   UNL     1       9.436  -4.497 -16.544  1.00  0.00     0.083 A 
ATOM      7  N   UNL     1      10.454  -4.357 -17.423  1.00  0.00    -0.361 N 
ATOM      8  C   UNL     1       8.766  -1.275 -17.941  1.00  0.00     0.056 A 
ATOM      9  C   UNL     1       9.550  -0.643 -18.928  1.00  0.00     0.116 A 
ATOM     10  H   UNL     1      11.219  -5.043 -17.611  1.00  0.00     0.166 HD
ENDROOT
BRANCH   9  11
ATOM     11  O   UNL     1       9.201   0.618 -19.407  1.00  0.00    -0.508 OA
ATOM     12  H   UNL     1       9.650   1.457 -19.059  1.00  0.00     0.293 HD
ENDBRANCH   9  11
TORSDOF 1
ENDMDL
MODEL 6
REMARK VINA RESULT:    -5.840      3.537      4.910
REMARK INTER + INTRA:          -6.010
REMARK INTER:                  -6.010
REMARK INTRA:                   0.000
REMARK UNBOUND:                 0.000
REMARK SMILES Oc1ccc2[nH]ccc2c1
REMARK SMILES IDX 3 1 4 2 5 3 9 4 8 5 7 6 6 7 10 8 2 9 1 11
REMARK H PARENT 6 10 1 12
REMARK Flexibility Score: inf
ROOT
ATOM      1  C   UNL     1       6.671  -2.718 -15.292  1.00  0.00     0.048 A 
ATOM      2  C   UNL     1       7.269  -2.300 -16.496  1.00  0.00     0.030 A 
ATOM      3  C   UNL     1       8.438  -2.942 -16.900  1.00  0.00     0.046 A 
ATOM      4  C   UNL     1       8.998  -3.949 -16.160  1.00  0.00     0.003 A 
ATOM      5  C   UNL     1      10.132  -4.366 -16.824  1.00  0.00     0.028 A 
ATOM      6  C   UNL     1      10.200  -3.568 -17.962  1.00  0.00     0.083 A 
ATOM      7  N   UNL     1       9.164  -2.700 -18.004  1.00  0.00    -0.361 N 
ATOM      8  C   UNL     1       8.432  -4.387 -14.965  1.00  0.00     0.056 A 
ATOM      9  C   UNL     1       7.248  -3.759 -14.527  1.00  0.00     0.116 A 
ATOM     10  H   UNL     1       8.971  -1.989 -18.744  1.00  0.00     0.166 HD
ENDROOT
BRANCH   9  11
ATOM     11  O   UNL     1       6.636  -4.155 -13.340  1.00  0.00    -0.508 OA
ATOM     12  H   UNL     1       6.972  -4.952 -12.812  1.00  0.00     0.293 HD
ENDBRANCH   9  11
TORSDOF 1
ENDMDL
MODEL 7
REMARK VINA RESULT:    -5.773      2.992      3.727
REMARK INTER + INTRA:          -5.942
REMARK INTER:                  -5.942
REMARK INTRA:                   0.000
REMARK UNBOUND:                 0.000
REMARK SMILES Oc1ccc2[nH]ccc2c1
REMARK SMILES IDX 3 1 4 2 5 3 9 4 8 5 7 6 6 7 10 8 2 9 1 11
REMARK H PARENT 6 10 1 12
REMARK Flexibility Score: inf
ROOT
ATOM      1  C   UNL     1       8.344  -4.037 -15.970  1.00  0.00     0.048 A 
ATOM      2  C   UNL     1       9.278  -3.521 -16.888  1.00  0.00     0.030 A 
ATOM      3  C   UNL     1       8.975  -2.313 -17.513  1.00  0.00     0.046 A 
ATOM      4  C   UNL     1       7.812  -1.639 -17.253  1.00  0.00     0.003 A 
ATOM      5  C   UNL     1       7.816  -0.496 -18.024  1.00  0.00     0.028 A 
ATOM      6  C   UNL     1       9.014  -0.540 -18.729  1.00  0.00     0.083 A 
ATOM      7  N   UNL     1       9.719  -1.650 -18.414  1.00  0.00    -0.361 N 
ATOM      8  C   UNL     1       6.867  -2.122 -16.350  1.00  0.00     0.056 A 
ATOM      9  C   UNL     1       7.142  -3.343 -15.699  1.00  0.00     0.116 A 
ATOM     10  H   UNL     1      10.649  -1.932 -18.796  1.00  0.00     0.166 HD
ENDROOT
BRANCH   9  11
ATOM     11  O   UNL     1       6.236  -3.876 -14.785  1.00  0.00    -0.508 OA
ATOM     12  H   UNL     1       6.547  -4.324 -13.931  1.00  0.00     0.293 HD
ENDBRANCH   9  11
TORSDOF 1
ENDMDL
MODEL 8
REMARK VINA RESULT:    -5.772      2.008      3.322
REMARK INTER + INTRA:          -5.941
REMARK INTER:                  -5.941
REMARK INTRA:                   0.000
REMARK UNBOUND:                 0.000
REMARK SMILES Oc1ccc2[nH]ccc2c1
REMARK SMILES IDX 3 1 4 2 5 3 9 4 8 5 7 6 6 7 10 8 2 9 1 11
REMARK H PARENT 6 10 1 12
REMARK Flexibility Score: inf
ROOT
ATOM      1  C   UNL     1       7.899  -0.171 -18.058  1.00  0.00     0.048 A 
ATOM      2  C   UNL     1       7.844  -1.374 -17.329  1.00  0.00     0.030 A 
ATOM      3  C   UNL     1       8.852  -2.311 -17.543  1.00  0.00     0.046 A 
ATOM      4  C   UNL     1       9.869  -2.084 -18.430  1.00  0.00     0.003 A 
ATOM      5  C   UNL     1      10.690  -3.192 -18.409  1.00  0.00     0.028 A 
ATOM      6  C   UNL     1      10.110  -4.055 -17.484  1.00  0.00     0.083 A 
ATOM      7  N   UNL     1       8.988  -3.513 -16.958  1.00  0.00    -0.361 N 
ATOM      8  C   UNL     1       9.954  -0.905 -19.168  1.00  0.00     0.056 A 
ATOM      9  C   UNL     1       8.950   0.066 -18.975  1.00  0.00     0.116 A 
ATOM     10  H   UNL     1       8.359  -3.943 -16.244  1.00  0.00     0.166 HD
ENDROOT
BRANCH   9  11
ATOM     11  O   UNL     1       8.981   1.265 -19.684  1.00  0.00    -0.508 OA
ATOM     12  H   UNL     1       8.142   1.814 -19.831  1.00  0.00     0.293 HD
ENDBRANCH   9  11
TORSDOF 1
ENDMDL
MODEL 9
REMARK VINA RESULT:    -5.533      1.979      2.577
REMARK INTER + INTRA:          -5.695
REMARK INTER:                  -5.695
REMARK INTRA:                   0.000
REMARK UNBOUND:                 0.000
REMARK SMILES Oc1ccc2[nH]ccc2c1
REMARK SMILES IDX 3 1 4 2 5 3 9 4 8 5 7 6 6 7 10 8 2 9 1 11
REMARK H PARENT 6 10 1 12
REMARK Flexibility Score: inf
ROOT
ATOM      1  C   UNL     1      10.505  -3.867 -18.205  1.00  0.00     0.048 A 
ATOM      2  C   UNL     1      10.708  -2.751 -19.038  1.00  0.00     0.030 A 
ATOM      3  C   UNL     1       9.887  -1.641 -18.850  1.00  0.00     0.046 A 
ATOM      4  C   UNL     1       8.912  -1.622 -17.889  1.00  0.00     0.003 A 
ATOM      5  C   UNL     1       8.287  -0.395 -17.962  1.00  0.00     0.028 A 
ATOM      6  C   UNL     1       8.935   0.282 -18.991  1.00  0.00     0.083 A 
ATOM      7  N   UNL     1       9.912  -0.483 -19.530  1.00  0.00    -0.361 N 
ATOM      8  C   UNL     1       8.685  -2.708 -17.048  1.00  0.00     0.056 A 
ATOM      9  C   UNL     1       9.498  -3.849 -17.211  1.00  0.00     0.116 A 
ATOM     10  H   UNL     1      10.551  -0.223 -20.314  1.00  0.00     0.166 HD
ENDROOT
BRANCH   9  11
ATOM     11  O   UNL     1       9.318  -4.967 -16.400  1.00  0.00    -0.508 OA
ATOM     12  H   UNL     1       8.486  -5.079 -15.832  1.00  0.00     0.293 HD
ENDBRANCH   9  11
TORSDOF 1
ENDMDL
