MODEL 1
REMARK VINA RESULT:    -5.059      0.000      0.000
REMARK INTER + INTRA:         -10.585
REMARK INTER:                  -7.721
REMARK INTRA:                  -2.864
REMARK UNBOUND:                -2.864
REMARK SMILES CC(=O)CCC=C(C)CCC=C(C)CCC=C(C)C
REMARK SMILES IDX 10 1 11 2 12 3 13 4 14 5 15 6 16 7 18 8 17 9 19 10 9 11 7 12
REMARK SMILES IDX 6 13 8 14 5 15 4 16 2 17 3 18 1 19
REMARK H PARENT
REMARK Flexibility Score: inf
ROOT
ATOM      1  C   UNL     1       5.928  -7.397  55.459  1.00  0.00     0.032 C 
ENDROOT
BRANCH   1   2
ATOM      2  C   UNL     1       6.694  -6.519  56.416  1.00  0.00    -0.028 C 
ATOM      3  C   UNL     1       6.773  -6.716  57.752  1.00  0.00    -0.077 C 
ATOM      4  C   UNL     1       7.637  -5.783  58.562  1.00  0.00     0.039 C 
BRANCH   3   5
ATOM      5  C   UNL     1       6.007  -7.812  58.473  1.00  0.00     0.034 C 
BRANCH   5   6
ATOM      6  C   UNL     1       6.909  -8.608  59.427  1.00  0.00     0.032 C 
BRANCH   6   7
ATOM      7  C   UNL     1       7.599  -9.753  58.724  1.00  0.00    -0.028 C 
ATOM      8  C   UNL     1       9.476 -11.049  57.810  1.00  0.00     0.039 C 
ATOM      9  C   UNL     1       8.926  -9.813  58.476  1.00  0.00    -0.080 C 
ATOM     10  C   UNL     1       9.860  -8.680  58.828  1.00  0.00     0.039 C 
ENDBRANCH   6   7
ENDBRANCH   5   6
ENDBRANCH   3   5
ENDBRANCH   1   2
BRANCH   1  11
ATOM     11  C   UNL     1       6.859  -7.962  54.380  1.00  0.00     0.034 C 
BRANCH  11  12
ATOM     12  C   UNL     1       7.341  -9.348  54.758  1.00  0.00    -0.077 C 
ATOM     13  C   UNL     1       8.613  -9.767  54.567  1.00  0.00    -0.028 C 
ATOM     14  C   UNL     1       6.352 -10.320  55.348  1.00  0.00     0.039 C 
BRANCH  13  15
ATOM     15  C   UNL     1       9.746  -8.919  54.037  1.00  0.00     0.035 C 
BRANCH  15  16
ATOM     16  C   UNL     1      10.610  -8.375  55.180  1.00  0.00     0.079 C 
BRANCH  16  17
ATOM     17  C   UNL     1      11.867  -9.186  55.361  1.00  0.00     0.130 C 
ATOM     18  O   UNL     1      12.139 -10.061  54.554  1.00  0.00    -0.300 OA
ATOM     19  C   UNL     1      12.795  -8.935  56.511  1.00  0.00     0.087 C 
ENDBRANCH  16  17
ENDBRANCH  15  16
ENDBRANCH  13  15
ENDBRANCH  11  12
ENDBRANCH   1  11
TORSDOF 9
ENDMDL
MODEL 2
REMARK VINA RESULT:    -4.921      1.841      4.497
REMARK INTER + INTRA:         -10.374
REMARK INTER:                  -7.482
REMARK INTRA:                  -2.892
REMARK UNBOUND:                -2.864
REMARK SMILES CC(=O)CCC=C(C)CCC=C(C)CCC=C(C)C
REMARK SMILES IDX 10 1 11 2 12 3 13 4 14 5 15 6 16 7 18 8 17 9 19 10 9 11 7 12
REMARK SMILES IDX 6 13 8 14 5 15 4 16 2 17 3 18 1 19
REMARK H PARENT
REMARK Flexibility Score: inf
ROOT
ATOM      1  C   UNL     1       8.435  -9.071  53.982  1.00  0.00     0.032 C 
ENDROOT
BRANCH   1   2
ATOM      2  C   UNL     1       9.857  -8.866  54.441  1.00  0.00    -0.028 C 
ATOM      3  C   UNL     1      10.577  -9.764  55.153  1.00  0.00    -0.077 C 
ATOM      4  C   UNL     1      12.012  -9.433  55.477  1.00  0.00     0.039 C 
BRANCH   3   5
ATOM      5  C   UNL     1       9.995 -11.071  55.664  1.00  0.00     0.034 C 
BRANCH   5   6
ATOM      6  C   UNL     1      10.175 -11.222  57.182  1.00  0.00     0.032 C 
BRANCH   6   7
ATOM      7  C   UNL     1       8.903 -10.907  57.933  1.00  0.00    -0.028 C 
ATOM      8  C   UNL     1       7.271  -9.529  59.147  1.00  0.00     0.039 C 
ATOM      9  C   UNL     1       8.607  -9.704  58.471  1.00  0.00    -0.080 C 
ATOM     10  C   UNL     1       9.577  -8.546  58.429  1.00  0.00     0.039 C 
ENDBRANCH   6   7
ENDBRANCH   5   6
ENDBRANCH   3   5
ENDBRANCH   1   2
BRANCH   1  11
ATOM     11  C   UNL     1       7.488  -8.115  54.716  1.00  0.00     0.034 C 
BRANCH  11  12
ATOM     12  C   UNL     1       6.433  -8.887  55.481  1.00  0.00    -0.077 C 
ATOM     13  C   UNL     1       5.529  -8.297  56.297  1.00  0.00    -0.028 C 
ATOM     14  C   UNL     1       6.403 -10.389  55.355  1.00  0.00     0.039 C 
BRANCH  13  15
ATOM     15  C   UNL     1       5.377  -6.808  56.506  1.00  0.00     0.035 C 
BRANCH  15  16
ATOM     16  C   UNL     1       5.823  -6.401  57.915  1.00  0.00     0.079 C 
BRANCH  16  17
ATOM     17  C   UNL     1       7.171  -5.728  57.898  1.00  0.00     0.130 C 
ATOM     18  O   UNL     1       7.672  -5.411  56.830  1.00  0.00    -0.300 OA
ATOM     19  C   UNL     1       7.909  -5.433  59.169  1.00  0.00     0.087 C 
ENDBRANCH  16  17
ENDBRANCH  15  16
ENDBRANCH  13  15
ENDBRANCH  11  12
ENDBRANCH   1  11
TORSDOF 9
ENDMDL
MODEL 3
REMARK VINA RESULT:    -4.838      1.866      4.625
REMARK INTER + INTRA:         -10.248
REMARK INTER:                  -7.445
REMARK INTRA:                  -2.802
REMARK UNBOUND:                -2.864
REMARK SMILES CC(=O)CCC=C(C)CCC=C(C)CCC=C(C)C
REMARK SMILES IDX 10 1 11 2 12 3 13 4 14 5 15 6 16 7 18 8 17 9 19 10 9 11 7 12
REMARK SMILES IDX 6 13 8 14 5 15 4 16 2 17 3 18 1 19
REMARK H PARENT
REMARK Flexibility Score: inf
ROOT
ATOM      1  C   UNL     1      10.216  -8.515  54.657  1.00  0.00     0.032 C 
ENDROOT
BRANCH   1   2
ATOM      2  C   UNL     1       9.140  -9.565  54.543  1.00  0.00    -0.028 C 
ATOM      3  C   UNL     1       7.822  -9.307  54.378  1.00  0.00    -0.077 C 
ATOM      4  C   UNL     1       6.882 -10.475  54.214  1.00  0.00     0.039 C 
BRANCH   3   5
ATOM      5  C   UNL     1       7.247  -7.901  54.383  1.00  0.00     0.034 C 
BRANCH   5   6
ATOM      6  C   UNL     1       5.954  -7.815  55.208  1.00  0.00     0.032 C 
BRANCH   6   7
ATOM      7  C   UNL     1       6.145  -8.344  56.610  1.00  0.00    -0.028 C 
ATOM      8  C   UNL     1       6.060  -8.333  59.065  1.00  0.00     0.039 C 
ATOM      9  C   UNL     1       5.865  -7.651  57.735  1.00  0.00    -0.080 C 
ATOM     10  C   UNL     1       5.384  -6.219  57.697  1.00  0.00     0.039 C 
ENDBRANCH   6   7
ENDBRANCH   5   6
ENDBRANCH   3   5
ENDBRANCH   1   2
BRANCH   1  11
ATOM     11  C   UNL     1      10.874  -8.563  56.041  1.00  0.00     0.034 C 
BRANCH  11  12
ATOM     12  C   UNL     1       9.986  -7.909  57.080  1.00  0.00    -0.077 C 
ATOM     13  C   UNL     1       9.426  -8.589  58.108  1.00  0.00    -0.028 C 
ATOM     14  C   UNL     1       9.685  -6.438  56.951  1.00  0.00     0.039 C 
BRANCH  13  15
ATOM     15  C   UNL     1       9.654 -10.049  58.423  1.00  0.00     0.035 C 
BRANCH  15  16
ATOM     16  C   UNL     1       8.517 -10.916  57.874  1.00  0.00     0.079 C 
BRANCH  16  17
ATOM     17  C   UNL     1       8.973 -12.327  57.608  1.00  0.00     0.130 C 
ATOM     18  O   UNL     1       8.565 -13.235  58.317  1.00  0.00    -0.300 OA
ATOM     19  C   UNL     1       9.914 -12.641  56.484  1.00  0.00     0.087 C 
ENDBRANCH  16  17
ENDBRANCH  15  16
ENDBRANCH  13  15
ENDBRANCH  11  12
ENDBRANCH   1  11
TORSDOF 9
ENDMDL
MODEL 4
REMARK VINA RESULT:    -4.753      9.998     12.627
REMARK INTER + INTRA:         -10.117
REMARK INTER:                  -8.465
REMARK INTRA:                  -1.652
REMARK UNBOUND:                -2.864
REMARK SMILES CC(=O)CCC=C(C)CCC=C(C)CCC=C(C)C
REMARK SMILES IDX 10 1 11 2 12 3 13 4 14 5 15 6 16 7 18 8 17 9 19 10 9 11 7 12
REMARK SMILES IDX 6 13 8 14 5 15 4 16 2 17 3 18 1 19
REMARK H PARENT
REMARK Flexibility Score: inf
ROOT
ATOM      1  C   UNL     1      17.084  -9.253  62.795  1.00  0.00     0.032 C 
ENDROOT
BRANCH   1   2
ATOM      2  C   UNL     1      15.947  -8.262  62.825  1.00  0.00    -0.028 C 
ATOM      3  C   UNL     1      14.692  -8.511  62.384  1.00  0.00    -0.077 C 
ATOM      4  C   UNL     1      13.651  -7.433  62.546  1.00  0.00     0.039 C 
BRANCH   3   5
ATOM      5  C   UNL     1      14.297  -9.812  61.705  1.00  0.00     0.034 C 
BRANCH   5   6
ATOM      6  C   UNL     1      13.220 -10.566  62.498  1.00  0.00     0.032 C 
BRANCH   6   7
ATOM      7  C   UNL     1      13.612 -10.747  63.946  1.00  0.00    -0.028 C 
ATOM      8  C   UNL     1      14.613 -11.848  65.900  1.00  0.00     0.039 C 
ATOM      9  C   UNL     1      14.239 -11.837  64.440  1.00  0.00    -0.080 C 
ATOM     10  C   UNL     1      14.556 -13.039  63.582  1.00  0.00     0.039 C 
ENDBRANCH   6   7
ENDBRANCH   5   6
ENDBRANCH   3   5
ENDBRANCH   1   2
BRANCH   1  11
ATOM     11  C   UNL     1      17.260  -9.916  64.165  1.00  0.00     0.034 C 
BRANCH  11  12
ATOM     12  C   UNL     1      18.722  -9.945  64.564  1.00  0.00    -0.077 C 
ATOM     13  C   UNL     1      19.143 -10.253  65.812  1.00  0.00    -0.028 C 
ATOM     14  C   UNL     1      19.759  -9.583  63.532  1.00  0.00     0.039 C 
BRANCH  13  15
ATOM     15  C   UNL     1      18.255 -10.687  66.956  1.00  0.00     0.035 C 
BRANCH  15  16
ATOM     16  C   UNL     1      18.317  -9.684  68.113  1.00  0.00     0.079 C 
BRANCH  16  17
ATOM     17  C   UNL     1      19.211 -10.172  69.224  1.00  0.00     0.130 C 
ATOM     18  O   UNL     1      19.426  -9.449  70.184  1.00  0.00    -0.300 OA
ATOM     19  C   UNL     1      19.836 -11.534  69.177  1.00  0.00     0.087 C 
ENDBRANCH  16  17
ENDBRANCH  15  16
ENDBRANCH  13  15
ENDBRANCH  11  12
ENDBRANCH   1  11
TORSDOF 9
ENDMDL
MODEL 5
REMARK VINA RESULT:    -4.709      2.582      5.646
REMARK INTER + INTRA:         -10.051
REMARK INTER:                  -7.512
REMARK INTRA:                  -2.539
REMARK UNBOUND:                -2.864
REMARK SMILES CC(=O)CCC=C(C)CCC=C(C)CCC=C(C)C
REMARK SMILES IDX 10 1 11 2 12 3 13 4 14 5 15 6 16 7 18 8 17 9 19 10 9 11 7 12
REMARK SMILES IDX 6 13 8 14 5 15 4 16 2 17 3 18 1 19
REMARK H PARENT
REMARK Flexibility Score: inf
ROOT
ATOM      1  C   UNL     1       8.576 -10.024  57.446  1.00  0.00     0.032 C 
ENDROOT
BRANCH   1   2
ATOM      2  C   UNL     1       9.340  -9.650  56.201  1.00  0.00    -0.028 C 
ATOM      3  C   UNL     1       8.775  -9.347  55.009  1.00  0.00    -0.077 C 
ATOM      4  C   UNL     1       9.678  -8.928  53.877  1.00  0.00     0.039 C 
BRANCH   3   5
ATOM      5  C   UNL     1       7.280  -9.440  54.755  1.00  0.00     0.034 C 
BRANCH   5   6
ATOM      6  C   UNL     1       6.666  -8.066  54.447  1.00  0.00     0.032 C 
BRANCH   6   7
ATOM      7  C   UNL     1       5.881  -7.525  55.619  1.00  0.00    -0.028 C 
ATOM      8  C   UNL     1       5.412  -6.105  57.568  1.00  0.00     0.039 C 
ATOM      9  C   UNL     1       6.333  -6.582  56.474  1.00  0.00    -0.080 C 
ATOM     10  C   UNL     1       7.729  -6.013  56.377  1.00  0.00     0.039 C 
ENDBRANCH   6   7
ENDBRANCH   5   6
ENDBRANCH   3   5
ENDBRANCH   1   2
BRANCH   1  11
ATOM     11  C   UNL     1       9.033  -9.173  58.636  1.00  0.00     0.034 C 
BRANCH  11  12
ATOM     12  C   UNL     1       7.850  -8.494  59.296  1.00  0.00    -0.077 C 
ATOM     13  C   UNL     1       7.935  -7.291  59.909  1.00  0.00    -0.028 C 
ATOM     14  C   UNL     1       6.520  -9.202  59.299  1.00  0.00     0.039 C 
BRANCH  13  15
ATOM     15  C   UNL     1       9.167  -6.417  59.962  1.00  0.00     0.035 C 
BRANCH  15  16
ATOM     16  C   UNL     1       8.789  -4.933  60.013  1.00  0.00     0.079 C 
BRANCH  16  17
ATOM     17  C   UNL     1       9.861  -4.109  60.679  1.00  0.00     0.130 C 
ATOM     18  O   UNL     1      10.881  -3.839  60.063  1.00  0.00    -0.300 OA
ATOM     19  C   UNL     1       9.696  -3.608  62.082  1.00  0.00     0.087 C 
ENDBRANCH  16  17
ENDBRANCH  15  16
ENDBRANCH  13  15
ENDBRANCH  11  12
ENDBRANCH   1  11
TORSDOF 9
ENDMDL
MODEL 6
REMARK VINA RESULT:    -4.703      9.383     11.968
REMARK INTER + INTRA:         -10.042
REMARK INTER:                  -8.475
REMARK INTRA:                  -1.567
REMARK UNBOUND:                -2.864
REMARK SMILES CC(=O)CCC=C(C)CCC=C(C)CCC=C(C)C
REMARK SMILES IDX 10 1 11 2 12 3 13 4 14 5 15 6 16 7 18 8 17 9 19 10 9 11 7 12
REMARK SMILES IDX 6 13 8 14 5 15 4 16 2 17 3 18 1 19
REMARK H PARENT
REMARK Flexibility Score: inf
ROOT
ATOM      1  C   UNL     1      16.033 -11.463  63.038  1.00  0.00     0.032 C 
ENDROOT
BRANCH   1   2
ATOM      2  C   UNL     1      16.132  -9.968  62.866  1.00  0.00    -0.028 C 
ATOM      3  C   UNL     1      15.090  -9.109  62.953  1.00  0.00    -0.077 C 
ATOM      4  C   UNL     1      15.369  -7.633  62.822  1.00  0.00     0.039 C 
BRANCH   3   5
ATOM      5  C   UNL     1      13.654  -9.567  63.145  1.00  0.00     0.034 C 
BRANCH   5   6
ATOM      6  C   UNL     1      12.791  -9.272  61.909  1.00  0.00     0.032 C 
BRANCH   6   7
ATOM      7  C   UNL     1      13.355  -9.915  60.664  1.00  0.00    -0.028 C 
ATOM      8  C   UNL     1      13.803 -11.708  59.045  1.00  0.00     0.039 C 
ATOM      9  C   UNL     1      13.230 -11.223  60.353  1.00  0.00    -0.080 C 
ATOM     10  C   UNL     1      12.555 -12.208  61.279  1.00  0.00     0.039 C 
ENDBRANCH   6   7
ENDBRANCH   5   6
ENDBRANCH   3   5
ENDBRANCH   1   2
BRANCH   1  11
ATOM     11  C   UNL     1      16.805 -11.917  64.281  1.00  0.00     0.034 C 
BRANCH  11  12
ATOM     12  C   UNL     1      16.053 -11.549  65.544  1.00  0.00    -0.077 C 
ATOM     13  C   UNL     1      16.646 -10.983  66.620  1.00  0.00    -0.028 C 
ATOM     14  C   UNL     1      14.579 -11.856  65.623  1.00  0.00     0.039 C 
BRANCH  13  15
ATOM     15  C   UNL     1      18.095 -10.561  66.704  1.00  0.00     0.035 C 
BRANCH  15  16
ATOM     16  C   UNL     1      18.322  -9.593  67.870  1.00  0.00     0.079 C 
BRANCH  16  17
ATOM     17  C   UNL     1      19.124 -10.231  68.974  1.00  0.00     0.130 C 
ATOM     18  O   UNL     1      19.431  -9.570  69.954  1.00  0.00    -0.300 OA
ATOM     19  C   UNL     1      19.548 -11.667  68.896  1.00  0.00     0.087 C 
ENDBRANCH  16  17
ENDBRANCH  15  16
ENDBRANCH  13  15
ENDBRANCH  11  12
ENDBRANCH   1  11
TORSDOF 9
ENDMDL
MODEL 7
REMARK VINA RESULT:    -4.693      9.658     12.479
REMARK INTER + INTRA:         -10.026
REMARK INTER:                  -7.680
REMARK INTRA:                  -2.347
REMARK UNBOUND:                -2.864
REMARK SMILES CC(=O)CCC=C(C)CCC=C(C)CCC=C(C)C
REMARK SMILES IDX 10 1 11 2 12 3 13 4 14 5 15 6 16 7 18 8 17 9 19 10 9 11 7 12
REMARK SMILES IDX 6 13 8 14 5 15 4 16 2 17 3 18 1 19
REMARK H PARENT
REMARK Flexibility Score: inf
ROOT
ATOM      1  C   UNL     1      15.814 -11.960  64.800  1.00  0.00     0.032 C 
ENDROOT
BRANCH   1   2
ATOM      2  C   UNL     1      14.335 -12.112  64.546  1.00  0.00    -0.028 C 
ATOM      3  C   UNL     1      13.771 -12.263  63.325  1.00  0.00    -0.077 C 
ATOM      4  C   UNL     1      12.280 -12.469  63.248  1.00  0.00     0.039 C 
BRANCH   3   5
ATOM      5  C   UNL     1      14.568 -12.202  62.033  1.00  0.00     0.034 C 
BRANCH   5   6
ATOM      6  C   UNL     1      14.256 -10.932  61.229  1.00  0.00     0.032 C 
BRANCH   6   7
ATOM      7  C   UNL     1      15.037  -9.741  61.733  1.00  0.00    -0.028 C 
ATOM      8  C   UNL     1      15.429  -7.633  62.932  1.00  0.00     0.039 C 
ATOM      9  C   UNL     1      14.510  -8.728  62.454  1.00  0.00    -0.080 C 
ATOM     10  C   UNL     1      13.036  -8.653  62.775  1.00  0.00     0.039 C 
ENDBRANCH   6   7
ENDBRANCH   5   6
ENDBRANCH   3   5
ENDBRANCH   1   2
BRANCH   1  11
ATOM     11  C   UNL     1      16.141 -10.532  65.251  1.00  0.00     0.034 C 
BRANCH  11  12
ATOM     12  C   UNL     1      17.616 -10.237  65.072  1.00  0.00    -0.077 C 
ATOM     13  C   UNL     1      18.444  -9.949  66.102  1.00  0.00    -0.028 C 
ATOM     14  C   UNL     1      18.188 -10.231  63.677  1.00  0.00     0.039 C 
BRANCH  13  15
ATOM     15  C   UNL     1      18.061  -9.957  67.564  1.00  0.00     0.035 C 
BRANCH  15  16
ATOM     16  C   UNL     1      19.030 -10.817  68.384  1.00  0.00     0.079 C 
BRANCH  16  17
ATOM     17  C   UNL     1      18.687 -12.281  68.291  1.00  0.00     0.130 C 
ATOM     18  O   UNL     1      17.546 -12.648  68.526  1.00  0.00    -0.300 OA
ATOM     19  C   UNL     1      19.720 -13.298  67.908  1.00  0.00     0.087 C 
ENDBRANCH  16  17
ENDBRANCH  15  16
ENDBRANCH  13  15
ENDBRANCH  11  12
ENDBRANCH   1  11
TORSDOF 9
ENDMDL
MODEL 8
REMARK VINA RESULT:    -4.670      1.417      2.244
REMARK INTER + INTRA:          -9.991
REMARK INTER:                  -7.339
REMARK INTRA:                  -2.653
REMARK UNBOUND:                -2.864
REMARK SMILES CC(=O)CCC=C(C)CCC=C(C)CCC=C(C)C
REMARK SMILES IDX 10 1 11 2 12 3 13 4 14 5 15 6 16 7 18 8 17 9 19 10 9 11 7 12
REMARK SMILES IDX 6 13 8 14 5 15 4 16 2 17 3 18 1 19
REMARK H PARENT
REMARK Flexibility Score: inf
ROOT
ATOM      1  C   UNL     1       7.152  -8.075  53.940  1.00  0.00     0.032 C 
ENDROOT
BRANCH   1   2
ATOM      2  C   UNL     1       6.158  -7.742  55.023  1.00  0.00    -0.028 C 
ATOM      3  C   UNL     1       6.374  -6.859  56.026  1.00  0.00    -0.077 C 
ATOM      4  C   UNL     1       5.249  -6.590  56.994  1.00  0.00     0.039 C 
BRANCH   3   5
ATOM      5  C   UNL     1       7.704  -6.156  56.237  1.00  0.00     0.034 C 
BRANCH   5   6
ATOM      6  C   UNL     1       8.087  -6.093  57.723  1.00  0.00     0.032 C 
BRANCH   6   7
ATOM      7  C   UNL     1       9.052  -7.192  58.101  1.00  0.00    -0.028 C 
ATOM      8  C   UNL     1       9.786  -9.325  59.076  1.00  0.00     0.039 C 
ATOM      9  C   UNL     1       8.723  -8.286  58.822  1.00  0.00    -0.080 C 
ATOM     10  C   UNL     1       7.338  -8.485  59.392  1.00  0.00     0.039 C 
ENDBRANCH   6   7
ENDBRANCH   5   6
ENDBRANCH   3   5
ENDBRANCH   1   2
BRANCH   1  11
ATOM     11  C   UNL     1       7.486  -9.570  53.954  1.00  0.00     0.034 C 
BRANCH  11  12
ATOM     12  C   UNL     1       8.289  -9.930  55.187  1.00  0.00    -0.077 C 
ATOM     13  C   UNL     1       9.599  -9.626  55.333  1.00  0.00    -0.028 C 
ATOM     14  C   UNL     1       7.607 -10.690  56.297  1.00  0.00     0.039 C 
BRANCH  13  15
ATOM     15  C   UNL     1      10.430  -8.830  54.353  1.00  0.00     0.035 C 
BRANCH  15  16
ATOM     16  C   UNL     1      11.241  -7.746  55.070  1.00  0.00     0.079 C 
BRANCH  16  17
ATOM     17  C   UNL     1      12.583  -7.534  54.420  1.00  0.00     0.130 C 
ATOM     18  O   UNL     1      13.250  -8.503  54.089  1.00  0.00    -0.300 OA
ATOM     19  C   UNL     1      13.115  -6.156  54.163  1.00  0.00     0.087 C 
ENDBRANCH  16  17
ENDBRANCH  15  16
ENDBRANCH  13  15
ENDBRANCH  11  12
ENDBRANCH   1  11
TORSDOF 9
ENDMDL
MODEL 9
REMARK VINA RESULT:    -4.635      2.125      3.647
REMARK INTER + INTRA:          -9.938
REMARK INTER:                  -7.275
REMARK INTRA:                  -2.663
REMARK UNBOUND:                -2.864
REMARK SMILES CC(=O)CCC=C(C)CCC=C(C)CCC=C(C)C
REMARK SMILES IDX 10 1 11 2 12 3 13 4 14 5 15 6 16 7 18 8 17 9 19 10 9 11 7 12
REMARK SMILES IDX 6 13 8 14 5 15 4 16 2 17 3 18 1 19
REMARK H PARENT
REMARK Flexibility Score: inf
ROOT
ATOM      1  C   UNL     1       7.635  -9.494  54.605  1.00  0.00     0.032 C 
ENDROOT
BRANCH   1   2
ATOM      2  C   UNL     1       6.784  -8.317  55.007  1.00  0.00    -0.028 C 
ATOM      3  C   UNL     1       6.172  -8.178  56.206  1.00  0.00    -0.077 C 
ATOM      4  C   UNL     1       5.409  -6.905  56.475  1.00  0.00     0.039 C 
BRANCH   3   5
ATOM      5  C   UNL     1       6.193  -9.257  57.275  1.00  0.00     0.034 C 
BRANCH   5   6
ATOM      6  C   UNL     1       6.204  -8.660  58.690  1.00  0.00     0.032 C 
BRANCH   6   7
ATOM      7  C   UNL     1       7.582  -8.705  59.309  1.00  0.00    -0.028 C 
ATOM      8  C   UNL     1       9.687  -7.823  60.217  1.00  0.00     0.039 C 
ATOM      9  C   UNL     1       8.353  -7.622  59.543  1.00  0.00    -0.080 C 
ATOM     10  C   UNL     1       7.928  -6.231  59.136  1.00  0.00     0.039 C 
ENDBRANCH   6   7
ENDBRANCH   5   6
ENDBRANCH   3   5
ENDBRANCH   1   2
BRANCH   1  11
ATOM     11  C   UNL     1       9.108  -9.084  54.493  1.00  0.00     0.034 C 
BRANCH  11  12
ATOM     12  C   UNL     1       9.699  -8.823  55.863  1.00  0.00    -0.077 C 
ATOM     13  C   UNL     1       9.934  -9.802  56.767  1.00  0.00    -0.028 C 
ATOM     14  C   UNL     1      10.014  -7.402  56.255  1.00  0.00     0.039 C 
BRANCH  13  15
ATOM     15  C   UNL     1       9.727 -11.281  56.532  1.00  0.00     0.035 C 
BRANCH  15  16
ATOM     16  C   UNL     1       8.693 -11.854  57.506  1.00  0.00     0.079 C 
BRANCH  16  17
ATOM     17  C   UNL     1       9.030 -13.268  57.906  1.00  0.00     0.130 C 
ATOM     18  O   UNL     1       8.293 -13.867  58.673  1.00  0.00    -0.300 OA
ATOM     19  C   UNL     1      10.250 -13.956  57.373  1.00  0.00     0.087 C 
ENDBRANCH  16  17
ENDBRANCH  15  16
ENDBRANCH  13  15
ENDBRANCH  11  12
ENDBRANCH   1  11
TORSDOF 9
ENDMDL
