MODEL 1
REMARK VINA RESULT:    -5.585      0.000      0.000
REMARK INTER + INTRA:          -6.954
REMARK INTER:                  -6.891
REMARK INTRA:                  -0.063
REMARK UNBOUND:                -0.063
REMARK SMILES CCCCCC(=O)[O-]
REMARK SMILES IDX 4 1 5 2 6 3 7 4 8 5 3 6 2 7 1 8
REMARK H PARENT
REMARK Flexibility Score: inf
ROOT
ATOM      1  C   UNL     1       6.638  -5.285  21.108  1.00  0.00     0.006 C 
ENDROOT
BRANCH   1   2
ATOM      2  C   UNL     1       7.273  -3.940  20.720  1.00  0.00     0.053 C 
BRANCH   2   3
ATOM      3  C   UNL     1       6.588  -2.785  21.382  1.00  0.00     0.041 C 
ATOM      4  O   UNL     1       5.965  -2.952  22.464  1.00  0.00    -0.550 OA
ATOM      5  O   UNL     1       6.609  -1.530  20.787  1.00  0.00    -0.550 OA
ENDBRANCH   2   3
ENDBRANCH   1   2
BRANCH   1   6
ATOM      6  C   UNL     1       7.651  -6.379  21.504  1.00  0.00     0.000 C 
BRANCH   6   7
ATOM      7  C   UNL     1       7.224  -7.815  21.152  1.00  0.00    -0.003 C 
ATOM      8  C   UNL     1       6.827  -8.637  22.377  1.00  0.00     0.004 C 
ENDBRANCH   6   7
ENDBRANCH   1   6
TORSDOF 4
ENDMDL
MODEL 2
REMARK VINA RESULT:    -5.382      1.131      1.808
REMARK INTER + INTRA:          -6.704
REMARK INTER:                  -6.653
REMARK INTRA:                  -0.051
REMARK UNBOUND:                -0.063
REMARK SMILES CCCCCC(=O)[O-]
REMARK SMILES IDX 4 1 5 2 6 3 7 4 8 5 3 6 2 7 1 8
REMARK H PARENT
REMARK Flexibility Score: inf
ROOT
ATOM      1  C   UNL     1       7.118  -3.799  20.743  1.00  0.00     0.006 C 
ENDROOT
BRANCH   1   2
ATOM      2  C   UNL     1       6.541  -2.995  21.919  1.00  0.00     0.053 C 
BRANCH   2   3
ATOM      3  C   UNL     1       5.691  -1.853  21.454  1.00  0.00     0.041 C 
ATOM      4  O   UNL     1       6.225  -0.795  21.030  1.00  0.00    -0.550 OA
ATOM      5  O   UNL     1       4.307  -1.945  21.520  1.00  0.00    -0.550 OA
ENDBRANCH   2   3
ENDBRANCH   1   2
BRANCH   1   6
ATOM      6  C   UNL     1       7.785  -5.130  21.145  1.00  0.00     0.000 C 
BRANCH   6   7
ATOM      7  C   UNL     1       6.841  -6.346  21.172  1.00  0.00    -0.003 C 
ATOM      8  C   UNL     1       7.556  -7.650  21.518  1.00  0.00     0.004 C 
ENDBRANCH   6   7
ENDBRANCH   1   6
TORSDOF 4
ENDMDL
MODEL 3
REMARK VINA RESULT:    -5.341      1.204      1.738
REMARK INTER + INTRA:          -6.653
REMARK INTER:                  -6.594
REMARK INTRA:                  -0.059
REMARK UNBOUND:                -0.063
REMARK SMILES CCCCCC(=O)[O-]
REMARK SMILES IDX 4 1 5 2 6 3 7 4 8 5 3 6 2 7 1 8
REMARK H PARENT
REMARK Flexibility Score: inf
ROOT
ATOM      1  C   UNL     1       7.058  -3.513  20.722  1.00  0.00     0.006 C 
ENDROOT
BRANCH   1   2
ATOM      2  C   UNL     1       6.452  -2.751  21.910  1.00  0.00     0.053 C 
BRANCH   2   3
ATOM      3  C   UNL     1       5.200  -2.023  21.529  1.00  0.00     0.041 C 
ATOM      4  O   UNL     1       4.160  -2.140  22.229  1.00  0.00    -0.550 OA
ATOM      5  O   UNL     1       5.171  -1.242  20.381  1.00  0.00    -0.550 OA
ENDBRANCH   2   3
ENDBRANCH   1   2
BRANCH   1   6
ATOM      6  C   UNL     1       7.720  -4.857  21.094  1.00  0.00     0.000 C 
BRANCH   6   7
ATOM      7  C   UNL     1       6.780  -6.075  21.054  1.00  0.00    -0.003 C 
ATOM      8  C   UNL     1       7.436  -7.353  21.573  1.00  0.00     0.004 C 
ENDBRANCH   6   7
ENDBRANCH   1   6
TORSDOF 4
ENDMDL
MODEL 4
REMARK VINA RESULT:    -5.082      2.365      3.474
REMARK INTER + INTRA:          -6.333
REMARK INTER:                  -6.130
REMARK INTRA:                  -0.203
REMARK UNBOUND:                -0.063
REMARK SMILES CCCCCC(=O)[O-]
REMARK SMILES IDX 4 1 5 2 6 3 7 4 8 5 3 6 2 7 1 8
REMARK H PARENT
REMARK Flexibility Score: inf
ROOT
ATOM      1  C   UNL     1       6.247  -1.582  21.433  1.00  0.00     0.006 C 
ENDROOT
BRANCH   1   2
ATOM      2  C   UNL     1       5.416  -1.382  20.156  1.00  0.00     0.053 C 
BRANCH   2   3
ATOM      3  C   UNL     1       4.113  -2.117  20.215  1.00  0.00     0.041 C 
ATOM      4  O   UNL     1       3.211  -1.748  21.012  1.00  0.00    -0.550 OA
ATOM      5  O   UNL     1       3.906  -3.232  19.412  1.00  0.00    -0.550 OA
ENDBRANCH   2   3
ENDBRANCH   1   2
BRANCH   1   6
ATOM      6  C   UNL     1       6.476  -3.058  21.823  1.00  0.00     0.000 C 
BRANCH   6   7
ATOM      7  C   UNL     1       7.207  -3.901  20.763  1.00  0.00    -0.003 C 
ATOM      8  C   UNL     1       6.817  -5.377  20.800  1.00  0.00     0.004 C 
ENDBRANCH   6   7
ENDBRANCH   1   6
TORSDOF 4
ENDMDL
MODEL 5
REMARK VINA RESULT:    -5.054      3.235      4.907
REMARK INTER + INTRA:          -6.299
REMARK INTER:                  -6.226
REMARK INTRA:                  -0.073
REMARK UNBOUND:                -0.063
REMARK SMILES CCCCCC(=O)[O-]
REMARK SMILES IDX 4 1 5 2 6 3 7 4 8 5 3 6 2 7 1 8
REMARK H PARENT
REMARK Flexibility Score: inf
ROOT
ATOM      1  C   UNL     1       6.958  -5.577  20.594  1.00  0.00     0.006 C 
ENDROOT
BRANCH   1   2
ATOM      2  C   UNL     1       7.759  -6.287  21.696  1.00  0.00     0.053 C 
BRANCH   2   3
ATOM      3  C   UNL     1       7.416  -7.741  21.790  1.00  0.00     0.041 C 
ATOM      4  O   UNL     1       7.321  -8.440  20.747  1.00  0.00    -0.550 OA
ATOM      5  O   UNL     1       7.167  -8.318  23.029  1.00  0.00    -0.550 OA
ENDBRANCH   2   3
ENDBRANCH   1   2
BRANCH   1   6
ATOM      6  C   UNL     1       5.976  -4.503  21.108  1.00  0.00     0.000 C 
BRANCH   6   7
ATOM      7  C   UNL     1       6.637  -3.306  21.814  1.00  0.00    -0.003 C 
ATOM      8  C   UNL     1       6.395  -1.980  21.095  1.00  0.00     0.004 C 
ENDBRANCH   6   7
ENDBRANCH   1   6
TORSDOF 4
ENDMDL
MODEL 6
REMARK VINA RESULT:    -4.830      3.624      4.968
REMARK INTER + INTRA:          -6.022
REMARK INTER:                  -5.835
REMARK INTRA:                  -0.187
REMARK UNBOUND:                -0.063
REMARK SMILES CCCCCC(=O)[O-]
REMARK SMILES IDX 4 1 5 2 6 3 7 4 8 5 3 6 2 7 1 8
REMARK H PARENT
REMARK Flexibility Score: inf
ROOT
ATOM      1  C   UNL     1       3.524  -1.958  21.820  1.00  0.00     0.006 C 
ENDROOT
BRANCH   1   2
ATOM      2  C   UNL     1       3.301  -2.080  20.305  1.00  0.00     0.053 C 
BRANCH   2   3
ATOM      3  C   UNL     1       3.171  -0.740  19.648  1.00  0.00     0.041 C 
ATOM      4  O   UNL     1       4.199  -0.068  19.368  1.00  0.00    -0.550 OA
ATOM      5  O   UNL     1       1.913  -0.218  19.376  1.00  0.00    -0.550 OA
ENDBRANCH   2   3
ENDBRANCH   1   2
BRANCH   1   6
ATOM      6  C   UNL     1       4.838  -2.590  22.325  1.00  0.00     0.000 C 
BRANCH   6   7
ATOM      7  C   UNL     1       6.117  -2.031  21.677  1.00  0.00    -0.003 C 
ATOM      8  C   UNL     1       6.886  -3.077  20.872  1.00  0.00     0.004 C 
ENDBRANCH   6   7
ENDBRANCH   1   6
TORSDOF 4
ENDMDL
MODEL 7
REMARK VINA RESULT:    -4.752      3.859      5.586
REMARK INTER + INTRA:          -5.926
REMARK INTER:                  -5.748
REMARK INTRA:                  -0.177
REMARK UNBOUND:                -0.063
REMARK SMILES CCCCCC(=O)[O-]
REMARK SMILES IDX 4 1 5 2 6 3 7 4 8 5 3 6 2 7 1 8
REMARK H PARENT
REMARK Flexibility Score: inf
ROOT
ATOM      1  C   UNL     1       3.559  -1.912  21.791  1.00  0.00     0.006 C 
ENDROOT
BRANCH   1   2
ATOM      2  C   UNL     1       4.880  -2.560  22.233  1.00  0.00     0.053 C 
BRANCH   2   3
ATOM      3  C   UNL     1       6.054  -2.004  21.488  1.00  0.00     0.041 C 
ATOM      4  O   UNL     1       6.160  -0.763  21.306  1.00  0.00    -0.550 OA
ATOM      5  O   UNL     1       7.014  -2.860  20.964  1.00  0.00    -0.550 OA
ENDBRANCH   2   3
ENDBRANCH   1   2
BRANCH   1   6
ATOM      6  C   UNL     1       3.203  -2.132  20.306  1.00  0.00     0.000 C 
BRANCH   6   7
ATOM      7  C   UNL     1       2.509  -0.941  19.623  1.00  0.00    -0.003 C 
ATOM      8  C   UNL     1       3.492   0.103  19.097  1.00  0.00     0.004 C 
ENDBRANCH   6   7
ENDBRANCH   1   6
TORSDOF 4
ENDMDL
MODEL 8
REMARK VINA RESULT:    -4.731      3.122      4.992
REMARK INTER + INTRA:          -5.901
REMARK INTER:                  -5.655
REMARK INTRA:                  -0.245
REMARK UNBOUND:                -0.063
REMARK SMILES CCCCCC(=O)[O-]
REMARK SMILES IDX 4 1 5 2 6 3 7 4 8 5 3 6 2 7 1 8
REMARK H PARENT
REMARK Flexibility Score: inf
ROOT
ATOM      1  C   UNL     1       6.116  -1.029  20.786  1.00  0.00     0.006 C 
ENDROOT
BRANCH   1   2
ATOM      2  C   UNL     1       6.699  -2.450  20.753  1.00  0.00     0.053 C 
BRANCH   2   3
ATOM      3  C   UNL     1       5.941  -3.387  21.642  1.00  0.00     0.041 C 
ATOM      4  O   UNL     1       6.026  -4.632  21.472  1.00  0.00    -0.550 OA
ATOM      5  O   UNL     1       5.114  -2.885  22.639  1.00  0.00    -0.550 OA
ENDBRANCH   2   3
ENDBRANCH   1   2
BRANCH   1   6
ATOM      6  C   UNL     1       5.132  -0.715  19.640  1.00  0.00     0.000 C 
BRANCH   6   7
ATOM      7  C   UNL     1       3.645  -0.884  19.999  1.00  0.00    -0.003 C 
ATOM      8  C   UNL     1       3.095  -2.261  19.636  1.00  0.00     0.004 C 
ENDBRANCH   6   7
ENDBRANCH   1   6
TORSDOF 4
ENDMDL
MODEL 9
REMARK VINA RESULT:    -4.667      2.686      4.865
REMARK INTER + INTRA:          -5.821
REMARK INTER:                  -5.695
REMARK INTRA:                  -0.125
REMARK UNBOUND:                -0.063
REMARK SMILES CCCCCC(=O)[O-]
REMARK SMILES IDX 4 1 5 2 6 3 7 4 8 5 3 6 2 7 1 8
REMARK H PARENT
REMARK Flexibility Score: inf
ROOT
ATOM      1  C   UNL     1       6.537  -2.200  20.750  1.00  0.00     0.006 C 
ENDROOT
BRANCH   1   2
ATOM      2  C   UNL     1       6.514  -3.524  21.529  1.00  0.00     0.053 C 
BRANCH   2   3
ATOM      3  C   UNL     1       6.858  -4.692  20.658  1.00  0.00     0.041 C 
ATOM      4  O   UNL     1       6.860  -4.572  19.405  1.00  0.00    -0.550 OA
ATOM      5  O   UNL     1       7.146  -5.925  21.231  1.00  0.00    -0.550 OA
ENDBRANCH   2   3
ENDBRANCH   1   2
BRANCH   1   6
ATOM      6  C   UNL     1       5.154  -1.539  20.571  1.00  0.00     0.000 C 
BRANCH   6   7
ATOM      7  C   UNL     1       4.049  -2.478  20.056  1.00  0.00    -0.003 C 
ATOM      8  C   UNL     1       2.751  -1.747  19.722  1.00  0.00     0.004 C 
ENDBRANCH   6   7
ENDBRANCH   1   6
TORSDOF 4
ENDMDL
