MODEL 1
REMARK VINA RESULT:    -3.927      0.000      0.000
REMARK INTER + INTRA:         -14.646
REMARK INTER:                  -9.896
REMARK INTRA:                  -4.750
REMARK UNBOUND:                -4.750
REMARK SMILES CCCCCCCCCCCCCCCCCCCCCCCCCCCC(=O)[O-]
REMARK SMILES IDX 15 1 16 2 17 3 18 4 19 5 20 6 21 7 22 8 23 9 24 10 25 11
REMARK SMILES IDX 26 12 27 13 28 14 29 15 30 16 14 17 13 18 12 19 11 20 10 21
REMARK SMILES IDX 9 22 8 23 7 24 6 25 5 26 4 27 3 28 2 29 1 30
REMARK H PARENT
REMARK Flexibility Score: inf
ROOT
ATOM      1  C   UNL     1      30.966   4.838  42.211  1.00  0.00     0.000 C 
ENDROOT
BRANCH   1   2
ATOM      2  C   UNL     1      32.214   5.510  41.615  1.00  0.00     0.000 C 
BRANCH   2   3
ATOM      3  C   UNL     1      32.307   5.345  40.089  1.00  0.00     0.000 C 
BRANCH   3   4
ATOM      4  C   UNL     1      30.957   4.931  39.463  1.00  0.00     0.000 C 
BRANCH   4   5
ATOM      5  C   UNL     1      30.412   5.936  38.430  1.00  0.00     0.000 C 
BRANCH   5   6
ATOM      6  C   UNL     1      30.841   7.396  38.657  1.00  0.00     0.000 C 
BRANCH   6   7
ATOM      7  C   UNL     1      29.719   8.261  39.249  1.00  0.00     0.000 C 
BRANCH   7   8
ATOM      8  C   UNL     1      29.502   7.928  40.730  1.00  0.00     0.000 C 
BRANCH   8   9
ATOM      9  C   UNL     1      28.021   8.047  41.113  1.00  0.00     0.000 C 
BRANCH   9  10
ATOM     10  C   UNL     1      27.529   6.766  41.806  1.00  0.00     0.000 C 
BRANCH  10  11
ATOM     11  C   UNL     1      26.002   6.608  41.752  1.00  0.00     0.000 C 
BRANCH  11  12
ATOM     12  C   UNL     1      25.499   5.410  42.574  1.00  0.00     0.006 C 
BRANCH  12  13
ATOM     13  C   UNL     1      26.033   4.090  42.010  1.00  0.00     0.053 C 
BRANCH  13  14
ATOM     14  C   UNL     1      25.202   3.642  40.848  1.00  0.00     0.041 C 
ATOM     15  O   UNL     1      23.994   3.327  41.018  1.00  0.00    -0.550 OA
ATOM     16  O   UNL     1      25.775   3.522  39.586  1.00  0.00    -0.550 OA
ENDBRANCH  13  14
ENDBRANCH  12  13
ENDBRANCH  11  12
ENDBRANCH  10  11
ENDBRANCH   9  10
ENDBRANCH   8   9
ENDBRANCH   7   8
ENDBRANCH   6   7
ENDBRANCH   5   6
ENDBRANCH   4   5
ENDBRANCH   3   4
ENDBRANCH   2   3
ENDBRANCH   1   2
BRANCH   1  17
ATOM     17  C   UNL     1      30.479   5.533  43.494  1.00  0.00     0.000 C 
BRANCH  17  18
ATOM     18  C   UNL     1      31.416   6.672  43.929  1.00  0.00     0.000 C 
BRANCH  18  19
ATOM     19  C   UNL     1      32.218   6.321  45.193  1.00  0.00     0.000 C 
BRANCH  19  20
ATOM     20  C   UNL     1      31.414   5.454  46.175  1.00  0.00     0.000 C 
BRANCH  20  21
ATOM     21  C   UNL     1      31.115   6.186  47.493  1.00  0.00     0.000 C 
BRANCH  21  22
ATOM     22  C   UNL     1      31.141   5.213  48.682  1.00  0.00    -0.000 C 
BRANCH  22  23
ATOM     23  C   UNL     1      29.731   4.793  49.129  1.00  0.00    -0.000 C 
BRANCH  23  24
ATOM     24  C   UNL     1      28.639   5.762  48.643  1.00  0.00    -0.000 C 
BRANCH  24  25
ATOM     25  C   UNL     1      27.296   5.060  48.391  1.00  0.00    -0.000 C 
BRANCH  25  26
ATOM     26  C   UNL     1      27.218   4.424  46.991  1.00  0.00    -0.000 C 
BRANCH  26  27
ATOM     27  C   UNL     1      27.838   5.314  45.901  1.00  0.00    -0.000 C 
BRANCH  27  28
ATOM     28  C   UNL     1      27.122   6.671  45.774  1.00  0.00    -0.000 C 
BRANCH  28  29
ATOM     29  C   UNL     1      28.057   7.782  45.271  1.00  0.00    -0.003 C 
ATOM     30  C   UNL     1      28.597   8.660  46.402  1.00  0.00     0.004 C 
ENDBRANCH  28  29
ENDBRANCH  27  28
ENDBRANCH  26  27
ENDBRANCH  25  26
ENDBRANCH  24  25
ENDBRANCH  23  24
ENDBRANCH  22  23
ENDBRANCH  21  22
ENDBRANCH  20  21
ENDBRANCH  19  20
ENDBRANCH  18  19
ENDBRANCH  17  18
ENDBRANCH   1  17
TORSDOF 26
ENDMDL
MODEL 2
REMARK VINA RESULT:    -3.896      2.177      5.741
REMARK INTER + INTRA:         -14.567
REMARK INTER:                 -10.342
REMARK INTRA:                  -4.225
REMARK UNBOUND:                -4.750
REMARK SMILES CCCCCCCCCCCCCCCCCCCCCCCCCCCC(=O)[O-]
REMARK SMILES IDX 15 1 16 2 17 3 18 4 19 5 20 6 21 7 22 8 23 9 24 10 25 11
REMARK SMILES IDX 26 12 27 13 28 14 29 15 30 16 14 17 13 18 12 19 11 20 10 21
REMARK SMILES IDX 9 22 8 23 7 24 6 25 5 26 4 27 3 28 2 29 1 30
REMARK H PARENT
REMARK Flexibility Score: inf
ROOT
ATOM      1  C   UNL     1      28.833   3.882  42.245  1.00  0.00     0.000 C 
ENDROOT
BRANCH   1   2
ATOM      2  C   UNL     1      28.859   4.537  43.635  1.00  0.00     0.000 C 
BRANCH   2   3
ATOM      3  C   UNL     1      27.499   5.132  44.039  1.00  0.00     0.000 C 
BRANCH   3   4
ATOM      4  C   UNL     1      26.408   4.048  44.184  1.00  0.00     0.000 C 
BRANCH   4   5
ATOM      5  C   UNL     1      25.172   4.282  43.295  1.00  0.00     0.000 C 
BRANCH   5   6
ATOM      6  C   UNL     1      25.276   5.486  42.343  1.00  0.00     0.000 C 
BRANCH   6   7
ATOM      7  C   UNL     1      25.040   5.105  40.873  1.00  0.00     0.000 C 
BRANCH   7   8
ATOM      8  C   UNL     1      25.303   3.610  40.652  1.00  0.00     0.000 C 
BRANCH   8   9
ATOM      9  C   UNL     1      24.593   3.104  39.391  1.00  0.00     0.000 C 
BRANCH   9  10
ATOM     10  C   UNL     1      23.514   2.069  39.746  1.00  0.00     0.000 C 
BRANCH  10  11
ATOM     11  C   UNL     1      23.282   1.943  41.259  1.00  0.00     0.000 C 
BRANCH  11  12
ATOM     12  C   UNL     1      21.858   2.344  41.679  1.00  0.00     0.006 C 
BRANCH  12  13
ATOM     13  C   UNL     1      21.339   3.508  40.829  1.00  0.00     0.053 C 
BRANCH  13  14
ATOM     14  C   UNL     1      20.988   4.675  41.699  1.00  0.00     0.041 C 
ATOM     15  O   UNL     1      21.743   5.682  41.742  1.00  0.00    -0.550 OA
ATOM     16  O   UNL     1      19.854   4.627  42.504  1.00  0.00    -0.550 OA
ENDBRANCH  13  14
ENDBRANCH  12  13
ENDBRANCH  11  12
ENDBRANCH  10  11
ENDBRANCH   9  10
ENDBRANCH   8   9
ENDBRANCH   7   8
ENDBRANCH   6   7
ENDBRANCH   5   6
ENDBRANCH   4   5
ENDBRANCH   3   4
ENDBRANCH   2   3
ENDBRANCH   1   2
BRANCH   1  17
ATOM     17  C   UNL     1      28.738   4.916  41.109  1.00  0.00     0.000 C 
BRANCH  17  18
ATOM     18  C   UNL     1      28.898   4.271  39.722  1.00  0.00     0.000 C 
BRANCH  18  19
ATOM     19  C   UNL     1      29.997   4.947  38.885  1.00  0.00     0.000 C 
BRANCH  19  20
ATOM     20  C   UNL     1      31.332   5.047  39.642  1.00  0.00     0.000 C 
BRANCH  20  21
ATOM     21  C   UNL     1      31.766   6.502  39.872  1.00  0.00     0.000 C 
BRANCH  21  22
ATOM     22  C   UNL     1      32.486   6.656  41.220  1.00  0.00    -0.000 C 
BRANCH  22  23
ATOM     23  C   UNL     1      32.137   5.530  42.207  1.00  0.00    -0.000 C 
BRANCH  23  24
ATOM     24  C   UNL     1      32.509   5.876  43.660  1.00  0.00    -0.000 C 
BRANCH  24  25
ATOM     25  C   UNL     1      32.067   7.292  44.061  1.00  0.00    -0.000 C 
BRANCH  25  26
ATOM     26  C   UNL     1      31.021   7.283  45.191  1.00  0.00    -0.000 C 
BRANCH  26  27
ATOM     27  C   UNL     1      31.194   6.093  46.149  1.00  0.00    -0.000 C 
BRANCH  27  28
ATOM     28  C   UNL     1      29.880   5.713  46.856  1.00  0.00    -0.000 C 
BRANCH  28  29
ATOM     29  C   UNL     1      30.046   5.595  48.379  1.00  0.00    -0.003 C 
ATOM     30  C   UNL     1      31.494   5.343  48.801  1.00  0.00     0.004 C 
ENDBRANCH  28  29
ENDBRANCH  27  28
ENDBRANCH  26  27
ENDBRANCH  25  26
ENDBRANCH  24  25
ENDBRANCH  23  24
ENDBRANCH  22  23
ENDBRANCH  21  22
ENDBRANCH  20  21
ENDBRANCH  19  20
ENDBRANCH  18  19
ENDBRANCH  17  18
ENDBRANCH   1  17
TORSDOF 26
ENDMDL
MODEL 3
REMARK VINA RESULT:    -3.857      6.336     10.118
REMARK INTER + INTRA:         -14.468
REMARK INTER:                  -9.860
REMARK INTRA:                  -4.608
REMARK UNBOUND:                -4.750
REMARK SMILES CCCCCCCCCCCCCCCCCCCCCCCCCCCC(=O)[O-]
REMARK SMILES IDX 15 1 16 2 17 3 18 4 19 5 20 6 21 7 22 8 23 9 24 10 25 11
REMARK SMILES IDX 26 12 27 13 28 14 29 15 30 16 14 17 13 18 12 19 11 20 10 21
REMARK SMILES IDX 9 22 8 23 7 24 6 25 5 26 4 27 3 28 2 29 1 30
REMARK H PARENT
REMARK Flexibility Score: inf
ROOT
ATOM      1  C   UNL     1      18.723  -0.605  44.056  1.00  0.00     0.000 C 
ENDROOT
BRANCH   1   2
ATOM      2  C   UNL     1      17.920   0.180  43.007  1.00  0.00     0.000 C 
BRANCH   2   3
ATOM      3  C   UNL     1      17.791   1.673  43.351  1.00  0.00     0.000 C 
BRANCH   3   4
ATOM      4  C   UNL     1      17.482   2.534  42.106  1.00  0.00     0.000 C 
BRANCH   4   5
ATOM      5  C   UNL     1      18.436   3.729  41.919  1.00  0.00     0.000 C 
BRANCH   5   6
ATOM      6  C   UNL     1      19.600   3.484  40.943  1.00  0.00     0.000 C 
BRANCH   6   7
ATOM      7  C   UNL     1      20.976   3.714  41.586  1.00  0.00     0.000 C 
BRANCH   7   8
ATOM      8  C   UNL     1      21.222   2.704  42.714  1.00  0.00     0.000 C 
BRANCH   8   9
ATOM      9  C   UNL     1      22.710   2.346  42.821  1.00  0.00     0.000 C 
BRANCH   9  10
ATOM     10  C   UNL     1      23.582   3.611  42.801  1.00  0.00     0.000 C 
BRANCH  10  11
ATOM     11  C   UNL     1      24.805   3.479  41.880  1.00  0.00     0.000 C 
BRANCH  11  12
ATOM     12  C   UNL     1      24.523   3.955  40.446  1.00  0.00     0.006 C 
BRANCH  12  13
ATOM     13  C   UNL     1      24.849   2.858  39.427  1.00  0.00     0.053 C 
BRANCH  13  14
ATOM     14  C   UNL     1      23.683   1.933  39.263  1.00  0.00     0.041 C 
ATOM     15  O   UNL     1      23.730   0.766  39.736  1.00  0.00    -0.550 OA
ATOM     16  O   UNL     1      22.565   2.341  38.542  1.00  0.00    -0.550 OA
ENDBRANCH  13  14
ENDBRANCH  12  13
ENDBRANCH  11  12
ENDBRANCH  10  11
ENDBRANCH   9  10
ENDBRANCH   8   9
ENDBRANCH   7   8
ENDBRANCH   6   7
ENDBRANCH   5   6
ENDBRANCH   4   5
ENDBRANCH   3   4
ENDBRANCH   2   3
ENDBRANCH   1   2
BRANCH   1  17
ATOM     17  C   UNL     1      20.209  -0.739  43.681  1.00  0.00     0.000 C 
BRANCH  17  18
ATOM     18  C   UNL     1      20.906  -1.865  44.462  1.00  0.00     0.000 C 
BRANCH  18  19
ATOM     19  C   UNL     1      19.998  -2.481  45.540  1.00  0.00     0.000 C 
BRANCH  19  20
ATOM     20  C   UNL     1      20.790  -2.970  46.763  1.00  0.00     0.000 C 
BRANCH  20  21
ATOM     21  C   UNL     1      22.309  -2.848  46.564  1.00  0.00     0.000 C 
BRANCH  21  22
ATOM     22  C   UNL     1      23.059  -3.094  47.882  1.00  0.00    -0.000 C 
BRANCH  22  23
ATOM     23  C   UNL     1      23.327  -1.795  48.659  1.00  0.00    -0.000 C 
BRANCH  23  24
ATOM     24  C   UNL     1      24.496  -0.982  48.074  1.00  0.00    -0.000 C 
BRANCH  24  25
ATOM     25  C   UNL     1      24.366   0.523  48.353  1.00  0.00    -0.000 C 
BRANCH  25  26
ATOM     26  C   UNL     1      24.218   1.350  47.062  1.00  0.00    -0.000 C 
BRANCH  26  27
ATOM     27  C   UNL     1      23.024   0.902  46.205  1.00  0.00    -0.000 C 
BRANCH  27  28
ATOM     28  C   UNL     1      21.728   1.649  46.566  1.00  0.00    -0.000 C 
BRANCH  28  29
ATOM     29  C   UNL     1      20.656   0.716  47.153  1.00  0.00    -0.003 C 
ATOM     30  C   UNL     1      20.663   0.692  48.682  1.00  0.00     0.004 C 
ENDBRANCH  28  29
ENDBRANCH  27  28
ENDBRANCH  26  27
ENDBRANCH  25  26
ENDBRANCH  24  25
ENDBRANCH  23  24
ENDBRANCH  22  23
ENDBRANCH  21  22
ENDBRANCH  20  21
ENDBRANCH  19  20
ENDBRANCH  18  19
ENDBRANCH  17  18
ENDBRANCH   1  17
TORSDOF 26
ENDMDL
MODEL 4
REMARK VINA RESULT:    -3.854      3.368      7.668
REMARK INTER + INTRA:         -14.461
REMARK INTER:                  -9.741
REMARK INTRA:                  -4.720
REMARK UNBOUND:                -4.750
REMARK SMILES CCCCCCCCCCCCCCCCCCCCCCCCCCCC(=O)[O-]
REMARK SMILES IDX 15 1 16 2 17 3 18 4 19 5 20 6 21 7 22 8 23 9 24 10 25 11
REMARK SMILES IDX 26 12 27 13 28 14 29 15 30 16 14 17 13 18 12 19 11 20 10 21
REMARK SMILES IDX 9 22 8 23 7 24 6 25 5 26 4 27 3 28 2 29 1 30
REMARK H PARENT
REMARK Flexibility Score: inf
ROOT
ATOM      1  C   UNL     1      24.586   6.110  41.422  1.00  0.00     0.000 C 
ENDROOT
BRANCH   1   2
ATOM      2  C   UNL     1      25.251   4.874  40.794  1.00  0.00     0.000 C 
BRANCH   2   3
ATOM      3  C   UNL     1      26.223   4.169  41.755  1.00  0.00     0.000 C 
BRANCH   3   4
ATOM      4  C   UNL     1      27.673   4.166  41.221  1.00  0.00     0.000 C 
BRANCH   4   5
ATOM      5  C   UNL     1      28.745   4.077  42.323  1.00  0.00     0.000 C 
BRANCH   5   6
ATOM      6  C   UNL     1      28.469   4.937  43.568  1.00  0.00     0.000 C 
BRANCH   6   7
ATOM      7  C   UNL     1      28.199   4.095  44.825  1.00  0.00     0.000 C 
BRANCH   7   8
ATOM      8  C   UNL     1      27.563   4.953  45.925  1.00  0.00     0.000 C 
BRANCH   8   9
ATOM      9  C   UNL     1      28.286   6.298  46.066  1.00  0.00     0.000 C 
BRANCH   9  10
ATOM     10  C   UNL     1      29.220   6.293  47.287  1.00  0.00     0.000 C 
BRANCH  10  11
ATOM     11  C   UNL     1      28.567   5.683  48.536  1.00  0.00     0.000 C 
BRANCH  11  12
ATOM     12  C   UNL     1      29.463   4.643  49.229  1.00  0.00     0.006 C 
BRANCH  12  13
ATOM     13  C   UNL     1      30.946   4.969  49.025  1.00  0.00     0.053 C 
BRANCH  13  14
ATOM     14  C   UNL     1      31.804   3.924  49.667  1.00  0.00     0.041 C 
ATOM     15  O   UNL     1      32.340   3.025  48.965  1.00  0.00    -0.550 OA
ATOM     16  O   UNL     1      31.970   3.911  51.048  1.00  0.00    -0.550 OA
ENDBRANCH  13  14
ENDBRANCH  12  13
ENDBRANCH  11  12
ENDBRANCH  10  11
ENDBRANCH   9  10
ENDBRANCH   8   9
ENDBRANCH   7   8
ENDBRANCH   6   7
ENDBRANCH   5   6
ENDBRANCH   4   5
ENDBRANCH   3   4
ENDBRANCH   2   3
ENDBRANCH   1   2
BRANCH   1  17
ATOM     17  C   UNL     1      24.794   6.181  42.945  1.00  0.00     0.000 C 
BRANCH  17  18
ATOM     18  C   UNL     1      25.484   7.485  43.377  1.00  0.00     0.000 C 
BRANCH  18  19
ATOM     19  C   UNL     1      26.087   8.251  42.188  1.00  0.00     0.000 C 
BRANCH  19  20
ATOM     20  C   UNL     1      27.624   8.285  42.231  1.00  0.00     0.000 C 
BRANCH  20  21
ATOM     21  C   UNL     1      28.252   8.158  40.835  1.00  0.00     0.000 C 
BRANCH  21  22
ATOM     22  C   UNL     1      29.538   7.318  40.883  1.00  0.00    -0.000 C 
BRANCH  22  23
ATOM     23  C   UNL     1      30.124   7.057  39.486  1.00  0.00    -0.000 C 
BRANCH  23  24
ATOM     24  C   UNL     1      30.209   5.557  39.149  1.00  0.00    -0.000 C 
BRANCH  24  25
ATOM     25  C   UNL     1      31.550   4.934  39.566  1.00  0.00    -0.000 C 
BRANCH  25  26
ATOM     26  C   UNL     1      32.659   5.989  39.741  1.00  0.00    -0.000 C 
BRANCH  26  27
ATOM     27  C   UNL     1      33.312   5.938  41.131  1.00  0.00    -0.000 C 
BRANCH  27  28
ATOM     28  C   UNL     1      32.332   5.473  42.224  1.00  0.00    -0.000 C 
BRANCH  28  29
ATOM     29  C   UNL     1      32.481   6.275  43.526  1.00  0.00    -0.003 C 
ATOM     30  C   UNL     1      31.800   5.603  44.719  1.00  0.00     0.004 C 
ENDBRANCH  28  29
ENDBRANCH  27  28
ENDBRANCH  26  27
ENDBRANCH  25  26
ENDBRANCH  24  25
ENDBRANCH  23  24
ENDBRANCH  22  23
ENDBRANCH  21  22
ENDBRANCH  20  21
ENDBRANCH  19  20
ENDBRANCH  18  19
ENDBRANCH  17  18
ENDBRANCH   1  17
TORSDOF 26
ENDMDL
MODEL 5
REMARK VINA RESULT:    -3.846      2.123      7.151
REMARK INTER + INTRA:         -14.442
REMARK INTER:                  -9.753
REMARK INTRA:                  -4.689
REMARK UNBOUND:                -4.750
REMARK SMILES CCCCCCCCCCCCCCCCCCCCCCCCCCCC(=O)[O-]
REMARK SMILES IDX 15 1 16 2 17 3 18 4 19 5 20 6 21 7 22 8 23 9 24 10 25 11
REMARK SMILES IDX 26 12 27 13 28 14 29 15 30 16 14 17 13 18 12 19 11 20 10 21
REMARK SMILES IDX 9 22 8 23 7 24 6 25 5 26 4 27 3 28 2 29 1 30
REMARK H PARENT
REMARK Flexibility Score: inf
ROOT
ATOM      1  C   UNL     1      31.413   6.683  45.909  1.00  0.00     0.000 C 
ENDROOT
BRANCH   1   2
ATOM      2  C   UNL     1      31.002   6.721  47.390  1.00  0.00     0.000 C 
BRANCH   2   3
ATOM      3  C   UNL     1      31.282   5.396  48.119  1.00  0.00     0.000 C 
BRANCH   3   4
ATOM      4  C   UNL     1      30.199   5.068  49.171  1.00  0.00     0.000 C 
BRANCH   4   5
ATOM      5  C   UNL     1      28.818   5.675  48.858  1.00  0.00     0.000 C 
BRANCH   5   6
ATOM      6  C   UNL     1      27.763   4.668  48.368  1.00  0.00     0.000 C 
BRANCH   6   7
ATOM      7  C   UNL     1      26.883   5.230  47.240  1.00  0.00     0.000 C 
BRANCH   7   8
ATOM      8  C   UNL     1      26.966   4.340  45.994  1.00  0.00     0.000 C 
BRANCH   8   9
ATOM      9  C   UNL     1      28.317   4.502  45.287  1.00  0.00     0.000 C 
BRANCH   9  10
ATOM     10  C   UNL     1      28.233   4.026  43.828  1.00  0.00     0.000 C 
BRANCH  10  11
ATOM     11  C   UNL     1      29.568   4.158  43.079  1.00  0.00     0.000 C 
BRANCH  11  12
ATOM     12  C   UNL     1      29.394   4.657  41.635  1.00  0.00     0.006 C 
BRANCH  12  13
ATOM     13  C   UNL     1      29.939   6.079  41.473  1.00  0.00     0.053 C 
BRANCH  13  14
ATOM     14  C   UNL     1      29.780   6.543  40.058  1.00  0.00     0.041 C 
ATOM     15  O   UNL     1      29.463   7.738  39.815  1.00  0.00    -0.550 OA
ATOM     16  O   UNL     1      29.929   5.641  39.009  1.00  0.00    -0.550 OA
ENDBRANCH  13  14
ENDBRANCH  12  13
ENDBRANCH  11  12
ENDBRANCH  10  11
ENDBRANCH   9  10
ENDBRANCH   8   9
ENDBRANCH   7   8
ENDBRANCH   6   7
ENDBRANCH   5   6
ENDBRANCH   4   5
ENDBRANCH   3   4
ENDBRANCH   2   3
ENDBRANCH   1   2
BRANCH   1  17
ATOM     17  C   UNL     1      30.492   7.537  45.021  1.00  0.00     0.000 C 
BRANCH  17  18
ATOM     18  C   UNL     1      29.485   8.355  45.845  1.00  0.00     0.000 C 
BRANCH  18  19
ATOM     19  C   UNL     1      28.033   8.123  45.397  1.00  0.00     0.000 C 
BRANCH  19  20
ATOM     20  C   UNL     1      27.921   7.869  43.884  1.00  0.00     0.000 C 
BRANCH  20  21
ATOM     21  C   UNL     1      26.506   7.438  43.467  1.00  0.00     0.000 C 
BRANCH  21  22
ATOM     22  C   UNL     1      26.493   6.916  42.022  1.00  0.00    -0.000 C 
BRANCH  22  23
ATOM     23  C   UNL     1      25.119   6.366  41.606  1.00  0.00    -0.000 C 
BRANCH  23  24
ATOM     24  C   UNL     1      25.219   5.037  40.837  1.00  0.00    -0.000 C 
BRANCH  24  25
ATOM     25  C   UNL     1      25.224   3.815  41.768  1.00  0.00    -0.000 C 
BRANCH  25  26
ATOM     26  C   UNL     1      23.808   3.415  42.221  1.00  0.00    -0.000 C 
BRANCH  26  27
ATOM     27  C   UNL     1      23.239   2.236  41.416  1.00  0.00    -0.000 C 
BRANCH  27  28
ATOM     28  C   UNL     1      22.517   2.692  40.136  1.00  0.00    -0.000 C 
BRANCH  28  29
ATOM     29  C   UNL     1      22.978   1.916  38.892  1.00  0.00    -0.003 C 
ATOM     30  C   UNL     1      23.701   0.614  39.240  1.00  0.00     0.004 C 
ENDBRANCH  28  29
ENDBRANCH  27  28
ENDBRANCH  26  27
ENDBRANCH  25  26
ENDBRANCH  24  25
ENDBRANCH  23  24
ENDBRANCH  22  23
ENDBRANCH  21  22
ENDBRANCH  20  21
ENDBRANCH  19  20
ENDBRANCH  18  19
ENDBRANCH  17  18
ENDBRANCH   1  17
TORSDOF 26
ENDMDL
MODEL 6
REMARK VINA RESULT:    -3.843      3.014      7.656
REMARK INTER + INTRA:         -14.434
REMARK INTER:                  -9.624
REMARK INTRA:                  -4.810
REMARK UNBOUND:                -4.750
REMARK SMILES CCCCCCCCCCCCCCCCCCCCCCCCCCCC(=O)[O-]
REMARK SMILES IDX 15 1 16 2 17 3 18 4 19 5 20 6 21 7 22 8 23 9 24 10 25 11
REMARK SMILES IDX 26 12 27 13 28 14 29 15 30 16 14 17 13 18 12 19 11 20 10 21
REMARK SMILES IDX 9 22 8 23 7 24 6 25 5 26 4 27 3 28 2 29 1 30
REMARK H PARENT
REMARK Flexibility Score: inf
ROOT
ATOM      1  C   UNL     1      27.375   4.722  48.207  1.00  0.00     0.000 C 
ENDROOT
BRANCH   1   2
ATOM      2  C   UNL     1      28.579   5.596  48.598  1.00  0.00     0.000 C 
BRANCH   2   3
ATOM      3  C   UNL     1      29.711   4.789  49.256  1.00  0.00     0.000 C 
BRANCH   3   4
ATOM      4  C   UNL     1      31.109   5.293  48.835  1.00  0.00     0.000 C 
BRANCH   4   5
ATOM      5  C   UNL     1      31.117   6.087  47.515  1.00  0.00     0.000 C 
BRANCH   5   6
ATOM      6  C   UNL     1      31.363   5.244  46.253  1.00  0.00     0.000 C 
BRANCH   6   7
ATOM      7  C   UNL     1      30.345   5.528  45.138  1.00  0.00     0.000 C 
BRANCH   7   8
ATOM      8  C   UNL     1      29.903   6.996  45.170  1.00  0.00     0.000 C 
BRANCH   8   9
ATOM      9  C   UNL     1      30.059   7.652  43.792  1.00  0.00     0.000 C 
BRANCH   9  10
ATOM     10  C   UNL     1      31.535   7.679  43.362  1.00  0.00     0.000 C 
BRANCH  10  11
ATOM     11  C   UNL     1      31.805   6.841  42.103  1.00  0.00     0.000 C 
BRANCH  11  12
ATOM     12  C   UNL     1      33.292   6.819  41.711  1.00  0.00     0.006 C 
BRANCH  12  13
ATOM     13  C   UNL     1      33.751   5.399  41.366  1.00  0.00     0.053 C 
BRANCH  13  14
ATOM     14  C   UNL     1      34.699   5.423  40.207  1.00  0.00     0.041 C 
ATOM     15  O   UNL     1      35.478   4.454  40.006  1.00  0.00    -0.550 OA
ATOM     16  O   UNL     1      34.758   6.540  39.379  1.00  0.00    -0.550 OA
ENDBRANCH  13  14
ENDBRANCH  12  13
ENDBRANCH  11  12
ENDBRANCH  10  11
ENDBRANCH   9  10
ENDBRANCH   8   9
ENDBRANCH   7   8
ENDBRANCH   6   7
ENDBRANCH   5   6
ENDBRANCH   4   5
ENDBRANCH   3   4
ENDBRANCH   2   3
ENDBRANCH   1   2
BRANCH   1  17
ATOM     17  C   UNL     1      27.380   4.346  46.716  1.00  0.00     0.000 C 
BRANCH  17  18
ATOM     18  C   UNL     1      26.574   5.339  45.863  1.00  0.00     0.000 C 
BRANCH  18  19
ATOM     19  C   UNL     1      26.439   4.883  44.401  1.00  0.00     0.000 C 
BRANCH  19  20
ATOM     20  C   UNL     1      26.339   6.067  43.425  1.00  0.00     0.000 C 
BRANCH  20  21
ATOM     21  C   UNL     1      27.224   5.878  42.184  1.00  0.00     0.000 C 
BRANCH  21  22
ATOM     22  C   UNL     1      27.852   4.476  42.163  1.00  0.00    -0.000 C 
BRANCH  22  23
ATOM     23  C   UNL     1      29.249   4.465  41.521  1.00  0.00    -0.000 C 
BRANCH  23  24
ATOM     24  C   UNL     1      29.227   4.891  40.042  1.00  0.00    -0.000 C 
BRANCH  24  25
ATOM     25  C   UNL     1      30.546   4.579  39.319  1.00  0.00    -0.000 C 
BRANCH  25  26
ATOM     26  C   UNL     1      31.234   5.846  38.777  1.00  0.00    -0.000 C 
BRANCH  26  27
ATOM     27  C   UNL     1      30.265   6.769  38.021  1.00  0.00    -0.000 C 
BRANCH  27  28
ATOM     28  C   UNL     1      30.561   8.259  38.267  1.00  0.00    -0.000 C 
BRANCH  28  29
ATOM     29  C   UNL     1      29.360   9.004  38.870  1.00  0.00    -0.003 C 
ATOM     30  C   UNL     1      29.039   8.556  40.297  1.00  0.00     0.004 C 
ENDBRANCH  28  29
ENDBRANCH  27  28
ENDBRANCH  26  27
ENDBRANCH  25  26
ENDBRANCH  24  25
ENDBRANCH  23  24
ENDBRANCH  22  23
ENDBRANCH  21  22
ENDBRANCH  20  21
ENDBRANCH  19  20
ENDBRANCH  18  19
ENDBRANCH  17  18
ENDBRANCH   1  17
TORSDOF 26
ENDMDL
MODEL 7
REMARK VINA RESULT:    -3.762      7.411     11.204
REMARK INTER + INTRA:         -14.230
REMARK INTER:                  -9.227
REMARK INTRA:                  -5.003
REMARK UNBOUND:                -4.750
REMARK SMILES CCCCCCCCCCCCCCCCCCCCCCCCCCCC(=O)[O-]
REMARK SMILES IDX 15 1 16 2 17 3 18 4 19 5 20 6 21 7 22 8 23 9 24 10 25 11
REMARK SMILES IDX 26 12 27 13 28 14 29 15 30 16 14 17 13 18 12 19 11 20 10 21
REMARK SMILES IDX 9 22 8 23 7 24 6 25 5 26 4 27 3 28 2 29 1 30
REMARK H PARENT
REMARK Flexibility Score: inf
ROOT
ATOM      1  C   UNL     1      21.111   0.772  44.844  1.00  0.00     0.000 C 
ENDROOT
BRANCH   1   2
ATOM      2  C   UNL     1      20.490   0.427  43.481  1.00  0.00     0.000 C 
BRANCH   2   3
ATOM      3  C   UNL     1      19.403  -0.657  43.579  1.00  0.00     0.000 C 
BRANCH   3   4
ATOM      4  C   UNL     1      18.028  -0.153  43.087  1.00  0.00     0.000 C 
BRANCH   4   5
ATOM      5  C   UNL     1      17.249   0.663  44.136  1.00  0.00     0.000 C 
BRANCH   5   6
ATOM      6  C   UNL     1      17.085   2.156  43.805  1.00  0.00     0.000 C 
BRANCH   6   7
ATOM      7  C   UNL     1      17.560   2.508  42.387  1.00  0.00     0.000 C 
BRANCH   7   8
ATOM      8  C   UNL     1      18.729   3.499  42.437  1.00  0.00     0.000 C 
BRANCH   8   9
ATOM      9  C   UNL     1      19.653   3.328  41.225  1.00  0.00     0.000 C 
BRANCH   9  10
ATOM     10  C   UNL     1      20.926   4.174  41.381  1.00  0.00     0.000 C 
BRANCH  10  11
ATOM     11  C   UNL     1      21.986   3.501  42.266  1.00  0.00     0.000 C 
BRANCH  11  12
ATOM     12  C   UNL     1      23.236   3.077  41.479  1.00  0.00     0.006 C 
BRANCH  12  13
ATOM     13  C   UNL     1      23.174   1.593  41.102  1.00  0.00     0.053 C 
BRANCH  13  14
ATOM     14  C   UNL     1      23.300   1.423  39.620  1.00  0.00     0.041 C 
ATOM     15  O   UNL     1      24.035   0.516  39.146  1.00  0.00    -0.550 OA
ATOM     16  O   UNL     1      22.647   2.301  38.761  1.00  0.00    -0.550 OA
ENDBRANCH  13  14
ENDBRANCH  12  13
ENDBRANCH  11  12
ENDBRANCH  10  11
ENDBRANCH   9  10
ENDBRANCH   8   9
ENDBRANCH   7   8
ENDBRANCH   6   7
ENDBRANCH   5   6
ENDBRANCH   4   5
ENDBRANCH   3   4
ENDBRANCH   2   3
ENDBRANCH   1   2
BRANCH   1  17
ATOM     17  C   UNL     1      20.439   1.987  45.506  1.00  0.00     0.000 C 
BRANCH  17  18
ATOM     18  C   UNL     1      19.747   1.618  46.829  1.00  0.00     0.000 C 
BRANCH  18  19
ATOM     19  C   UNL     1      19.624   0.097  47.022  1.00  0.00     0.000 C 
BRANCH  19  20
ATOM     20  C   UNL     1      18.376  -0.291  47.833  1.00  0.00     0.000 C 
BRANCH  20  21
ATOM     21  C   UNL     1      18.016  -1.776  47.678  1.00  0.00     0.000 C 
BRANCH  21  22
ATOM     22  C   UNL     1      18.511  -2.325  46.330  1.00  0.00    -0.000 C 
BRANCH  22  23
ATOM     23  C   UNL     1      19.407  -3.563  46.491  1.00  0.00    -0.000 C 
BRANCH  23  24
ATOM     24  C   UNL     1      20.540  -3.616  45.451  1.00  0.00    -0.000 C 
BRANCH  24  25
ATOM     25  C   UNL     1      21.703  -2.673  45.796  1.00  0.00    -0.000 C 
BRANCH  25  26
ATOM     26  C   UNL     1      22.301  -2.961  47.186  1.00  0.00    -0.000 C 
BRANCH  26  27
ATOM     27  C   UNL     1      23.764  -2.507  47.308  1.00  0.00    -0.000 C 
BRANCH  27  28
ATOM     28  C   UNL     1      24.020  -1.689  48.587  1.00  0.00    -0.000 C 
BRANCH  28  29
ATOM     29  C   UNL     1      24.084  -0.178  48.314  1.00  0.00    -0.003 C 
ATOM     30  C   UNL     1      24.156   0.153  46.823  1.00  0.00     0.004 C 
ENDBRANCH  28  29
ENDBRANCH  27  28
ENDBRANCH  26  27
ENDBRANCH  25  26
ENDBRANCH  24  25
ENDBRANCH  23  24
ENDBRANCH  22  23
ENDBRANCH  21  22
ENDBRANCH  20  21
ENDBRANCH  19  20
ENDBRANCH  18  19
ENDBRANCH  17  18
ENDBRANCH   1  17
TORSDOF 26
ENDMDL
MODEL 8
REMARK VINA RESULT:    -3.755      1.859      4.171
REMARK INTER + INTRA:         -14.213
REMARK INTER:                  -9.236
REMARK INTRA:                  -4.977
REMARK UNBOUND:                -4.750
REMARK SMILES CCCCCCCCCCCCCCCCCCCCCCCCCCCC(=O)[O-]
REMARK SMILES IDX 15 1 16 2 17 3 18 4 19 5 20 6 21 7 22 8 23 9 24 10 25 11
REMARK SMILES IDX 26 12 27 13 28 14 29 15 30 16 14 17 13 18 12 19 11 20 10 21
REMARK SMILES IDX 9 22 8 23 7 24 6 25 5 26 4 27 3 28 2 29 1 30
REMARK H PARENT
REMARK Flexibility Score: inf
ROOT
ATOM      1  C   UNL     1      32.469   7.992  45.687  1.00  0.00     0.000 C 
ENDROOT
BRANCH   1   2
ATOM      2  C   UNL     1      33.279   8.530  44.496  1.00  0.00     0.000 C 
BRANCH   2   3
ATOM      3  C   UNL     1      33.154   7.648  43.243  1.00  0.00     0.000 C 
BRANCH   3   4
ATOM      4  C   UNL     1      32.650   6.226  43.578  1.00  0.00     0.000 C 
BRANCH   4   5
ATOM      5  C   UNL     1      32.257   5.394  42.343  1.00  0.00     0.000 C 
BRANCH   5   6
ATOM      6  C   UNL     1      33.276   5.423  41.191  1.00  0.00     0.000 C 
BRANCH   6   7
ATOM      7  C   UNL     1      32.620   5.656  39.821  1.00  0.00     0.000 C 
BRANCH   7   8
ATOM      8  C   UNL     1      31.609   6.807  39.894  1.00  0.00     0.000 C 
BRANCH   8   9
ATOM      9  C   UNL     1      30.284   6.423  39.224  1.00  0.00     0.000 C 
BRANCH   9  10
ATOM     10  C   UNL     1      30.247   4.920  38.902  1.00  0.00     0.000 C 
BRANCH  10  11
ATOM     11  C   UNL     1      29.027   4.210  39.508  1.00  0.00     0.000 C 
BRANCH  11  12
ATOM     12  C   UNL     1      28.485   4.921  40.758  1.00  0.00     0.006 C 
BRANCH  12  13
ATOM     13  C   UNL     1      27.172   4.287  41.228  1.00  0.00     0.053 C 
BRANCH  13  14
ATOM     14  C   UNL     1      26.081   5.312  41.269  1.00  0.00     0.041 C 
ATOM     15  O   UNL     1      26.344   6.505  41.580  1.00  0.00    -0.550 OA
ATOM     16  O   UNL     1      24.765   4.940  41.015  1.00  0.00    -0.550 OA
ENDBRANCH  13  14
ENDBRANCH  12  13
ENDBRANCH  11  12
ENDBRANCH  10  11
ENDBRANCH   9  10
ENDBRANCH   8   9
ENDBRANCH   7   8
ENDBRANCH   6   7
ENDBRANCH   5   6
ENDBRANCH   4   5
ENDBRANCH   3   4
ENDBRANCH   2   3
ENDBRANCH   1   2
BRANCH   1  17
ATOM     17  C   UNL     1      31.285   8.903  46.053  1.00  0.00     0.000 C 
BRANCH  17  18
ATOM     18  C   UNL     1      31.017   9.968  44.978  1.00  0.00     0.000 C 
BRANCH  18  19
ATOM     19  C   UNL     1      29.653   9.781  44.293  1.00  0.00     0.000 C 
BRANCH  19  20
ATOM     20  C   UNL     1      29.788   9.307  42.837  1.00  0.00     0.000 C 
BRANCH  20  21
ATOM     21  C   UNL     1      29.463   7.814  42.676  1.00  0.00     0.000 C 
BRANCH  21  22
ATOM     22  C   UNL     1      28.679   7.286  43.888  1.00  0.00    -0.000 C 
BRANCH  22  23
ATOM     23  C   UNL     1      28.985   5.811  44.191  1.00  0.00    -0.000 C 
BRANCH  23  24
ATOM     24  C   UNL     1      29.649   5.612  45.565  1.00  0.00    -0.000 C 
BRANCH  24  25
ATOM     25  C   UNL     1      28.888   6.319  46.697  1.00  0.00    -0.000 C 
BRANCH  25  26
ATOM     26  C   UNL     1      28.009   5.349  47.509  1.00  0.00    -0.000 C 
BRANCH  26  27
ATOM     27  C   UNL     1      28.280   5.427  49.019  1.00  0.00    -0.000 C 
BRANCH  27  28
ATOM     28  C   UNL     1      29.339   4.410  49.480  1.00  0.00    -0.000 C 
BRANCH  28  29
ATOM     29  C   UNL     1      30.773   4.916  49.261  1.00  0.00    -0.003 C 
ATOM     30  C   UNL     1      31.833   3.882  49.647  1.00  0.00     0.004 C 
ENDBRANCH  28  29
ENDBRANCH  27  28
ENDBRANCH  26  27
ENDBRANCH  25  26
ENDBRANCH  24  25
ENDBRANCH  23  24
ENDBRANCH  22  23
ENDBRANCH  21  22
ENDBRANCH  20  21
ENDBRANCH  19  20
ENDBRANCH  18  19
ENDBRANCH  17  18
ENDBRANCH   1  17
TORSDOF 26
ENDMDL
MODEL 9
REMARK VINA RESULT:    -3.744     11.251     14.795
REMARK INTER + INTRA:         -14.185
REMARK INTER:                  -8.928
REMARK INTRA:                  -5.258
REMARK UNBOUND:                -4.750
REMARK SMILES CCCCCCCCCCCCCCCCCCCCCCCCCCCC(=O)[O-]
REMARK SMILES IDX 15 1 16 2 17 3 18 4 19 5 20 6 21 7 22 8 23 9 24 10 25 11
REMARK SMILES IDX 26 12 27 13 28 14 29 15 30 16 14 17 13 18 12 19 11 20 10 21
REMARK SMILES IDX 9 22 8 23 7 24 6 25 5 26 4 27 3 28 2 29 1 30
REMARK H PARENT
REMARK Flexibility Score: inf
ROOT
ATOM      1  C   UNL     1      19.894  -4.324  49.346  1.00  0.00     0.000 C 
ENDROOT
BRANCH   1   2
ATOM      2  C   UNL     1      19.159  -3.570  48.226  1.00  0.00     0.000 C 
BRANCH   2   3
ATOM      3  C   UNL     1      19.114  -4.359  46.907  1.00  0.00     0.000 C 
BRANCH   3   4
ATOM      4  C   UNL     1      19.975  -3.702  45.804  1.00  0.00     0.000 C 
BRANCH   4   5
ATOM      5  C   UNL     1      21.006  -4.653  45.166  1.00  0.00     0.000 C 
BRANCH   5   6
ATOM      6  C   UNL     1      20.948  -6.105  45.670  1.00  0.00     0.000 C 
BRANCH   6   7
ATOM      7  C   UNL     1      22.337  -6.752  45.781  1.00  0.00     0.000 C 
BRANCH   7   8
ATOM      8  C   UNL     1      23.310  -5.824  46.519  1.00  0.00     0.000 C 
BRANCH   8   9
ATOM      9  C   UNL     1      23.010  -5.790  48.022  1.00  0.00     0.000 C 
BRANCH   9  10
ATOM     10  C   UNL     1      23.578  -4.516  48.667  1.00  0.00     0.000 C 
BRANCH  10  11
ATOM     11  C   UNL     1      23.753  -3.366  47.663  1.00  0.00     0.000 C 
BRANCH  11  12
ATOM     12  C   UNL     1      22.666  -2.288  47.798  1.00  0.00     0.006 C 
BRANCH  12  13
ATOM     13  C   UNL     1      22.631  -1.713  49.217  1.00  0.00     0.053 C 
BRANCH  13  14
ATOM     14  C   UNL     1      23.869  -0.916  49.489  1.00  0.00     0.041 C 
ATOM     15  O   UNL     1      24.669  -1.277  50.393  1.00  0.00    -0.550 OA
ATOM     16  O   UNL     1      24.113   0.256  48.780  1.00  0.00    -0.550 OA
ENDBRANCH  13  14
ENDBRANCH  12  13
ENDBRANCH  11  12
ENDBRANCH  10  11
ENDBRANCH   9  10
ENDBRANCH   8   9
ENDBRANCH   7   8
ENDBRANCH   6   7
ENDBRANCH   5   6
ENDBRANCH   4   5
ENDBRANCH   3   4
ENDBRANCH   2   3
ENDBRANCH   1   2
BRANCH   1  17
ATOM     17  C   UNL     1      19.745  -5.850  49.224  1.00  0.00     0.000 C 
BRANCH  17  18
ATOM     18  C   UNL     1      20.114  -6.576  50.528  1.00  0.00     0.000 C 
BRANCH  18  19
ATOM     19  C   UNL     1      19.817  -5.728  51.776  1.00  0.00     0.000 C 
BRANCH  19  20
ATOM     20  C   UNL     1      20.442  -6.321  53.050  1.00  0.00     0.000 C 
BRANCH  20  21
ATOM     21  C   UNL     1      21.524  -7.366  52.738  1.00  0.00     0.000 C 
BRANCH  21  22
ATOM     22  C   UNL     1      22.923  -6.829  53.077  1.00  0.00    -0.000 C 
BRANCH  22  23
ATOM     23  C   UNL     1      23.504  -5.950  51.958  1.00  0.00    -0.000 C 
BRANCH  23  24
ATOM     24  C   UNL     1      23.966  -4.572  52.464  1.00  0.00    -0.000 C 
BRANCH  24  25
ATOM     25  C   UNL     1      22.835  -3.532  52.459  1.00  0.00    -0.000 C 
BRANCH  25  26
ATOM     26  C   UNL     1      22.294  -3.245  53.872  1.00  0.00    -0.000 C 
BRANCH  26  27
ATOM     27  C   UNL     1      23.297  -3.612  54.976  1.00  0.00    -0.000 C 
BRANCH  27  28
ATOM     28  C   UNL     1      23.663  -2.407  55.862  1.00  0.00    -0.000 C 
BRANCH  28  29
ATOM     29  C   UNL     1      22.466  -1.893  56.678  1.00  0.00    -0.003 C 
ATOM     30  C   UNL     1      21.846  -0.625  56.088  1.00  0.00     0.004 C 
ENDBRANCH  28  29
ENDBRANCH  27  28
ENDBRANCH  26  27
ENDBRANCH  25  26
ENDBRANCH  24  25
ENDBRANCH  23  24
ENDBRANCH  22  23
ENDBRANCH  21  22
ENDBRANCH  20  21
ENDBRANCH  19  20
ENDBRANCH  18  19
ENDBRANCH  17  18
ENDBRANCH   1  17
TORSDOF 26
ENDMDL
