MODEL 1
REMARK VINA RESULT:    -2.594      0.000      0.000
REMARK INTER + INTRA:          -4.108
REMARK INTER:                  -3.656
REMARK INTRA:                  -0.452
REMARK UNBOUND:                -0.452
REMARK SMILES CCCCCCCCC(=O)[O-]
REMARK SMILES IDX 6 1 7 2 8 3 9 4 10 5 11 6 5 7 4 8 3 9 2 10 1 11
REMARK H PARENT
REMARK Flexibility Score: inf
ROOT
ATOM      1  C   UNL     1       9.565  15.000  -0.363  1.00  0.00     0.000 C 
ENDROOT
BRANCH   1   2
ATOM      2  C   UNL     1       9.217  14.420   1.015  1.00  0.00     0.006 C 
BRANCH   2   3
ATOM      3  C   UNL     1       9.272  15.480   2.123  1.00  0.00     0.053 C 
BRANCH   3   4
ATOM      4  C   UNL     1       9.646  16.827   1.588  1.00  0.00     0.041 C 
ATOM      5  O   UNL     1       8.754  17.675   1.326  1.00  0.00    -0.550 OA
ATOM      6  O   UNL     1      10.979  17.133   1.343  1.00  0.00    -0.550 OA
ENDBRANCH   3   4
ENDBRANCH   2   3
ENDBRANCH   1   2
BRANCH   1   7
ATOM      7  C   UNL     1      10.599  14.123  -1.083  1.00  0.00     0.000 C 
BRANCH   7   8
ATOM      8  C   UNL     1      11.013  12.895  -0.257  1.00  0.00    -0.000 C 
BRANCH   8   9
ATOM      9  C   UNL     1      12.512  12.884   0.079  1.00  0.00    -0.000 C 
BRANCH   9  10
ATOM     10  C   UNL     1      12.734  12.893   1.596  1.00  0.00    -0.003 C 
ATOM     11  C   UNL     1      12.896  14.317   2.121  1.00  0.00     0.004 C 
ENDBRANCH   9  10
ENDBRANCH   8   9
ENDBRANCH   7   8
ENDBRANCH   1   7
TORSDOF 7
ENDMDL
MODEL 2
REMARK VINA RESULT:    -2.391      2.239      4.064
REMARK INTER + INTRA:          -3.821
REMARK INTER:                  -3.493
REMARK INTRA:                  -0.329
REMARK UNBOUND:                -0.452
REMARK SMILES CCCCCCCCC(=O)[O-]
REMARK SMILES IDX 6 1 7 2 8 3 9 4 10 5 11 6 5 7 4 8 3 9 2 10 1 11
REMARK H PARENT
REMARK Flexibility Score: inf
ROOT
ATOM      1  C   UNL     1       9.939  14.628  -0.367  1.00  0.00     0.000 C 
ENDROOT
BRANCH   1   2
ATOM      2  C   UNL     1      10.739  13.321  -0.454  1.00  0.00     0.006 C 
BRANCH   2   3
ATOM      3  C   UNL     1      12.212  13.513  -0.070  1.00  0.00     0.053 C 
BRANCH   3   4
ATOM      4  C   UNL     1      12.461  13.172   1.367  1.00  0.00     0.041 C 
ATOM      5  O   UNL     1      11.500  12.875   2.124  1.00  0.00    -0.550 OA
ATOM      6  O   UNL     1      13.752  13.219   1.880  1.00  0.00    -0.550 OA
ENDBRANCH   3   4
ENDBRANCH   2   3
ENDBRANCH   1   2
BRANCH   1   7
ATOM      7  C   UNL     1       9.087  14.665   0.911  1.00  0.00     0.000 C 
BRANCH   7   8
ATOM      8  C   UNL     1       9.762  15.445   2.051  1.00  0.00    -0.000 C 
BRANCH   8   9
ATOM      9  C   UNL     1       9.535  16.960   1.949  1.00  0.00    -0.000 C 
BRANCH   9  10
ATOM     10  C   UNL     1      10.847  17.692   1.644  1.00  0.00    -0.003 C 
ATOM     11  C   UNL     1      12.054  16.828   1.994  1.00  0.00     0.004 C 
ENDBRANCH   9  10
ENDBRANCH   8   9
ENDBRANCH   7   8
ENDBRANCH   1   7
TORSDOF 7
ENDMDL
MODEL 3
REMARK VINA RESULT:    -2.185      2.489      4.831
REMARK INTER + INTRA:          -3.531
REMARK INTER:                  -3.195
REMARK INTRA:                  -0.337
REMARK UNBOUND:                -0.452
REMARK SMILES CCCCCCCCC(=O)[O-]
REMARK SMILES IDX 6 1 7 2 8 3 9 4 10 5 11 6 5 7 4 8 3 9 2 10 1 11
REMARK H PARENT
REMARK Flexibility Score: inf
ROOT
ATOM      1  C   UNL     1      11.307  15.841   1.203  1.00  0.00     0.000 C 
ENDROOT
BRANCH   1   2
ATOM      2  C   UNL     1      12.180  14.885   2.028  1.00  0.00     0.006 C 
BRANCH   2   3
ATOM      3  C   UNL     1      11.791  13.415   1.819  1.00  0.00     0.053 C 
BRANCH   3   4
ATOM      4  C   UNL     1      11.732  13.056   0.367  1.00  0.00     0.041 C 
ATOM      5  O   UNL     1      12.794  12.888  -0.288  1.00  0.00    -0.550 OA
ATOM      6  O   UNL     1      10.504  12.941  -0.273  1.00  0.00    -0.550 OA
ENDBRANCH   3   4
ENDBRANCH   2   3
ENDBRANCH   1   2
BRANCH   1   7
ATOM      7  C   UNL     1      10.454  16.732   2.119  1.00  0.00     0.000 C 
BRANCH   7   8
ATOM      8  C   UNL     1       9.135  17.169   1.460  1.00  0.00    -0.000 C 
BRANCH   8   9
ATOM      9  C   UNL     1       7.903  16.538   2.125  1.00  0.00    -0.000 C 
BRANCH   9  10
ATOM     10  C   UNL     1       7.990  15.008   2.102  1.00  0.00    -0.003 C 
ATOM     11  C   UNL     1       6.603  14.377   2.023  1.00  0.00     0.004 C 
ENDBRANCH   9  10
ENDBRANCH   8   9
ENDBRANCH   7   8
ENDBRANCH   1   7
TORSDOF 7
ENDMDL
MODEL 4
REMARK VINA RESULT:    -2.063      1.737      2.993
REMARK INTER + INTRA:          -3.359
REMARK INTER:                  -3.137
REMARK INTRA:                  -0.222
REMARK UNBOUND:                -0.452
REMARK SMILES CCCCCCCCC(=O)[O-]
REMARK SMILES IDX 6 1 7 2 8 3 9 4 10 5 11 6 5 7 4 8 3 9 2 10 1 11
REMARK H PARENT
REMARK Flexibility Score: inf
ROOT
ATOM      1  C   UNL     1      11.031  15.827   1.175  1.00  0.00     0.000 C 
ENDROOT
BRANCH   1   2
ATOM      2  C   UNL     1       9.741  16.122   1.952  1.00  0.00     0.006 C 
BRANCH   2   3
ATOM      3  C   UNL     1       8.865  14.873   2.121  1.00  0.00     0.053 C 
BRANCH   3   4
ATOM      4  C   UNL     1       7.406  15.212   2.125  1.00  0.00     0.041 C 
ATOM      5  O   UNL     1       6.543  14.296   2.123  1.00  0.00    -0.550 OA
ATOM      6  O   UNL     1       7.000  16.541   2.093  1.00  0.00    -0.550 OA
ENDBRANCH   3   4
ENDBRANCH   2   3
ENDBRANCH   1   2
BRANCH   1   7
ATOM      7  C   UNL     1      11.994  14.973   2.014  1.00  0.00     0.000 C 
BRANCH   7   8
ATOM      8  C   UNL     1      12.301  13.614   1.365  1.00  0.00    -0.000 C 
BRANCH   8   9
ATOM      9  C   UNL     1      12.118  13.630  -0.160  1.00  0.00    -0.000 C 
BRANCH   9  10
ATOM     10  C   UNL     1      10.764  13.029  -0.557  1.00  0.00    -0.003 C 
ATOM     11  C   UNL     1       9.911  14.044  -1.313  1.00  0.00     0.004 C 
ENDBRANCH   9  10
ENDBRANCH   8   9
ENDBRANCH   7   8
ENDBRANCH   1   7
TORSDOF 7
ENDMDL
MODEL 5
REMARK VINA RESULT:    -1.534      2.252      4.636
REMARK INTER + INTRA:          -2.614
REMARK INTER:                  -2.544
REMARK INTRA:                  -0.070
REMARK UNBOUND:                -0.452
REMARK SMILES CCCCCCCCC(=O)[O-]
REMARK SMILES IDX 6 1 7 2 8 3 9 4 10 5 11 6 5 7 4 8 3 9 2 10 1 11
REMARK H PARENT
REMARK Flexibility Score: inf
ROOT
ATOM      1  C   UNL     1       9.943  14.641  -0.375  1.00  0.00     0.000 C 
ENDROOT
BRANCH   1   2
ATOM      2  C   UNL     1      10.713  13.316  -0.460  1.00  0.00     0.006 C 
BRANCH   2   3
ATOM      3  C   UNL     1      12.200  13.484  -0.122  1.00  0.00     0.053 C 
BRANCH   3   4
ATOM      4  C   UNL     1      12.490  13.131   1.305  1.00  0.00     0.041 C 
ATOM      5  O   UNL     1      11.547  12.876   2.098  1.00  0.00    -0.550 OA
ATOM      6  O   UNL     1      13.801  13.120   1.767  1.00  0.00    -0.550 OA
ENDBRANCH   3   4
ENDBRANCH   2   3
ENDBRANCH   1   2
BRANCH   1   7
ATOM      7  C   UNL     1       9.118  14.715   0.918  1.00  0.00     0.000 C 
BRANCH   7   8
ATOM      8  C   UNL     1       9.856  15.444   2.052  1.00  0.00    -0.000 C 
BRANCH   8   9
ATOM      9  C   UNL     1       9.505  16.938   2.123  1.00  0.00    -0.000 C 
BRANCH   9  10
ATOM     10  C   UNL     1       7.987  17.147   2.089  1.00  0.00    -0.003 C 
ATOM     11  C   UNL     1       7.620  18.392   1.288  1.00  0.00     0.004 C 
ENDBRANCH   9  10
ENDBRANCH   8   9
ENDBRANCH   7   8
ENDBRANCH   1   7
TORSDOF 7
ENDMDL
MODEL 6
REMARK VINA RESULT:    -1.439      0.951      2.286
REMARK INTER + INTRA:          -2.480
REMARK INTER:                  -2.207
REMARK INTRA:                  -0.273
REMARK UNBOUND:                -0.452
REMARK SMILES CCCCCCCCC(=O)[O-]
REMARK SMILES IDX 6 1 7 2 8 3 9 4 10 5 11 6 5 7 4 8 3 9 2 10 1 11
REMARK H PARENT
REMARK Flexibility Score: inf
ROOT
ATOM      1  C   UNL     1      10.283  13.431   1.895  1.00  0.00     0.000 C 
ENDROOT
BRANCH   1   2
ATOM      2  C   UNL     1       9.236  14.530   2.121  1.00  0.00     0.006 C 
BRANCH   2   3
ATOM      3  C   UNL     1       9.365  15.674   1.106  1.00  0.00     0.053 C 
BRANCH   3   4
ATOM      4  C   UNL     1       9.577  16.995   1.780  1.00  0.00     0.041 C 
ATOM      5  O   UNL     1       8.596  17.745   2.024  1.00  0.00    -0.550 OA
ATOM      6  O   UNL     1      10.862  17.413   2.105  1.00  0.00    -0.550 OA
ENDBRANCH   3   4
ENDBRANCH   2   3
ENDBRANCH   1   2
BRANCH   1   7
ATOM      7  C   UNL     1      11.703  13.970   2.125  1.00  0.00     0.000 C 
BRANCH   7   8
ATOM      8  C   UNL     1      12.763  13.219   1.302  1.00  0.00    -0.000 C 
BRANCH   8   9
ATOM      9  C   UNL     1      12.280  12.876  -0.115  1.00  0.00    -0.000 C 
BRANCH   9  10
ATOM     10  C   UNL     1      11.801  14.132  -0.851  1.00  0.00    -0.003 C 
ATOM     11  C   UNL     1      10.558  13.842  -1.686  1.00  0.00     0.004 C 
ENDBRANCH   9  10
ENDBRANCH   8   9
ENDBRANCH   7   8
ENDBRANCH   1   7
TORSDOF 7
ENDMDL
MODEL 7
REMARK VINA RESULT:    -0.621      1.870      4.075
REMARK INTER + INTRA:          -1.327
REMARK INTER:                  -1.134
REMARK INTRA:                  -0.193
REMARK UNBOUND:                -0.452
REMARK SMILES CCCCCCCCC(=O)[O-]
REMARK SMILES IDX 6 1 7 2 8 3 9 4 10 5 11 6 5 7 4 8 3 9 2 10 1 11
REMARK H PARENT
REMARK Flexibility Score: inf
ROOT
ATOM      1  C   UNL     1      12.364  12.875   1.016  1.00  0.00     0.000 C 
ENDROOT
BRANCH   1   2
ATOM      2  C   UNL     1      11.987  13.411  -0.372  1.00  0.00     0.006 C 
BRANCH   2   3
ATOM      3  C   UNL     1      10.569  12.999  -0.790  1.00  0.00     0.053 C 
BRANCH   3   4
ATOM      4  C   UNL     1       9.654  14.180  -0.894  1.00  0.00     0.041 C 
ATOM      5  O   UNL     1       9.921  15.121  -1.688  1.00  0.00    -0.550 OA
ATOM      6  O   UNL     1       8.525  14.259  -0.089  1.00  0.00    -0.550 OA
ENDBRANCH   3   4
ENDBRANCH   2   3
ENDBRANCH   1   2
BRANCH   1   7
ATOM      7  C   UNL     1      11.750  13.743   2.124  1.00  0.00     0.000 C 
BRANCH   7   8
ATOM      8  C   UNL     1      11.582  15.211   1.703  1.00  0.00    -0.000 C 
BRANCH   8   9
ATOM      9  C   UNL     1      10.225  15.797   2.123  1.00  0.00    -0.000 C 
BRANCH   9  10
ATOM     10  C   UNL     1       9.969  17.139   1.429  1.00  0.00    -0.003 C 
ATOM     11  C   UNL     1       8.557  17.645   1.712  1.00  0.00     0.004 C 
ENDBRANCH   9  10
ENDBRANCH   8   9
ENDBRANCH   7   8
ENDBRANCH   1   7
TORSDOF 7
ENDMDL
