MODEL 1
REMARK VINA RESULT:    -6.459      0.000      0.000
REMARK INTER + INTRA:          -7.863
REMARK INTER:                  -7.592
REMARK INTRA:                  -0.271
REMARK UNBOUND:                -0.271
REMARK SMILES O=c1cc(-c2ccc(O)c(O)c2)oc2cc(O)cc(O)c12
REMARK SMILES IDX 4 1 3 2 2 3 1 4 21 5 19 6 18 7 16 8 15 9 14 10 13 11 5 12
REMARK SMILES IDX 6 13 7 14 8 15 12 16 10 17 9 18 11 20 20 22 17 24
REMARK H PARENT 9 19 11 21 20 23 17 25
REMARK Flexibility Score: inf
ROOT
ATOM      1  C   UNL     1      29.450 -22.834 -32.722  1.00  0.00     0.138 A 
ATOM      2  C   UNL     1      28.827 -24.034 -33.104  1.00  0.00     0.100 A 
ATOM      3  C   UNL     1      28.411 -24.200 -34.426  1.00  0.00     0.197 A 
ATOM      4  O   UNL     1      27.854 -25.281 -34.759  1.00  0.00    -0.289 OA
ATOM      5  C   UNL     1      28.626 -23.166 -35.358  1.00  0.00     0.107 A 
ATOM      6  C   UNL     1      28.236 -23.253 -36.715  1.00  0.00     0.134 A 
ATOM      7  C   UNL     1      28.490 -22.180 -37.583  1.00  0.00     0.093 A 
ATOM      8  C   UNL     1      29.126 -21.026 -37.121  1.00  0.00     0.123 A 
ATOM      9  C   UNL     1      29.515 -20.934 -35.779  1.00  0.00     0.094 A 
ATOM     10  C   UNL     1      29.269 -21.992 -34.899  1.00  0.00     0.146 A 
ATOM     11  O   UNL     1      29.646 -21.880 -33.629  1.00  0.00    -0.456 OA
ENDROOT
BRANCH   1  12
ATOM     12  C   UNL     1      29.914 -22.601 -31.331  1.00  0.00     0.021 A 
ATOM     13  C   UNL     1      31.033 -23.273 -30.802  1.00  0.00     0.016 A 
ATOM     14  C   UNL     1      31.441 -23.042 -29.485  1.00  0.00     0.051 A 
ATOM     15  C   UNL     1      30.737 -22.145 -28.674  1.00  0.00     0.157 A 
ATOM     16  C   UNL     1      29.205 -21.711 -30.504  1.00  0.00     0.062 A 
ATOM     17  C   UNL     1      29.616 -21.478 -29.183  1.00  0.00     0.158 A 
BRANCH  15  18
ATOM     18  O   UNL     1      31.143 -21.911 -27.361  1.00  0.00    -0.504 OA
ATOM     19  H   UNL     1      30.721 -21.181 -26.798  1.00  0.00     0.293 HD
ENDBRANCH  15  18
BRANCH  17  20
ATOM     20  O   UNL     1      28.915 -20.588 -28.372  1.00  0.00    -0.504 OA
ATOM     21  H   UNL     1      28.838 -19.605 -28.607  1.00  0.00     0.293 HD
ENDBRANCH  17  20
ENDBRANCH   1  12
BRANCH   6  22
ATOM     22  O   UNL     1      27.598 -24.394 -37.208  1.00  0.00    -0.507 OA
ATOM     23  H   UNL     1      27.450 -24.535 -38.199  1.00  0.00     0.293 HD
ENDBRANCH   6  22
BRANCH   8  24
ATOM     24  O   UNL     1      29.368 -19.975 -38.002  1.00  0.00    -0.508 OA
ATOM     25  H   UNL     1      30.274 -19.846 -38.438  1.00  0.00     0.293 HD
ENDBRANCH   8  24
TORSDOF 5
ENDMDL
MODEL 2
REMARK VINA RESULT:    -6.359      1.992      6.895
REMARK INTER + INTRA:          -7.745
REMARK INTER:                  -7.468
REMARK INTRA:                  -0.277
REMARK UNBOUND:                -0.271
REMARK SMILES O=c1cc(-c2ccc(O)c(O)c2)oc2cc(O)cc(O)c12
REMARK SMILES IDX 4 1 3 2 2 3 1 4 21 5 19 6 18 7 16 8 15 9 14 10 13 11 5 12
REMARK SMILES IDX 6 13 7 14 8 15 12 16 10 17 9 18 11 20 20 22 17 24
REMARK H PARENT 9 19 11 21 20 23 17 25
REMARK Flexibility Score: inf
ROOT
ATOM      1  C   UNL     1      28.535 -22.516 -32.615  1.00  0.00     0.138 A 
ATOM      2  C   UNL     1      27.898 -23.727 -32.298  1.00  0.00     0.100 A 
ATOM      3  C   UNL     1      27.768 -24.104 -30.961  1.00  0.00     0.197 A 
ATOM      4  O   UNL     1      27.192 -25.192 -30.687  1.00  0.00    -0.289 OA
ATOM      5  C   UNL     1      28.274 -23.264 -29.949  1.00  0.00     0.107 A 
ATOM      6  C   UNL     1      28.184 -23.572 -28.571  1.00  0.00     0.134 A 
ATOM      7  C   UNL     1      28.708 -22.680 -27.623  1.00  0.00     0.093 A 
ATOM      8  C   UNL     1      29.318 -21.490 -28.026  1.00  0.00     0.123 A 
ATOM      9  C   UNL     1      29.409 -21.180 -29.388  1.00  0.00     0.094 A 
ATOM     10  C   UNL     1      28.893 -22.056 -30.347  1.00  0.00     0.146 A 
ATOM     11  O   UNL     1      28.994 -21.741 -31.635  1.00  0.00    -0.456 OA
ENDROOT
BRANCH   1  12
ATOM     12  C   UNL     1      28.701 -22.062 -34.019  1.00  0.00     0.021 A 
ATOM     13  C   UNL     1      29.901 -21.478 -34.471  1.00  0.00     0.016 A 
ATOM     14  C   UNL     1      30.026 -21.050 -35.795  1.00  0.00     0.051 A 
ATOM     15  C   UNL     1      28.956 -21.191 -36.687  1.00  0.00     0.157 A 
ATOM     16  C   UNL     1      27.628 -22.187 -34.919  1.00  0.00     0.062 A 
ATOM     17  C   UNL     1      27.754 -21.759 -36.249  1.00  0.00     0.158 A 
BRANCH  15  18
ATOM     18  O   UNL     1      29.078 -20.767 -38.010  1.00  0.00    -0.504 OA
ATOM     19  H   UNL     1      29.773 -20.083 -38.285  1.00  0.00     0.293 HD
ENDBRANCH  15  18
BRANCH  17  20
ATOM     20  O   UNL     1      26.690 -21.894 -37.138  1.00  0.00    -0.504 OA
ATOM     21  H   UNL     1      26.547 -21.239 -37.898  1.00  0.00     0.293 HD
ENDBRANCH  17  20
ENDBRANCH   1  12
BRANCH   6  22
ATOM     22  O   UNL     1      27.581 -24.754 -28.136  1.00  0.00    -0.507 OA
ATOM     23  H   UNL     1      28.100 -25.620 -28.057  1.00  0.00     0.293 HD
ENDBRANCH   6  22
BRANCH   8  24
ATOM     24  O   UNL     1      29.831 -20.621 -27.066  1.00  0.00    -0.508 OA
ATOM     25  H   UNL     1      29.241 -19.946 -26.593  1.00  0.00     0.293 HD
ENDBRANCH   8  24
TORSDOF 5
ENDMDL
MODEL 3
REMARK VINA RESULT:    -6.341      1.755      7.062
REMARK INTER + INTRA:          -7.724
REMARK INTER:                  -7.460
REMARK INTRA:                  -0.264
REMARK UNBOUND:                -0.271
REMARK SMILES O=c1cc(-c2ccc(O)c(O)c2)oc2cc(O)cc(O)c12
REMARK SMILES IDX 4 1 3 2 2 3 1 4 21 5 19 6 18 7 16 8 15 9 14 10 13 11 5 12
REMARK SMILES IDX 6 13 7 14 8 15 12 16 10 17 9 18 11 20 20 22 17 24
REMARK H PARENT 9 19 11 21 20 23 17 25
REMARK Flexibility Score: inf
ROOT
ATOM      1  C   UNL     1      29.002 -22.579 -32.719  1.00  0.00     0.138 A 
ATOM      2  C   UNL     1      30.071 -23.485 -32.620  1.00  0.00     0.100 A 
ATOM      3  C   UNL     1      30.787 -23.574 -31.426  1.00  0.00     0.197 A 
ATOM      4  O   UNL     1      31.744 -24.392 -31.347  1.00  0.00    -0.289 OA
ATOM      5  C   UNL     1      30.426 -22.758 -30.336  1.00  0.00     0.107 A 
ATOM      6  C   UNL     1      31.099 -22.785 -29.092  1.00  0.00     0.134 A 
ATOM      7  C   UNL     1      30.674 -21.944 -28.052  1.00  0.00     0.093 A 
ATOM      8  C   UNL     1      29.592 -21.079 -28.233  1.00  0.00     0.123 A 
ATOM      9  C   UNL     1      28.923 -21.048 -29.462  1.00  0.00     0.094 A 
ATOM     10  C   UNL     1      29.331 -21.878 -30.509  1.00  0.00     0.146 A 
ATOM     11  O   UNL     1      28.680 -21.829 -31.668  1.00  0.00    -0.456 OA
ENDROOT
BRANCH   1  12
ATOM     12  C   UNL     1      28.204 -22.441 -33.964  1.00  0.00     0.021 A 
ATOM     13  C   UNL     1      26.884 -22.926 -34.053  1.00  0.00     0.016 A 
ATOM     14  C   UNL     1      26.160 -22.793 -35.241  1.00  0.00     0.051 A 
ATOM     15  C   UNL     1      26.740 -22.182 -36.358  1.00  0.00     0.157 A 
ATOM     16  C   UNL     1      28.783 -21.841 -35.096  1.00  0.00     0.062 A 
ATOM     17  C   UNL     1      28.055 -21.706 -36.287  1.00  0.00     0.158 A 
BRANCH  15  18
ATOM     18  O   UNL     1      26.020 -22.045 -37.544  1.00  0.00    -0.504 OA
ATOM     19  H   UNL     1      25.028 -22.251 -37.588  1.00  0.00     0.293 HD
ENDBRANCH  15  18
BRANCH  17  20
ATOM     20  O   UNL     1      28.632 -21.102 -37.402  1.00  0.00    -0.504 OA
ATOM     21  H   UNL     1      28.749 -21.603 -38.275  1.00  0.00     0.293 HD
ENDBRANCH  17  20
ENDBRANCH   1  12
BRANCH   6  22
ATOM     22  O   UNL     1      32.183 -23.639 -28.880  1.00  0.00    -0.507 OA
ATOM     23  H   UNL     1      32.091 -24.645 -28.949  1.00  0.00     0.293 HD
ENDBRANCH   6  22
BRANCH   8  24
ATOM     24  O   UNL     1      29.189 -20.254 -27.186  1.00  0.00    -0.508 OA
ATOM     25  H   UNL     1      29.599 -20.331 -26.262  1.00  0.00     0.293 HD
ENDBRANCH   8  24
TORSDOF 5
ENDMDL
MODEL 4
REMARK VINA RESULT:    -6.228      1.973      7.311
REMARK INTER + INTRA:          -7.591
REMARK INTER:                  -7.296
REMARK INTRA:                  -0.295
REMARK UNBOUND:                -0.271
REMARK SMILES O=c1cc(-c2ccc(O)c(O)c2)oc2cc(O)cc(O)c12
REMARK SMILES IDX 4 1 3 2 2 3 1 4 21 5 19 6 18 7 16 8 15 9 14 10 13 11 5 12
REMARK SMILES IDX 6 13 7 14 8 15 12 16 10 17 9 18 11 20 20 22 17 24
REMARK H PARENT 9 19 11 21 20 23 17 25
REMARK Flexibility Score: inf
ROOT
ATOM      1  C   UNL     1      28.554 -22.297 -33.358  1.00  0.00     0.138 A 
ATOM      2  C   UNL     1      28.961 -21.079 -32.787  1.00  0.00     0.100 A 
ATOM      3  C   UNL     1      29.005 -20.954 -31.398  1.00  0.00     0.197 A 
ATOM      4  O   UNL     1      29.373 -19.858 -30.895  1.00  0.00    -0.289 OA
ATOM      5  C   UNL     1      28.646 -22.050 -30.589  1.00  0.00     0.107 A 
ATOM      6  C   UNL     1      28.662 -22.007 -29.174  1.00  0.00     0.134 A 
ATOM      7  C   UNL     1      28.295 -23.145 -28.439  1.00  0.00     0.093 A 
ATOM      8  C   UNL     1      27.913 -24.320 -29.090  1.00  0.00     0.123 A 
ATOM      9  C   UNL     1      27.895 -24.369 -30.489  1.00  0.00     0.094 A 
ATOM     10  C   UNL     1      28.257 -23.246 -31.238  1.00  0.00     0.146 A 
ATOM     11  O   UNL     1      28.230 -23.316 -32.566  1.00  0.00    -0.456 OA
ENDROOT
BRANCH   1  12
ATOM     12  C   UNL     1      28.489 -22.489 -34.829  1.00  0.00     0.021 A 
ATOM     13  C   UNL     1      28.153 -23.732 -35.398  1.00  0.00     0.016 A 
ATOM     14  C   UNL     1      28.109 -23.887 -36.786  1.00  0.00     0.051 A 
ATOM     15  C   UNL     1      28.408 -22.809 -37.628  1.00  0.00     0.157 A 
ATOM     16  C   UNL     1      28.801 -21.415 -35.683  1.00  0.00     0.062 A 
ATOM     17  C   UNL     1      28.755 -21.571 -37.076  1.00  0.00     0.158 A 
BRANCH  15  18
ATOM     18  O   UNL     1      28.363 -22.960 -39.013  1.00  0.00    -0.504 OA
ATOM     19  H   UNL     1      28.772 -22.272 -39.634  1.00  0.00     0.293 HD
ENDBRANCH  15  18
BRANCH  17  20
ATOM     20  O   UNL     1      29.056 -20.500 -37.915  1.00  0.00    -0.504 OA
ATOM     21  H   UNL     1      29.554 -20.634 -38.787  1.00  0.00     0.293 HD
ENDBRANCH  17  20
ENDBRANCH   1  12
BRANCH   6  22
ATOM     22  O   UNL     1      29.039 -20.847 -28.495  1.00  0.00    -0.507 OA
ATOM     23  H   UNL     1      28.492 -20.478 -27.727  1.00  0.00     0.293 HD
ENDBRANCH   6  22
BRANCH   8  24
ATOM     24  O   UNL     1      27.553 -25.436 -28.338  1.00  0.00    -0.508 OA
ATOM     25  H   UNL     1      26.605 -25.568 -28.005  1.00  0.00     0.293 HD
ENDBRANCH   8  24
TORSDOF 5
ENDMDL
MODEL 5
REMARK VINA RESULT:    -6.222      1.401      2.596
REMARK INTER + INTRA:          -7.584
REMARK INTER:                  -7.315
REMARK INTRA:                  -0.269
REMARK UNBOUND:                -0.271
REMARK SMILES O=c1cc(-c2ccc(O)c(O)c2)oc2cc(O)cc(O)c12
REMARK SMILES IDX 4 1 3 2 2 3 1 4 21 5 19 6 18 7 16 8 15 9 14 10 13 11 5 12
REMARK SMILES IDX 6 13 7 14 8 15 12 16 10 17 9 18 11 20 20 22 17 24
REMARK H PARENT 9 19 11 21 20 23 17 25
REMARK Flexibility Score: inf
ROOT
ATOM      1  C   UNL     1      29.474 -22.052 -32.654  1.00  0.00     0.138 A 
ATOM      2  C   UNL     1      30.247 -21.396 -33.627  1.00  0.00     0.100 A 
ATOM      3  C   UNL     1      29.804 -21.366 -34.950  1.00  0.00     0.197 A 
ATOM      4  O   UNL     1      30.505 -20.773 -35.815  1.00  0.00    -0.289 OA
ATOM      5  C   UNL     1      28.588 -21.990 -35.290  1.00  0.00     0.107 A 
ATOM      6  C   UNL     1      28.068 -22.007 -36.606  1.00  0.00     0.134 A 
ATOM      7  C   UNL     1      26.846 -22.646 -36.864  1.00  0.00     0.093 A 
ATOM      8  C   UNL     1      26.136 -23.266 -35.833  1.00  0.00     0.123 A 
ATOM      9  C   UNL     1      26.645 -23.252 -34.529  1.00  0.00     0.094 A 
ATOM     10  C   UNL     1      27.861 -22.621 -34.253  1.00  0.00     0.146 A 
ATOM     11  O   UNL     1      28.325 -22.623 -33.007  1.00  0.00    -0.456 OA
ENDROOT
BRANCH   1  12
ATOM     12  C   UNL     1      29.893 -22.114 -31.231  1.00  0.00     0.021 A 
ATOM     13  C   UNL     1      30.907 -22.991 -30.797  1.00  0.00     0.016 A 
ATOM     14  C   UNL     1      31.274 -23.037 -29.449  1.00  0.00     0.051 A 
ATOM     15  C   UNL     1      30.633 -22.216 -28.513  1.00  0.00     0.157 A 
ATOM     16  C   UNL     1      29.246 -21.304 -30.281  1.00  0.00     0.062 A 
ATOM     17  C   UNL     1      29.616 -21.349 -28.930  1.00  0.00     0.158 A 
BRANCH  15  18
ATOM     18  O   UNL     1      30.999 -22.258 -27.169  1.00  0.00    -0.504 OA
ATOM     19  H   UNL     1      30.758 -21.508 -26.531  1.00  0.00     0.293 HD
ENDBRANCH  15  18
BRANCH  17  20
ATOM     20  O   UNL     1      28.977 -20.536 -27.996  1.00  0.00    -0.504 OA
ATOM     21  H   UNL     1      29.033 -19.525 -28.047  1.00  0.00     0.293 HD
ENDBRANCH  17  20
ENDBRANCH   1  12
BRANCH   6  22
ATOM     22  O   UNL     1      28.755 -21.396 -37.658  1.00  0.00    -0.507 OA
ATOM     23  H   UNL     1      29.725 -21.118 -37.570  1.00  0.00     0.293 HD
ENDBRANCH   6  22
BRANCH   8  24
ATOM     24  O   UNL     1      24.924 -23.894 -36.114  1.00  0.00    -0.508 OA
ATOM     25  H   UNL     1      24.310 -24.217 -35.375  1.00  0.00     0.293 HD
ENDBRANCH   8  24
TORSDOF 5
ENDMDL
MODEL 6
REMARK VINA RESULT:    -6.181      1.822      2.043
REMARK INTER + INTRA:          -7.536
REMARK INTER:                  -7.247
REMARK INTRA:                  -0.289
REMARK UNBOUND:                -0.271
REMARK SMILES O=c1cc(-c2ccc(O)c(O)c2)oc2cc(O)cc(O)c12
REMARK SMILES IDX 4 1 3 2 2 3 1 4 21 5 19 6 18 7 16 8 15 9 14 10 13 11 5 12
REMARK SMILES IDX 6 13 7 14 8 15 12 16 10 17 9 18 11 20 20 22 17 24
REMARK H PARENT 9 19 11 21 20 23 17 25
REMARK Flexibility Score: inf
ROOT
ATOM      1  C   UNL     1      27.953 -22.564 -32.323  1.00  0.00     0.138 A 
ATOM      2  C   UNL     1      26.897 -23.311 -32.873  1.00  0.00     0.100 A 
ATOM      3  C   UNL     1      26.693 -23.296 -34.253  1.00  0.00     0.197 A 
ATOM      4  O   UNL     1      25.744 -23.970 -34.738  1.00  0.00    -0.289 OA
ATOM      5  C   UNL     1      27.550 -22.536 -35.075  1.00  0.00     0.107 A 
ATOM      6  C   UNL     1      27.412 -22.466 -36.482  1.00  0.00     0.134 A 
ATOM      7  C   UNL     1      28.310 -21.691 -37.231  1.00  0.00     0.093 A 
ATOM      8  C   UNL     1      29.340 -20.988 -36.602  1.00  0.00     0.123 A 
ATOM      9  C   UNL     1      29.481 -21.053 -35.211  1.00  0.00     0.094 A 
ATOM     10  C   UNL     1      28.596 -21.820 -34.448  1.00  0.00     0.146 A 
ATOM     11  O   UNL     1      28.750 -21.865 -33.128  1.00  0.00    -0.456 OA
ENDROOT
BRANCH   1  12
ATOM     12  C   UNL     1      28.219 -22.543 -30.862  1.00  0.00     0.021 A 
ATOM     13  C   UNL     1      28.934 -21.492 -30.256  1.00  0.00     0.016 A 
ATOM     14  C   UNL     1      29.180 -21.503 -28.880  1.00  0.00     0.051 A 
ATOM     15  C   UNL     1      28.724 -22.565 -28.089  1.00  0.00     0.157 A 
ATOM     16  C   UNL     1      27.777 -23.612 -30.062  1.00  0.00     0.062 A 
ATOM     17  C   UNL     1      28.022 -23.622 -28.681  1.00  0.00     0.158 A 
BRANCH  15  18
ATOM     18  O   UNL     1      28.965 -22.578 -26.717  1.00  0.00    -0.504 OA
ATOM     19  H   UNL     1      28.836 -23.418 -26.164  1.00  0.00     0.293 HD
ENDBRANCH  15  18
BRANCH  17  20
ATOM     20  O   UNL     1      27.573 -24.679 -27.892  1.00  0.00    -0.504 OA
ATOM     21  H   UNL     1      27.263 -25.552 -28.303  1.00  0.00     0.293 HD
ENDBRANCH  17  20
ENDBRANCH   1  12
BRANCH   6  22
ATOM     22  O   UNL     1      26.392 -23.158 -37.139  1.00  0.00    -0.507 OA
ATOM     23  H   UNL     1      25.810 -22.711 -37.837  1.00  0.00     0.293 HD
ENDBRANCH   6  22
BRANCH   8  24
ATOM     24  O   UNL     1      30.219 -20.225 -37.368  1.00  0.00    -0.508 OA
ATOM     25  H   UNL     1      30.009 -19.266 -37.619  1.00  0.00     0.293 HD
ENDBRANCH   8  24
TORSDOF 5
ENDMDL
MODEL 7
REMARK VINA RESULT:    -6.143      3.143      6.652
REMARK INTER + INTRA:          -7.491
REMARK INTER:                  -7.188
REMARK INTRA:                  -0.303
REMARK UNBOUND:                -0.271
REMARK SMILES O=c1cc(-c2ccc(O)c(O)c2)oc2cc(O)cc(O)c12
REMARK SMILES IDX 4 1 3 2 2 3 1 4 21 5 19 6 18 7 16 8 15 9 14 10 13 11 5 12
REMARK SMILES IDX 6 13 7 14 8 15 12 16 10 17 9 18 11 20 20 22 17 24
REMARK H PARENT 9 19 11 21 20 23 17 25
REMARK Flexibility Score: inf
ROOT
ATOM      1  C   UNL     1      26.887 -24.372 -35.102  1.00  0.00     0.138 A 
ATOM      2  C   UNL     1      27.741 -24.446 -33.988  1.00  0.00     0.100 A 
ATOM      3  C   UNL     1      28.806 -23.551 -33.879  1.00  0.00     0.197 A 
ATOM      4  O   UNL     1      29.565 -23.624 -32.875  1.00  0.00    -0.289 OA
ATOM      5  C   UNL     1      29.007 -22.583 -34.884  1.00  0.00     0.107 A 
ATOM      6  C   UNL     1      30.061 -21.640 -34.850  1.00  0.00     0.134 A 
ATOM      7  C   UNL     1      30.192 -20.705 -35.888  1.00  0.00     0.093 A 
ATOM      8  C   UNL     1      29.290 -20.695 -36.954  1.00  0.00     0.123 A 
ATOM      9  C   UNL     1      28.245 -21.626 -36.993  1.00  0.00     0.094 A 
ATOM     10  C   UNL     1      28.099 -22.565 -35.969  1.00  0.00     0.146 A 
ATOM     11  O   UNL     1      27.100 -23.440 -36.029  1.00  0.00    -0.456 OA
ENDROOT
BRANCH   1  12
ATOM     12  C   UNL     1      25.738 -25.296 -35.271  1.00  0.00     0.021 A 
ATOM     13  C   UNL     1      25.023 -25.797 -34.166  1.00  0.00     0.016 A 
ATOM     14  C   UNL     1      23.952 -26.674 -34.354  1.00  0.00     0.051 A 
ATOM     15  C   UNL     1      23.582 -27.072 -35.644  1.00  0.00     0.157 A 
ATOM     16  C   UNL     1      25.368 -25.712 -36.563  1.00  0.00     0.062 A 
ATOM     17  C   UNL     1      24.291 -26.591 -36.751  1.00  0.00     0.158 A 
BRANCH  15  18
ATOM     18  O   UNL     1      22.512 -27.946 -35.836  1.00  0.00    -0.504 OA
ATOM     19  H   UNL     1      22.222 -28.594 -35.113  1.00  0.00     0.293 HD
ENDBRANCH  15  18
BRANCH  17  20
ATOM     20  O   UNL     1      23.924 -26.992 -38.034  1.00  0.00    -0.504 OA
ATOM     21  H   UNL     1      24.522 -27.587 -38.595  1.00  0.00     0.293 HD
ENDBRANCH  17  20
ENDBRANCH   1  12
BRANCH   6  22
ATOM     22  O   UNL     1      30.979 -21.625 -33.797  1.00  0.00    -0.507 OA
ATOM     23  H   UNL     1      30.984 -20.885 -33.106  1.00  0.00     0.293 HD
ENDBRANCH   6  22
BRANCH   8  24
ATOM     24  O   UNL     1      29.440 -19.756 -37.972  1.00  0.00    -0.508 OA
ATOM     25  H   UNL     1      29.918 -18.876 -37.816  1.00  0.00     0.293 HD
ENDBRANCH   8  24
TORSDOF 5
ENDMDL
MODEL 8
REMARK VINA RESULT:    -6.136      2.413      4.052
REMARK INTER + INTRA:          -7.483
REMARK INTER:                  -7.204
REMARK INTRA:                  -0.279
REMARK UNBOUND:                -0.271
REMARK SMILES O=c1cc(-c2ccc(O)c(O)c2)oc2cc(O)cc(O)c12
REMARK SMILES IDX 4 1 3 2 2 3 1 4 21 5 19 6 18 7 16 8 15 9 14 10 13 11 5 12
REMARK SMILES IDX 6 13 7 14 8 15 12 16 10 17 9 18 11 20 20 22 17 24
REMARK H PARENT 9 19 11 21 20 23 17 25
REMARK Flexibility Score: inf
ROOT
ATOM      1  C   UNL     1      29.128 -21.823 -29.872  1.00  0.00     0.138 A 
ATOM      2  C   UNL     1      30.300 -21.395 -30.518  1.00  0.00     0.100 A 
ATOM      3  C   UNL     1      30.345 -21.369 -31.912  1.00  0.00     0.197 A 
ATOM      4  O   UNL     1      31.401 -20.982 -32.482  1.00  0.00    -0.289 OA
ATOM      5  C   UNL     1      29.214 -21.768 -32.652  1.00  0.00     0.107 A 
ATOM      6  C   UNL     1      29.177 -21.773 -34.066  1.00  0.00     0.134 A 
ATOM      7  C   UNL     1      28.009 -22.180 -34.730  1.00  0.00     0.093 A 
ATOM      8  C   UNL     1      26.883 -22.580 -34.008  1.00  0.00     0.123 A 
ATOM      9  C   UNL     1      26.914 -22.578 -32.609  1.00  0.00     0.094 A 
ATOM     10  C   UNL     1      28.068 -22.176 -31.930  1.00  0.00     0.146 A 
ATOM     11  O   UNL     1      28.074 -22.185 -30.600  1.00  0.00    -0.456 OA
ENDROOT
BRANCH   1  12
ATOM     12  C   UNL     1      29.021 -21.870 -28.392  1.00  0.00     0.021 A 
ATOM     13  C   UNL     1      29.211 -20.721 -27.600  1.00  0.00     0.016 A 
ATOM     14  C   UNL     1      29.115 -20.796 -26.207  1.00  0.00     0.051 A 
ATOM     15  C   UNL     1      28.836 -22.018 -25.583  1.00  0.00     0.157 A 
ATOM     16  C   UNL     1      28.755 -23.096 -27.755  1.00  0.00     0.062 A 
ATOM     17  C   UNL     1      28.657 -23.170 -26.358  1.00  0.00     0.158 A 
BRANCH  15  18
ATOM     18  O   UNL     1      28.738 -22.096 -24.195  1.00  0.00    -0.504 OA
ATOM     19  H   UNL     1      29.355 -21.568 -23.589  1.00  0.00     0.293 HD
ENDBRANCH  15  18
BRANCH  17  20
ATOM     20  O   UNL     1      28.384 -24.386 -25.734  1.00  0.00    -0.504 OA
ATOM     21  H   UNL     1      28.016 -24.426 -24.790  1.00  0.00     0.293 HD
ENDBRANCH  17  20
ENDBRANCH   1  12
BRANCH   6  22
ATOM     22  O   UNL     1      30.287 -21.378 -34.816  1.00  0.00    -0.507 OA
ATOM     23  H   UNL     1      30.729 -22.000 -35.481  1.00  0.00     0.293 HD
ENDBRANCH   6  22
BRANCH   8  24
ATOM     24  O   UNL     1      25.735 -22.980 -34.690  1.00  0.00    -0.508 OA
ATOM     25  H   UNL     1      24.916 -22.386 -34.743  1.00  0.00     0.293 HD
ENDBRANCH   8  24
TORSDOF 5
ENDMDL
MODEL 9
REMARK VINA RESULT:    -6.049      1.879      2.803
REMARK INTER + INTRA:          -7.380
REMARK INTER:                  -7.110
REMARK INTRA:                  -0.270
REMARK UNBOUND:                -0.271
REMARK SMILES O=c1cc(-c2ccc(O)c(O)c2)oc2cc(O)cc(O)c12
REMARK SMILES IDX 4 1 3 2 2 3 1 4 21 5 19 6 18 7 16 8 15 9 14 10 13 11 5 12
REMARK SMILES IDX 6 13 7 14 8 15 12 16 10 17 9 18 11 20 20 22 17 24
REMARK H PARENT 9 19 11 21 20 23 17 25
REMARK Flexibility Score: inf
ROOT
ATOM      1  C   UNL     1      28.983 -22.094 -30.509  1.00  0.00     0.138 A 
ATOM      2  C   UNL     1      27.765 -22.791 -30.586  1.00  0.00     0.100 A 
ATOM      3  C   UNL     1      27.153 -22.970 -31.827  1.00  0.00     0.197 A 
ATOM      4  O   UNL     1      26.061 -23.598 -31.884  1.00  0.00    -0.289 OA
ATOM      5  C   UNL     1      27.766 -22.453 -32.985  1.00  0.00     0.107 A 
ATOM      6  C   UNL     1      27.213 -22.589 -34.280  1.00  0.00     0.134 A 
ATOM      7  C   UNL     1      27.888 -22.049 -35.386  1.00  0.00     0.093 A 
ATOM      8  C   UNL     1      29.102 -21.379 -35.221  1.00  0.00     0.123 A 
ATOM      9  C   UNL     1      29.654 -21.241 -33.942  1.00  0.00     0.094 A 
ATOM     10  C   UNL     1      28.997 -21.772 -32.829  1.00  0.00     0.146 A 
ATOM     11  O   UNL     1      29.540 -21.626 -31.624  1.00  0.00    -0.456 OA
ENDROOT
BRANCH   1  12
ATOM     12  C   UNL     1      29.681 -21.875 -29.217  1.00  0.00     0.021 A 
ATOM     13  C   UNL     1      29.173 -20.993 -28.243  1.00  0.00     0.016 A 
ATOM     14  C   UNL     1      29.857 -20.798 -27.040  1.00  0.00     0.051 A 
ATOM     15  C   UNL     1      31.059 -21.471 -26.792  1.00  0.00     0.157 A 
ATOM     16  C   UNL     1      30.896 -22.537 -28.965  1.00  0.00     0.062 A 
ATOM     17  C   UNL     1      31.581 -22.341 -27.757  1.00  0.00     0.158 A 
BRANCH  15  18
ATOM     18  O   UNL     1      31.742 -21.281 -25.592  1.00  0.00    -0.504 OA
ATOM     19  H   UNL     1      31.491 -21.790 -24.753  1.00  0.00     0.293 HD
ENDBRANCH  15  18
BRANCH  17  20
ATOM     20  O   UNL     1      32.779 -23.008 -27.509  1.00  0.00    -0.504 OA
ATOM     21  H   UNL     1      32.928 -23.962 -27.815  1.00  0.00     0.293 HD
ENDBRANCH  17  20
ENDBRANCH   1  12
BRANCH   6  22
ATOM     22  O   UNL     1      26.000 -23.253 -34.478  1.00  0.00    -0.507 OA
ATOM     23  H   UNL     1      25.166 -22.762 -34.774  1.00  0.00     0.293 HD
ENDBRANCH   6  22
BRANCH   8  24
ATOM     24  O   UNL     1      29.753 -20.853 -36.334  1.00  0.00    -0.508 OA
ATOM     25  H   UNL     1      30.688 -20.466 -36.268  1.00  0.00     0.293 HD
ENDBRANCH   8  24
TORSDOF 5
ENDMDL
