MODEL 1
REMARK VINA RESULT:    -4.210      0.000      0.000
REMARK INTER + INTRA:          -4.210
REMARK INTER:                  -4.210
REMARK INTRA:                   0.000
REMARK UNBOUND:                 0.000
REMARK SMILES O=c1ccc2ccccc2o1
REMARK SMILES IDX 7 1 8 2 9 3 10 4 5 5 6 6 4 7 3 8 2 9 1 10 11 11
REMARK H PARENT
REMARK Flexibility Score: inf
ROOT
ATOM      1  C   UNL     1      11.711 -17.950  18.799  1.00  0.00     0.001 A 
ATOM      2  C   UNL     1      11.298 -18.040  20.134  1.00  0.00     0.004 A 
ATOM      3  C   UNL     1      12.246 -18.102  21.160  1.00  0.00     0.048 A 
ATOM      4  C   UNL     1      13.612 -18.074  20.856  1.00  0.00     0.138 A 
ATOM      5  C   UNL     1      14.029 -17.983  19.510  1.00  0.00     0.018 A 
ATOM      6  C   UNL     1      13.073 -17.921  18.484  1.00  0.00     0.012 A 
ATOM      7  C   UNL     1      15.399 -17.956  19.236  1.00  0.00     0.019 A 
ATOM      8  C   UNL     1      16.308 -18.021  20.292  1.00  0.00     0.094 A 
ATOM      9  C   UNL     1      15.823 -18.110  21.601  1.00  0.00     0.336 A 
ATOM     10  O   UNL     1      16.629 -18.170  22.567  1.00  0.00    -0.246 OA
ATOM     11  O   UNL     1      14.512 -18.134  21.834  1.00  0.00    -0.423 OA
ENDROOT
TORSDOF 0
ENDMDL
MODEL 2
REMARK VINA RESULT:    -4.081      1.535      3.808
REMARK INTER + INTRA:          -4.081
REMARK INTER:                  -4.081
REMARK INTRA:                   0.000
REMARK UNBOUND:                 0.000
REMARK SMILES O=c1ccc2ccccc2o1
REMARK SMILES IDX 7 1 8 2 9 3 10 4 5 5 6 6 4 7 3 8 2 9 1 10 11 11
REMARK H PARENT
REMARK Flexibility Score: inf
ROOT
ATOM      1  C   UNL     1      16.399 -17.986  20.265  1.00  0.00     0.001 A 
ATOM      2  C   UNL     1      16.028 -18.119  21.608  1.00  0.00     0.004 A 
ATOM      3  C   UNL     1      14.675 -18.174  21.961  1.00  0.00     0.048 A 
ATOM      4  C   UNL     1      13.688 -18.097  20.972  1.00  0.00     0.138 A 
ATOM      5  C   UNL     1      14.063 -17.963  19.616  1.00  0.00     0.018 A 
ATOM      6  C   UNL     1      15.421 -17.908  19.268  1.00  0.00     0.012 A 
ATOM      7  C   UNL     1      13.056 -17.888  18.650  1.00  0.00     0.019 A 
ATOM      8  C   UNL     1      11.721 -17.947  19.049  1.00  0.00     0.094 A 
ATOM      9  C   UNL     1      11.424 -18.080  20.409  1.00  0.00     0.336 A 
ATOM     10  O   UNL     1      10.224 -18.134  20.788  1.00  0.00    -0.246 OA
ATOM     11  O   UNL     1      12.402 -18.148  21.309  1.00  0.00    -0.423 OA
ENDROOT
TORSDOF 0
ENDMDL
MODEL 3
REMARK VINA RESULT:    -4.001      2.013      4.392
REMARK INTER + INTRA:          -4.001
REMARK INTER:                  -4.001
REMARK INTRA:                   0.000
REMARK UNBOUND:                 0.000
REMARK SMILES O=c1ccc2ccccc2o1
REMARK SMILES IDX 7 1 8 2 9 3 10 4 5 5 6 6 4 7 3 8 2 9 1 10 11 11
REMARK H PARENT
REMARK Flexibility Score: inf
ROOT
ATOM      1  C   UNL     1      15.882 -18.057  21.646  1.00  0.00     0.001 A 
ATOM      2  C   UNL     1      16.388 -17.982  20.343  1.00  0.00     0.004 A 
ATOM      3  C   UNL     1      15.516 -17.920  19.252  1.00  0.00     0.048 A 
ATOM      4  C   UNL     1      14.131 -17.934  19.459  1.00  0.00     0.138 A 
ATOM      5  C   UNL     1      13.620 -18.010  20.774  1.00  0.00     0.018 A 
ATOM      6  C   UNL     1      14.500 -18.072  21.865  1.00  0.00     0.012 A 
ATOM      7  C   UNL     1      12.234 -18.022  20.951  1.00  0.00     0.019 A 
ATOM      8  C   UNL     1      11.402 -17.959  19.833  1.00  0.00     0.094 A 
ATOM      9  C   UNL     1      11.978 -17.885  18.561  1.00  0.00     0.336 A 
ATOM     10  O   UNL     1      11.243 -17.829  17.540  1.00  0.00    -0.246 OA
ATOM     11  O   UNL     1      13.302 -17.876  18.420  1.00  0.00    -0.423 OA
ENDROOT
TORSDOF 0
ENDMDL
MODEL 4
REMARK VINA RESULT:    -3.867      1.352      2.160
REMARK INTER + INTRA:          -3.867
REMARK INTER:                  -3.867
REMARK INTRA:                   0.000
REMARK UNBOUND:                 0.000
REMARK SMILES O=c1ccc2ccccc2o1
REMARK SMILES IDX 7 1 8 2 9 3 10 4 5 5 6 6 4 7 3 8 2 9 1 10 11 11
REMARK H PARENT
REMARK Flexibility Score: inf
ROOT
ATOM      1  C   UNL     1       9.853 -18.516  18.059  1.00  0.00     0.001 A 
ATOM      2  C   UNL     1       9.366 -18.770  19.346  1.00  0.00     0.004 A 
ATOM      3  C   UNL     1      10.214 -18.659  20.453  1.00  0.00     0.048 A 
ATOM      4  C   UNL     1      11.554 -18.293  20.276  1.00  0.00     0.138 A 
ATOM      5  C   UNL     1      12.045 -18.036  18.977  1.00  0.00     0.018 A 
ATOM      6  C   UNL     1      11.190 -18.149  17.871  1.00  0.00     0.012 A 
ATOM      7  C   UNL     1      13.386 -17.673  18.831  1.00  0.00     0.019 A 
ATOM      8  C   UNL     1      14.195 -17.575  19.963  1.00  0.00     0.094 A 
ATOM      9  C   UNL     1      13.641 -17.844  21.219  1.00  0.00     0.336 A 
ATOM     10  O   UNL     1      14.356 -17.761  22.252  1.00  0.00    -0.246 OA
ATOM     11  O   UNL     1      12.360 -18.189  21.330  1.00  0.00    -0.423 OA
ENDROOT
TORSDOF 0
ENDMDL
MODEL 5
REMARK VINA RESULT:    -3.867      0.919      1.183
REMARK INTER + INTRA:          -3.867
REMARK INTER:                  -3.867
REMARK INTRA:                   0.000
REMARK UNBOUND:                 0.000
REMARK SMILES O=c1ccc2ccccc2o1
REMARK SMILES IDX 7 1 8 2 9 3 10 4 5 5 6 6 4 7 3 8 2 9 1 10 11 11
REMARK H PARENT
REMARK Flexibility Score: inf
ROOT
ATOM      1  C   UNL     1      11.212 -17.680  20.542  1.00  0.00     0.001 A 
ATOM      2  C   UNL     1      11.486 -17.484  21.900  1.00  0.00     0.004 A 
ATOM      3  C   UNL     1      12.806 -17.520  22.364  1.00  0.00     0.048 A 
ATOM      4  C   UNL     1      13.857 -17.753  21.470  1.00  0.00     0.138 A 
ATOM      5  C   UNL     1      13.580 -17.952  20.098  1.00  0.00     0.018 A 
ATOM      6  C   UNL     1      12.255 -17.914  19.639  1.00  0.00     0.012 A 
ATOM      7  C   UNL     1      14.650 -18.183  19.229  1.00  0.00     0.019 A 
ATOM      8  C   UNL     1      15.949 -18.211  19.736  1.00  0.00     0.094 A 
ATOM      9  C   UNL     1      16.148 -18.006  21.106  1.00  0.00     0.336 A 
ATOM     10  O   UNL     1      17.313 -18.029  21.582  1.00  0.00    -0.246 OA
ATOM     11  O   UNL     1      15.111 -17.789  21.912  1.00  0.00    -0.423 OA
ENDROOT
TORSDOF 0
ENDMDL
MODEL 6
REMARK VINA RESULT:    -3.856      1.784      2.724
REMARK INTER + INTRA:          -3.856
REMARK INTER:                  -3.856
REMARK INTRA:                   0.000
REMARK UNBOUND:                 0.000
REMARK SMILES O=c1ccc2ccccc2o1
REMARK SMILES IDX 7 1 8 2 9 3 10 4 5 5 6 6 4 7 3 8 2 9 1 10 11 11
REMARK H PARENT
REMARK Flexibility Score: inf
ROOT
ATOM      1  C   UNL     1       9.900 -18.446  19.821  1.00  0.00     0.001 A 
ATOM      2  C   UNL     1      10.165 -18.262  18.459  1.00  0.00     0.004 A 
ATOM      3  C   UNL     1      11.470 -18.002  18.026  1.00  0.00     0.048 A 
ATOM      4  C   UNL     1      12.515 -17.925  18.954  1.00  0.00     0.138 A 
ATOM      5  C   UNL     1      12.247 -18.111  20.329  1.00  0.00     0.018 A 
ATOM      6  C   UNL     1      10.936 -18.371  20.758  1.00  0.00     0.012 A 
ATOM      7  C   UNL     1      13.310 -18.028  21.232  1.00  0.00     0.019 A 
ATOM      8  C   UNL     1      14.594 -17.766  20.755  1.00  0.00     0.094 A 
ATOM      9  C   UNL     1      14.785 -17.593  19.380  1.00  0.00     0.336 A 
ATOM     10  O   UNL     1      15.937 -17.356  18.931  1.00  0.00    -0.246 OA
ATOM     11  O   UNL     1      13.755 -17.677  18.541  1.00  0.00    -0.423 OA
ENDROOT
TORSDOF 0
ENDMDL
MODEL 7
REMARK VINA RESULT:    -3.844     14.198     14.831
REMARK INTER + INTRA:          -3.844
REMARK INTER:                  -3.844
REMARK INTRA:                   0.000
REMARK UNBOUND:                 0.000
REMARK SMILES O=c1ccc2ccccc2o1
REMARK SMILES IDX 7 1 8 2 9 3 10 4 5 5 6 6 4 7 3 8 2 9 1 10 11 11
REMARK H PARENT
REMARK Flexibility Score: inf
ROOT
ATOM      1  C   UNL     1      15.459  -2.582  15.991  1.00  0.00     0.001 A 
ATOM      2  C   UNL     1      16.337  -2.364  14.923  1.00  0.00     0.004 A 
ATOM      3  C   UNL     1      16.607  -3.393  14.014  1.00  0.00     0.048 A 
ATOM      4  C   UNL     1      15.999  -4.644  14.171  1.00  0.00     0.138 A 
ATOM      5  C   UNL     1      15.113  -4.864  15.249  1.00  0.00     0.018 A 
ATOM      6  C   UNL     1      14.846  -3.828  16.157  1.00  0.00     0.012 A 
ATOM      7  C   UNL     1      14.521  -6.123  15.380  1.00  0.00     0.019 A 
ATOM      8  C   UNL     1      14.820  -7.119  14.450  1.00  0.00     0.094 A 
ATOM      9  C   UNL     1      15.707  -6.830  13.408  1.00  0.00     0.336 A 
ATOM     10  O   UNL     1      15.990  -7.717  12.560  1.00  0.00    -0.246 OA
ATOM     11  O   UNL     1      16.258  -5.622  13.306  1.00  0.00    -0.423 OA
ENDROOT
TORSDOF 0
ENDMDL
MODEL 8
REMARK VINA RESULT:    -3.783     14.086     14.557
REMARK INTER + INTRA:          -3.783
REMARK INTER:                  -3.783
REMARK INTRA:                   0.000
REMARK UNBOUND:                 0.000
REMARK SMILES O=c1ccc2ccccc2o1
REMARK SMILES IDX 7 1 8 2 9 3 10 4 5 5 6 6 4 7 3 8 2 9 1 10 11 11
REMARK H PARENT
REMARK Flexibility Score: inf
ROOT
ATOM      1  C   UNL     1      15.422  -7.238  13.343  1.00  0.00     0.001 A 
ATOM      2  C   UNL     1      14.565  -7.460  14.428  1.00  0.00     0.004 A 
ATOM      3  C   UNL     1      14.345  -6.449  15.369  1.00  0.00     0.048 A 
ATOM      4  C   UNL     1      14.981  -5.210  15.228  1.00  0.00     0.138 A 
ATOM      5  C   UNL     1      15.845  -4.986  14.133  1.00  0.00     0.018 A 
ATOM      6  C   UNL     1      16.062  -6.004  13.193  1.00  0.00     0.012 A 
ATOM      7  C   UNL     1      16.466  -3.739  14.019  1.00  0.00     0.019 A 
ATOM      8  C   UNL     1      16.217  -2.760  14.981  1.00  0.00     0.094 A 
ATOM      9  C   UNL     1      15.349  -3.053  16.038  1.00  0.00     0.336 A 
ATOM     10  O   UNL     1      15.113  -2.182  16.916  1.00  0.00    -0.246 OA
ATOM     11  O   UNL     1      14.771  -4.249  16.124  1.00  0.00    -0.423 OA
ENDROOT
TORSDOF 0
ENDMDL
MODEL 9
REMARK VINA RESULT:    -3.773      1.759      2.623
REMARK INTER + INTRA:          -3.773
REMARK INTER:                  -3.773
REMARK INTRA:                   0.000
REMARK UNBOUND:                 0.000
REMARK SMILES O=c1ccc2ccccc2o1
REMARK SMILES IDX 7 1 8 2 9 3 10 4 5 5 6 6 4 7 3 8 2 9 1 10 11 11
REMARK H PARENT
REMARK Flexibility Score: inf
ROOT
ATOM      1  C   UNL     1      13.354 -17.248  18.504  1.00  0.00     0.001 A 
ATOM      2  C   UNL     1      14.215 -16.228  18.081  1.00  0.00     0.004 A 
ATOM      3  C   UNL     1      15.375 -15.941  18.808  1.00  0.00     0.048 A 
ATOM      4  C   UNL     1      15.679 -16.673  19.961  1.00  0.00     0.138 A 
ATOM      5  C   UNL     1      14.810 -17.702  20.388  1.00  0.00     0.018 A 
ATOM      6  C   UNL     1      13.648 -17.986  19.655  1.00  0.00     0.012 A 
ATOM      7  C   UNL     1      15.139 -18.417  21.543  1.00  0.00     0.019 A 
ATOM      8  C   UNL     1      16.306 -18.095  22.237  1.00  0.00     0.094 A 
ATOM      9  C   UNL     1      17.119 -17.064  21.755  1.00  0.00     0.336 A 
ATOM     10  O   UNL     1      18.176 -16.759  22.368  1.00  0.00    -0.246 OA
ATOM     11  O   UNL     1      16.782 -16.398  20.652  1.00  0.00    -0.423 OA
ENDROOT
TORSDOF 0
ENDMDL
