MODEL 1
REMARK VINA RESULT:    -5.581      0.000      0.000
REMARK INTER + INTRA:          -6.005
REMARK INTER:                  -5.907
REMARK INTRA:                  -0.098
REMARK UNBOUND:                -0.098
REMARK SMILES C=C(C)[C@@H]1CC=C(C)C(=O)C1
REMARK SMILES IDX 8 1 7 2 6 3 5 4 4 5 11 6 9 7 10 8 2 9 1 10 3 11
REMARK H PARENT
REMARK Flexibility Score: inf
ROOT
ATOM      1  C   UNL     1      14.648 -33.174  20.949  1.00  0.00     0.048 C 
ATOM      2  C   UNL     1      13.887 -32.096  21.672  1.00  0.00    -0.012 C 
ATOM      3  C   UNL     1      12.933 -31.403  21.027  1.00  0.00    -0.019 C 
ATOM      4  C   UNL     1      12.130 -30.327  21.708  1.00  0.00     0.036 C 
ATOM      5  C   UNL     1      12.968 -29.601  22.777  1.00  0.00     0.025 C 
ATOM      6  C   UNL     1      13.551 -30.616  23.778  1.00  0.00     0.089 C 
ATOM      7  C   UNL     1      14.275 -31.717  23.055  1.00  0.00     0.158 C 
ATOM      8  O   UNL     1      15.193 -32.344  23.649  1.00  0.00    -0.295 OA
ENDROOT
BRANCH   5   9
ATOM      9  C   UNL     1      12.157 -28.524  23.485  1.00  0.00    -0.077 C 
ATOM     10  C   UNL     1      10.876 -28.314  23.144  1.00  0.00     0.008 C 
ATOM     11  C   UNL     1      12.762 -27.672  24.573  1.00  0.00     0.039 C 
ENDBRANCH   5   9
TORSDOF 1
ENDMDL
MODEL 2
REMARK VINA RESULT:    -5.230      1.608      2.269
REMARK INTER + INTRA:          -5.634
REMARK INTER:                  -5.537
REMARK INTRA:                  -0.097
REMARK UNBOUND:                -0.098
REMARK SMILES C=C(C)[C@@H]1CC=C(C)C(=O)C1
REMARK SMILES IDX 8 1 7 2 6 3 5 4 4 5 11 6 9 7 10 8 2 9 1 10 3 11
REMARK H PARENT
REMARK Flexibility Score: inf
ROOT
ATOM      1  C   UNL     1      15.324 -34.133  21.303  1.00  0.00     0.048 C 
ATOM      2  C   UNL     1      14.632 -32.843  21.651  1.00  0.00    -0.012 C 
ATOM      3  C   UNL     1      14.809 -32.295  22.866  1.00  0.00    -0.019 C 
ATOM      4  C   UNL     1      14.155 -30.998  23.259  1.00  0.00     0.036 C 
ATOM      5  C   UNL     1      12.784 -30.837  22.575  1.00  0.00     0.025 C 
ATOM      6  C   UNL     1      12.930 -30.977  21.049  1.00  0.00     0.089 C 
ATOM      7  C   UNL     1      13.660 -32.245  20.701  1.00  0.00     0.158 C 
ATOM      8  O   UNL     1      13.467 -32.777  19.575  1.00  0.00    -0.295 OA
ENDROOT
BRANCH   5   9
ATOM      9  C   UNL     1      12.124 -29.518  22.952  1.00  0.00    -0.077 C 
ATOM     10  C   UNL     1      11.010 -29.118  22.319  1.00  0.00     0.008 C 
ATOM     11  C   UNL     1      12.696 -28.633  24.032  1.00  0.00     0.039 C 
ENDBRANCH   5   9
TORSDOF 1
ENDMDL
MODEL 3
REMARK VINA RESULT:    -5.132      1.567      2.308
REMARK INTER + INTRA:          -5.531
REMARK INTER:                  -5.443
REMARK INTRA:                  -0.088
REMARK UNBOUND:                -0.098
REMARK SMILES C=C(C)[C@@H]1CC=C(C)C(=O)C1
REMARK SMILES IDX 8 1 7 2 6 3 5 4 4 5 11 6 9 7 10 8 2 9 1 10 3 11
REMARK H PARENT
REMARK Flexibility Score: inf
ROOT
ATOM      1  C   UNL     1      16.986 -31.825  23.514  1.00  0.00     0.048 C 
ATOM      2  C   UNL     1      15.693 -31.086  23.305  1.00  0.00    -0.012 C 
ATOM      3  C   UNL     1      15.711 -29.777  23.002  1.00  0.00    -0.019 C 
ATOM      4  C   UNL     1      14.447 -28.994  22.766  1.00  0.00     0.036 C 
ATOM      5  C   UNL     1      13.292 -29.531  23.633  1.00  0.00     0.025 C 
ATOM      6  C   UNL     1      13.098 -31.039  23.390  1.00  0.00     0.089 C 
ATOM      7  C   UNL     1      14.400 -31.773  23.555  1.00  0.00     0.158 C 
ATOM      8  O   UNL     1      14.382 -32.993  23.873  1.00  0.00    -0.295 OA
ENDROOT
BRANCH   5   9
ATOM      9  C   UNL     1      12.004 -28.758  23.386  1.00  0.00    -0.077 C 
ATOM     10  C   UNL     1      11.680 -27.720  24.175  1.00  0.00     0.008 C 
ATOM     11  C   UNL     1      11.066 -29.130  22.265  1.00  0.00     0.039 C 
ENDBRANCH   5   9
TORSDOF 1
ENDMDL
MODEL 4
REMARK VINA RESULT:    -5.085      1.970      4.727
REMARK INTER + INTRA:          -5.481
REMARK INTER:                  -5.391
REMARK INTRA:                  -0.090
REMARK UNBOUND:                -0.098
REMARK SMILES C=C(C)[C@@H]1CC=C(C)C(=O)C1
REMARK SMILES IDX 8 1 7 2 6 3 5 4 4 5 11 6 9 7 10 8 2 9 1 10 3 11
REMARK H PARENT
REMARK Flexibility Score: inf
ROOT
ATOM      1  C   UNL     1      11.250 -28.366  23.262  1.00  0.00     0.048 C 
ATOM      2  C   UNL     1      12.246 -29.430  22.890  1.00  0.00    -0.012 C 
ATOM      3  C   UNL     1      13.430 -29.489  23.523  1.00  0.00    -0.019 C 
ATOM      4  C   UNL     1      14.455 -30.544  23.201  1.00  0.00     0.036 C 
ATOM      5  C   UNL     1      14.398 -30.938  21.713  1.00  0.00     0.025 C 
ATOM      6  C   UNL     1      12.973 -31.374  21.331  1.00  0.00     0.089 C 
ATOM      7  C   UNL     1      11.971 -30.331  21.742  1.00  0.00     0.158 C 
ATOM      8  O   UNL     1      10.875 -30.254  21.124  1.00  0.00    -0.295 OA
ENDROOT
BRANCH   5   9
ATOM      9  C   UNL     1      15.419 -32.018  21.383  1.00  0.00    -0.077 C 
ATOM     10  C   UNL     1      16.721 -31.706  21.284  1.00  0.00     0.008 C 
ATOM     11  C   UNL     1      15.003 -33.451  21.159  1.00  0.00     0.039 C 
ENDBRANCH   5   9
TORSDOF 1
ENDMDL
MODEL 5
REMARK VINA RESULT:    -4.947      1.708      4.384
REMARK INTER + INTRA:          -5.334
REMARK INTER:                  -5.240
REMARK INTRA:                  -0.094
REMARK UNBOUND:                -0.098
REMARK SMILES C=C(C)[C@@H]1CC=C(C)C(=O)C1
REMARK SMILES IDX 8 1 7 2 6 3 5 4 4 5 11 6 9 7 10 8 2 9 1 10 3 11
REMARK H PARENT
REMARK Flexibility Score: inf
ROOT
ATOM      1  C   UNL     1      10.882 -27.702  23.253  1.00  0.00     0.048 C 
ATOM      2  C   UNL     1      11.847 -28.799  22.895  1.00  0.00    -0.012 C 
ATOM      3  C   UNL     1      11.445 -29.817  22.115  1.00  0.00    -0.019 C 
ATOM      4  C   UNL     1      12.375 -30.930  21.713  1.00  0.00     0.036 C 
ATOM      5  C   UNL     1      13.408 -31.217  22.820  1.00  0.00     0.025 C 
ATOM      6  C   UNL     1      14.165 -29.930  23.190  1.00  0.00     0.089 C 
ATOM      7  C   UNL     1      13.201 -28.820  23.505  1.00  0.00     0.158 C 
ATOM      8  O   UNL     1      13.569 -27.884  24.265  1.00  0.00    -0.295 OA
ENDROOT
BRANCH   5   9
ATOM      9  C   UNL     1      14.365 -32.330  22.413  1.00  0.00    -0.077 C 
ATOM     10  C   UNL     1      15.244 -32.819  23.302  1.00  0.00     0.008 C 
ATOM     11  C   UNL     1      14.355 -32.905  21.019  1.00  0.00     0.039 C 
ENDBRANCH   5   9
TORSDOF 1
ENDMDL
