MODEL 1
REMARK VINA RESULT:    -5.468      0.000      0.000
REMARK INTER + INTRA:          -6.735
REMARK INTER:                  -6.427
REMARK INTRA:                  -0.308
REMARK UNBOUND:                -0.308
REMARK SMILES O=c1c(O)c(-c2ccc(O)c(O)c2)oc2cc(O)ccc12
REMARK SMILES IDX 5 1 3 2 2 3 1 4 21 5 15 6 14 7 16 8 17 9 19 10 20 11 6 12
REMARK SMILES IDX 7 13 8 14 9 15 13 16 11 17 10 18 12 20 4 22 18 24
REMARK H PARENT 10 19 12 21 4 23 18 25
REMARK Flexibility Score: inf
ROOT
ATOM      1  C   UNL     1      -0.971  16.209  39.842  1.00  0.00     0.180 A 
ATOM      2  C   UNL     1      -1.978  15.731  38.978  1.00  0.00     0.208 A 
ATOM      3  C   UNL     1      -1.793  15.851  37.592  1.00  0.00     0.235 A 
ATOM      4  O   UNL     1      -2.683  15.440  36.799  1.00  0.00    -0.285 OA
ATOM      5  C   UNL     1      -0.608  16.423  37.101  1.00  0.00     0.069 A 
ATOM      6  C   UNL     1       0.361  16.855  38.031  1.00  0.00     0.142 A 
ATOM      7  O   UNL     1       0.144  16.731  39.336  1.00  0.00    -0.452 OA
ATOM      8  C   UNL     1       1.559  17.421  37.581  1.00  0.00     0.094 A 
ATOM      9  C   UNL     1       1.801  17.563  36.208  1.00  0.00     0.119 A 
ATOM     10  C   UNL     1       0.841  17.136  35.284  1.00  0.00     0.047 A 
ATOM     11  C   UNL     1      -0.358  16.568  35.724  1.00  0.00     0.020 A 
ENDROOT
BRANCH   1  12
ATOM     12  C   UNL     1      -1.099  16.134  41.316  1.00  0.00     0.025 A 
ATOM     13  C   UNL     1      -1.545  17.235  42.068  1.00  0.00     0.016 A 
ATOM     14  C   UNL     1      -1.635  17.150  43.460  1.00  0.00     0.051 A 
ATOM     15  C   UNL     1      -1.269  15.971  44.121  1.00  0.00     0.157 A 
ATOM     16  C   UNL     1      -0.714  14.961  41.984  1.00  0.00     0.062 A 
ATOM     17  C   UNL     1      -0.803  14.872  43.379  1.00  0.00     0.158 A 
BRANCH  15  18
ATOM     18  O   UNL     1      -1.362  15.887  45.510  1.00  0.00    -0.504 OA
ATOM     19  H   UNL     1      -2.167  16.246  46.010  1.00  0.00     0.293 HD
ENDBRANCH  15  18
BRANCH  17  20
ATOM     20  O   UNL     1      -0.425  13.686  44.007  1.00  0.00    -0.504 OA
ATOM     21  H   UNL     1       0.490  13.566  44.424  1.00  0.00     0.293 HD
ENDBRANCH  17  20
ENDBRANCH   1  12
BRANCH   2  22
ATOM     22  O   UNL     1      -3.124  15.121  39.495  1.00  0.00    -0.502 OA
ATOM     23  H   UNL     1      -3.129  14.650  40.392  1.00  0.00     0.293 HD
ENDBRANCH   2  22
BRANCH   9  24
ATOM     24  O   UNL     1       2.990  18.125  35.751  1.00  0.00    -0.508 OA
ATOM     25  H   UNL     1       3.735  18.380  36.389  1.00  0.00     0.293 HD
ENDBRANCH   9  24
TORSDOF 5
ENDMDL
MODEL 2
REMARK VINA RESULT:    -4.894      2.272      3.085
REMARK INTER + INTRA:          -6.060
REMARK INTER:                  -6.046
REMARK INTRA:                  -0.014
REMARK UNBOUND:                -0.308
REMARK SMILES O=c1c(O)c(-c2ccc(O)c(O)c2)oc2cc(O)ccc12
REMARK SMILES IDX 5 1 3 2 2 3 1 4 21 5 15 6 14 7 16 8 17 9 19 10 20 11 6 12
REMARK SMILES IDX 7 13 8 14 9 15 13 16 11 17 10 18 12 20 4 22 18 24
REMARK H PARENT 10 19 12 21 4 23 18 25
REMARK Flexibility Score: inf
ROOT
ATOM      1  C   UNL     1      -0.774  15.826  37.202  1.00  0.00     0.180 A 
ATOM      2  C   UNL     1      -1.849  15.305  36.452  1.00  0.00     0.208 A 
ATOM      3  C   UNL     1      -1.606  14.853  35.146  1.00  0.00     0.235 A 
ATOM      4  O   UNL     1      -2.552  14.392  34.451  1.00  0.00    -0.285 OA
ATOM      5  C   UNL     1      -0.302  14.912  34.627  1.00  0.00     0.069 A 
ATOM      6  C   UNL     1       0.723  15.426  35.449  1.00  0.00     0.142 A 
ATOM      7  O   UNL     1       0.450  15.851  36.677  1.00  0.00    -0.452 OA
ATOM      8  C   UNL     1       2.037  15.491  34.971  1.00  0.00     0.094 A 
ATOM      9  C   UNL     1       2.339  15.051  33.676  1.00  0.00     0.119 A 
ATOM     10  C   UNL     1       1.325  14.543  32.858  1.00  0.00     0.047 A 
ATOM     11  C   UNL     1       0.009  14.471  33.327  1.00  0.00     0.020 A 
ENDROOT
BRANCH   1  12
ATOM     12  C   UNL     1      -0.952  16.339  38.580  1.00  0.00     0.025 A 
ATOM     13  C   UNL     1      -0.503  17.618  38.948  1.00  0.00     0.016 A 
ATOM     14  C   UNL     1      -0.660  18.072  40.261  1.00  0.00     0.051 A 
ATOM     15  C   UNL     1      -1.255  17.250  41.226  1.00  0.00     0.157 A 
ATOM     16  C   UNL     1      -1.529  15.510  39.556  1.00  0.00     0.062 A 
ATOM     17  C   UNL     1      -1.690  15.961  40.872  1.00  0.00     0.158 A 
BRANCH  15  18
ATOM     18  O   UNL     1      -1.413  17.706  42.535  1.00  0.00    -0.504 OA
ATOM     19  H   UNL     1      -2.311  18.024  42.881  1.00  0.00     0.293 HD
ENDBRANCH  15  18
BRANCH  17  20
ATOM     20  O   UNL     1      -2.280  15.116  41.810  1.00  0.00    -0.504 OA
ATOM     21  H   UNL     1      -2.964  14.415  41.549  1.00  0.00     0.293 HD
ENDBRANCH  17  20
ENDBRANCH   1  12
BRANCH   2  22
ATOM     22  O   UNL     1      -3.125  15.213  37.013  1.00  0.00    -0.502 OA
ATOM     23  H   UNL     1      -3.364  15.660  37.890  1.00  0.00     0.293 HD
ENDBRANCH   2  22
BRANCH   9  24
ATOM     24  O   UNL     1       3.644  15.112  33.192  1.00  0.00    -0.508 OA
ATOM     25  H   UNL     1       4.309  14.367  33.366  1.00  0.00     0.293 HD
ENDBRANCH   9  24
TORSDOF 5
ENDMDL
MODEL 3
REMARK VINA RESULT:    -4.566      2.578      7.178
REMARK INTER + INTRA:          -5.675
REMARK INTER:                  -5.359
REMARK INTRA:                  -0.315
REMARK UNBOUND:                -0.308
REMARK SMILES O=c1c(O)c(-c2ccc(O)c(O)c2)oc2cc(O)ccc12
REMARK SMILES IDX 5 1 3 2 2 3 1 4 21 5 15 6 14 7 16 8 17 9 19 10 20 11 6 12
REMARK SMILES IDX 7 13 8 14 9 15 13 16 11 17 10 18 12 20 4 22 18 24
REMARK H PARENT 10 19 12 21 4 23 18 25
REMARK Flexibility Score: inf
ROOT
ATOM      1  C   UNL     1       0.100  16.589  36.177  1.00  0.00     0.180 A 
ATOM      2  C   UNL     1      -1.076  17.242  35.753  1.00  0.00     0.208 A 
ATOM      3  C   UNL     1      -2.060  17.549  36.705  1.00  0.00     0.235 A 
ATOM      4  O   UNL     1      -3.124  18.124  36.350  1.00  0.00    -0.285 OA
ATOM      5  C   UNL     1      -1.843  17.219  38.053  1.00  0.00     0.069 A 
ATOM      6  C   UNL     1      -0.630  16.587  38.400  1.00  0.00     0.142 A 
ATOM      7  O   UNL     1       0.272  16.306  37.467  1.00  0.00    -0.452 OA
ATOM      8  C   UNL     1      -0.373  16.251  39.734  1.00  0.00     0.094 A 
ATOM      9  C   UNL     1      -1.317  16.538  40.729  1.00  0.00     0.119 A 
ATOM     10  C   UNL     1      -2.521  17.162  40.387  1.00  0.00     0.047 A 
ATOM     11  C   UNL     1      -2.787  17.504  39.057  1.00  0.00     0.020 A 
ENDROOT
BRANCH   1  12
ATOM     12  C   UNL     1       1.177  16.215  35.231  1.00  0.00     0.025 A 
ATOM     13  C   UNL     1       2.199  17.118  34.893  1.00  0.00     0.016 A 
ATOM     14  C   UNL     1       3.192  16.751  33.980  1.00  0.00     0.051 A 
ATOM     15  C   UNL     1       3.168  15.485  33.381  1.00  0.00     0.157 A 
ATOM     16  C   UNL     1       1.145  14.955  34.613  1.00  0.00     0.062 A 
ATOM     17  C   UNL     1       2.138  14.583  33.698  1.00  0.00     0.158 A 
BRANCH  15  18
ATOM     18  O   UNL     1       4.160  15.121  32.471  1.00  0.00    -0.504 OA
ATOM     19  H   UNL     1       5.141  15.295  32.658  1.00  0.00     0.293 HD
ENDBRANCH  15  18
BRANCH  17  20
ATOM     20  O   UNL     1       2.082  13.318  33.114  1.00  0.00    -0.504 OA
ATOM     21  H   UNL     1       1.881  12.485  33.654  1.00  0.00     0.293 HD
ENDBRANCH  17  20
ENDBRANCH   1  12
BRANCH   2  22
ATOM     22  O   UNL     1      -1.241  17.603  34.413  1.00  0.00    -0.502 OA
ATOM     23  H   UNL     1      -1.164  16.932  33.658  1.00  0.00     0.293 HD
ENDBRANCH   2  22
BRANCH   9  24
ATOM     24  O   UNL     1      -1.070  16.207  42.059  1.00  0.00    -0.508 OA
ATOM     25  H   UNL     1      -1.318  15.297  42.433  1.00  0.00     0.293 HD
ENDBRANCH   9  24
TORSDOF 5
ENDMDL
MODEL 4
REMARK VINA RESULT:    -4.394      2.602      4.825
REMARK INTER + INTRA:          -5.472
REMARK INTER:                  -5.794
REMARK INTRA:                   0.322
REMARK UNBOUND:                -0.308
REMARK SMILES O=c1c(O)c(-c2ccc(O)c(O)c2)oc2cc(O)ccc12
REMARK SMILES IDX 5 1 3 2 2 3 1 4 21 5 15 6 14 7 16 8 17 9 19 10 20 11 6 12
REMARK SMILES IDX 7 13 8 14 9 15 13 16 11 17 10 18 12 20 4 22 18 24
REMARK H PARENT 10 19 12 21 4 23 18 25
REMARK Flexibility Score: inf
ROOT
ATOM      1  C   UNL     1       0.646  16.136  36.485  1.00  0.00     0.180 A 
ATOM      2  C   UNL     1       1.634  17.143  36.449  1.00  0.00     0.208 A 
ATOM      3  C   UNL     1       2.545  17.157  35.381  1.00  0.00     0.235 A 
ATOM      4  O   UNL     1       3.444  18.041  35.331  1.00  0.00    -0.285 OA
ATOM      5  C   UNL     1       2.441  16.186  34.372  1.00  0.00     0.069 A 
ATOM      6  C   UNL     1       1.411  15.227  34.470  1.00  0.00     0.142 A 
ATOM      7  O   UNL     1       0.573  15.244  35.501  1.00  0.00    -0.452 OA
ATOM      8  C   UNL     1       1.268  14.250  33.478  1.00  0.00     0.094 A 
ATOM      9  C   UNL     1       2.147  14.218  32.388  1.00  0.00     0.119 A 
ATOM     10  C   UNL     1       3.170  15.166  32.289  1.00  0.00     0.047 A 
ATOM     11  C   UNL     1       3.320  16.148  33.273  1.00  0.00     0.020 A 
ENDROOT
BRANCH   1  12
ATOM     12  C   UNL     1      -0.340  16.043  37.586  1.00  0.00     0.025 A 
ATOM     13  C   UNL     1      -1.638  15.551  37.365  1.00  0.00     0.016 A 
ATOM     14  C   UNL     1      -2.560  15.494  38.414  1.00  0.00     0.051 A 
ATOM     15  C   UNL     1      -2.204  15.942  39.693  1.00  0.00     0.157 A 
ATOM     16  C   UNL     1       0.006  16.509  38.865  1.00  0.00     0.062 A 
ATOM     17  C   UNL     1      -0.915  16.454  39.918  1.00  0.00     0.158 A 
BRANCH  15  18
ATOM     18  O   UNL     1      -3.125  15.882  40.738  1.00  0.00    -0.504 OA
ATOM     19  H   UNL     1      -2.833  15.707  41.693  1.00  0.00     0.293 HD
ENDBRANCH  15  18
BRANCH  17  20
ATOM     20  O   UNL     1      -0.531  16.913  41.178  1.00  0.00    -0.504 OA
ATOM     21  H   UNL     1       0.183  16.448  41.726  1.00  0.00     0.293 HD
ENDBRANCH  17  20
ENDBRANCH   1  12
BRANCH   2  22
ATOM     22  O   UNL     1       1.681  18.125  37.441  1.00  0.00    -0.502 OA
ATOM     23  H   UNL     1       2.356  18.099  38.196  1.00  0.00     0.293 HD
ENDBRANCH   2  22
BRANCH   9  24
ATOM     24  O   UNL     1       2.013  13.249  31.396  1.00  0.00    -0.508 OA
ATOM     25  H   UNL     1       2.278  12.284  31.560  1.00  0.00     0.293 HD
ENDBRANCH   9  24
TORSDOF 5
ENDMDL
MODEL 5
REMARK VINA RESULT:    -4.295      2.525      4.555
REMARK INTER + INTRA:          -5.356
REMARK INTER:                  -5.209
REMARK INTRA:                  -0.147
REMARK UNBOUND:                -0.308
REMARK SMILES O=c1c(O)c(-c2ccc(O)c(O)c2)oc2cc(O)ccc12
REMARK SMILES IDX 5 1 3 2 2 3 1 4 21 5 15 6 14 7 16 8 17 9 19 10 20 11 6 12
REMARK SMILES IDX 7 13 8 14 9 15 13 16 11 17 10 18 12 20 4 22 18 24
REMARK H PARENT 10 19 12 21 4 23 18 25
REMARK Flexibility Score: inf
ROOT
ATOM      1  C   UNL     1       0.123  16.383  36.516  1.00  0.00     0.180 A 
ATOM      2  C   UNL     1       1.469  16.149  36.165  1.00  0.00     0.208 A 
ATOM      3  C   UNL     1       1.775  15.842  34.830  1.00  0.00     0.235 A 
ATOM      4  O   UNL     1       2.970  15.619  34.492  1.00  0.00    -0.285 OA
ATOM      5  C   UNL     1       0.744  15.794  33.878  1.00  0.00     0.069 A 
ATOM      6  C   UNL     1      -0.574  16.063  34.306  1.00  0.00     0.142 A 
ATOM      7  O   UNL     1      -0.823  16.342  35.580  1.00  0.00    -0.452 OA
ATOM      8  C   UNL     1      -1.628  16.034  33.386  1.00  0.00     0.094 A 
ATOM      9  C   UNL     1      -1.381  15.737  32.039  1.00  0.00     0.119 A 
ATOM     10  C   UNL     1      -0.075  15.468  31.613  1.00  0.00     0.047 A 
ATOM     11  C   UNL     1       0.985  15.496  32.524  1.00  0.00     0.020 A 
ENDROOT
BRANCH   1  12
ATOM     12  C   UNL     1      -0.284  16.695  37.906  1.00  0.00     0.025 A 
ATOM     13  C   UNL     1       0.158  17.863  38.552  1.00  0.00     0.016 A 
ATOM     14  C   UNL     1      -0.219  18.125  39.872  1.00  0.00     0.051 A 
ATOM     15  C   UNL     1      -1.029  17.219  40.569  1.00  0.00     0.157 A 
ATOM     16  C   UNL     1      -1.079  15.781  38.615  1.00  0.00     0.062 A 
ATOM     17  C   UNL     1      -1.460  16.040  39.937  1.00  0.00     0.158 A 
BRANCH  15  18
ATOM     18  O   UNL     1      -1.406  17.484  41.885  1.00  0.00    -0.504 OA
ATOM     19  H   UNL     1      -0.785  17.293  42.663  1.00  0.00     0.293 HD
ENDBRANCH  15  18
BRANCH  17  20
ATOM     20  O   UNL     1      -2.262  15.116  40.605  1.00  0.00    -0.504 OA
ATOM     21  H   UNL     1      -3.091  15.393  41.116  1.00  0.00     0.293 HD
ENDBRANCH  17  20
ENDBRANCH   1  12
BRANCH   2  22
ATOM     22  O   UNL     1       2.479  16.253  37.124  1.00  0.00    -0.502 OA
ATOM     23  H   UNL     1       3.455  16.093  36.902  1.00  0.00     0.293 HD
ENDBRANCH   2  22
BRANCH   9  24
ATOM     24  O   UNL     1      -2.423  15.706  31.116  1.00  0.00    -0.508 OA
ATOM     25  H   UNL     1      -2.747  14.834  30.712  1.00  0.00     0.293 HD
ENDBRANCH   9  24
TORSDOF 5
ENDMDL
MODEL 6
REMARK VINA RESULT:    -4.279      1.637      2.995
REMARK INTER + INTRA:          -5.337
REMARK INTER:                  -5.021
REMARK INTRA:                  -0.316
REMARK UNBOUND:                -0.308
REMARK SMILES O=c1c(O)c(-c2ccc(O)c(O)c2)oc2cc(O)ccc12
REMARK SMILES IDX 5 1 3 2 2 3 1 4 21 5 15 6 14 7 16 8 17 9 19 10 20 11 6 12
REMARK SMILES IDX 7 13 8 14 9 15 13 16 11 17 10 18 12 20 4 22 18 24
REMARK H PARENT 10 19 12 21 4 23 18 25
REMARK Flexibility Score: inf
ROOT
ATOM      1  C   UNL     1      -0.900  16.424  38.886  1.00  0.00     0.180 A 
ATOM      2  C   UNL     1       0.184  17.277  38.592  1.00  0.00     0.208 A 
ATOM      3  C   UNL     1       0.698  17.292  37.287  1.00  0.00     0.235 A 
ATOM      4  O   UNL     1       1.673  18.039  37.001  1.00  0.00    -0.285 OA
ATOM      5  C   UNL     1       0.112  16.477  36.305  1.00  0.00     0.069 A 
ATOM      6  C   UNL     1      -0.984  15.668  36.674  1.00  0.00     0.142 A 
ATOM      7  O   UNL     1      -1.435  15.677  37.923  1.00  0.00    -0.452 OA
ATOM      8  C   UNL     1      -1.601  14.849  35.722  1.00  0.00     0.094 A 
ATOM      9  C   UNL     1      -1.133  14.826  34.401  1.00  0.00     0.119 A 
ATOM     10  C   UNL     1      -0.045  15.625  34.033  1.00  0.00     0.047 A 
ATOM     11  C   UNL     1       0.577  16.449  34.977  1.00  0.00     0.020 A 
ENDROOT
BRANCH   1  12
ATOM     12  C   UNL     1      -1.487  16.338  40.243  1.00  0.00     0.025 A 
ATOM     13  C   UNL     1      -2.548  17.172  40.636  1.00  0.00     0.016 A 
ATOM     14  C   UNL     1      -3.070  17.090  41.929  1.00  0.00     0.051 A 
ATOM     15  C   UNL     1      -2.531  16.184  42.853  1.00  0.00     0.157 A 
ATOM     16  C   UNL     1      -0.937  15.446  41.178  1.00  0.00     0.062 A 
ATOM     17  C   UNL     1      -1.457  15.360  42.475  1.00  0.00     0.158 A 
BRANCH  15  18
ATOM     18  O   UNL     1      -3.056  16.102  44.142  1.00  0.00    -0.504 OA
ATOM     19  H   UNL     1      -3.844  16.670  44.432  1.00  0.00     0.293 HD
ENDBRANCH  15  18
BRANCH  17  20
ATOM     20  O   UNL     1      -0.895  14.453  43.372  1.00  0.00    -0.504 OA
ATOM     21  H   UNL     1      -1.212  14.378  44.332  1.00  0.00     0.293 HD
ENDBRANCH  17  20
ENDBRANCH   1  12
BRANCH   2  22
ATOM     22  O   UNL     1       0.714  18.114  39.578  1.00  0.00    -0.502 OA
ATOM     23  H   UNL     1       0.227  18.940  39.906  1.00  0.00     0.293 HD
ENDBRANCH   2  22
BRANCH   9  24
ATOM     24  O   UNL     1      -1.741  14.014  33.446  1.00  0.00    -0.508 OA
ATOM     25  H   UNL     1      -1.582  13.013  33.424  1.00  0.00     0.293 HD
ENDBRANCH   9  24
TORSDOF 5
ENDMDL
MODEL 7
REMARK VINA RESULT:    -4.024      2.576      4.229
REMARK INTER + INTRA:          -5.038
REMARK INTER:                  -5.210
REMARK INTRA:                   0.172
REMARK UNBOUND:                -0.308
REMARK SMILES O=c1c(O)c(-c2ccc(O)c(O)c2)oc2cc(O)ccc12
REMARK SMILES IDX 5 1 3 2 2 3 1 4 21 5 15 6 14 7 16 8 17 9 19 10 20 11 6 12
REMARK SMILES IDX 7 13 8 14 9 15 13 16 11 17 10 18 12 20 4 22 18 24
REMARK H PARENT 10 19 12 21 4 23 18 25
REMARK Flexibility Score: inf
ROOT
ATOM      1  C   UNL     1      -0.696  15.753  36.016  1.00  0.00     0.180 A 
ATOM      2  C   UNL     1      -1.710  15.584  35.050  1.00  0.00     0.208 A 
ATOM      3  C   UNL     1      -1.340  15.375  33.712  1.00  0.00     0.235 A 
ATOM      4  O   UNL     1      -2.227  15.231  32.827  1.00  0.00    -0.285 OA
ATOM      5  C   UNL     1       0.022  15.320  33.373  1.00  0.00     0.069 A 
ATOM      6  C   UNL     1       0.974  15.475  34.402  1.00  0.00     0.142 A 
ATOM      7  O   UNL     1       0.583  15.679  35.655  1.00  0.00    -0.452 OA
ATOM      8  C   UNL     1       2.341  15.417  34.106  1.00  0.00     0.094 A 
ATOM      9  C   UNL     1       2.768  15.206  32.788  1.00  0.00     0.119 A 
ATOM     10  C   UNL     1       1.826  15.054  31.766  1.00  0.00     0.047 A 
ATOM     11  C   UNL     1       0.459  15.109  32.052  1.00  0.00     0.020 A 
ENDROOT
BRANCH   1  12
ATOM     12  C   UNL     1      -1.005  15.995  37.445  1.00  0.00     0.025 A 
ATOM     13  C   UNL     1      -2.079  15.349  38.081  1.00  0.00     0.016 A 
ATOM     14  C   UNL     1      -2.366  15.611  39.423  1.00  0.00     0.051 A 
ATOM     15  C   UNL     1      -1.595  16.532  40.144  1.00  0.00     0.157 A 
ATOM     16  C   UNL     1      -0.248  16.933  38.165  1.00  0.00     0.062 A 
ATOM     17  C   UNL     1      -0.532  17.198  39.510  1.00  0.00     0.158 A 
BRANCH  15  18
ATOM     18  O   UNL     1      -1.882  16.791  41.484  1.00  0.00    -0.504 OA
ATOM     19  H   UNL     1      -2.817  16.674  41.858  1.00  0.00     0.293 HD
ENDBRANCH  15  18
BRANCH  17  20
ATOM     20  O   UNL     1       0.250  18.125  40.198  1.00  0.00    -0.504 OA
ATOM     21  H   UNL     1       1.132  17.872  40.629  1.00  0.00     0.293 HD
ENDBRANCH  17  20
ENDBRANCH   1  12
BRANCH   2  22
ATOM     22  O   UNL     1      -3.055  15.594  35.425  1.00  0.00    -0.502 OA
ATOM     23  H   UNL     1      -3.716  14.902  35.093  1.00  0.00     0.293 HD
ENDBRANCH   2  22
BRANCH   9  24
ATOM     24  O   UNL     1       4.126  15.146  32.484  1.00  0.00    -0.508 OA
ATOM     25  H   UNL     1       4.592  15.900  31.992  1.00  0.00     0.293 HD
ENDBRANCH   9  24
TORSDOF 5
ENDMDL
MODEL 8
REMARK VINA RESULT:    -3.968      1.856      6.818
REMARK INTER + INTRA:          -4.972
REMARK INTER:                  -4.768
REMARK INTRA:                  -0.203
REMARK UNBOUND:                -0.308
REMARK SMILES O=c1c(O)c(-c2ccc(O)c(O)c2)oc2cc(O)ccc12
REMARK SMILES IDX 5 1 3 2 2 3 1 4 21 5 15 6 14 7 16 8 17 9 19 10 20 11 6 12
REMARK SMILES IDX 7 13 8 14 9 15 13 16 11 17 10 18 12 20 4 22 18 24
REMARK H PARENT 10 19 12 21 4 23 18 25
REMARK Flexibility Score: inf
ROOT
ATOM      1  C   UNL     1      -1.824  16.048  40.180  1.00  0.00     0.180 A 
ATOM      2  C   UNL     1      -2.490  17.122  40.807  1.00  0.00     0.208 A 
ATOM      3  C   UNL     1      -2.509  17.180  42.209  1.00  0.00     0.235 A 
ATOM      4  O   UNL     1      -3.105  18.125  42.793  1.00  0.00    -0.285 OA
ATOM      5  C   UNL     1      -1.852  16.184  42.950  1.00  0.00     0.069 A 
ATOM      6  C   UNL     1      -1.189  15.155  42.247  1.00  0.00     0.142 A 
ATOM      7  O   UNL     1      -1.202  15.132  40.919  1.00  0.00    -0.452 OA
ATOM      8  C   UNL     1      -0.515  14.150  42.950  1.00  0.00     0.094 A 
ATOM      9  C   UNL     1      -0.497  14.159  44.351  1.00  0.00     0.119 A 
ATOM     10  C   UNL     1      -1.155  15.177  45.050  1.00  0.00     0.047 A 
ATOM     11  C   UNL     1      -1.830  16.187  44.357  1.00  0.00     0.020 A 
ENDROOT
BRANCH   1  12
ATOM     12  C   UNL     1      -1.774  15.906  38.707  1.00  0.00     0.025 A 
ATOM     13  C   UNL     1      -2.935  15.646  37.957  1.00  0.00     0.016 A 
ATOM     14  C   UNL     1      -2.860  15.492  36.570  1.00  0.00     0.051 A 
ATOM     15  C   UNL     1      -1.625  15.581  35.915  1.00  0.00     0.157 A 
ATOM     16  C   UNL     1      -0.536  15.974  38.048  1.00  0.00     0.062 A 
ATOM     17  C   UNL     1      -0.457  15.821  36.658  1.00  0.00     0.158 A 
BRANCH  15  18
ATOM     18  O   UNL     1      -1.554  15.429  34.530  1.00  0.00    -0.504 OA
ATOM     19  H   UNL     1      -0.880  14.807  34.099  1.00  0.00     0.293 HD
ENDBRANCH  15  18
BRANCH  17  20
ATOM     20  O   UNL     1       0.788  15.909  36.037  1.00  0.00    -0.504 OA
ATOM     21  H   UNL     1       1.498  15.195  36.150  1.00  0.00     0.293 HD
ENDBRANCH  17  20
ENDBRANCH   1  12
BRANCH   2  22
ATOM     22  O   UNL     1      -3.091  18.125  40.042  1.00  0.00    -0.502 OA
ATOM     23  H   UNL     1      -3.888  18.655  40.374  1.00  0.00     0.293 HD
ENDBRANCH   2  22
BRANCH   9  24
ATOM     24  O   UNL     1       0.171  13.163  45.059  1.00  0.00    -0.508 OA
ATOM     25  H   UNL     1       0.087  12.185  44.804  1.00  0.00     0.293 HD
ENDBRANCH   9  24
TORSDOF 5
ENDMDL
MODEL 9
REMARK VINA RESULT:    -3.440      2.848      7.787
REMARK INTER + INTRA:          -4.351
REMARK INTER:                  -4.027
REMARK INTRA:                  -0.324
REMARK UNBOUND:                -0.308
REMARK SMILES O=c1c(O)c(-c2ccc(O)c(O)c2)oc2cc(O)ccc12
REMARK SMILES IDX 5 1 3 2 2 3 1 4 21 5 15 6 14 7 16 8 17 9 19 10 20 11 6 12
REMARK SMILES IDX 7 13 8 14 9 15 13 16 11 17 10 18 12 20 4 22 18 24
REMARK H PARENT 10 19 12 21 4 23 18 25
REMARK Flexibility Score: inf
ROOT
ATOM      1  C   UNL     1       0.180  16.012  35.250  1.00  0.00     0.180 A 
ATOM      2  C   UNL     1      -1.111  15.453  35.146  1.00  0.00     0.208 A 
ATOM      3  C   UNL     1      -1.969  15.524  36.254  1.00  0.00     0.235 A 
ATOM      4  O   UNL     1      -3.125  15.024  36.190  1.00  0.00    -0.285 OA
ATOM      5  C   UNL     1      -1.532  16.164  37.426  1.00  0.00     0.069 A 
ATOM      6  C   UNL     1      -0.234  16.717  37.441  1.00  0.00     0.142 A 
ATOM      7  O   UNL     1       0.550  16.621  36.374  1.00  0.00    -0.452 OA
ATOM      8  C   UNL     1       0.234  17.371  38.587  1.00  0.00     0.094 A 
ATOM      9  C   UNL     1      -0.581  17.476  39.722  1.00  0.00     0.119 A 
ATOM     10  C   UNL     1      -1.868  16.927  39.709  1.00  0.00     0.047 A 
ATOM     11  C   UNL     1      -2.345  16.273  38.570  1.00  0.00     0.020 A 
ENDROOT
BRANCH   1  12
ATOM     12  C   UNL     1       1.150  15.961  34.132  1.00  0.00     0.025 A 
ATOM     13  C   UNL     1       2.054  14.893  33.995  1.00  0.00     0.016 A 
ATOM     14  C   UNL     1       2.977  14.879  32.946  1.00  0.00     0.051 A 
ATOM     15  C   UNL     1       3.020  15.936  32.028  1.00  0.00     0.157 A 
ATOM     16  C   UNL     1       1.212  17.029  33.222  1.00  0.00     0.062 A 
ATOM     17  C   UNL     1       2.135  17.018  32.169  1.00  0.00     0.158 A 
BRANCH  15  18
ATOM     18  O   UNL     1       3.941  15.918  30.981  1.00  0.00    -0.504 OA
ATOM     19  H   UNL     1       3.679  15.619  30.049  1.00  0.00     0.293 HD
ENDBRANCH  15  18
BRANCH  17  20
ATOM     20  O   UNL     1       2.157  18.089  31.277  1.00  0.00    -0.504 OA
ATOM     21  H   UNL     1       2.637  18.956  31.487  1.00  0.00     0.293 HD
ENDBRANCH  17  20
ENDBRANCH   1  12
BRANCH   2  22
ATOM     22  O   UNL     1      -1.535  14.868  33.951  1.00  0.00    -0.502 OA
ATOM     23  H   UNL     1      -1.495  13.868  33.793  1.00  0.00     0.293 HD
ENDBRANCH   2  22
BRANCH   9  24
ATOM     24  O   UNL     1      -0.124  18.125  40.867  1.00  0.00    -0.508 OA
ATOM     25  H   UNL     1       0.442  17.644  41.557  1.00  0.00     0.293 HD
ENDBRANCH   9  24
TORSDOF 5
ENDMDL
