MODEL 1
REMARK VINA RESULT:    -4.467      0.000      0.000
REMARK INTER + INTRA:         -12.321
REMARK INTER:                  -9.691
REMARK INTRA:                  -2.630
REMARK UNBOUND:                -2.630
REMARK SMILES CCCCCCCCCCCCCCCCCCCCCC(=O)[O-]
REMARK SMILES IDX 12 1 11 2 10 3 9 4 8 5 7 6 6 7 5 8 4 9 3 10 2 11 1 12 13 13
REMARK SMILES IDX 14 14 15 15 16 16 17 17 18 18 19 19 20 20 21 21 22 22 23 23
REMARK SMILES IDX 24 24
REMARK H PARENT
REMARK Flexibility Score: inf
ROOT
ATOM      1  C   UNL     1      -9.861  -1.801 -22.148  1.00  0.00     0.000 C 
ENDROOT
BRANCH   1   2
ATOM      2  C   UNL     1     -11.012  -1.507 -23.123  1.00  0.00     0.000 C 
BRANCH   2   3
ATOM      3  C   UNL     1     -12.389  -1.827 -22.524  1.00  0.00     0.000 C 
BRANCH   3   4
ATOM      4  C   UNL     1     -13.210  -2.786 -23.406  1.00  0.00    -0.000 C 
BRANCH   4   5
ATOM      5  C   UNL     1     -12.509  -4.138 -23.614  1.00  0.00    -0.000 C 
BRANCH   5   6
ATOM      6  C   UNL     1     -12.205  -4.422 -25.094  1.00  0.00    -0.000 C 
BRANCH   6   7
ATOM      7  C   UNL     1     -12.593  -3.256 -26.019  1.00  0.00    -0.000 C 
BRANCH   7   8
ATOM      8  C   UNL     1     -13.213  -3.710 -27.357  1.00  0.00    -0.000 C 
BRANCH   8   9
ATOM      9  C   UNL     1     -12.316  -3.373 -28.559  1.00  0.00    -0.000 C 
BRANCH   9  10
ATOM     10  C   UNL     1     -10.887  -3.892 -28.339  1.00  0.00    -0.000 C 
BRANCH  10  11
ATOM     11  C   UNL     1      -9.827  -2.793 -28.513  1.00  0.00    -0.003 C 
ATOM     12  C   UNL     1      -9.233  -2.329 -27.183  1.00  0.00     0.004 C 
ENDBRANCH  10  11
ENDBRANCH   9  10
ENDBRANCH   8   9
ENDBRANCH   7   8
ENDBRANCH   6   7
ENDBRANCH   5   6
ENDBRANCH   4   5
ENDBRANCH   3   4
ENDBRANCH   2   3
ENDBRANCH   1   2
BRANCH   1  13
ATOM     13  C   UNL     1     -10.396  -2.121 -20.748  1.00  0.00     0.000 C 
BRANCH  13  14
ATOM     14  C   UNL     1      -9.546  -1.445 -19.666  1.00  0.00     0.000 C 
BRANCH  14  15
ATOM     15  C   UNL     1      -8.687  -0.321 -20.264  1.00  0.00     0.000 C 
BRANCH  15  16
ATOM     16  C   UNL     1      -9.124   1.079 -19.796  1.00  0.00     0.000 C 
BRANCH  16  17
ATOM     17  C   UNL     1      -9.333   2.112 -20.923  1.00  0.00     0.000 C 
BRANCH  17  18
ATOM     18  C   UNL     1     -10.565   1.870 -21.815  1.00  0.00     0.000 C 
BRANCH  18  19
ATOM     19  C   UNL     1     -11.871   1.760 -21.009  1.00  0.00     0.000 C 
BRANCH  19  20
ATOM     20  C   UNL     1     -13.120   1.786 -21.906  1.00  0.00     0.006 C 
BRANCH  20  21
ATOM     21  C   UNL     1     -14.032   2.985 -21.618  1.00  0.00     0.053 C 
BRANCH  21  22
ATOM     22  C   UNL     1     -14.070   3.908 -22.796  1.00  0.00     0.041 C 
ATOM     23  O   UNL     1     -14.683   3.572 -23.844  1.00  0.00    -0.550 OA
ATOM     24  O   UNL     1     -13.465   5.156 -22.722  1.00  0.00    -0.550 OA
ENDBRANCH  21  22
ENDBRANCH  20  21
ENDBRANCH  19  20
ENDBRANCH  18  19
ENDBRANCH  17  18
ENDBRANCH  16  17
ENDBRANCH  15  16
ENDBRANCH  14  15
ENDBRANCH  13  14
ENDBRANCH   1  13
TORSDOF 20
ENDMDL
MODEL 2
REMARK VINA RESULT:    -4.451      2.411      5.472
REMARK INTER + INTRA:         -12.285
REMARK INTER:                  -9.350
REMARK INTRA:                  -2.935
REMARK UNBOUND:                -2.630
REMARK SMILES CCCCCCCCCCCCCCCCCCCCCC(=O)[O-]
REMARK SMILES IDX 12 1 11 2 10 3 9 4 8 5 7 6 6 7 5 8 4 9 3 10 2 11 1 12 13 13
REMARK SMILES IDX 14 14 15 15 16 16 17 17 18 18 19 19 20 20 21 21 22 22 23 23
REMARK SMILES IDX 24 24
REMARK H PARENT
REMARK Flexibility Score: inf
ROOT
ATOM      1  C   UNL     1      -9.514  -2.169 -25.997  1.00  0.00     0.000 C 
ENDROOT
BRANCH   1   2
ATOM      2  C   UNL     1      -9.042  -2.216 -27.459  1.00  0.00     0.000 C 
BRANCH   2   3
ATOM      3  C   UNL     1      -9.791  -3.270 -28.287  1.00  0.00     0.000 C 
BRANCH   3   4
ATOM      4  C   UNL     1      -8.845  -4.307 -28.920  1.00  0.00    -0.000 C 
BRANCH   4   5
ATOM      5  C   UNL     1      -9.002  -4.390 -30.447  1.00  0.00    -0.000 C 
BRANCH   5   6
ATOM      6  C   UNL     1      -9.088  -3.004 -31.107  1.00  0.00    -0.000 C 
BRANCH   6   7
ATOM      7  C   UNL     1     -10.036  -2.976 -32.318  1.00  0.00    -0.000 C 
BRANCH   7   8
ATOM      8  C   UNL     1     -11.466  -3.457 -31.994  1.00  0.00    -0.000 C 
BRANCH   8   9
ATOM      9  C   UNL     1     -12.403  -2.295 -31.631  1.00  0.00    -0.000 C 
BRANCH   9  10
ATOM     10  C   UNL     1     -12.858  -2.392 -30.167  1.00  0.00    -0.000 C 
BRANCH  10  11
ATOM     11  C   UNL     1     -13.061  -3.844 -29.708  1.00  0.00    -0.003 C 
ATOM     12  C   UNL     1     -13.567  -3.944 -28.269  1.00  0.00     0.004 C 
ENDBRANCH  10  11
ENDBRANCH   9  10
ENDBRANCH   8   9
ENDBRANCH   7   8
ENDBRANCH   6   7
ENDBRANCH   5   6
ENDBRANCH   4   5
ENDBRANCH   3   4
ENDBRANCH   2   3
ENDBRANCH   1   2
BRANCH   1  13
ATOM     13  C   UNL     1      -9.165  -3.470 -25.265  1.00  0.00     0.000 C 
BRANCH  13  14
ATOM     14  C   UNL     1     -10.424  -4.137 -24.697  1.00  0.00     0.000 C 
BRANCH  14  15
ATOM     15  C   UNL     1     -11.687  -3.363 -25.105  1.00  0.00     0.000 C 
BRANCH  15  16
ATOM     16  C   UNL     1     -12.851  -3.553 -24.115  1.00  0.00     0.000 C 
BRANCH  16  17
ATOM     17  C   UNL     1     -13.031  -2.416 -23.089  1.00  0.00     0.000 C 
BRANCH  17  18
ATOM     18  C   UNL     1     -12.139  -2.513 -21.837  1.00  0.00     0.000 C 
BRANCH  18  19
ATOM     19  C   UNL     1     -11.342  -1.224 -21.572  1.00  0.00     0.000 C 
BRANCH  19  20
ATOM     20  C   UNL     1     -10.165  -1.048 -22.546  1.00  0.00     0.006 C 
BRANCH  20  21
ATOM     21  C   UNL     1     -10.063   0.379 -23.100  1.00  0.00     0.053 C 
BRANCH  21  22
ATOM     22  C   UNL     1      -9.818   1.354 -21.991  1.00  0.00     0.041 C 
ATOM     23  O   UNL     1      -8.701   1.383 -21.408  1.00  0.00    -0.550 OA
ATOM     24  O   UNL     1     -10.807   2.259 -21.629  1.00  0.00    -0.550 OA
ENDBRANCH  21  22
ENDBRANCH  20  21
ENDBRANCH  19  20
ENDBRANCH  18  19
ENDBRANCH  17  18
ENDBRANCH  16  17
ENDBRANCH  15  16
ENDBRANCH  14  15
ENDBRANCH  13  14
ENDBRANCH   1  13
TORSDOF 20
ENDMDL
MODEL 3
REMARK VINA RESULT:    -4.445      1.364      2.255
REMARK INTER + INTRA:         -12.272
REMARK INTER:                  -9.773
REMARK INTRA:                  -2.499
REMARK UNBOUND:                -2.630
REMARK SMILES CCCCCCCCCCCCCCCCCCCCCC(=O)[O-]
REMARK SMILES IDX 12 1 11 2 10 3 9 4 8 5 7 6 6 7 5 8 4 9 3 10 2 11 1 12 13 13
REMARK SMILES IDX 14 14 15 15 16 16 17 17 18 18 19 19 20 20 21 21 22 22 23 23
REMARK SMILES IDX 24 24
REMARK H PARENT
REMARK Flexibility Score: inf
ROOT
ATOM      1  C   UNL     1     -10.264   0.281 -23.186  1.00  0.00     0.000 C 
ENDROOT
BRANCH   1   2
ATOM      2  C   UNL     1     -10.412  -0.980 -22.321  1.00  0.00     0.000 C 
BRANCH   2   3
ATOM      3  C   UNL     1     -11.872  -1.261 -21.933  1.00  0.00     0.000 C 
BRANCH   3   4
ATOM      4  C   UNL     1     -12.201  -2.765 -21.919  1.00  0.00    -0.000 C 
BRANCH   4   5
ATOM      5  C   UNL     1     -11.903  -3.444 -23.265  1.00  0.00    -0.000 C 
BRANCH   5   6
ATOM      6  C   UNL     1     -12.918  -3.062 -24.355  1.00  0.00    -0.000 C 
BRANCH   6   7
ATOM      7  C   UNL     1     -12.344  -3.187 -25.776  1.00  0.00    -0.000 C 
BRANCH   7   8
ATOM      8  C   UNL     1     -10.802  -3.142 -25.825  1.00  0.00    -0.000 C 
BRANCH   8   9
ATOM      9  C   UNL     1     -10.265  -3.138 -27.266  1.00  0.00    -0.000 C 
BRANCH   9  10
ATOM     10  C   UNL     1     -11.277  -3.777 -28.230  1.00  0.00    -0.000 C 
BRANCH  10  11
ATOM     11  C   UNL     1     -11.821  -2.775 -29.261  1.00  0.00    -0.003 C 
ATOM     12  C   UNL     1     -13.345  -2.811 -29.371  1.00  0.00     0.004 C 
ENDBRANCH  10  11
ENDBRANCH   9  10
ENDBRANCH   8   9
ENDBRANCH   7   8
ENDBRANCH   6   7
ENDBRANCH   5   6
ENDBRANCH   4   5
ENDBRANCH   3   4
ENDBRANCH   2   3
ENDBRANCH   1   2
BRANCH   1  13
ATOM     13  C   UNL     1      -9.266   1.262 -22.560  1.00  0.00     0.000 C 
BRANCH  13  14
ATOM     14  C   UNL     1      -9.058   0.961 -21.071  1.00  0.00     0.000 C 
BRANCH  14  15
ATOM     15  C   UNL     1      -9.253   2.227 -20.222  1.00  0.00     0.000 C 
BRANCH  15  16
ATOM     16  C   UNL     1     -10.347   2.067 -19.151  1.00  0.00     0.000 C 
BRANCH  16  17
ATOM     17  C   UNL     1     -11.592   1.273 -19.599  1.00  0.00     0.000 C 
BRANCH  17  18
ATOM     18  C   UNL     1     -12.776   2.129 -20.085  1.00  0.00     0.000 C 
BRANCH  18  19
ATOM     19  C   UNL     1     -12.768   2.348 -21.608  1.00  0.00     0.000 C 
BRANCH  19  20
ATOM     20  C   UNL     1     -14.178   2.289 -22.219  1.00  0.00     0.006 C 
BRANCH  20  21
ATOM     21  C   UNL     1     -14.446   3.434 -23.203  1.00  0.00     0.053 C 
BRANCH  21  22
ATOM     22  C   UNL     1     -14.190   4.756 -22.549  1.00  0.00     0.041 C 
ATOM     23  O   UNL     1     -13.375   5.569 -23.061  1.00  0.00    -0.550 OA
ATOM     24  O   UNL     1     -14.882   5.108 -21.398  1.00  0.00    -0.550 OA
ENDBRANCH  21  22
ENDBRANCH  20  21
ENDBRANCH  19  20
ENDBRANCH  18  19
ENDBRANCH  17  18
ENDBRANCH  16  17
ENDBRANCH  15  16
ENDBRANCH  14  15
ENDBRANCH  13  14
ENDBRANCH   1  13
TORSDOF 20
ENDMDL
MODEL 4
REMARK VINA RESULT:    -4.444      2.684      5.270
REMARK INTER + INTRA:         -12.271
REMARK INTER:                  -9.376
REMARK INTRA:                  -2.895
REMARK UNBOUND:                -2.630
REMARK SMILES CCCCCCCCCCCCCCCCCCCCCC(=O)[O-]
REMARK SMILES IDX 12 1 11 2 10 3 9 4 8 5 7 6 6 7 5 8 4 9 3 10 2 11 1 12 13 13
REMARK SMILES IDX 14 14 15 15 16 16 17 17 18 18 19 19 20 20 21 21 22 22 23 23
REMARK SMILES IDX 24 24
REMARK H PARENT
REMARK Flexibility Score: inf
ROOT
ATOM      1  C   UNL     1      -8.750  -3.195 -26.295  1.00  0.00     0.000 C 
ENDROOT
BRANCH   1   2
ATOM      2  C   UNL     1      -9.277  -2.168 -27.309  1.00  0.00     0.000 C 
BRANCH   2   3
ATOM      3  C   UNL     1      -9.520  -2.781 -28.697  1.00  0.00     0.000 C 
BRANCH   3   4
ATOM      4  C   UNL     1     -10.166  -4.176 -28.623  1.00  0.00    -0.000 C 
BRANCH   4   5
ATOM      5  C   UNL     1     -11.663  -4.149 -28.972  1.00  0.00    -0.000 C 
BRANCH   5   6
ATOM      6  C   UNL     1     -12.191  -2.722 -29.192  1.00  0.00    -0.000 C 
BRANCH   6   7
ATOM      7  C   UNL     1     -12.546  -2.436 -30.661  1.00  0.00    -0.000 C 
BRANCH   7   8
ATOM      8  C   UNL     1     -12.607  -3.703 -31.540  1.00  0.00    -0.000 C 
BRANCH   8   9
ATOM      9  C   UNL     1     -11.680  -3.609 -32.763  1.00  0.00    -0.000 C 
BRANCH   9  10
ATOM     10  C   UNL     1     -10.250  -4.040 -32.402  1.00  0.00    -0.000 C 
BRANCH  10  11
ATOM     11  C   UNL     1      -9.249  -2.876 -32.468  1.00  0.00    -0.003 C 
ATOM     12  C   UNL     1      -8.878  -2.497 -33.902  1.00  0.00     0.004 C 
ENDBRANCH  10  11
ENDBRANCH   9  10
ENDBRANCH   8   9
ENDBRANCH   7   8
ENDBRANCH   6   7
ENDBRANCH   5   6
ENDBRANCH   4   5
ENDBRANCH   3   4
ENDBRANCH   2   3
ENDBRANCH   1   2
BRANCH   1  13
ATOM     13  C   UNL     1      -9.757  -3.413 -25.160  1.00  0.00     0.000 C 
BRANCH  13  14
ATOM     14  C   UNL     1     -10.948  -2.457 -25.289  1.00  0.00     0.000 C 
BRANCH  14  15
ATOM     15  C   UNL     1     -12.269  -3.235 -25.394  1.00  0.00     0.000 C 
BRANCH  15  16
ATOM     16  C   UNL     1     -12.709  -3.849 -24.052  1.00  0.00     0.000 C 
BRANCH  16  17
ATOM     17  C   UNL     1     -13.202  -2.836 -22.998  1.00  0.00     0.000 C 
BRANCH  17  18
ATOM     18  C   UNL     1     -12.509  -2.928 -21.626  1.00  0.00     0.000 C 
BRANCH  18  19
ATOM     19  C   UNL     1     -11.359  -1.918 -21.469  1.00  0.00     0.000 C 
BRANCH  19  20
ATOM     20  C   UNL     1     -11.699  -0.542 -22.065  1.00  0.00     0.006 C 
BRANCH  20  21
ATOM     21  C   UNL     1     -10.508   0.101 -22.787  1.00  0.00     0.053 C 
BRANCH  21  22
ATOM     22  C   UNL     1     -10.061   1.332 -22.064  1.00  0.00     0.041 C 
ATOM     23  O   UNL     1     -10.890   2.024 -21.416  1.00  0.00    -0.550 OA
ATOM     24  O   UNL     1      -8.719   1.692 -22.068  1.00  0.00    -0.550 OA
ENDBRANCH  21  22
ENDBRANCH  20  21
ENDBRANCH  19  20
ENDBRANCH  18  19
ENDBRANCH  17  18
ENDBRANCH  16  17
ENDBRANCH  15  16
ENDBRANCH  14  15
ENDBRANCH  13  14
ENDBRANCH   1  13
TORSDOF 20
ENDMDL
MODEL 5
REMARK VINA RESULT:    -4.430      2.441      4.374
REMARK INTER + INTRA:         -12.240
REMARK INTER:                  -9.541
REMARK INTRA:                  -2.699
REMARK UNBOUND:                -2.630
REMARK SMILES CCCCCCCCCCCCCCCCCCCCCC(=O)[O-]
REMARK SMILES IDX 12 1 11 2 10 3 9 4 8 5 7 6 6 7 5 8 4 9 3 10 2 11 1 12 13 13
REMARK SMILES IDX 14 14 15 15 16 16 17 17 18 18 19 19 20 20 21 21 22 22 23 23
REMARK SMILES IDX 24 24
REMARK H PARENT
REMARK Flexibility Score: inf
ROOT
ATOM      1  C   UNL     1      -8.498  -0.800 -20.357  1.00  0.00     0.000 C 
ENDROOT
BRANCH   1   2
ATOM      2  C   UNL     1      -9.777  -1.526 -19.911  1.00  0.00     0.000 C 
BRANCH   2   3
ATOM      3  C   UNL     1     -10.232  -2.593 -20.918  1.00  0.00     0.000 C 
BRANCH   3   4
ATOM      4  C   UNL     1      -9.786  -2.276 -22.357  1.00  0.00    -0.000 C 
BRANCH   4   5
ATOM      5  C   UNL     1     -10.927  -1.703 -23.213  1.00  0.00    -0.000 C 
BRANCH   5   6
ATOM      6  C   UNL     1     -12.311  -1.939 -22.585  1.00  0.00    -0.000 C 
BRANCH   6   7
ATOM      7  C   UNL     1     -13.200  -2.868 -23.429  1.00  0.00    -0.000 C 
BRANCH   7   8
ATOM      8  C   UNL     1     -12.717  -4.334 -23.450  1.00  0.00    -0.000 C 
BRANCH   8   9
ATOM      9  C   UNL     1     -12.966  -5.047 -22.111  1.00  0.00    -0.000 C 
BRANCH   9  10
ATOM     10  C   UNL     1     -14.395  -4.791 -21.609  1.00  0.00    -0.000 C 
BRANCH  10  11
ATOM     11  C   UNL     1     -14.469  -4.666 -20.079  1.00  0.00    -0.003 C 
ATOM     12  C   UNL     1     -13.091  -4.552 -19.429  1.00  0.00     0.004 C 
ENDBRANCH  10  11
ENDBRANCH   9  10
ENDBRANCH   8   9
ENDBRANCH   7   8
ENDBRANCH   6   7
ENDBRANCH   5   6
ENDBRANCH   4   5
ENDBRANCH   3   4
ENDBRANCH   2   3
ENDBRANCH   1   2
BRANCH   1  13
ATOM     13  C   UNL     1      -8.530   0.675 -19.940  1.00  0.00     0.000 C 
BRANCH  13  14
ATOM     14  C   UNL     1      -8.402   1.595 -21.159  1.00  0.00     0.000 C 
BRANCH  14  15
ATOM     15  C   UNL     1      -9.667   1.534 -22.029  1.00  0.00     0.000 C 
BRANCH  15  16
ATOM     16  C   UNL     1     -10.876   2.231 -21.378  1.00  0.00     0.000 C 
BRANCH  16  17
ATOM     17  C   UNL     1     -12.194   1.430 -21.416  1.00  0.00     0.000 C 
BRANCH  17  18
ATOM     18  C   UNL     1     -13.353   2.109 -22.167  1.00  0.00     0.000 C 
BRANCH  18  19
ATOM     19  C   UNL     1     -14.102   3.139 -21.303  1.00  0.00     0.000 C 
BRANCH  19  20
ATOM     20  C   UNL     1     -15.536   3.391 -21.797  1.00  0.00     0.006 C 
BRANCH  20  21
ATOM     21  C   UNL     1     -15.920   4.876 -21.769  1.00  0.00     0.053 C 
BRANCH  21  22
ATOM     22  C   UNL     1     -15.776   5.479 -23.131  1.00  0.00     0.041 C 
ATOM     23  O   UNL     1     -16.753   6.061 -23.673  1.00  0.00    -0.550 OA
ATOM     24  O   UNL     1     -14.551   5.438 -23.784  1.00  0.00    -0.550 OA
ENDBRANCH  21  22
ENDBRANCH  20  21
ENDBRANCH  19  20
ENDBRANCH  18  19
ENDBRANCH  17  18
ENDBRANCH  16  17
ENDBRANCH  15  16
ENDBRANCH  14  15
ENDBRANCH  13  14
ENDBRANCH   1  13
TORSDOF 20
ENDMDL
MODEL 6
REMARK VINA RESULT:    -4.395      5.170      9.326
REMARK INTER + INTRA:         -12.163
REMARK INTER:                  -9.052
REMARK INTRA:                  -3.111
REMARK UNBOUND:                -2.630
REMARK SMILES CCCCCCCCCCCCCCCCCCCCCC(=O)[O-]
REMARK SMILES IDX 12 1 11 2 10 3 9 4 8 5 7 6 6 7 5 8 4 9 3 10 2 11 1 12 13 13
REMARK SMILES IDX 14 14 15 15 16 16 17 17 18 18 19 19 20 20 21 21 22 22 23 23
REMARK SMILES IDX 24 24
REMARK H PARENT
REMARK Flexibility Score: inf
ROOT
ATOM      1  C   UNL     1     -12.926  -3.470 -27.225  1.00  0.00     0.000 C 
ENDROOT
BRANCH   1   2
ATOM      2  C   UNL     1     -12.543  -4.650 -26.317  1.00  0.00     0.000 C 
BRANCH   2   3
ATOM      3  C   UNL     1     -11.793  -4.203 -25.054  1.00  0.00     0.000 C 
BRANCH   3   4
ATOM      4  C   UNL     1     -11.676  -2.672 -24.945  1.00  0.00    -0.000 C 
BRANCH   4   5
ATOM      5  C   UNL     1     -10.224  -2.183 -25.060  1.00  0.00    -0.000 C 
BRANCH   5   6
ATOM      6  C   UNL     1      -9.212  -3.341 -25.077  1.00  0.00    -0.000 C 
BRANCH   6   7
ATOM      7  C   UNL     1      -8.344  -3.359 -26.346  1.00  0.00    -0.000 C 
BRANCH   7   8
ATOM      8  C   UNL     1      -9.158  -3.509 -27.649  1.00  0.00    -0.000 C 
BRANCH   8   9
ATOM      9  C   UNL     1      -8.857  -2.387 -28.656  1.00  0.00    -0.000 C 
BRANCH   9  10
ATOM     10  C   UNL     1      -8.830  -2.932 -30.092  1.00  0.00    -0.000 C 
BRANCH  10  11
ATOM     11  C   UNL     1      -8.740  -4.465 -30.140  1.00  0.00    -0.003 C 
ATOM     12  C   UNL     1      -9.835  -5.095 -30.999  1.00  0.00     0.004 C 
ENDBRANCH  10  11
ENDBRANCH   9  10
ENDBRANCH   8   9
ENDBRANCH   7   8
ENDBRANCH   6   7
ENDBRANCH   5   6
ENDBRANCH   4   5
ENDBRANCH   3   4
ENDBRANCH   2   3
ENDBRANCH   1   2
BRANCH   1  13
ATOM     13  C   UNL     1     -12.602  -3.778 -28.691  1.00  0.00     0.000 C 
BRANCH  13  14
ATOM     14  C   UNL     1     -12.540  -2.492 -29.523  1.00  0.00     0.000 C 
BRANCH  14  15
ATOM     15  C   UNL     1     -13.038  -2.740 -30.955  1.00  0.00     0.000 C 
BRANCH  15  16
ATOM     16  C   UNL     1     -12.301  -1.885 -32.002  1.00  0.00     0.000 C 
BRANCH  16  17
ATOM     17  C   UNL     1     -11.691  -2.673 -33.180  1.00  0.00     0.000 C 
BRANCH  17  18
ATOM     18  C   UNL     1     -10.250  -2.283 -33.555  1.00  0.00     0.000 C 
BRANCH  18  19
ATOM     19  C   UNL     1     -10.106  -1.882 -35.034  1.00  0.00     0.000 C 
BRANCH  19  20
ATOM     20  C   UNL     1     -11.302  -1.059 -35.540  1.00  0.00     0.006 C 
BRANCH  20  21
ATOM     21  C   UNL     1     -10.970   0.429 -35.704  1.00  0.00     0.053 C 
BRANCH  21  22
ATOM     22  C   UNL     1     -12.091   1.275 -35.188  1.00  0.00     0.041 C 
ATOM     23  O   UNL     1     -12.554   2.212 -35.891  1.00  0.00    -0.550 OA
ATOM     24  O   UNL     1     -12.655   1.002 -33.949  1.00  0.00    -0.550 OA
ENDBRANCH  21  22
ENDBRANCH  20  21
ENDBRANCH  19  20
ENDBRANCH  18  19
ENDBRANCH  17  18
ENDBRANCH  16  17
ENDBRANCH  15  16
ENDBRANCH  14  15
ENDBRANCH  13  14
ENDBRANCH   1  13
TORSDOF 20
ENDMDL
MODEL 7
REMARK VINA RESULT:    -4.373      3.116      7.644
REMARK INTER + INTRA:         -12.117
REMARK INTER:                  -9.689
REMARK INTRA:                  -2.428
REMARK UNBOUND:                -2.630
REMARK SMILES CCCCCCCCCCCCCCCCCCCCCC(=O)[O-]
REMARK SMILES IDX 12 1 11 2 10 3 9 4 8 5 7 6 6 7 5 8 4 9 3 10 2 11 1 12 13 13
REMARK SMILES IDX 14 14 15 15 16 16 17 17 18 18 19 19 20 20 21 21 22 22 23 23
REMARK SMILES IDX 24 24
REMARK H PARENT
REMARK Flexibility Score: inf
ROOT
ATOM      1  C   UNL     1     -10.245   0.174 -23.127  1.00  0.00     0.000 C 
ENDROOT
BRANCH   1   2
ATOM      2  C   UNL     1      -9.474   1.072 -22.147  1.00  0.00     0.000 C 
BRANCH   2   3
ATOM      3  C   UNL     1     -10.363   2.150 -21.509  1.00  0.00     0.000 C 
BRANCH   3   4
ATOM      4  C   UNL     1     -11.314   1.577 -20.442  1.00  0.00    -0.000 C 
BRANCH   4   5
ATOM      5  C   UNL     1     -12.785   1.921 -20.721  1.00  0.00    -0.000 C 
BRANCH   5   6
ATOM      6  C   UNL     1     -13.067   2.132 -22.218  1.00  0.00    -0.000 C 
BRANCH   6   7
ATOM      7  C   UNL     1     -14.548   2.429 -22.512  1.00  0.00    -0.000 C 
BRANCH   7   8
ATOM      8  C   UNL     1     -15.179   3.445 -21.536  1.00  0.00    -0.000 C 
BRANCH   8   9
ATOM      9  C   UNL     1     -15.692   4.702 -22.256  1.00  0.00    -0.000 C 
BRANCH   9  10
ATOM     10  C   UNL     1     -14.524   5.607 -22.679  1.00  0.00    -0.000 C 
BRANCH  10  11
ATOM     11  C   UNL     1     -14.434   5.779 -24.204  1.00  0.00    -0.003 C 
ATOM     12  C   UNL     1     -15.804   5.758 -24.882  1.00  0.00     0.004 C 
ENDBRANCH  10  11
ENDBRANCH   9  10
ENDBRANCH   8   9
ENDBRANCH   7   8
ENDBRANCH   6   7
ENDBRANCH   5   6
ENDBRANCH   4   5
ENDBRANCH   3   4
ENDBRANCH   2   3
ENDBRANCH   1   2
BRANCH   1  13
ATOM     13  C   UNL     1      -9.942  -1.306 -22.870  1.00  0.00     0.000 C 
BRANCH  13  14
ATOM     14  C   UNL     1     -10.646  -1.801 -21.600  1.00  0.00     0.000 C 
BRANCH  14  15
ATOM     15  C   UNL     1     -12.172  -1.712 -21.749  1.00  0.00     0.000 C 
BRANCH  15  16
ATOM     16  C   UNL     1     -12.864  -3.084 -21.653  1.00  0.00     0.000 C 
BRANCH  16  17
ATOM     17  C   UNL     1     -13.523  -3.578 -22.958  1.00  0.00     0.000 C 
BRANCH  17  18
ATOM     18  C   UNL     1     -12.544  -4.058 -24.046  1.00  0.00     0.000 C 
BRANCH  18  19
ATOM     19  C   UNL     1     -12.423  -3.068 -25.217  1.00  0.00     0.000 C 
BRANCH  19  20
ATOM     20  C   UNL     1     -11.422  -3.538 -26.286  1.00  0.00     0.006 C 
BRANCH  20  21
ATOM     21  C   UNL     1     -10.031  -2.919 -26.107  1.00  0.00     0.053 C 
BRANCH  21  22
ATOM     22  C   UNL     1      -9.253  -3.003 -27.383  1.00  0.00     0.041 C 
ATOM     23  O   UNL     1      -8.837  -4.116 -27.800  1.00  0.00    -0.550 OA
ATOM     24  O   UNL     1      -9.025  -1.858 -28.134  1.00  0.00    -0.550 OA
ENDBRANCH  21  22
ENDBRANCH  20  21
ENDBRANCH  19  20
ENDBRANCH  18  19
ENDBRANCH  17  18
ENDBRANCH  16  17
ENDBRANCH  15  16
ENDBRANCH  14  15
ENDBRANCH  13  14
ENDBRANCH   1  13
TORSDOF 20
ENDMDL
MODEL 8
REMARK VINA RESULT:    -4.343     11.796     15.746
REMARK INTER + INTRA:         -12.050
REMARK INTER:                 -10.264
REMARK INTRA:                  -1.786
REMARK UNBOUND:                -2.630
REMARK SMILES CCCCCCCCCCCCCCCCCCCCCC(=O)[O-]
REMARK SMILES IDX 12 1 11 2 10 3 9 4 8 5 7 6 6 7 5 8 4 9 3 10 2 11 1 12 13 13
REMARK SMILES IDX 14 14 15 15 16 16 17 17 18 18 19 19 20 20 21 21 22 22 23 23
REMARK SMILES IDX 24 24
REMARK H PARENT
REMARK Flexibility Score: inf
ROOT
ATOM      1  C   UNL     1      -7.596   5.797 -34.253  1.00  0.00     0.000 C 
ENDROOT
BRANCH   1   2
ATOM      2  C   UNL     1      -6.501   6.607 -33.542  1.00  0.00     0.000 C 
BRANCH   2   3
ATOM      3  C   UNL     1      -5.642   7.425 -34.518  1.00  0.00     0.000 C 
BRANCH   3   4
ATOM      4  C   UNL     1      -5.854   7.007 -35.985  1.00  0.00    -0.000 C 
BRANCH   4   5
ATOM      5  C   UNL     1      -4.763   7.560 -36.916  1.00  0.00    -0.000 C 
BRANCH   5   6
ATOM      6  C   UNL     1      -3.853   6.455 -37.478  1.00  0.00    -0.000 C 
BRANCH   6   7
ATOM      7  C   UNL     1      -2.388   6.901 -37.617  1.00  0.00    -0.000 C 
BRANCH   7   8
ATOM      8  C   UNL     1      -1.972   7.982 -36.597  1.00  0.00    -0.000 C 
BRANCH   8   9
ATOM      9  C   UNL     1      -1.236   7.388 -35.386  1.00  0.00    -0.000 C 
BRANCH   9  10
ATOM     10  C   UNL     1      -1.594   8.147 -34.099  1.00  0.00    -0.000 C 
BRANCH  10  11
ATOM     11  C   UNL     1      -2.632   9.255 -34.337  1.00  0.00    -0.003 C 
ATOM     12  C   UNL     1      -2.484  10.423 -33.362  1.00  0.00     0.004 C 
ENDBRANCH  10  11
ENDBRANCH   9  10
ENDBRANCH   8   9
ENDBRANCH   7   8
ENDBRANCH   6   7
ENDBRANCH   5   6
ENDBRANCH   4   5
ENDBRANCH   3   4
ENDBRANCH   2   3
ENDBRANCH   1   2
BRANCH   1  13
ATOM     13  C   UNL     1      -7.671   4.370 -33.699  1.00  0.00     0.000 C 
BRANCH  13  14
ATOM     14  C   UNL     1      -7.276   3.343 -34.766  1.00  0.00     0.000 C 
BRANCH  14  15
ATOM     15  C   UNL     1      -8.359   3.232 -35.850  1.00  0.00     0.000 C 
BRANCH  15  16
ATOM     16  C   UNL     1      -9.610   2.473 -35.371  1.00  0.00     0.000 C 
BRANCH  16  17
ATOM     17  C   UNL     1     -10.588   2.051 -36.487  1.00  0.00     0.000 C 
BRANCH  17  18
ATOM     18  C   UNL     1     -11.847   1.304 -36.008  1.00  0.00     0.000 C 
BRANCH  18  19
ATOM     19  C   UNL     1     -11.599   0.471 -34.739  1.00  0.00     0.000 C 
BRANCH  19  20
ATOM     20  C   UNL     1     -11.659  -1.042 -35.005  1.00  0.00     0.006 C 
BRANCH  20  21
ATOM     21  C   UNL     1     -10.275  -1.701 -34.997  1.00  0.00     0.053 C 
BRANCH  21  22
ATOM     22  C   UNL     1     -10.139  -2.618 -33.821  1.00  0.00     0.041 C 
ATOM     23  O   UNL     1     -11.002  -3.511 -33.611  1.00  0.00    -0.550 OA
ATOM     24  O   UNL     1      -9.037  -2.515 -32.983  1.00  0.00    -0.550 OA
ENDBRANCH  21  22
ENDBRANCH  20  21
ENDBRANCH  19  20
ENDBRANCH  18  19
ENDBRANCH  17  18
ENDBRANCH  16  17
ENDBRANCH  15  16
ENDBRANCH  14  15
ENDBRANCH  13  14
ENDBRANCH   1  13
TORSDOF 20
ENDMDL
MODEL 9
REMARK VINA RESULT:    -4.291      3.122      5.972
REMARK INTER + INTRA:         -11.938
REMARK INTER:                  -8.347
REMARK INTRA:                  -3.591
REMARK UNBOUND:                -2.630
REMARK SMILES CCCCCCCCCCCCCCCCCCCCCC(=O)[O-]
REMARK SMILES IDX 12 1 11 2 10 3 9 4 8 5 7 6 6 7 5 8 4 9 3 10 2 11 1 12 13 13
REMARK SMILES IDX 14 14 15 15 16 16 17 17 18 18 19 19 20 20 21 21 22 22 23 23
REMARK SMILES IDX 24 24
REMARK H PARENT
REMARK Flexibility Score: inf
ROOT
ATOM      1  C   UNL     1      -8.742  -3.170 -29.341  1.00  0.00     0.000 C 
ENDROOT
BRANCH   1   2
ATOM      2  C   UNL     1      -9.121  -4.603 -28.934  1.00  0.00     0.000 C 
BRANCH   2   3
ATOM      3  C   UNL     1     -10.566  -4.961 -29.314  1.00  0.00     0.000 C 
BRANCH   3   4
ATOM      4  C   UNL     1     -11.390  -5.452 -28.109  1.00  0.00    -0.000 C 
BRANCH   4   5
ATOM      5  C   UNL     1     -12.716  -4.691 -27.955  1.00  0.00    -0.000 C 
BRANCH   5   6
ATOM      6  C   UNL     1     -12.609  -3.224 -28.403  1.00  0.00    -0.000 C 
BRANCH   6   7
ATOM      7  C   UNL     1     -13.427  -2.924 -29.670  1.00  0.00    -0.000 C 
BRANCH   7   8
ATOM      8  C   UNL     1     -12.645  -2.127 -30.735  1.00  0.00    -0.000 C 
BRANCH   8   9
ATOM      9  C   UNL     1     -12.308  -2.980 -31.969  1.00  0.00    -0.000 C 
BRANCH   9  10
ATOM     10  C   UNL     1     -11.279  -2.270 -32.862  1.00  0.00    -0.000 C 
BRANCH  10  11
ATOM     11  C   UNL     1      -9.858  -2.826 -32.681  1.00  0.00    -0.003 C 
ATOM     12  C   UNL     1      -9.779  -4.334 -32.920  1.00  0.00     0.004 C 
ENDBRANCH  10  11
ENDBRANCH   9  10
ENDBRANCH   8   9
ENDBRANCH   7   8
ENDBRANCH   6   7
ENDBRANCH   5   6
ENDBRANCH   4   5
ENDBRANCH   3   4
ENDBRANCH   2   3
ENDBRANCH   1   2
BRANCH   1  13
ATOM     13  C   UNL     1      -9.097  -2.172 -28.232  1.00  0.00     0.000 C 
BRANCH  13  14
ATOM     14  C   UNL     1      -8.757  -2.741 -26.850  1.00  0.00     0.000 C 
BRANCH  14  15
ATOM     15  C   UNL     1      -9.938  -2.575 -25.882  1.00  0.00     0.000 C 
BRANCH  15  16
ATOM     16  C   UNL     1     -10.168  -3.815 -25.000  1.00  0.00     0.000 C 
BRANCH  16  17
ATOM     17  C   UNL     1     -11.624  -4.027 -24.535  1.00  0.00     0.000 C 
BRANCH  17  18
ATOM     18  C   UNL     1     -12.437  -2.738 -24.314  1.00  0.00     0.000 C 
BRANCH  18  19
ATOM     19  C   UNL     1     -12.892  -2.563 -22.855  1.00  0.00     0.000 C 
BRANCH  19  20
ATOM     20  C   UNL     1     -12.350  -1.271 -22.220  1.00  0.00     0.006 C 
BRANCH  20  21
ATOM     21  C   UNL     1     -10.972  -0.876 -22.765  1.00  0.00     0.053 C 
BRANCH  21  22
ATOM     22  C   UNL     1      -9.892  -1.319 -21.829  1.00  0.00     0.041 C 
ATOM     23  O   UNL     1      -9.600  -2.540 -21.731  1.00  0.00    -0.550 OA
ATOM     24  O   UNL     1      -9.178  -0.379 -21.097  1.00  0.00    -0.550 OA
ENDBRANCH  21  22
ENDBRANCH  20  21
ENDBRANCH  19  20
ENDBRANCH  18  19
ENDBRANCH  17  18
ENDBRANCH  16  17
ENDBRANCH  15  16
ENDBRANCH  14  15
ENDBRANCH  13  14
ENDBRANCH   1  13
TORSDOF 20
ENDMDL
