MODEL 1
REMARK VINA RESULT:    -3.844      0.000      0.000
REMARK INTER + INTRA:          -5.143
REMARK INTER:                  -5.417
REMARK INTRA:                   0.275
REMARK UNBOUND:                 0.275
REMARK SMILES CC1=CCC(=C(C)C)C(=O)CC(C)=CCC1
REMARK SMILES IDX 12 1 14 2 13 3 15 4 16 5 2 6 1 7 3 8 11 10 9 11 10 12 5 13
REMARK SMILES IDX 6 14 7 15 8 16 4 17
REMARK H PARENT
REMARK Flexibility Score: 60.00
ROOT
ATOM      1  C   UNL     1      28.944  -4.396  52.023  1.00  0.00    -0.070 C 
ATOM      2  C   UNL     1      29.228  -3.164  51.546  1.00  0.00    -0.027 C 
ATOM      3  C   UNL     1      29.453  -5.586  51.251  1.00  0.00     0.039 C 
ENDROOT
BRANCH   2   4
ATOM      4  C   UNL     1      28.891  -1.854  52.225  1.00  0.00     0.032 C 
BRANCH   4   5
ATOM      5  C   UNL     1      27.417  -1.417  52.095  1.00  0.00     0.034 C 
BRANCH   5   6
ATOM      6  C   UNL     1      26.802  -0.988  53.415  1.00  0.00    -0.077 C 
ATOM      7  C   UNL     1      27.348   0.253  54.073  1.00  0.00     0.039 C 
ATOM      8  C   UNL     1      25.749  -1.608  54.004  1.00  0.00    -0.023 CG0
ATOM      9  G   UNL     1      25.054  -2.872  53.538  1.00  0.00     0.000 G0
ENDBRANCH   5   6
ENDBRANCH   4   5
ENDBRANCH   2   4
BRANCH   1  10
ATOM     10  C   UNL     1      28.223  -4.633  53.335  1.00  0.00     0.111 C 
BRANCH  10  11
ATOM     11  C   UNL     1      26.738  -4.784  53.134  1.00  0.00     0.163 C 
ATOM     12  O   UNL     1      26.339  -5.529  52.199  1.00  0.00    -0.294 OA
BRANCH  11  13
ATOM     13  C   UNL     1      25.738  -4.137  54.034  1.00  0.00    -0.002 C 
ATOM     14  C   UNL     1      25.518  -4.619  55.295  1.00  0.00    -0.069 C 
ATOM     15  C   UNL     1      24.631  -3.897  56.284  1.00  0.00     0.039 C 
ATOM     16  C   UNL     1      26.157  -5.908  55.764  1.00  0.00     0.039 C 
BRANCH  13  17
ATOM     17  C   UNL     1      25.055  -2.878  53.526  1.00  0.00     0.066 CG0
ATOM     18  G   UNL     1      25.743  -1.615  54.005  1.00  0.00     0.000 G0
ENDBRANCH  13  17
ENDBRANCH  11  13
ENDBRANCH  10  11
ENDBRANCH   1  10
TORSDOF 0
ENDMDL
MODEL 2
REMARK VINA RESULT:    -3.812     10.304     12.822
REMARK INTER + INTRA:          -5.097
REMARK INTER:                  -5.274
REMARK INTRA:                   0.177
REMARK UNBOUND:                 0.275
REMARK SMILES CC1=CCC(=C(C)C)C(=O)CC(C)=CCC1
REMARK SMILES IDX 12 1 14 2 13 3 15 4 16 5 2 6 1 7 3 8 11 10 9 11 10 12 5 13
REMARK SMILES IDX 6 14 7 15 8 16 4 17
REMARK H PARENT
REMARK Flexibility Score: 60.00
ROOT
ATOM      1  C   UNL     1      15.188  -2.544  61.504  1.00  0.00    -0.070 C 
ATOM      2  C   UNL     1      15.996  -2.968  62.500  1.00  0.00    -0.027 C 
ATOM      3  C   UNL     1      13.787  -2.120  61.864  1.00  0.00     0.039 C 
ENDROOT
BRANCH   2   4
ATOM      4  C   UNL     1      17.456  -3.341  62.356  1.00  0.00     0.032 C 
BRANCH   4   5
ATOM      5  C   UNL     1      18.450  -2.240  62.783  1.00  0.00     0.034 C 
BRANCH   5   6
ATOM      6  C   UNL     1      19.517  -1.962  61.740  1.00  0.00    -0.077 C 
ATOM      7  C   UNL     1      20.765  -2.806  61.770  1.00  0.00     0.039 C 
ATOM      8  C   UNL     1      19.390  -1.053  60.741  1.00  0.00    -0.023 CG0
ATOM      9  G   UNL     1      18.242  -0.088  60.523  1.00  0.00     0.000 G0
ENDBRANCH   5   6
ENDBRANCH   4   5
ENDBRANCH   2   4
BRANCH   1  10
ATOM     10  C   UNL     1      15.649  -2.387  60.069  1.00  0.00     0.111 C 
BRANCH  10  11
ATOM     11  C   UNL     1      15.943  -0.948  59.734  1.00  0.00     0.163 C 
ATOM     12  O   UNL     1      15.000  -0.115  59.817  1.00  0.00    -0.294 OA
BRANCH  11  13
ATOM     13  C   UNL     1      17.312  -0.472  59.374  1.00  0.00    -0.002 C 
ATOM     14  C   UNL     1      17.678  -0.321  58.066  1.00  0.00    -0.069 C 
ATOM     15  C   UNL     1      18.996   0.306  57.670  1.00  0.00     0.039 C 
ATOM     16  C   UNL     1      16.774  -0.776  56.941  1.00  0.00     0.039 C 
BRANCH  13  17
ATOM     17  C   UNL     1      18.234  -0.078  60.517  1.00  0.00     0.066 CG0
ATOM     18  G   UNL     1      19.360  -1.073  60.718  1.00  0.00     0.000 G0
ENDBRANCH  13  17
ENDBRANCH  11  13
ENDBRANCH  10  11
ENDBRANCH   1  10
TORSDOF 0
ENDMDL
MODEL 3
REMARK VINA RESULT:    -3.803     10.302     13.131
REMARK INTER + INTRA:          -5.085
REMARK INTER:                  -5.309
REMARK INTRA:                   0.224
REMARK UNBOUND:                 0.275
REMARK SMILES CC1=CCC(=C(C)C)C(=O)CC(C)=CCC1
REMARK SMILES IDX 12 1 14 2 13 3 15 4 16 5 2 6 1 7 3 8 11 10 9 11 10 12 5 13
REMARK SMILES IDX 6 14 7 15 8 16 4 17
REMARK H PARENT
REMARK Flexibility Score: 60.00
ROOT
ATOM      1  C   UNL     1      15.487  -1.594  60.616  1.00  0.00    -0.070 C 
ATOM      2  C   UNL     1      14.795  -2.673  61.041  1.00  0.00    -0.027 C 
ATOM      3  C   UNL     1      14.840  -0.240  60.760  1.00  0.00     0.039 C 
ENDROOT
BRANCH   2   4
ATOM      4  C   UNL     1      15.308  -4.097  61.071  1.00  0.00     0.032 C 
BRANCH   4   5
ATOM      5  C   UNL     1      16.074  -4.482  62.354  1.00  0.00     0.034 C 
BRANCH   5   6
ATOM      6  C   UNL     1      17.451  -5.059  62.078  1.00  0.00    -0.077 C 
ATOM      7  C   UNL     1      17.529  -6.478  61.574  1.00  0.00     0.039 C 
ATOM      8  C   UNL     1      18.608  -4.361  62.187  1.00  0.00    -0.023 CG0
ATOM      9  G   UNL     1      18.775  -2.939  62.686  1.00  0.00     0.000 G0
ENDBRANCH   5   6
ENDBRANCH   4   5
ENDBRANCH   2   4
BRANCH   1  10
ATOM     10  C   UNL     1      16.907  -1.670  60.092  1.00  0.00     0.111 C 
BRANCH  10  11
ATOM     11  C   UNL     1      17.896  -1.127  61.089  1.00  0.00     0.163 C 
ATOM     12  O   UNL     1      17.703   0.031  61.547  1.00  0.00    -0.294 OA
BRANCH  11  13
ATOM     13  C   UNL     1      19.049  -1.931  61.592  1.00  0.00    -0.002 C 
ATOM     14  C   UNL     1      20.315  -1.707  61.127  1.00  0.00    -0.069 C 
ATOM     15  C   UNL     1      21.522  -2.391  61.727  1.00  0.00     0.039 C 
ATOM     16  C   UNL     1      20.571  -0.754  59.980  1.00  0.00     0.039 C 
BRANCH  13  17
ATOM     17  C   UNL     1      18.768  -2.932  62.702  1.00  0.00     0.066 CG0
ATOM     18  G   UNL     1      18.595  -4.343  62.175  1.00  0.00     0.000 G0
ENDBRANCH  13  17
ENDBRANCH  11  13
ENDBRANCH  10  11
ENDBRANCH   1  10
TORSDOF 0
ENDMDL
MODEL 4
REMARK VINA RESULT:    -3.705     10.682     13.584
REMARK INTER + INTRA:          -4.946
REMARK INTER:                  -5.210
REMARK INTRA:                   0.264
REMARK UNBOUND:                 0.275
REMARK SMILES CC1=CCC(=C(C)C)C(=O)CC(C)=CCC1
REMARK SMILES IDX 12 1 14 2 13 3 15 4 16 5 2 6 1 7 3 8 11 10 9 11 10 12 5 13
REMARK SMILES IDX 6 14 7 15 8 16 4 17
REMARK H PARENT
REMARK Flexibility Score: 60.00
ROOT
ATOM      1  C   UNL     1      14.704  -3.392  62.096  1.00  0.00    -0.070 C 
ATOM      2  C   UNL     1      13.650  -2.568  61.906  1.00  0.00    -0.027 C 
ATOM      3  C   UNL     1      14.474  -4.875  61.957  1.00  0.00     0.039 C 
ENDROOT
BRANCH   2   4
ATOM      4  C   UNL     1      13.698  -1.055  61.907  1.00  0.00     0.032 C 
BRANCH   4   5
ATOM      5  C   UNL     1      14.384  -0.429  60.674  1.00  0.00     0.034 C 
BRANCH   5   6
ATOM      6  C   UNL     1      15.456   0.583  61.037  1.00  0.00    -0.077 C 
ATOM      7  C   UNL     1      15.046   1.773  61.866  1.00  0.00     0.039 C 
ATOM      8  C   UNL     1      16.769   0.450  60.724  1.00  0.00    -0.023 CG0
ATOM      9  G   UNL     1      17.404  -0.645  59.890  1.00  0.00     0.000 G0
ENDBRANCH   5   6
ENDBRANCH   4   5
ENDBRANCH   2   4
BRANCH   1  10
ATOM     10  C   UNL     1      16.112  -2.894  62.349  1.00  0.00     0.111 C 
BRANCH  10  11
ATOM     11  C   UNL     1      16.937  -2.897  61.089  1.00  0.00     0.163 C 
ATOM     12  O   UNL     1      16.756  -3.833  60.264  1.00  0.00    -0.294 OA
BRANCH  11  13
ATOM     13  C   UNL     1      17.903  -1.807  60.761  1.00  0.00    -0.002 C 
ATOM     14  C   UNL     1      19.209  -1.888  61.156  1.00  0.00    -0.069 C 
ATOM     15  C   UNL     1      20.245  -0.882  60.707  1.00  0.00     0.039 C 
ATOM     16  C   UNL     1      19.686  -2.998  62.067  1.00  0.00     0.039 C 
BRANCH  13  17
ATOM     17  C   UNL     1      17.395  -0.664  59.897  1.00  0.00     0.066 CG0
ATOM     18  G   UNL     1      16.763   0.443  60.718  1.00  0.00     0.000 G0
ENDBRANCH  13  17
ENDBRANCH  11  13
ENDBRANCH  10  11
ENDBRANCH   1  10
TORSDOF 0
ENDMDL
MODEL 5
REMARK VINA RESULT:    -3.681     10.356     12.721
REMARK INTER + INTRA:          -4.913
REMARK INTER:                  -5.472
REMARK INTRA:                   0.560
REMARK UNBOUND:                 0.275
REMARK SMILES CC1=CCC(=C(C)C)C(=O)CC(C)=CCC1
REMARK SMILES IDX 12 1 14 2 13 3 15 4 16 5 2 6 1 7 3 8 11 10 9 11 10 12 5 13
REMARK SMILES IDX 6 14 7 15 8 16 4 17
REMARK H PARENT
REMARK Flexibility Score: 60.00
ROOT
ATOM      1  C   UNL     1      15.788   2.116  57.689  1.00  0.00    -0.070 C 
ATOM      2  C   UNL     1      16.783   1.741  56.855  1.00  0.00    -0.027 C 
ATOM      3  C   UNL     1      15.588   3.590  57.932  1.00  0.00     0.039 C 
ENDROOT
BRANCH   2   4
ATOM      4  C   UNL     1      17.078   0.325  56.411  1.00  0.00     0.032 C 
BRANCH   4   5
ATOM      5  C   UNL     1      18.466  -0.208  56.827  1.00  0.00     0.034 C 
BRANCH   5   6
ATOM      6  C   UNL     1      18.789   0.045  58.289  1.00  0.00    -0.077 C 
ATOM      7  C   UNL     1      19.981   0.911  58.604  1.00  0.00     0.039 C 
ATOM      8  C   UNL     1      18.036  -0.400  59.325  1.00  0.00    -0.023 CG0
ATOM      9  G   UNL     1      16.814  -1.294  59.251  1.00  0.00     0.000 G0
ENDBRANCH   5   6
ENDBRANCH   4   5
ENDBRANCH   2   4
BRANCH   1  10
ATOM     10  C   UNL     1      14.813   1.137  58.312  1.00  0.00     0.111 C 
BRANCH  10  11
ATOM     11  C   UNL     1      15.253   0.716  59.690  1.00  0.00     0.163 C 
ATOM     12  O   UNL     1      15.252   1.584  60.604  1.00  0.00    -0.294 OA
BRANCH  11  13
ATOM     13  C   UNL     1      15.624  -0.693  60.017  1.00  0.00    -0.002 C 
ATOM     14  C   UNL     1      14.878  -1.426  60.897  1.00  0.00    -0.069 C 
ATOM     15  C   UNL     1      15.132  -2.898  61.130  1.00  0.00     0.039 C 
ATOM     16  C   UNL     1      13.751  -0.795  61.686  1.00  0.00     0.039 C 
BRANCH  13  17
ATOM     17  C   UNL     1      16.798  -1.296  59.263  1.00  0.00     0.066 CG0
ATOM     18  G   UNL     1      18.034  -0.419  59.323  1.00  0.00     0.000 G0
ENDBRANCH  13  17
ENDBRANCH  11  13
ENDBRANCH  10  11
ENDBRANCH   1  10
TORSDOF 0
ENDMDL
MODEL 6
REMARK VINA RESULT:    -3.628     11.074     13.351
REMARK INTER + INTRA:          -4.837
REMARK INTER:                  -5.093
REMARK INTRA:                   0.255
REMARK UNBOUND:                 0.275
REMARK SMILES CC1=CCC(=C(C)C)C(=O)CC(C)=CCC1
REMARK SMILES IDX 12 1 14 2 13 3 15 4 16 5 2 6 1 7 3 8 11 10 9 11 10 12 5 13
REMARK SMILES IDX 6 14 7 15 8 16 4 17
REMARK H PARENT
REMARK Flexibility Score: 60.00
ROOT
ATOM      1  C   UNL     1      19.127  -2.990  62.190  1.00  0.00    -0.070 C 
ATOM      2  C   UNL     1      18.550  -4.207  62.081  1.00  0.00    -0.027 C 
ATOM      3  C   UNL     1      20.601  -2.879  61.891  1.00  0.00     0.039 C 
ENDROOT
BRANCH   2   4
ATOM      4  C   UNL     1      17.075  -4.503  62.244  1.00  0.00     0.032 C 
BRANCH   4   5
ATOM      5  C   UNL     1      16.232  -4.318  60.965  1.00  0.00     0.034 C 
BRANCH   5   6
ATOM      6  C   UNL     1      15.043  -3.394  61.161  1.00  0.00    -0.077 C 
ATOM      7  C   UNL     1      13.860  -3.927  61.927  1.00  0.00     0.039 C 
ATOM      8  C   UNL     1      15.005  -2.102  60.754  1.00  0.00    -0.023 CG0
ATOM      9  G   UNL     1      16.061  -1.362  59.957  1.00  0.00     0.000 G0
ENDBRANCH   5   6
ENDBRANCH   4   5
ENDBRANCH   2   4
BRANCH   1  10
ATOM     10  C   UNL     1      18.352  -1.727  62.505  1.00  0.00     0.111 C 
BRANCH  10  11
ATOM     11  C   UNL     1      18.204  -0.849  61.291  1.00  0.00     0.163 C 
ATOM     12  O   UNL     1      19.246  -0.536  60.654  1.00  0.00    -0.294 OA
BRANCH  11  13
ATOM     13  C   UNL     1      16.873  -0.395  60.787  1.00  0.00    -0.002 C 
ATOM     14  C   UNL     1      16.441   0.883  61.009  1.00  0.00    -0.069 C 
ATOM     15  C   UNL     1      15.174   1.419  60.380  1.00  0.00     0.039 C 
ATOM     16  C   UNL     1      17.214   1.829  61.900  1.00  0.00     0.039 C 
BRANCH  13  17
ATOM     17  C   UNL     1      16.076  -1.378  59.946  1.00  0.00     0.066 CG0
ATOM     18  G   UNL     1      15.019  -2.105  60.754  1.00  0.00     0.000 G0
ENDBRANCH  13  17
ENDBRANCH  11  13
ENDBRANCH  10  11
ENDBRANCH   1  10
TORSDOF 0
ENDMDL
MODEL 7
REMARK VINA RESULT:    -3.540      1.327      3.714
REMARK INTER + INTRA:          -4.714
REMARK INTER:                  -4.946
REMARK INTRA:                   0.232
REMARK UNBOUND:                 0.275
REMARK SMILES CC1=CCC(=C(C)C)C(=O)CC(C)=CCC1
REMARK SMILES IDX 12 1 14 2 13 3 15 4 16 5 2 6 1 7 3 8 11 10 9 11 10 12 5 13
REMARK SMILES IDX 6 14 7 15 8 16 4 17
REMARK H PARENT
REMARK Flexibility Score: 60.00
ROOT
ATOM      1  C   UNL     1      25.739  -4.276  54.726  1.00  0.00    -0.070 C 
ATOM      2  C   UNL     1      25.698  -3.494  55.827  1.00  0.00    -0.027 C 
ATOM      3  C   UNL     1      26.489  -5.580  54.814  1.00  0.00     0.039 C 
ENDROOT
BRANCH   2   4
ATOM      4  C   UNL     1      24.920  -2.203  55.967  1.00  0.00     0.032 C 
BRANCH   4   5
ATOM      5  C   UNL     1      25.229  -1.141  54.891  1.00  0.00     0.034 C 
BRANCH   5   6
ATOM      6  C   UNL     1      26.710  -0.833  54.763  1.00  0.00    -0.077 C 
ATOM      7  C   UNL     1      27.419  -0.281  55.974  1.00  0.00     0.039 C 
ATOM      8  C   UNL     1      27.451  -1.087  53.656  1.00  0.00    -0.023 CG0
ATOM      9  G   UNL     1      26.954  -1.619  52.326  1.00  0.00     0.000 G0
ENDBRANCH   5   6
ENDBRANCH   4   5
ENDBRANCH   2   4
BRANCH   1  10
ATOM     10  C   UNL     1      24.994  -3.950  53.448  1.00  0.00     0.111 C 
BRANCH  10  11
ATOM     11  C   UNL     1      25.910  -3.960  52.253  1.00  0.00     0.163 C 
ATOM     12  O   UNL     1      25.582  -4.665  51.260  1.00  0.00    -0.294 OA
BRANCH  11  13
ATOM     13  C   UNL     1      27.145  -3.124  52.183  1.00  0.00    -0.002 C 
ATOM     14  C   UNL     1      28.362  -3.695  51.931  1.00  0.00    -0.069 C 
ATOM     15  C   UNL     1      29.603  -2.862  51.698  1.00  0.00     0.039 C 
ATOM     16  C   UNL     1      28.526  -5.197  51.872  1.00  0.00     0.039 C 
BRANCH  13  17
ATOM     17  C   UNL     1      26.974  -1.619  52.307  1.00  0.00     0.066 CG0
ATOM     18  G   UNL     1      27.434  -1.096  53.653  1.00  0.00     0.000 G0
ENDBRANCH  13  17
ENDBRANCH  11  13
ENDBRANCH  10  11
ENDBRANCH   1  10
TORSDOF 0
ENDMDL
MODEL 8
REMARK VINA RESULT:    -3.492      9.225     12.391
REMARK INTER + INTRA:          -4.647
REMARK INTER:                  -4.801
REMARK INTRA:                   0.154
REMARK UNBOUND:                 0.275
REMARK SMILES CC1=CCC(=C(C)C)C(=O)CC(C)=CCC1
REMARK SMILES IDX 12 1 14 2 13 3 15 4 16 5 2 6 1 7 3 8 11 10 9 11 10 12 5 13
REMARK SMILES IDX 6 14 7 15 8 16 4 17
REMARK H PARENT
REMARK Flexibility Score: 60.00
ROOT
ATOM      1  C   UNL     1      15.596   0.176  58.739  1.00  0.00    -0.070 C 
ATOM      2  C   UNL     1      14.875  -0.427  59.710  1.00  0.00    -0.027 C 
ATOM      3  C   UNL     1      15.066   1.464  58.163  1.00  0.00     0.039 C 
ENDROOT
BRANCH   2   4
ATOM      4  C   UNL     1      15.284  -1.666  60.475  1.00  0.00     0.032 C 
BRANCH   4   5
ATOM      5  C   UNL     1      16.164  -1.400  61.715  1.00  0.00     0.034 C 
BRANCH   5   6
ATOM      6  C   UNL     1      17.423  -2.249  61.747  1.00  0.00    -0.077 C 
ATOM      7  C   UNL     1      17.275  -3.710  62.084  1.00  0.00     0.039 C 
ATOM      8  C   UNL     1      18.659  -1.793  61.426  1.00  0.00    -0.023 CG0
ATOM      9  G   UNL     1      19.047  -0.370  61.076  1.00  0.00     0.000 G0
ENDBRANCH   5   6
ENDBRANCH   4   5
ENDBRANCH   2   4
BRANCH   1  10
ATOM     10  C   UNL     1      16.945  -0.330  58.271  1.00  0.00     0.111 C 
BRANCH  10  11
ATOM     11  C   UNL     1      18.074   0.479  58.853  1.00  0.00     0.163 C 
ATOM     12  O   UNL     1      18.012   1.736  58.762  1.00  0.00    -0.294 OA
BRANCH  11  13
ATOM     13  C   UNL     1      19.217  -0.147  59.581  1.00  0.00    -0.002 C 
ATOM     14  C   UNL     1      20.388  -0.427  58.934  1.00  0.00    -0.069 C 
ATOM     15  C   UNL     1      21.615  -0.914  59.674  1.00  0.00     0.039 C 
ATOM     16  C   UNL     1      20.516  -0.261  57.436  1.00  0.00     0.039 C 
BRANCH  13  17
ATOM     17  C   UNL     1      19.053  -0.367  61.076  1.00  0.00     0.066 CG0
ATOM     18  G   UNL     1      18.658  -1.792  61.409  1.00  0.00     0.000 G0
ENDBRANCH  13  17
ENDBRANCH  11  13
ENDBRANCH  10  11
ENDBRANCH   1  10
TORSDOF 0
ENDMDL
MODEL 9
REMARK VINA RESULT:    -3.370      2.169      4.228
REMARK INTER + INTRA:          -4.475
REMARK INTER:                  -4.914
REMARK INTRA:                   0.439
REMARK UNBOUND:                 0.275
REMARK SMILES CC1=CCC(=C(C)C)C(=O)CC(C)=CCC1
REMARK SMILES IDX 12 1 14 2 13 3 15 4 16 5 2 6 1 7 3 8 11 10 9 11 10 12 5 13
REMARK SMILES IDX 6 14 7 15 8 16 4 17
REMARK H PARENT
REMARK Flexibility Score: 60.00
ROOT
ATOM      1  C   UNL     1      25.907  -3.551  52.657  1.00  0.00    -0.070 C 
ATOM      2  C   UNL     1      24.901  -3.607  53.557  1.00  0.00    -0.027 C 
ATOM      3  C   UNL     1      25.860  -4.498  51.486  1.00  0.00     0.039 C 
ENDROOT
BRANCH   2   4
ATOM      4  C   UNL     1      24.719  -2.681  54.739  1.00  0.00     0.032 C 
BRANCH   4   5
ATOM      5  C   UNL     1      25.995  -2.435  55.571  1.00  0.00     0.034 C 
BRANCH   5   6
ATOM      6  C   UNL     1      26.546  -3.698  56.208  1.00  0.00    -0.077 C 
ATOM      7  C   UNL     1      25.628  -4.491  57.103  1.00  0.00     0.039 C 
ATOM      8  C   UNL     1      27.784  -4.196  55.968  1.00  0.00    -0.023 CG0
ATOM      9  G   UNL     1      28.876  -3.568  55.125  1.00  0.00     0.000 G0
ENDBRANCH   5   6
ENDBRANCH   4   5
ENDBRANCH   2   4
BRANCH   1  10
ATOM     10  C   UNL     1      27.023  -2.527  52.721  1.00  0.00     0.111 C 
BRANCH  10  11
ATOM     11  C   UNL     1      28.379  -3.177  52.635  1.00  0.00     0.163 C 
ATOM     12  O   UNL     1      29.112  -2.891  51.650  1.00  0.00    -0.294 OA
BRANCH  11  13
ATOM     13  C   UNL     1      28.900  -4.087  53.698  1.00  0.00    -0.002 C 
ATOM     14  C   UNL     1      29.447  -5.298  53.374  1.00  0.00    -0.069 C 
ATOM     15  C   UNL     1      30.125  -6.172  54.406  1.00  0.00     0.039 C 
ATOM     16  C   UNL     1      29.402  -5.825  51.957  1.00  0.00     0.039 C 
BRANCH  13  17
ATOM     17  C   UNL     1      28.882  -3.571  55.127  1.00  0.00     0.066 CG0
ATOM     18  G   UNL     1      27.774  -4.196  55.952  1.00  0.00     0.000 G0
ENDBRANCH  13  17
ENDBRANCH  11  13
ENDBRANCH  10  11
ENDBRANCH   1  10
TORSDOF 0
ENDMDL
