MODEL 1
REMARK VINA RESULT:    -4.992      0.000      0.000
REMARK INTER + INTRA:          -8.798
REMARK INTER:                  -7.618
REMARK INTRA:                  -1.179
REMARK UNBOUND:                -1.179
REMARK SMILES OC[C@@H]1O[C@H](O[C@]2(CO)O[C@@H](CO)[C@H](O)[C@@H]2O)[C@@H](O)[C@@H](O)[C@@H]1O
REMARK SMILES IDX 6 1 5 2 3 3 22 4 4 5 20 6 18 7 2 8 1 9 23 11 21 13 19 15
REMARK SMILES IDX 7 17 16 18 10 19 14 20 11 21 8 22 9 23 17 25 15 27 12 29
REMARK SMILES IDX 13 30
REMARK H PARENT 1 10 23 12 21 14 19 16 9 24 17 26 15 28 13 31
REMARK Flexibility Score: inf
ROOT
ATOM      1  O   UNL     1      15.164  18.010  16.567  1.00  0.00    -0.313 OA
ENDROOT
BRANCH   1   2
ATOM      2  C   UNL     1      14.371  17.909  15.392  1.00  0.00     0.285 C 
ATOM      3  C   UNL     1      12.826  16.322  16.316  1.00  0.00     0.178 C 
ATOM      4  C   UNL     1      11.706  17.390  16.436  1.00  0.00     0.177 C 
ATOM      5  O   UNL     1      13.788  16.614  15.304  1.00  0.00    -0.341 OA
ATOM      6  C   UNL     1      12.302  18.802  16.510  1.00  0.00     0.179 C 
ATOM      7  C   UNL     1      13.294  19.018  15.367  1.00  0.00     0.202 C 
BRANCH   3   8
ATOM      8  C   UNL     1      13.489  15.950  17.664  1.00  0.00     0.191 C 
BRANCH   8   9
ATOM      9  O   UNL     1      12.832  14.849  18.240  1.00  0.00    -0.394 OA
ATOM     10  H   UNL     1      12.853  14.987  19.225  1.00  0.00     0.210 HD
ENDBRANCH   8   9
ENDBRANCH   3   8
BRANCH   4  11
ATOM     11  O   UNL     1      10.928  17.118  17.581  1.00  0.00    -0.387 OA
ATOM     12  H   UNL     1      11.499  16.626  18.231  1.00  0.00     0.211 HD
ENDBRANCH   4  11
BRANCH   6  13
ATOM     13  O   UNL     1      11.272  19.758  16.449  1.00  0.00    -0.387 OA
ATOM     14  H   UNL     1      10.723  19.635  17.266  1.00  0.00     0.211 HD
ENDBRANCH   6  13
BRANCH   7  15
ATOM     15  O   UNL     1      12.613  19.006  14.136  1.00  0.00    -0.385 OA
ATOM     16  H   UNL     1      12.828  18.140  13.696  1.00  0.00     0.211 HD
ENDBRANCH   7  15
ENDBRANCH   1   2
BRANCH   1  17
ATOM     17  C   UNL     1      16.393  18.723  16.432  1.00  0.00     0.224 C 
ATOM     18  C   UNL     1      17.581  17.822  16.805  1.00  0.00     0.208 C 
ATOM     19  O   UNL     1      16.611  19.221  15.118  1.00  0.00    -0.337 OA
ATOM     20  C   UNL     1      18.698  18.437  16.001  1.00  0.00     0.180 C 
ATOM     21  C   UNL     1      17.963  18.991  14.778  1.00  0.00     0.179 C 
BRANCH  17  22
ATOM     22  C   UNL     1      16.307  19.944  17.375  1.00  0.00     0.225 C 
BRANCH  22  23
ATOM     23  O   UNL     1      15.773  21.050  16.698  1.00  0.00    -0.391 OA
ATOM     24  H   UNL     1      15.247  20.681  15.942  1.00  0.00     0.210 HD
ENDBRANCH  22  23
ENDBRANCH  17  22
BRANCH  18  25
ATOM     25  O   UNL     1      17.345  16.497  16.391  1.00  0.00    -0.385 OA
ATOM     26  H   UNL     1      17.550  15.917  17.172  1.00  0.00     0.211 HD
ENDBRANCH  18  25
BRANCH  20  27
ATOM     27  O   UNL     1      19.658  17.481  15.626  1.00  0.00    -0.387 OA
ATOM     28  H   UNL     1      20.452  17.975  15.290  1.00  0.00     0.211 HD
ENDBRANCH  20  27
BRANCH  21  29
ATOM     29  C   UNL     1      18.584  20.290  14.252  1.00  0.00     0.191 C 
BRANCH  29  30
ATOM     30  O   UNL     1      19.984  20.215  14.264  1.00  0.00    -0.394 OA
ATOM     31  H   UNL     1      20.304  20.603  13.407  1.00  0.00     0.210 HD
ENDBRANCH  29  30
ENDBRANCH  21  29
ENDBRANCH   1  17
TORSDOF 13
ENDMDL
MODEL 2
REMARK VINA RESULT:    -4.799      1.546      6.312
REMARK INTER + INTRA:          -8.503
REMARK INTER:                  -7.383
REMARK INTRA:                  -1.120
REMARK UNBOUND:                -1.179
REMARK SMILES OC[C@@H]1O[C@H](O[C@]2(CO)O[C@@H](CO)[C@H](O)[C@@H]2O)[C@@H](O)[C@@H](O)[C@@H]1O
REMARK SMILES IDX 6 1 5 2 3 3 22 4 4 5 20 6 18 7 2 8 1 9 23 11 21 13 19 15
REMARK SMILES IDX 7 17 16 18 10 19 14 20 11 21 8 22 9 23 17 25 15 27 12 29
REMARK SMILES IDX 13 30
REMARK H PARENT 1 10 23 12 21 14 19 16 9 24 17 26 15 28 13 31
REMARK Flexibility Score: inf
ROOT
ATOM      1  O   UNL     1      15.244  18.545  15.858  1.00  0.00    -0.313 OA
ENDROOT
BRANCH   1   2
ATOM      2  C   UNL     1      16.245  17.536  15.833  1.00  0.00     0.285 C 
ATOM      3  C   UNL     1      17.365  18.398  13.894  1.00  0.00     0.178 C 
ATOM      4  C   UNL     1      18.556  18.925  14.740  1.00  0.00     0.177 C 
ATOM      5  O   UNL     1      16.676  17.305  14.496  1.00  0.00    -0.341 OA
ATOM      6  C   UNL     1      18.130  19.162  16.195  1.00  0.00     0.179 C 
ATOM      7  C   UNL     1      17.428  17.923  16.750  1.00  0.00     0.202 C 
BRANCH   3   8
ATOM      8  C   UNL     1      16.399  19.505  13.409  1.00  0.00     0.191 C 
BRANCH   8   9
ATOM      9  O   UNL     1      16.827  20.014  12.170  1.00  0.00    -0.394 OA
ATOM     10  H   UNL     1      17.503  19.375  11.817  1.00  0.00     0.210 HD
ENDBRANCH   8   9
ENDBRANCH   3   8
BRANCH   4  11
ATOM     11  O   UNL     1      19.043  20.116  14.164  1.00  0.00    -0.387 OA
ATOM     12  H   UNL     1      19.986  19.961  13.888  1.00  0.00     0.211 HD
ENDBRANCH   4  11
BRANCH   6  13
ATOM     13  O   UNL     1      19.256  19.476  16.976  1.00  0.00    -0.387 OA
ATOM     14  H   UNL     1      19.394  18.713  17.594  1.00  0.00     0.211 HD
ENDBRANCH   6  13
BRANCH   7  15
ATOM     15  O   UNL     1      18.342  16.857  16.839  1.00  0.00    -0.385 OA
ATOM     16  H   UNL     1      17.811  16.035  17.013  1.00  0.00     0.211 HD
ENDBRANCH   7  15
ENDBRANCH   1   2
BRANCH   1  17
ATOM     17  C   UNL     1      13.971  18.149  16.367  1.00  0.00     0.224 C 
ATOM     18  C   UNL     1      12.842  18.841  15.589  1.00  0.00     0.208 C 
ATOM     19  O   UNL     1      13.754  16.745  16.307  1.00  0.00    -0.337 OA
ATOM     20  C   UNL     1      11.706  17.865  15.761  1.00  0.00     0.180 C 
ATOM     21  C   UNL     1      12.433  16.522  15.861  1.00  0.00     0.179 C 
BRANCH  17  22
ATOM     22  C   UNL     1      13.943  18.552  17.859  1.00  0.00     0.225 C 
BRANCH  22  23
ATOM     23  O   UNL     1      13.306  19.791  18.020  1.00  0.00    -0.391 OA
ATOM     24  H   UNL     1      13.316  19.981  18.994  1.00  0.00     0.210 HD
ENDBRANCH  22  23
ENDBRANCH  17  22
BRANCH  18  25
ATOM     25  O   UNL     1      13.184  18.966  14.229  1.00  0.00    -0.385 OA
ATOM     26  H   UNL     1      12.352  19.228  13.752  1.00  0.00     0.211 HD
ENDBRANCH  18  25
BRANCH  20  27
ATOM     27  O   UNL     1      10.828  17.887  14.663  1.00  0.00    -0.387 OA
ATOM     28  H   UNL     1      10.274  17.063  14.711  1.00  0.00     0.211 HD
ENDBRANCH  20  27
BRANCH  21  29
ATOM     29  C   UNL     1      11.735  15.539  16.808  1.00  0.00     0.191 C 
BRANCH  29  30
ATOM     30  O   UNL     1      10.477  16.024  17.193  1.00  0.00    -0.394 OA
ATOM     31  H   UNL     1      10.024  16.347  16.369  1.00  0.00     0.210 HD
ENDBRANCH  29  30
ENDBRANCH  21  29
ENDBRANCH   1  17
TORSDOF 13
ENDMDL
MODEL 3
REMARK VINA RESULT:    -4.722      1.667      6.106
REMARK INTER + INTRA:          -8.386
REMARK INTER:                  -6.825
REMARK INTRA:                  -1.561
REMARK UNBOUND:                -1.179
REMARK SMILES OC[C@@H]1O[C@H](O[C@]2(CO)O[C@@H](CO)[C@H](O)[C@@H]2O)[C@@H](O)[C@@H](O)[C@@H]1O
REMARK SMILES IDX 6 1 5 2 3 3 22 4 4 5 20 6 18 7 2 8 1 9 23 11 21 13 19 15
REMARK SMILES IDX 7 17 16 18 10 19 14 20 11 21 8 22 9 23 17 25 15 27 12 29
REMARK SMILES IDX 13 30
REMARK H PARENT 1 10 23 12 21 14 19 16 9 24 17 26 15 28 13 31
REMARK Flexibility Score: inf
ROOT
ATOM      1  O   UNL     1      15.072  18.188  17.129  1.00  0.00    -0.313 OA
ENDROOT
BRANCH   1   2
ATOM      2  C   UNL     1      15.907  18.571  16.045  1.00  0.00     0.285 C 
ATOM      3  C   UNL     1      17.309  20.012  17.355  1.00  0.00     0.178 C 
ATOM      4  C   UNL     1      18.488  19.001  17.316  1.00  0.00     0.177 C 
ATOM      5  O   UNL     1      16.412  19.885  16.254  1.00  0.00    -0.341 OA
ATOM      6  C   UNL     1      17.978  17.575  17.068  1.00  0.00     0.179 C 
ATOM      7  C   UNL     1      17.051  17.549  15.853  1.00  0.00     0.202 C 
BRANCH   3   8
ATOM      8  C   UNL     1      16.568  20.062  18.712  1.00  0.00     0.191 C 
BRANCH   8   9
ATOM      9  O   UNL     1      15.510  20.986  18.654  1.00  0.00    -0.394 OA
ATOM     10  H   UNL     1      15.715  21.607  17.904  1.00  0.00     0.210 HD
ENDBRANCH   8   9
ENDBRANCH   3   8
BRANCH   4  11
ATOM     11  O   UNL     1      19.198  19.071  18.533  1.00  0.00    -0.387 OA
ATOM     12  H   UNL     1      20.169  19.121  18.320  1.00  0.00     0.211 HD
ENDBRANCH   4  11
BRANCH   6  13
ATOM     13  O   UNL     1      19.067  16.708  16.870  1.00  0.00    -0.387 OA
ATOM     14  H   UNL     1      18.775  16.034  16.204  1.00  0.00     0.211 HD
ENDBRANCH   6  13
BRANCH   7  15
ATOM     15  O   UNL     1      17.781  17.850  14.689  1.00  0.00    -0.385 OA
ATOM     16  H   UNL     1      18.732  17.625  14.878  1.00  0.00     0.211 HD
ENDBRANCH   7  15
ENDBRANCH   1   2
BRANCH   1  17
ATOM     17  C   UNL     1      13.719  17.879  16.798  1.00  0.00     0.224 C 
ATOM     18  C   UNL     1      12.779  18.995  17.278  1.00  0.00     0.208 C 
ATOM     19  O   UNL     1      13.512  17.694  15.403  1.00  0.00    -0.337 OA
ATOM     20  C   UNL     1      11.626  18.862  16.315  1.00  0.00     0.180 C 
ATOM     21  C   UNL     1      12.309  18.344  15.047  1.00  0.00     0.179 C 
BRANCH  17  22
ATOM     22  C   UNL     1      13.386  16.538  17.491  1.00  0.00     0.225 C 
BRANCH  22  23
ATOM     23  O   UNL     1      13.279  15.510  16.543  1.00  0.00    -0.391 OA
ATOM     24  H   UNL     1      12.323  15.242  16.534  1.00  0.00     0.210 HD
ENDBRANCH  22  23
ENDBRANCH  17  22
BRANCH  18  25
ATOM     25  O   UNL     1      13.395  20.253  17.140  1.00  0.00    -0.385 OA
ATOM     26  H   UNL     1      13.279  20.521  16.189  1.00  0.00     0.211 HD
ENDBRANCH  18  25
BRANCH  20  27
ATOM     27  O   UNL     1      10.995  20.096  16.084  1.00  0.00    -0.387 OA
ATOM     28  H   UNL     1      10.057  20.013  16.403  1.00  0.00     0.211 HD
ENDBRANCH  20  27
BRANCH  21  29
ATOM     29  C   UNL     1      11.426  17.380  14.249  1.00  0.00     0.191 C 
BRANCH  29  30
ATOM     30  O   UNL     1      10.743  16.503  15.105  1.00  0.00    -0.394 OA
ATOM     31  H   UNL     1       9.938  16.985  15.433  1.00  0.00     0.210 HD
ENDBRANCH  29  30
ENDBRANCH  21  29
ENDBRANCH   1  17
TORSDOF 13
ENDMDL
MODEL 4
REMARK VINA RESULT:    -4.702      1.473      2.004
REMARK INTER + INTRA:          -8.355
REMARK INTER:                  -7.427
REMARK INTRA:                  -0.928
REMARK UNBOUND:                -1.179
REMARK SMILES OC[C@@H]1O[C@H](O[C@]2(CO)O[C@@H](CO)[C@H](O)[C@@H]2O)[C@@H](O)[C@@H](O)[C@@H]1O
REMARK SMILES IDX 6 1 5 2 3 3 22 4 4 5 20 6 18 7 2 8 1 9 23 11 21 13 19 15
REMARK SMILES IDX 7 17 16 18 10 19 14 20 11 21 8 22 9 23 17 25 15 27 12 29
REMARK SMILES IDX 13 30
REMARK H PARENT 1 10 23 12 21 14 19 16 9 24 17 26 15 28 13 31
REMARK Flexibility Score: inf
ROOT
ATOM      1  O   UNL     1      15.309  18.104  17.256  1.00  0.00    -0.313 OA
ENDROOT
BRANCH   1   2
ATOM      2  C   UNL     1      14.775  18.047  15.940  1.00  0.00     0.285 C 
ATOM      3  C   UNL     1      13.213  16.290  16.422  1.00  0.00     0.178 C 
ATOM      4  C   UNL     1      12.007  17.268  16.382  1.00  0.00     0.177 C 
ATOM      5  O   UNL     1      14.329  16.727  15.649  1.00  0.00    -0.341 OA
ATOM      6  C   UNL     1      12.459  18.705  16.669  1.00  0.00     0.179 C 
ATOM      7  C   UNL     1      13.637  19.079  15.769  1.00  0.00     0.202 C 
BRANCH   3   8
ATOM      8  C   UNL     1      13.622  15.854  17.849  1.00  0.00     0.191 C 
BRANCH   8   9
ATOM      9  O   UNL     1      12.857  14.748  18.258  1.00  0.00    -0.394 OA
ATOM     10  H   UNL     1      13.389  13.937  18.041  1.00  0.00     0.210 HD
ENDBRANCH   8   9
ENDBRANCH   3   8
BRANCH   4  11
ATOM     11  O   UNL     1      11.042  16.852  17.323  1.00  0.00    -0.387 OA
ATOM     12  H   UNL     1      11.442  16.936  18.231  1.00  0.00     0.211 HD
ENDBRANCH   4  11
BRANCH   6  13
ATOM     13  O   UNL     1      11.387  19.592  16.462  1.00  0.00    -0.387 OA
ATOM     14  H   UNL     1      11.615  20.429  16.943  1.00  0.00     0.211 HD
ENDBRANCH   6  13
BRANCH   7  15
ATOM     15  O   UNL     1      13.218  19.122  14.428  1.00  0.00    -0.385 OA
ATOM     16  H   UNL     1      12.951  20.061  14.238  1.00  0.00     0.211 HD
ENDBRANCH   7  15
ENDBRANCH   1   2
BRANCH   1  17
ATOM     17  C   UNL     1      16.663  18.539  17.363  1.00  0.00     0.224 C 
ATOM     18  C   UNL     1      17.076  18.655  18.839  1.00  0.00     0.208 C 
ATOM     19  O   UNL     1      17.584  17.672  16.713  1.00  0.00    -0.337 OA
ATOM     20  C   UNL     1      18.567  18.444  18.759  1.00  0.00     0.180 C 
ATOM     21  C   UNL     1      18.708  17.512  17.553  1.00  0.00     0.179 C 
BRANCH  17  22
ATOM     22  C   UNL     1      16.749  19.910  16.655  1.00  0.00     0.225 C 
BRANCH  22  23
ATOM     23  O   UNL     1      17.492  19.804  15.471  1.00  0.00    -0.391 OA
ATOM     24  H   UNL     1      18.223  20.472  15.544  1.00  0.00     0.210 HD
ENDBRANCH  22  23
ENDBRANCH  17  22
BRANCH  18  25
ATOM     25  O   UNL     1      16.474  17.636  19.601  1.00  0.00    -0.385 OA
ATOM     26  H   UNL     1      17.091  17.448  20.357  1.00  0.00     0.211 HD
ENDBRANCH  18  25
BRANCH  20  27
ATOM     27  O   UNL     1      19.072  17.845  19.925  1.00  0.00    -0.387 OA
ATOM     28  H   UNL     1      19.856  18.382  20.218  1.00  0.00     0.211 HD
ENDBRANCH  20  27
BRANCH  21  29
ATOM     29  C   UNL     1      19.986  17.772  16.749  1.00  0.00     0.191 C 
BRANCH  29  30
ATOM     30  O   UNL     1      19.708  17.838  15.376  1.00  0.00    -0.394 OA
ATOM     31  H   UNL     1      19.249  16.991  15.130  1.00  0.00     0.210 HD
ENDBRANCH  29  30
ENDBRANCH  21  29
ENDBRANCH   1  17
TORSDOF 13
ENDMDL
MODEL 5
REMARK VINA RESULT:    -4.671      1.460      6.223
REMARK INTER + INTRA:          -8.308
REMARK INTER:                  -6.803
REMARK INTRA:                  -1.505
REMARK UNBOUND:                -1.179
REMARK SMILES OC[C@@H]1O[C@H](O[C@]2(CO)O[C@@H](CO)[C@H](O)[C@@H]2O)[C@@H](O)[C@@H](O)[C@@H]1O
REMARK SMILES IDX 6 1 5 2 3 3 22 4 4 5 20 6 18 7 2 8 1 9 23 11 21 13 19 15
REMARK SMILES IDX 7 17 16 18 10 19 14 20 11 21 8 22 9 23 17 25 15 27 12 29
REMARK SMILES IDX 13 30
REMARK H PARENT 1 10 23 12 21 14 19 16 9 24 17 26 15 28 13 31
REMARK Flexibility Score: inf
ROOT
ATOM      1  O   UNL     1      15.692  18.628  16.399  1.00  0.00    -0.313 OA
ENDROOT
BRANCH   1   2
ATOM      2  C   UNL     1      16.621  17.592  16.110  1.00  0.00     0.285 C 
ATOM      3  C   UNL     1      17.628  18.723  14.249  1.00  0.00     0.178 C 
ATOM      4  C   UNL     1      18.917  19.035  15.057  1.00  0.00     0.177 C 
ATOM      5  O   UNL     1      16.922  17.577  14.719  1.00  0.00    -0.341 OA
ATOM      6  C   UNL     1      18.630  19.035  16.564  1.00  0.00     0.179 C 
ATOM      7  C   UNL     1      17.899  17.754  16.964  1.00  0.00     0.202 C 
BRANCH   3   8
ATOM      8  C   UNL     1      16.698  19.944  14.051  1.00  0.00     0.191 C 
BRANCH   8   9
ATOM      9  O   UNL     1      15.425  19.522  13.630  1.00  0.00    -0.394 OA
ATOM     10  H   UNL     1      14.828  19.580  14.423  1.00  0.00     0.210 HD
ENDBRANCH   8   9
ENDBRANCH   3   8
BRANCH   4  11
ATOM     11  O   UNL     1      19.429  20.284  14.648  1.00  0.00    -0.387 OA
ATOM     12  H   UNL     1      20.301  20.125  14.195  1.00  0.00     0.211 HD
ENDBRANCH   4  11
BRANCH   6  13
ATOM     13  O   UNL     1      19.836  19.153  17.278  1.00  0.00    -0.387 OA
ATOM     14  H   UNL     1      20.553  18.818  16.681  1.00  0.00     0.211 HD
ENDBRANCH   6  13
BRANCH   7  15
ATOM     15  O   UNL     1      18.747  16.646  16.785  1.00  0.00    -0.385 OA
ATOM     16  H   UNL     1      18.677  16.381  15.829  1.00  0.00     0.211 HD
ENDBRANCH   7  15
ENDBRANCH   1   2
BRANCH   1  17
ATOM     17  C   UNL     1      14.328  18.228  16.522  1.00  0.00     0.224 C 
ATOM     18  C   UNL     1      13.453  19.422  16.933  1.00  0.00     0.208 C 
ATOM     19  O   UNL     1      13.794  17.679  15.324  1.00  0.00    -0.337 OA
ATOM     20  C   UNL     1      12.111  19.028  16.371  1.00  0.00     0.180 C 
ATOM     21  C   UNL     1      12.494  18.201  15.142  1.00  0.00     0.179 C 
BRANCH  17  22
ATOM     22  C   UNL     1      14.284  17.115  17.593  1.00  0.00     0.225 C 
BRANCH  22  23
ATOM     23  O   UNL     1      13.915  15.892  17.015  1.00  0.00    -0.391 OA
ATOM     24  H   UNL     1      12.985  15.716  17.314  1.00  0.00     0.210 HD
ENDBRANCH  22  23
ENDBRANCH  17  22
BRANCH  18  25
ATOM     25  O   UNL     1      13.915  20.605  16.326  1.00  0.00    -0.385 OA
ATOM     26  H   UNL     1      14.213  21.203  17.062  1.00  0.00     0.211 HD
ENDBRANCH  18  25
BRANCH  20  27
ATOM     27  O   UNL     1      11.347  20.151  16.009  1.00  0.00    -0.387 OA
ATOM     28  H   UNL     1      11.870  20.958  16.258  1.00  0.00     0.211 HD
ENDBRANCH  20  27
BRANCH  21  29
ATOM     29  C   UNL     1      11.517  17.051  14.873  1.00  0.00     0.191 C 
BRANCH  29  30
ATOM     30  O   UNL     1      11.097  16.462  16.074  1.00  0.00    -0.394 OA
ATOM     31  H   UNL     1      11.863  16.508  16.706  1.00  0.00     0.210 HD
ENDBRANCH  29  30
ENDBRANCH  21  29
ENDBRANCH   1  17
TORSDOF 13
ENDMDL
MODEL 6
REMARK VINA RESULT:    -4.645      2.865      6.454
REMARK INTER + INTRA:          -8.269
REMARK INTER:                  -7.187
REMARK INTRA:                  -1.082
REMARK UNBOUND:                -1.179
REMARK SMILES OC[C@@H]1O[C@H](O[C@]2(CO)O[C@@H](CO)[C@H](O)[C@@H]2O)[C@@H](O)[C@@H](O)[C@@H]1O
REMARK SMILES IDX 6 1 5 2 3 3 22 4 4 5 20 6 18 7 2 8 1 9 23 11 21 13 19 15
REMARK SMILES IDX 7 17 16 18 10 19 14 20 11 21 8 22 9 23 17 25 15 27 12 29
REMARK SMILES IDX 13 30
REMARK H PARENT 1 10 23 12 21 14 19 16 9 24 17 26 15 28 13 31
REMARK Flexibility Score: inf
ROOT
ATOM      1  O   UNL     1      12.138  18.186  14.430  1.00  0.00    -0.313 OA
ENDROOT
BRANCH   1   2
ATOM      2  C   UNL     1      13.011  18.727  15.413  1.00  0.00     0.285 C 
ATOM      3  C   UNL     1      12.188  17.356  17.203  1.00  0.00     0.178 C 
ATOM      4  C   UNL     1      13.469  16.478  17.200  1.00  0.00     0.177 C 
ATOM      5  O   UNL     1      12.397  18.673  16.696  1.00  0.00    -0.341 OA
ATOM      6  C   UNL     1      14.168  16.534  15.836  1.00  0.00     0.179 C 
ATOM      7  C   UNL     1      14.368  17.987  15.403  1.00  0.00     0.202 C 
BRANCH   3   8
ATOM      8  C   UNL     1      10.955  16.672  16.565  1.00  0.00     0.191 C 
BRANCH   8   9
ATOM      9  O   UNL     1      10.124  16.139  17.567  1.00  0.00    -0.394 OA
ATOM     10  H   UNL     1      10.650  15.432  18.028  1.00  0.00     0.210 HD
ENDBRANCH   8   9
ENDBRANCH   3   8
BRANCH   4  11
ATOM     11  O   UNL     1      13.121  15.151  17.527  1.00  0.00    -0.387 OA
ATOM     12  H   UNL     1      12.279  15.175  18.058  1.00  0.00     0.211 HD
ENDBRANCH   4  11
BRANCH   6  13
ATOM     13  O   UNL     1      15.407  15.872  15.908  1.00  0.00    -0.387 OA
ATOM     14  H   UNL     1      15.209  14.900  15.904  1.00  0.00     0.211 HD
ENDBRANCH   6  13
BRANCH   7  15
ATOM     15  O   UNL     1      15.274  18.623  16.269  1.00  0.00    -0.385 OA
ATOM     16  H   UNL     1      14.855  19.480  16.548  1.00  0.00     0.211 HD
ENDBRANCH   7  15
ENDBRANCH   1   2
BRANCH   1  17
ATOM     17  C   UNL     1      11.387  19.133  13.672  1.00  0.00     0.224 C 
ATOM     18  C   UNL     1      10.864  18.492  12.377  1.00  0.00     0.208 C 
ATOM     19  O   UNL     1      10.276  19.666  14.383  1.00  0.00    -0.337 OA
ATOM     20  C   UNL     1       9.636  19.321  12.098  1.00  0.00     0.180 C 
ATOM     21  C   UNL     1       9.172  19.714  13.503  1.00  0.00     0.179 C 
BRANCH  17  22
ATOM     22  C   UNL     1      12.337  20.312  13.362  1.00  0.00     0.225 C 
BRANCH  22  23
ATOM     23  O   UNL     1      13.008  20.095  12.150  1.00  0.00    -0.391 OA
ATOM     24  H   UNL     1      13.878  19.681  12.387  1.00  0.00     0.210 HD
ENDBRANCH  22  23
ENDBRANCH  17  22
BRANCH  18  25
ATOM     25  O   UNL     1      10.513  17.147  12.599  1.00  0.00    -0.385 OA
ATOM     26  H   UNL     1       9.685  16.982  12.073  1.00  0.00     0.211 HD
ENDBRANCH  18  25
BRANCH  20  27
ATOM     27  O   UNL     1       8.648  18.580  11.427  1.00  0.00    -0.387 OA
ATOM     28  H   UNL     1       7.815  18.639  11.966  1.00  0.00     0.211 HD
ENDBRANCH  20  27
BRANCH  21  29
ATOM     29  C   UNL     1       8.545  21.112  13.550  1.00  0.00     0.191 C 
BRANCH  29  30
ATOM     30  O   UNL     1       7.281  21.112  12.942  1.00  0.00    -0.394 OA
ATOM     31  H   UNL     1       6.988  20.165  12.876  1.00  0.00     0.210 HD
ENDBRANCH  29  30
ENDBRANCH  21  29
ENDBRANCH   1  17
TORSDOF 13
ENDMDL
MODEL 7
REMARK VINA RESULT:    -4.574      2.406      3.164
REMARK INTER + INTRA:          -8.161
REMARK INTER:                  -6.747
REMARK INTRA:                  -1.414
REMARK UNBOUND:                -1.179
REMARK SMILES OC[C@@H]1O[C@H](O[C@]2(CO)O[C@@H](CO)[C@H](O)[C@@H]2O)[C@@H](O)[C@@H](O)[C@@H]1O
REMARK SMILES IDX 6 1 5 2 3 3 22 4 4 5 20 6 18 7 2 8 1 9 23 11 21 13 19 15
REMARK SMILES IDX 7 17 16 18 10 19 14 20 11 21 8 22 9 23 17 25 15 27 12 29
REMARK SMILES IDX 13 30
REMARK H PARENT 1 10 23 12 21 14 19 16 9 24 17 26 15 28 13 31
REMARK Flexibility Score: inf
ROOT
ATOM      1  O   UNL     1      15.841  18.561  18.015  1.00  0.00    -0.313 OA
ENDROOT
BRANCH   1   2
ATOM      2  C   UNL     1      15.259  19.440  17.061  1.00  0.00     0.285 C 
ATOM      3  C   UNL     1      14.593  17.701  15.548  1.00  0.00     0.178 C 
ATOM      4  C   UNL     1      13.097  17.856  15.933  1.00  0.00     0.177 C 
ATOM      5  O   UNL     1      15.361  18.885  15.755  1.00  0.00    -0.341 OA
ATOM      6  C   UNL     1      12.952  18.475  17.329  1.00  0.00     0.179 C 
ATOM      7  C   UNL     1      13.790  19.749  17.432  1.00  0.00     0.202 C 
BRANCH   3   8
ATOM      8  C   UNL     1      15.272  16.448  16.152  1.00  0.00     0.191 C 
BRANCH   8   9
ATOM      9  O   UNL     1      16.657  16.486  15.915  1.00  0.00    -0.394 OA
ATOM     10  H   UNL     1      17.097  16.560  16.805  1.00  0.00     0.210 HD
ENDBRANCH   8   9
ENDBRANCH   3   8
BRANCH   4  11
ATOM     11  O   UNL     1      12.472  16.592  15.882  1.00  0.00    -0.387 OA
ATOM     12  H   UNL     1      11.500  16.722  16.051  1.00  0.00     0.211 HD
ENDBRANCH   4  11
BRANCH   6  13
ATOM     13  O   UNL     1      11.599  18.759  17.586  1.00  0.00    -0.387 OA
ATOM     14  H   UNL     1      11.538  19.738  17.736  1.00  0.00     0.211 HD
ENDBRANCH   6  13
BRANCH   7  15
ATOM     15  O   UNL     1      13.270  20.734  16.574  1.00  0.00    -0.385 OA
ATOM     16  H   UNL     1      13.885  20.793  15.795  1.00  0.00     0.211 HD
ENDBRANCH   7  15
ENDBRANCH   1   2
BRANCH   1  17
ATOM     17  C   UNL     1      17.163  18.888  18.441  1.00  0.00     0.224 C 
ATOM     18  C   UNL     1      17.351  18.536  19.925  1.00  0.00     0.208 C 
ATOM     19  O   UNL     1      18.174  18.221  17.696  1.00  0.00    -0.337 OA
ATOM     20  C   UNL     1      18.839  18.299  19.998  1.00  0.00     0.180 C 
ATOM     21  C   UNL     1      19.161  17.769  18.599  1.00  0.00     0.179 C 
BRANCH  17  22
ATOM     22  C   UNL     1      17.346  20.404  18.204  1.00  0.00     0.225 C 
BRANCH  22  23
ATOM     23  O   UNL     1      18.285  20.631  17.188  1.00  0.00    -0.391 OA
ATOM     24  H   UNL     1      17.962  20.126  16.397  1.00  0.00     0.210 HD
ENDBRANCH  22  23
ENDBRANCH  17  22
BRANCH  18  25
ATOM     25  O   UNL     1      16.647  17.360  20.247  1.00  0.00    -0.385 OA
ATOM     26  H   UNL     1      16.108  17.126  19.445  1.00  0.00     0.211 HD
ENDBRANCH  18  25
BRANCH  20  27
ATOM     27  O   UNL     1      19.168  17.356  20.987  1.00  0.00    -0.387 OA
ATOM     28  H   UNL     1      19.627  17.844  21.721  1.00  0.00     0.211 HD
ENDBRANCH  20  27
BRANCH  21  29
ATOM     29  C   UNL     1      20.543  18.207  18.104  1.00  0.00     0.191 C 
BRANCH  29  30
ATOM     30  O   UNL     1      20.775  19.558  18.400  1.00  0.00    -0.394 OA
ATOM     31  H   UNL     1      20.020  19.866  18.968  1.00  0.00     0.210 HD
ENDBRANCH  29  30
ENDBRANCH  21  29
ENDBRANCH   1  17
TORSDOF 13
ENDMDL
MODEL 8
REMARK VINA RESULT:    -4.536      3.306      5.093
REMARK INTER + INTRA:          -8.102
REMARK INTER:                  -6.644
REMARK INTRA:                  -1.458
REMARK UNBOUND:                -1.179
REMARK SMILES OC[C@@H]1O[C@H](O[C@]2(CO)O[C@@H](CO)[C@H](O)[C@@H]2O)[C@@H](O)[C@@H](O)[C@@H]1O
REMARK SMILES IDX 6 1 5 2 3 3 22 4 4 5 20 6 18 7 2 8 1 9 23 11 21 13 19 15
REMARK SMILES IDX 7 17 16 18 10 19 14 20 11 21 8 22 9 23 17 25 15 27 12 29
REMARK SMILES IDX 13 30
REMARK H PARENT 1 10 23 12 21 14 19 16 9 24 17 26 15 28 13 31
REMARK Flexibility Score: inf
ROOT
ATOM      1  O   UNL     1      17.696  18.187  18.708  1.00  0.00    -0.313 OA
ENDROOT
BRANCH   1   2
ATOM      2  C   UNL     1      17.277  19.522  18.459  1.00  0.00     0.285 C 
ATOM      3  C   UNL     1      16.800  19.164  16.134  1.00  0.00     0.178 C 
ATOM      4  C   UNL     1      15.267  19.208  16.379  1.00  0.00     0.177 C 
ATOM      5  O   UNL     1      17.555  19.879  17.110  1.00  0.00    -0.341 OA
ATOM      6  C   UNL     1      14.935  18.850  17.833  1.00  0.00     0.179 C 
ATOM      7  C   UNL     1      15.777  19.692  18.792  1.00  0.00     0.202 C 
BRANCH   3   8
ATOM      8  C   UNL     1      17.357  17.741  15.890  1.00  0.00     0.191 C 
BRANCH   8   9
ATOM      9  O   UNL     1      18.761  17.775  15.819  1.00  0.00    -0.394 OA
ATOM     10  H   UNL     1      19.099  17.304  16.627  1.00  0.00     0.210 HD
ENDBRANCH   8   9
ENDBRANCH   3   8
BRANCH   4  11
ATOM     11  O   UNL     1      14.630  18.318  15.490  1.00  0.00    -0.387 OA
ATOM     12  H   UNL     1      14.606  18.746  14.591  1.00  0.00     0.211 HD
ENDBRANCH   4  11
BRANCH   6  13
ATOM     13  O   UNL     1      13.565  19.058  18.074  1.00  0.00    -0.387 OA
ATOM     14  H   UNL     1      13.374  19.999  17.825  1.00  0.00     0.211 HD
ENDBRANCH   6  13
BRANCH   7  15
ATOM     15  O   UNL     1      15.407  21.045  18.688  1.00  0.00    -0.385 OA
ATOM     16  H   UNL     1      16.245  21.564  18.555  1.00  0.00     0.211 HD
ENDBRANCH   7  15
ENDBRANCH   1   2
BRANCH   1  17
ATOM     17  C   UNL     1      19.011  18.033  19.239  1.00  0.00     0.224 C 
ATOM     18  C   UNL     1      18.948  17.637  20.723  1.00  0.00     0.208 C 
ATOM     19  O   UNL     1      19.783  17.057  18.552  1.00  0.00    -0.337 OA
ATOM     20  C   UNL     1      20.250  16.897  20.898  1.00  0.00     0.180 C 
ATOM     21  C   UNL     1      20.478  16.289  19.513  1.00  0.00     0.179 C 
BRANCH  17  22
ATOM     22  C   UNL     1      19.726  19.391  19.059  1.00  0.00     0.225 C 
BRANCH  22  23
ATOM     23  O   UNL     1      20.479  19.395  17.876  1.00  0.00    -0.391 OA
ATOM     24  H   UNL     1      21.403  19.142  18.137  1.00  0.00     0.210 HD
ENDBRANCH  22  23
ENDBRANCH  17  22
BRANCH  18  25
ATOM     25  O   UNL     1      17.857  16.779  20.959  1.00  0.00    -0.385 OA
ATOM     26  H   UNL     1      18.240  15.916  21.271  1.00  0.00     0.211 HD
ENDBRANCH  18  25
BRANCH  20  27
ATOM     27  O   UNL     1      20.154  15.898  21.882  1.00  0.00    -0.387 OA
ATOM     28  H   UNL     1      20.446  16.300  22.743  1.00  0.00     0.211 HD
ENDBRANCH  20  27
BRANCH  21  29
ATOM     29  C   UNL     1      21.961  16.219  19.132  1.00  0.00     0.191 C 
BRANCH  29  30
ATOM     30  O   UNL     1      22.775  16.346  20.267  1.00  0.00    -0.394 OA
ATOM     31  H   UNL     1      23.297  17.185  20.159  1.00  0.00     0.210 HD
ENDBRANCH  29  30
ENDBRANCH  21  29
ENDBRANCH   1  17
TORSDOF 13
ENDMDL
MODEL 9
REMARK VINA RESULT:    -4.352      1.797      5.978
REMARK INTER + INTRA:          -7.822
REMARK INTER:                  -6.752
REMARK INTRA:                  -1.070
REMARK UNBOUND:                -1.179
REMARK SMILES OC[C@@H]1O[C@H](O[C@]2(CO)O[C@@H](CO)[C@H](O)[C@@H]2O)[C@@H](O)[C@@H](O)[C@@H]1O
REMARK SMILES IDX 6 1 5 2 3 3 22 4 4 5 20 6 18 7 2 8 1 9 23 11 21 13 19 15
REMARK SMILES IDX 7 17 16 18 10 19 14 20 11 21 8 22 9 23 17 25 15 27 12 29
REMARK SMILES IDX 13 30
REMARK H PARENT 1 10 23 12 21 14 19 16 9 24 17 26 15 28 13 31
REMARK Flexibility Score: inf
ROOT
ATOM      1  O   UNL     1      16.443  18.584  17.175  1.00  0.00    -0.313 OA
ENDROOT
BRANCH   1   2
ATOM      2  C   UNL     1      17.340  19.425  16.461  1.00  0.00     0.285 C 
ATOM      3  C   UNL     1      18.869  19.705  18.289  1.00  0.00     0.178 C 
ATOM      4  C   UNL     1      19.925  18.778  17.627  1.00  0.00     0.177 C 
ATOM      5  O   UNL     1      17.987  20.323  17.354  1.00  0.00    -0.341 OA
ATOM      6  C   UNL     1      19.261  17.811  16.639  1.00  0.00     0.179 C 
ATOM      7  C   UNL     1      18.363  18.579  15.669  1.00  0.00     0.202 C 
BRANCH   3   8
ATOM      8  C   UNL     1      18.110  19.052  19.469  1.00  0.00     0.191 C 
BRANCH   8   9
ATOM      9  O   UNL     1      18.021  17.662  19.279  1.00  0.00    -0.394 OA
ATOM     10  H   UNL     1      17.067  17.416  19.413  1.00  0.00     0.210 HD
ENDBRANCH   8   9
ENDBRANCH   3   8
BRANCH   4  11
ATOM     11  O   UNL     1      20.612  18.068  18.633  1.00  0.00    -0.387 OA
ATOM     12  H   UNL     1      21.582  18.275  18.548  1.00  0.00     0.211 HD
ENDBRANCH   4  11
BRANCH   6  13
ATOM     13  O   UNL     1      20.247  17.100  15.932  1.00  0.00    -0.387 OA
ATOM     14  H   UNL     1      21.048  17.685  15.898  1.00  0.00     0.211 HD
ENDBRANCH   6  13
BRANCH   7  15
ATOM     15  O   UNL     1      19.148  19.409  14.848  1.00  0.00    -0.385 OA
ATOM     16  H   UNL     1      19.966  18.894  14.615  1.00  0.00     0.211 HD
ENDBRANCH   7  15
ENDBRANCH   1   2
BRANCH   1  17
ATOM     17  C   UNL     1      15.134  18.453  16.623  1.00  0.00     0.224 C 
ATOM     18  C   UNL     1      15.074  17.256  15.662  1.00  0.00     0.208 C 
ATOM     19  O   UNL     1      14.124  18.282  17.609  1.00  0.00    -0.337 OA
ATOM     20  C   UNL     1      13.615  16.879  15.732  1.00  0.00     0.180 C 
ATOM     21  C   UNL     1      13.235  17.281  17.159  1.00  0.00     0.179 C 
BRANCH  17  22
ATOM     22  C   UNL     1      14.829  19.774  15.881  1.00  0.00     0.225 C 
BRANCH  22  23
ATOM     23  O   UNL     1      14.052  20.620  16.685  1.00  0.00    -0.391 OA
ATOM     24  H   UNL     1      13.129  20.257  16.654  1.00  0.00     0.210 HD
ENDBRANCH  22  23
ENDBRANCH  17  22
BRANCH  18  25
ATOM     25  O   UNL     1      15.879  16.202  16.135  1.00  0.00    -0.385 OA
ATOM     26  H   UNL     1      16.780  16.336  15.737  1.00  0.00     0.211 HD
ENDBRANCH  18  25
BRANCH  20  27
ATOM     27  O   UNL     1      13.422  15.503  15.523  1.00  0.00    -0.387 OA
ATOM     28  H   UNL     1      12.532  15.268  15.898  1.00  0.00     0.211 HD
ENDBRANCH  20  27
BRANCH  21  29
ATOM     29  C   UNL     1      11.795  17.792  17.267  1.00  0.00     0.191 C 
BRANCH  29  30
ATOM     30  O   UNL     1      11.770  19.135  17.670  1.00  0.00    -0.394 OA
ATOM     31  H   UNL     1      12.428  19.622  17.104  1.00  0.00     0.210 HD
ENDBRANCH  29  30
ENDBRANCH  21  29
ENDBRANCH   1  17
TORSDOF 13
ENDMDL
