MODEL 1
REMARK VINA RESULT:    -6.127      0.000      0.000
REMARK INTER + INTRA:         -10.396
REMARK INTER:                  -8.455
REMARK INTRA:                  -1.941
REMARK UNBOUND:                -1.941
REMARK SMILES CC[C@@H](CC[C@H](C)[C@@H]1CC[C@H]2[C@H]3CC=C4C[C@H](O)CC[C@]4(C)[C@H]3CC[C@]21C)C(C)C
REMARK SMILES IDX 5 1 4 2 3 3 2 4 1 5 28 6 29 7 30 8 6 9 7 10 8 11 9 12 26 13
REMARK SMILES IDX 10 14 11 15 25 16 27 17 12 18 24 19 23 20 13 21 21 22 14 23
REMARK SMILES IDX 15 24 20 25 22 26 16 27 19 28 17 29 18 30
REMARK H PARENT 18 31
REMARK Flexibility Score: inf
ROOT
ATOM      1  C   UNL     1      88.243   4.907 -28.068  1.00  0.00     0.004 C 
ENDROOT
BRANCH   1   2
ATOM      2  C   UNL     1      87.835   4.185 -29.368  1.00  0.00     0.004 C 
BRANCH   2   3
ATOM      3  C   UNL     1      88.936   3.981 -30.434  1.00  0.00    -0.009 C 
BRANCH   3   4
ATOM      4  C   UNL     1      89.496   5.340 -30.943  1.00  0.00     0.000 C 
ATOM      5  C   UNL     1      90.994   5.291 -31.286  1.00  0.00     0.004 C 
ENDBRANCH   3   4
BRANCH   3   6
ATOM      6  C   UNL     1      88.525   3.018 -31.602  1.00  0.00    -0.014 C 
ATOM      7  C   UNL     1      87.025   2.650 -31.563  1.00  0.00     0.007 C 
ATOM      8  C   UNL     1      89.351   1.723 -31.596  1.00  0.00     0.007 C 
ENDBRANCH   3   6
ENDBRANCH   2   3
ENDBRANCH   1   2
BRANCH   1   9
ATOM      9  C   UNL     1      88.746   4.048 -26.874  1.00  0.00    -0.011 C 
ATOM     10  C   UNL     1      87.941   4.398 -25.606  1.00  0.00     0.008 C 
BRANCH   9  11
ATOM     11  C   UNL     1      90.273   4.336 -26.720  1.00  0.00    -0.002 C 
ATOM     12  C   UNL     1      90.739   5.537 -27.560  1.00  0.00     0.005 C 
ATOM     13  C   UNL     1      91.362   3.256 -26.952  1.00  0.00    -0.026 C 
ATOM     14  C   UNL     1      92.263   5.404 -27.724  1.00  0.00     0.005 C 
ATOM     15  C   UNL     1      92.656   4.135 -26.961  1.00  0.00    -0.001 C 
ATOM     16  C   UNL     1      91.426   2.162 -25.835  1.00  0.00     0.007 C 
ATOM     17  C   UNL     1      91.197   2.551 -28.331  1.00  0.00     0.012 C 
ATOM     18  C   UNL     1      93.300   4.379 -25.523  1.00  0.00     0.000 C 
ATOM     19  C   UNL     1      92.871   1.856 -25.445  1.00  0.00     0.005 C 
ATOM     20  C   UNL     1      93.465   3.059 -24.660  1.00  0.00     0.003 C 
ATOM     21  C   UNL     1      92.720   5.584 -24.712  1.00  0.00     0.031 C 
ATOM     22  C   UNL     1      93.011   3.157 -23.117  1.00  0.00    -0.008 C 
ATOM     23  C   UNL     1      91.727   5.208 -23.666  1.00  0.00    -0.027 C 
ATOM     24  C   UNL     1      91.864   4.137 -22.887  1.00  0.00    -0.065 C 
ATOM     25  C   UNL     1      94.172   3.698 -22.236  1.00  0.00     0.014 C 
ATOM     26  C   UNL     1      92.600   1.753 -22.593  1.00  0.00     0.016 C 
ATOM     27  C   UNL     1      91.296   4.231 -21.484  1.00  0.00     0.063 C 
ATOM     28  C   UNL     1      93.785   3.917 -20.753  1.00  0.00     0.033 C 
ATOM     29  C   UNL     1      92.416   4.638 -20.510  1.00  0.00     0.118 C 
BRANCH  29  30
ATOM     30  O   UNL     1      92.599   6.034 -20.573  1.00  0.00    -0.393 OA
ATOM     31  H   UNL     1      92.900   6.332 -19.672  1.00  0.00     0.210 HD
ENDBRANCH  29  30
ENDBRANCH   9  11
ENDBRANCH   1   9
TORSDOF 7
ENDMDL
MODEL 2
REMARK VINA RESULT:    -6.026      2.538      6.296
REMARK INTER + INTRA:         -10.258
REMARK INTER:                  -7.875
REMARK INTRA:                  -2.383
REMARK UNBOUND:                -1.941
REMARK SMILES CC[C@@H](CC[C@H](C)[C@@H]1CC[C@H]2[C@H]3CC=C4C[C@H](O)CC[C@]4(C)[C@H]3CC[C@]21C)C(C)C
REMARK SMILES IDX 5 1 4 2 3 3 2 4 1 5 28 6 29 7 30 8 6 9 7 10 8 11 9 12 26 13
REMARK SMILES IDX 10 14 11 15 25 16 27 17 12 18 24 19 23 20 13 21 21 22 14 23
REMARK SMILES IDX 15 24 20 25 22 26 16 27 19 28 17 29 18 30
REMARK H PARENT 18 31
REMARK Flexibility Score: inf
ROOT
ATOM      1  C   UNL     1      89.362   2.606 -22.198  1.00  0.00     0.004 C 
ENDROOT
BRANCH   1   2
ATOM      2  C   UNL     1      87.980   3.273 -22.345  1.00  0.00     0.004 C 
BRANCH   2   3
ATOM      3  C   UNL     1      87.237   3.060 -23.685  1.00  0.00    -0.009 C 
BRANCH   3   4
ATOM      4  C   UNL     1      87.748   1.792 -24.425  1.00  0.00     0.000 C 
ATOM      5  C   UNL     1      86.867   0.553 -24.189  1.00  0.00     0.004 C 
ENDBRANCH   3   4
BRANCH   3   6
ATOM      6  C   UNL     1      87.204   4.330 -24.607  1.00  0.00    -0.014 C 
ATOM      7  C   UNL     1      86.870   5.618 -23.824  1.00  0.00     0.007 C 
ATOM      8  C   UNL     1      86.200   4.177 -25.759  1.00  0.00     0.007 C 
ENDBRANCH   3   6
ENDBRANCH   2   3
ENDBRANCH   1   2
BRANCH   1   9
ATOM      9  C   UNL     1      90.629   3.497 -22.330  1.00  0.00    -0.011 C 
ATOM     10  C   UNL     1      90.217   4.982 -22.391  1.00  0.00     0.008 C 
BRANCH   9  11
ATOM     11  C   UNL     1      91.382   3.024 -23.613  1.00  0.00    -0.002 C 
ATOM     12  C   UNL     1      91.599   1.503 -23.648  1.00  0.00     0.005 C 
ATOM     13  C   UNL     1      92.744   3.620 -24.058  1.00  0.00    -0.026 C 
ATOM     14  C   UNL     1      92.743   1.236 -24.643  1.00  0.00     0.005 C 
ATOM     15  C   UNL     1      93.158   2.610 -25.179  1.00  0.00    -0.001 C 
ATOM     16  C   UNL     1      92.653   5.080 -24.613  1.00  0.00     0.007 C 
ATOM     17  C   UNL     1      93.795   3.589 -22.908  1.00  0.00     0.012 C 
ATOM     18  C   UNL     1      92.605   2.969 -26.630  1.00  0.00     0.000 C 
ATOM     19  C   UNL     1      93.503   5.244 -25.873  1.00  0.00     0.005 C 
ATOM     20  C   UNL     1      92.839   4.480 -27.052  1.00  0.00     0.003 C 
ATOM     21  C   UNL     1      91.168   2.446 -26.960  1.00  0.00     0.031 C 
ATOM     22  C   UNL     1      91.586   5.230 -27.732  1.00  0.00    -0.008 C 
ATOM     23  C   UNL     1      90.091   3.468 -26.829  1.00  0.00    -0.027 C 
ATOM     24  C   UNL     1      90.236   4.731 -27.224  1.00  0.00    -0.065 C 
ATOM     25  C   UNL     1      91.551   4.965 -29.263  1.00  0.00     0.014 C 
ATOM     26  C   UNL     1      91.690   6.762 -27.493  1.00  0.00     0.016 C 
ATOM     27  C   UNL     1      88.994   5.440 -27.728  1.00  0.00     0.063 C 
ATOM     28  C   UNL     1      90.318   5.570 -29.978  1.00  0.00     0.033 C 
ATOM     29  C   UNL     1      88.943   5.341 -29.264  1.00  0.00     0.118 C 
BRANCH  29  30
ATOM     30  O   UNL     1      88.423   4.084 -29.630  1.00  0.00    -0.393 OA
ATOM     31  H   UNL     1      87.963   4.200 -30.505  1.00  0.00     0.210 HD
ENDBRANCH  29  30
ENDBRANCH   9  11
ENDBRANCH   1   9
TORSDOF 7
ENDMDL
MODEL 3
REMARK VINA RESULT:    -5.991      1.574      4.193
REMARK INTER + INTRA:         -10.209
REMARK INTER:                  -8.230
REMARK INTRA:                  -1.979
REMARK UNBOUND:                -1.941
REMARK SMILES CC[C@@H](CC[C@H](C)[C@@H]1CC[C@H]2[C@H]3CC=C4C[C@H](O)CC[C@]4(C)[C@H]3CC[C@]21C)C(C)C
REMARK SMILES IDX 5 1 4 2 3 3 2 4 1 5 28 6 29 7 30 8 6 9 7 10 8 11 9 12 26 13
REMARK SMILES IDX 10 14 11 15 25 16 27 17 12 18 24 19 23 20 13 21 21 22 14 23
REMARK SMILES IDX 15 24 20 25 22 26 16 27 19 28 17 29 18 30
REMARK H PARENT 18 31
REMARK Flexibility Score: inf
ROOT
ATOM      1  C   UNL     1      88.223   3.333 -26.228  1.00  0.00     0.004 C 
ENDROOT
BRANCH   1   2
ATOM      2  C   UNL     1      87.472   3.452 -24.887  1.00  0.00     0.004 C 
BRANCH   2   3
ATOM      3  C   UNL     1      88.308   3.841 -23.645  1.00  0.00    -0.009 C 
BRANCH   3   4
ATOM      4  C   UNL     1      88.194   2.770 -22.524  1.00  0.00     0.000 C 
ATOM      5  C   UNL     1      88.796   1.410 -22.917  1.00  0.00     0.004 C 
ENDBRANCH   3   4
BRANCH   3   6
ATOM      6  C   UNL     1      88.041   5.297 -23.125  1.00  0.00    -0.014 C 
ATOM      7  C   UNL     1      88.015   5.376 -21.583  1.00  0.00     0.007 C 
ATOM      8  C   UNL     1      86.725   5.869 -23.672  1.00  0.00     0.007 C 
ENDBRANCH   3   6
ENDBRANCH   2   3
ENDBRANCH   1   2
BRANCH   1   9
ATOM      9  C   UNL     1      88.622   4.640 -26.969  1.00  0.00    -0.011 C 
ATOM     10  C   UNL     1      88.088   4.602 -28.415  1.00  0.00     0.008 C 
BRANCH   9  11
ATOM     11  C   UNL     1      90.178   4.742 -26.901  1.00  0.00    -0.002 C 
ATOM     12  C   UNL     1      90.731   5.933 -27.701  1.00  0.00     0.005 C 
ATOM     13  C   UNL     1      91.117   3.562 -27.266  1.00  0.00    -0.026 C 
ATOM     14  C   UNL     1      92.217   5.638 -27.974  1.00  0.00     0.005 C 
ATOM     15  C   UNL     1      92.503   4.287 -27.312  1.00  0.00    -0.001 C 
ATOM     16  C   UNL     1      91.118   2.398 -26.220  1.00  0.00     0.007 C 
ATOM     17  C   UNL     1      90.788   2.969 -28.669  1.00  0.00     0.012 C 
ATOM     18  C   UNL     1      93.256   4.363 -25.909  1.00  0.00     0.000 C 
ATOM     19  C   UNL     1      92.539   1.905 -25.946  1.00  0.00     0.005 C 
ATOM     20  C   UNL     1      93.316   2.980 -25.135  1.00  0.00     0.003 C 
ATOM     21  C   UNL     1      92.872   5.572 -24.994  1.00  0.00     0.031 C 
ATOM     22  C   UNL     1      92.970   3.030 -23.562  1.00  0.00    -0.008 C 
ATOM     23  C   UNL     1      91.906   5.244 -23.906  1.00  0.00    -0.027 C 
ATOM     24  C   UNL     1      91.962   4.118 -23.201  1.00  0.00    -0.065 C 
ATOM     25  C   UNL     1      94.237   3.378 -22.732  1.00  0.00     0.014 C 
ATOM     26  C   UNL     1      92.429   1.651 -23.093  1.00  0.00     0.016 C 
ATOM     27  C   UNL     1      91.495   4.185 -21.760  1.00  0.00     0.063 C 
ATOM     28  C   UNL     1      93.969   3.543 -21.216  1.00  0.00     0.033 C 
ATOM     29  C   UNL     1      92.711   4.399 -20.841  1.00  0.00     0.118 C 
BRANCH  29  30
ATOM     30  O   UNL     1      93.053   5.766 -20.837  1.00  0.00    -0.393 OA
ATOM     31  H   UNL     1      92.948   6.092 -19.903  1.00  0.00     0.210 HD
ENDBRANCH  29  30
ENDBRANCH   9  11
ENDBRANCH   1   9
TORSDOF 7
ENDMDL
MODEL 4
REMARK VINA RESULT:    -5.975      2.696      7.712
REMARK INTER + INTRA:         -10.187
REMARK INTER:                  -8.148
REMARK INTRA:                  -2.039
REMARK UNBOUND:                -1.941
REMARK SMILES CC[C@@H](CC[C@H](C)[C@@H]1CC[C@H]2[C@H]3CC=C4C[C@H](O)CC[C@]4(C)[C@H]3CC[C@]21C)C(C)C
REMARK SMILES IDX 5 1 4 2 3 3 2 4 1 5 28 6 29 7 30 8 6 9 7 10 8 11 9 12 26 13
REMARK SMILES IDX 10 14 11 15 25 16 27 17 12 18 24 19 23 20 13 21 21 22 14 23
REMARK SMILES IDX 15 24 20 25 22 26 16 27 19 28 17 29 18 30
REMARK H PARENT 18 31
REMARK Flexibility Score: inf
ROOT
ATOM      1  C   UNL     1      89.196   3.313 -22.173  1.00  0.00     0.004 C 
ENDROOT
BRANCH   1   2
ATOM      2  C   UNL     1      89.258   3.720 -20.687  1.00  0.00     0.004 C 
BRANCH   2   3
ATOM      3  C   UNL     1      90.425   4.640 -20.259  1.00  0.00    -0.009 C 
BRANCH   3   4
ATOM      4  C   UNL     1      91.364   3.934 -19.241  1.00  0.00     0.000 C 
ATOM      5  C   UNL     1      92.171   2.779 -19.858  1.00  0.00     0.004 C 
ENDBRANCH   3   4
BRANCH   3   6
ATOM      6  C   UNL     1      89.973   6.065 -19.781  1.00  0.00    -0.014 C 
ATOM      7  C   UNL     1      90.026   6.217 -18.245  1.00  0.00     0.007 C 
ATOM      8  C   UNL     1      88.555   6.409 -20.263  1.00  0.00     0.007 C 
ENDBRANCH   3   6
ENDBRANCH   2   3
ENDBRANCH   1   2
BRANCH   1   9
ATOM      9  C   UNL     1      89.618   4.360 -23.242  1.00  0.00    -0.011 C 
ATOM     10  C   UNL     1      88.428   4.654 -24.179  1.00  0.00     0.008 C 
BRANCH   9  11
ATOM     11  C   UNL     1      90.849   3.766 -23.996  1.00  0.00    -0.002 C 
ATOM     12  C   UNL     1      91.341   2.445 -23.382  1.00  0.00     0.005 C 
ATOM     13  C   UNL     1      92.145   4.576 -24.262  1.00  0.00    -0.026 C 
ATOM     14  C   UNL     1      92.791   2.243 -23.858  1.00  0.00     0.005 C 
ATOM     15  C   UNL     1      93.107   3.444 -24.754  1.00  0.00    -0.001 C 
ATOM     16  C   UNL     1      91.988   5.698 -25.342  1.00  0.00     0.007 C 
ATOM     17  C   UNL     1      92.709   5.215 -22.958  1.00  0.00     0.012 C 
ATOM     18  C   UNL     1      93.045   3.158 -26.321  1.00  0.00     0.000 C 
ATOM     19  C   UNL     1      93.182   5.715 -26.296  1.00  0.00     0.005 C 
ATOM     20  C   UNL     1      93.130   4.464 -27.217  1.00  0.00     0.003 C 
ATOM     21  C   UNL     1      91.940   2.155 -26.788  1.00  0.00     0.031 C 
ATOM     22  C   UNL     1      92.082   4.559 -28.437  1.00  0.00    -0.008 C 
ATOM     23  C   UNL     1      90.718   2.795 -27.350  1.00  0.00    -0.027 C 
ATOM     24  C   UNL     1      90.757   3.858 -28.149  1.00  0.00    -0.065 C 
ATOM     25  C   UNL     1      92.640   3.839 -29.698  1.00  0.00     0.014 C 
ATOM     26  C   UNL     1      91.811   6.047 -28.791  1.00  0.00     0.016 C 
ATOM     27  C   UNL     1      89.665   3.972 -29.195  1.00  0.00     0.063 C 
ATOM     28  C   UNL     1      91.649   3.798 -30.887  1.00  0.00     0.033 C 
ATOM     29  C   UNL     1      90.178   3.398 -30.528  1.00  0.00     0.118 C 
BRANCH  29  30
ATOM     30  O   UNL     1      90.063   1.994 -30.502  1.00  0.00    -0.393 OA
ATOM     31  H   UNL     1      90.970   1.628 -30.314  1.00  0.00     0.210 HD
ENDBRANCH  29  30
ENDBRANCH   9  11
ENDBRANCH   1   9
TORSDOF 7
ENDMDL
MODEL 5
REMARK VINA RESULT:    -5.932      6.496      8.606
REMARK INTER + INTRA:         -10.127
REMARK INTER:                  -8.582
REMARK INTRA:                  -1.546
REMARK UNBOUND:                -1.941
REMARK SMILES CC[C@@H](CC[C@H](C)[C@@H]1CC[C@H]2[C@H]3CC=C4C[C@H](O)CC[C@]4(C)[C@H]3CC[C@]21C)C(C)C
REMARK SMILES IDX 5 1 4 2 3 3 2 4 1 5 28 6 29 7 30 8 6 9 7 10 8 11 9 12 26 13
REMARK SMILES IDX 10 14 11 15 25 16 27 17 12 18 24 19 23 20 13 21 21 22 14 23
REMARK SMILES IDX 15 24 20 25 22 26 16 27 19 28 17 29 18 30
REMARK H PARENT 18 31
REMARK Flexibility Score: inf
ROOT
ATOM      1  C   UNL     1      98.605   3.029 -24.808  1.00  0.00     0.004 C 
ENDROOT
BRANCH   1   2
ATOM      2  C   UNL     1      98.835   3.827 -26.107  1.00  0.00     0.004 C 
BRANCH   2   3
ATOM      3  C   UNL     1      98.494   3.115 -27.437  1.00  0.00    -0.009 C 
BRANCH   3   4
ATOM      4  C   UNL     1      99.754   2.464 -28.075  1.00  0.00     0.000 C 
ATOM      5  C   UNL     1     100.125   1.111 -27.443  1.00  0.00     0.004 C 
ENDBRANCH   3   4
BRANCH   3   6
ATOM      6  C   UNL     1      97.691   4.005 -28.451  1.00  0.00    -0.014 C 
ATOM      7  C   UNL     1      97.502   3.315 -29.820  1.00  0.00     0.007 C 
ATOM      8  C   UNL     1      98.360   5.369 -28.672  1.00  0.00     0.007 C 
ENDBRANCH   3   6
ENDBRANCH   2   3
ENDBRANCH   1   2
BRANCH   1   9
ATOM      9  C   UNL     1      97.611   1.835 -24.841  1.00  0.00    -0.011 C 
ATOM     10  C   UNL     1      96.188   2.334 -24.514  1.00  0.00     0.008 C 
BRANCH   9  11
ATOM     11  C   UNL     1      98.134   0.782 -23.814  1.00  0.00    -0.002 C 
ATOM     12  C   UNL     1      99.629   0.952 -23.497  1.00  0.00     0.005 C 
ATOM     13  C   UNL     1      97.950  -0.746 -24.006  1.00  0.00    -0.026 C 
ATOM     14  C   UNL     1     100.118  -0.385 -22.913  1.00  0.00     0.005 C 
ATOM     15  C   UNL     1      98.891  -1.302 -22.886  1.00  0.00    -0.001 C 
ATOM     16  C   UNL     1      96.479  -1.243 -23.812  1.00  0.00     0.007 C 
ATOM     17  C   UNL     1      98.456  -1.221 -25.401  1.00  0.00     0.012 C 
ATOM     18  C   UNL     1      98.197  -1.467 -21.461  1.00  0.00     0.000 C 
ATOM     19  C   UNL     1      96.436  -2.529 -22.987  1.00  0.00     0.005 C 
ATOM     20  C   UNL     1      96.798  -2.213 -21.509  1.00  0.00     0.003 C 
ATOM     21  C   UNL     1      98.192  -0.193 -20.554  1.00  0.00     0.031 C 
ATOM     22  C   UNL     1      95.610  -1.552 -20.643  1.00  0.00    -0.008 C 
ATOM     23  C   UNL     1      96.906   0.561 -20.550  1.00  0.00    -0.027 C 
ATOM     24  C   UNL     1      95.716  -0.033 -20.535  1.00  0.00    -0.065 C 
ATOM     25  C   UNL     1      95.658  -2.054 -19.172  1.00  0.00     0.014 C 
ATOM     26  C   UNL     1      94.233  -1.930 -21.255  1.00  0.00     0.016 C 
ATOM     27  C   UNL     1      94.592   0.695 -19.823  1.00  0.00     0.063 C 
ATOM     28  C   UNL     1      94.608  -1.390 -18.248  1.00  0.00     0.033 C 
ATOM     29  C   UNL     1      94.477   0.166 -18.382  1.00  0.00     0.118 C 
BRANCH  29  30
ATOM     30  O   UNL     1      95.448   0.793 -17.579  1.00  0.00    -0.393 OA
ATOM     31  H   UNL     1      96.226   1.002 -18.166  1.00  0.00     0.210 HD
ENDBRANCH  29  30
ENDBRANCH   9  11
ENDBRANCH   1   9
TORSDOF 7
ENDMDL
MODEL 6
REMARK VINA RESULT:    -5.882      3.385      6.448
REMARK INTER + INTRA:         -10.058
REMARK INTER:                  -8.605
REMARK INTRA:                  -1.454
REMARK UNBOUND:                -1.941
REMARK SMILES CC[C@@H](CC[C@H](C)[C@@H]1CC[C@H]2[C@H]3CC=C4C[C@H](O)CC[C@]4(C)[C@H]3CC[C@]21C)C(C)C
REMARK SMILES IDX 5 1 4 2 3 3 2 4 1 5 28 6 29 7 30 8 6 9 7 10 8 11 9 12 26 13
REMARK SMILES IDX 10 14 11 15 25 16 27 17 12 18 24 19 23 20 13 21 21 22 14 23
REMARK SMILES IDX 15 24 20 25 22 26 16 27 19 28 17 29 18 30
REMARK H PARENT 18 31
REMARK Flexibility Score: inf
ROOT
ATOM      1  C   UNL     1      95.188   3.298 -27.260  1.00  0.00     0.004 C 
ENDROOT
BRANCH   1   2
ATOM      2  C   UNL     1      96.651   3.166 -27.728  1.00  0.00     0.004 C 
BRANCH   2   3
ATOM      3  C   UNL     1      97.671   4.168 -27.138  1.00  0.00    -0.009 C 
BRANCH   3   4
ATOM      4  C   UNL     1      98.229   5.123 -28.231  1.00  0.00     0.000 C 
ATOM      5  C   UNL     1      99.764   5.228 -28.221  1.00  0.00     0.004 C 
ENDBRANCH   3   4
BRANCH   3   6
ATOM      6  C   UNL     1      98.802   3.498 -26.281  1.00  0.00    -0.014 C 
ATOM      7  C   UNL     1      98.929   1.983 -26.552  1.00  0.00     0.007 C 
ATOM      8  C   UNL     1      98.584   3.714 -24.775  1.00  0.00     0.007 C 
ENDBRANCH   3   6
ENDBRANCH   2   3
ENDBRANCH   1   2
BRANCH   1   9
ATOM      9  C   UNL     1      94.907   3.380 -25.733  1.00  0.00    -0.011 C 
ATOM     10  C   UNL     1      95.517   2.153 -25.026  1.00  0.00     0.008 C 
BRANCH   9  11
ATOM     11  C   UNL     1      93.358   3.468 -25.563  1.00  0.00    -0.002 C 
ATOM     12  C   UNL     1      92.599   3.213 -26.875  1.00  0.00     0.005 C 
ATOM     13  C   UNL     1      92.647   4.698 -24.939  1.00  0.00    -0.026 C 
ATOM     14  C   UNL     1      91.191   3.809 -26.703  1.00  0.00     0.005 C 
ATOM     15  C   UNL     1      91.154   4.387 -25.284  1.00  0.00    -0.001 C 
ATOM     16  C   UNL     1      92.856   4.843 -23.394  1.00  0.00     0.007 C 
ATOM     17  C   UNL     1      93.079   6.029 -25.625  1.00  0.00     0.012 C 
ATOM     18  C   UNL     1      90.399   3.489 -24.205  1.00  0.00     0.000 C 
ATOM     19  C   UNL     1      91.547   5.207 -22.694  1.00  0.00     0.005 C 
ATOM     20  C   UNL     1      90.589   3.984 -22.710  1.00  0.00     0.003 C 
ATOM     21  C   UNL     1      90.558   1.942 -24.374  1.00  0.00     0.031 C 
ATOM     22  C   UNL     1      90.920   2.843 -21.621  1.00  0.00    -0.008 C 
ATOM     23  C   UNL     1      91.566   1.320 -23.469  1.00  0.00    -0.027 C 
ATOM     24  C   UNL     1      91.714   1.674 -22.195  1.00  0.00    -0.065 C 
ATOM     25  C   UNL     1      89.610   2.201 -21.083  1.00  0.00     0.014 C 
ATOM     26  C   UNL     1      91.700   3.459 -20.427  1.00  0.00     0.016 C 
ATOM     27  C   UNL     1      92.162   0.593 -21.229  1.00  0.00     0.063 C 
ATOM     28  C   UNL     1      89.844   1.025 -20.103  1.00  0.00     0.033 C 
ATOM     29  C   UNL     1      90.926  -0.018 -20.544  1.00  0.00     0.118 C 
BRANCH  29  30
ATOM     30  O   UNL     1      90.343  -0.969 -21.403  1.00  0.00    -0.393 OA
ATOM     31  H   UNL     1      91.045  -1.247 -22.053  1.00  0.00     0.210 HD
ENDBRANCH  29  30
ENDBRANCH   9  11
ENDBRANCH   1   9
TORSDOF 7
ENDMDL
MODEL 7
REMARK VINA RESULT:    -5.874      2.786      7.193
REMARK INTER + INTRA:         -10.048
REMARK INTER:                  -8.109
REMARK INTRA:                  -1.938
REMARK UNBOUND:                -1.941
REMARK SMILES CC[C@@H](CC[C@H](C)[C@@H]1CC[C@H]2[C@H]3CC=C4C[C@H](O)CC[C@]4(C)[C@H]3CC[C@]21C)C(C)C
REMARK SMILES IDX 5 1 4 2 3 3 2 4 1 5 28 6 29 7 30 8 6 9 7 10 8 11 9 12 26 13
REMARK SMILES IDX 10 14 11 15 25 16 27 17 12 18 24 19 23 20 13 21 21 22 14 23
REMARK SMILES IDX 15 24 20 25 22 26 16 27 19 28 17 29 18 30
REMARK H PARENT 18 31
REMARK Flexibility Score: inf
ROOT
ATOM      1  C   UNL     1      95.335   1.604 -23.168  1.00  0.00     0.004 C 
ENDROOT
BRANCH   1   2
ATOM      2  C   UNL     1      96.226   1.669 -24.425  1.00  0.00     0.004 C 
BRANCH   2   3
ATOM      3  C   UNL     1      96.598   3.076 -24.948  1.00  0.00    -0.009 C 
BRANCH   3   4
ATOM      4  C   UNL     1      95.896   3.385 -26.301  1.00  0.00     0.000 C 
ATOM      5  C   UNL     1      94.571   4.150 -26.138  1.00  0.00     0.004 C 
ENDBRANCH   3   4
BRANCH   3   6
ATOM      6  C   UNL     1      98.142   3.356 -24.988  1.00  0.00    -0.014 C 
ATOM      7  C   UNL     1      98.596   3.969 -26.330  1.00  0.00     0.007 C 
ATOM      8  C   UNL     1      98.962   2.084 -24.722  1.00  0.00     0.007 C 
ENDBRANCH   3   6
ENDBRANCH   2   3
ENDBRANCH   1   2
BRANCH   1   9
ATOM      9  C   UNL     1      93.841   1.214 -23.342  1.00  0.00    -0.011 C 
ATOM     10  C   UNL     1      93.597   0.720 -24.782  1.00  0.00     0.008 C 
BRANCH   9  11
ATOM     11  C   UNL     1      92.999   2.479 -22.986  1.00  0.00    -0.002 C 
ATOM     12  C   UNL     1      93.862   3.643 -22.473  1.00  0.00     0.005 C 
ATOM     13  C   UNL     1      91.787   2.440 -22.018  1.00  0.00    -0.026 C 
ATOM     14  C   UNL     1      92.925   4.592 -21.705  1.00  0.00     0.005 C 
ATOM     15  C   UNL     1      91.529   3.968 -21.802  1.00  0.00    -0.001 C 
ATOM     16  C   UNL     1      90.523   1.727 -22.603  1.00  0.00     0.007 C 
ATOM     17  C   UNL     1      92.151   1.772 -20.658  1.00  0.00     0.012 C 
ATOM     18  C   UNL     1      90.560   4.634 -22.879  1.00  0.00     0.000 C 
ATOM     19  C   UNL     1      89.251   2.514 -22.288  1.00  0.00     0.005 C 
ATOM     20  C   UNL     1      89.223   3.819 -23.132  1.00  0.00     0.003 C 
ATOM     21  C   UNL     1      91.244   5.133 -24.194  1.00  0.00     0.031 C 
ATOM     22  C   UNL     1      88.790   3.626 -24.672  1.00  0.00    -0.008 C 
ATOM     23  C   UNL     1      91.102   4.209 -25.356  1.00  0.00    -0.027 C 
ATOM     24  C   UNL     1      89.977   3.553 -25.628  1.00  0.00    -0.065 C 
ATOM     25  C   UNL     1      87.962   4.846 -25.167  1.00  0.00     0.014 C 
ATOM     26  C   UNL     1      87.927   2.343 -24.825  1.00  0.00     0.016 C 
ATOM     27  C   UNL     1      89.680   3.274 -27.089  1.00  0.00     0.063 C 
ATOM     28  C   UNL     1      87.590   4.785 -26.668  1.00  0.00     0.033 C 
ATOM     29  C   UNL     1      88.751   4.372 -27.636  1.00  0.00     0.118 C 
BRANCH  29  30
ATOM     30  O   UNL     1      89.517   5.506 -27.966  1.00  0.00    -0.393 OA
ATOM     31  H   UNL     1      88.957   6.306 -27.773  1.00  0.00     0.210 HD
ENDBRANCH  29  30
ENDBRANCH   9  11
ENDBRANCH   1   9
TORSDOF 7
ENDMDL
MODEL 8
REMARK VINA RESULT:    -5.704      3.227      6.943
REMARK INTER + INTRA:          -9.812
REMARK INTER:                  -8.331
REMARK INTRA:                  -1.481
REMARK UNBOUND:                -1.941
REMARK SMILES CC[C@@H](CC[C@H](C)[C@@H]1CC[C@H]2[C@H]3CC=C4C[C@H](O)CC[C@]4(C)[C@H]3CC[C@]21C)C(C)C
REMARK SMILES IDX 5 1 4 2 3 3 2 4 1 5 28 6 29 7 30 8 6 9 7 10 8 11 9 12 26 13
REMARK SMILES IDX 10 14 11 15 25 16 27 17 12 18 24 19 23 20 13 21 21 22 14 23
REMARK SMILES IDX 15 24 20 25 22 26 16 27 19 28 17 29 18 30
REMARK H PARENT 18 31
REMARK Flexibility Score: inf
ROOT
ATOM      1  C   UNL     1      94.012   4.263 -25.540  1.00  0.00     0.004 C 
ENDROOT
BRANCH   1   2
ATOM      2  C   UNL     1      95.175   3.923 -26.493  1.00  0.00     0.004 C 
BRANCH   2   3
ATOM      3  C   UNL     1      96.229   2.913 -25.981  1.00  0.00    -0.009 C 
BRANCH   3   4
ATOM      4  C   UNL     1      96.003   2.563 -24.483  1.00  0.00     0.000 C 
ATOM      5  C   UNL     1      96.097   1.056 -24.189  1.00  0.00     0.004 C 
ENDBRANCH   3   4
BRANCH   3   6
ATOM      6  C   UNL     1      97.712   3.324 -26.292  1.00  0.00    -0.014 C 
ATOM      7  C   UNL     1      98.493   3.721 -25.021  1.00  0.00     0.007 C 
ATOM      8  C   UNL     1      97.787   4.481 -27.301  1.00  0.00     0.007 C 
ENDBRANCH   3   6
ENDBRANCH   2   3
ENDBRANCH   1   2
BRANCH   1   9
ATOM      9  C   UNL     1      92.695   3.447 -25.663  1.00  0.00    -0.011 C 
ATOM     10  C   UNL     1      91.930   3.882 -26.930  1.00  0.00     0.008 C 
BRANCH   9  11
ATOM     11  C   UNL     1      91.884   3.695 -24.352  1.00  0.00    -0.002 C 
ATOM     12  C   UNL     1      92.504   4.789 -23.468  1.00  0.00     0.005 C 
ATOM     13  C   UNL     1      91.516   2.560 -23.361  1.00  0.00    -0.026 C 
ATOM     14  C   UNL     1      91.947   4.588 -22.048  1.00  0.00     0.005 C 
ATOM     15  C   UNL     1      90.999   3.388 -22.139  1.00  0.00    -0.001 C 
ATOM     16  C   UNL     1      90.417   1.580 -23.891  1.00  0.00     0.007 C 
ATOM     17  C   UNL     1      92.764   1.727 -22.941  1.00  0.00     0.012 C 
ATOM     18  C   UNL     1      89.447   3.750 -22.194  1.00  0.00     0.000 C 
ATOM     19  C   UNL     1      89.391   1.264 -22.803  1.00  0.00     0.005 C 
ATOM     20  C   UNL     1      88.511   2.517 -22.536  1.00  0.00     0.003 C 
ATOM     21  C   UNL     1      89.078   5.049 -22.982  1.00  0.00     0.031 C 
ATOM     22  C   UNL     1      87.355   2.783 -23.627  1.00  0.00    -0.008 C 
ATOM     23  C   UNL     1      88.574   4.813 -24.365  1.00  0.00    -0.027 C 
ATOM     24  C   UNL     1      87.744   3.821 -24.676  1.00  0.00    -0.065 C 
ATOM     25  C   UNL     1      86.084   3.368 -22.949  1.00  0.00     0.014 C 
ATOM     26  C   UNL     1      86.976   1.453 -24.335  1.00  0.00     0.016 C 
ATOM     27  C   UNL     1      86.764   4.073 -25.805  1.00  0.00     0.063 C 
ATOM     28  C   UNL     1      84.959   3.746 -23.943  1.00  0.00     0.033 C 
ATOM     29  C   UNL     1      85.419   4.536 -25.216  1.00  0.00     0.118 C 
BRANCH  29  30
ATOM     30  O   UNL     1      85.492   5.910 -24.918  1.00  0.00    -0.393 OA
ATOM     31  H   UNL     1      84.994   6.054 -24.068  1.00  0.00     0.210 HD
ENDBRANCH  29  30
ENDBRANCH   9  11
ENDBRANCH   1   9
TORSDOF 7
ENDMDL
MODEL 9
REMARK VINA RESULT:    -5.548      2.703      6.107
REMARK INTER + INTRA:          -9.597
REMARK INTER:                  -7.439
REMARK INTRA:                  -2.159
REMARK UNBOUND:                -1.941
REMARK SMILES CC[C@@H](CC[C@H](C)[C@@H]1CC[C@H]2[C@H]3CC=C4C[C@H](O)CC[C@]4(C)[C@H]3CC[C@]21C)C(C)C
REMARK SMILES IDX 5 1 4 2 3 3 2 4 1 5 28 6 29 7 30 8 6 9 7 10 8 11 9 12 26 13
REMARK SMILES IDX 10 14 11 15 25 16 27 17 12 18 24 19 23 20 13 21 21 22 14 23
REMARK SMILES IDX 15 24 20 25 22 26 16 27 19 28 17 29 18 30
REMARK H PARENT 18 31
REMARK Flexibility Score: inf
ROOT
ATOM      1  C   UNL     1      87.466   3.019 -21.539  1.00  0.00     0.004 C 
ENDROOT
BRANCH   1   2
ATOM      2  C   UNL     1      86.246   3.593 -22.288  1.00  0.00     0.004 C 
BRANCH   2   3
ATOM      3  C   UNL     1      86.014   3.098 -23.734  1.00  0.00    -0.009 C 
BRANCH   3   4
ATOM      4  C   UNL     1      87.123   2.104 -24.182  1.00  0.00     0.000 C 
ATOM      5  C   UNL     1      86.645   0.643 -24.239  1.00  0.00     0.004 C 
ENDBRANCH   3   4
BRANCH   3   6
ATOM      6  C   UNL     1      85.774   4.249 -24.773  1.00  0.00    -0.014 C 
ATOM      7  C   UNL     1      84.277   4.442 -25.104  1.00  0.00     0.007 C 
ATOM      8  C   UNL     1      86.543   4.011 -26.081  1.00  0.00     0.007 C 
ENDBRANCH   3   6
ENDBRANCH   2   3
ENDBRANCH   1   2
BRANCH   1   9
ATOM      9  C   UNL     1      88.736   3.905 -21.408  1.00  0.00    -0.011 C 
ATOM     10  C   UNL     1      88.465   5.296 -22.018  1.00  0.00     0.008 C 
BRANCH   9  11
ATOM     11  C   UNL     1      89.894   3.145 -22.127  1.00  0.00    -0.002 C 
ATOM     12  C   UNL     1      89.844   1.626 -21.893  1.00  0.00     0.005 C 
ATOM     13  C   UNL     1      91.389   3.516 -21.941  1.00  0.00    -0.026 C 
ATOM     14  C   UNL     1      91.250   1.079 -22.197  1.00  0.00     0.005 C 
ATOM     15  C   UNL     1      92.087   2.291 -22.619  1.00  0.00    -0.001 C 
ATOM     16  C   UNL     1      91.806   4.860 -22.626  1.00  0.00     0.007 C 
ATOM     17  C   UNL     1      91.788   3.580 -20.436  1.00  0.00     0.012 C 
ATOM     18  C   UNL     1      92.315   2.446 -24.189  1.00  0.00     0.000 C 
ATOM     19  C   UNL     1      93.145   4.718 -23.348  1.00  0.00     0.005 C 
ATOM     20  C   UNL     1      92.965   3.830 -24.611  1.00  0.00     0.003 C 
ATOM     21  C   UNL     1      91.115   2.019 -25.097  1.00  0.00     0.031 C 
ATOM     22  C   UNL     1      92.298   4.572 -25.877  1.00  0.00    -0.008 C 
ATOM     23  C   UNL     1      90.284   3.150 -25.599  1.00  0.00    -0.027 C 
ATOM     24  C   UNL     1      90.802   4.304 -26.013  1.00  0.00    -0.065 C 
ATOM     25  C   UNL     1      92.912   4.050 -27.206  1.00  0.00     0.014 C 
ATOM     26  C   UNL     1      92.540   6.104 -25.783  1.00  0.00     0.016 C 
ATOM     27  C   UNL     1      90.059   5.035 -27.114  1.00  0.00     0.063 C 
ATOM     28  C   UNL     1      92.254   4.641 -28.477  1.00  0.00     0.033 C 
ATOM     29  C   UNL     1      90.688   4.678 -28.473  1.00  0.00     0.118 C 
BRANCH  29  30
ATOM     30  O   UNL     1      90.185   3.434 -28.903  1.00  0.00    -0.393 OA
ATOM     31  H   UNL     1      90.968   2.839 -29.059  1.00  0.00     0.210 HD
ENDBRANCH  29  30
ENDBRANCH   9  11
ENDBRANCH   1   9
TORSDOF 7
ENDMDL
