MODEL 1
REMARK VINA RESULT:    -5.043      0.000      0.000
REMARK INTER + INTRA:          -5.673
REMARK INTER:                  -5.486
REMARK INTRA:                  -0.187
REMARK UNBOUND:                -0.187
REMARK SMILES CC1=C2C[C@H](C(C)(C)O)CC[C@]2(C)CCC1
REMARK SMILES IDX 6 1 7 2 8 3 5 4 1 5 2 6 3 7 16 8 4 9 12 10 15 11 11 12 14 13
REMARK SMILES IDX 13 14 10 15 9 16
REMARK H PARENT 9 17
REMARK Flexibility Score: inf
ROOT
ATOM      1  C   UNL     1       3.684 -15.644  11.879  1.00  0.00     0.062 C 
ATOM      2  C   UNL     1       4.459 -14.782  12.900  1.00  0.00     0.042 C 
ATOM      3  C   UNL     1       2.884 -16.697  12.688  1.00  0.00     0.042 C 
ENDROOT
BRANCH   1   4
ATOM      4  C   UNL     1       2.724 -14.744  11.009  1.00  0.00     0.024 C 
ATOM      5  C   UNL     1       4.543 -12.506   7.654  1.00  0.00     0.039 C 
ATOM      6  C   UNL     1       3.044 -12.623   7.824  1.00  0.00    -0.074 C 
ATOM      7  C   UNL     1       2.498 -13.399   8.814  1.00  0.00    -0.065 C 
ATOM      8  C   UNL     1       2.208 -11.959   6.743  1.00  0.00     0.031 C 
ATOM      9  C   UNL     1       3.406 -14.232   9.718  1.00  0.00     0.038 C 
ATOM     10  C   UNL     1       0.979 -13.523   8.982  1.00  0.00    -0.011 C 
ATOM     11  C   UNL     1       0.701 -11.958   7.001  1.00  0.00     0.005 C 
ATOM     12  C   UNL     1       0.642 -14.964   9.432  1.00  0.00     0.011 C 
ATOM     13  C   UNL     1       0.266 -13.279   7.626  1.00  0.00     0.011 C 
ATOM     14  C   UNL     1       0.459 -12.493  10.022  1.00  0.00     0.016 C 
ATOM     15  C   UNL     1       1.351 -15.420  10.722  1.00  0.00     0.008 C 
ENDBRANCH   1   4
BRANCH   1  16
ATOM     16  O   UNL     1       4.642 -16.282  11.064  1.00  0.00    -0.390 OA
ATOM     17  H   UNL     1       4.750 -15.763  10.227  1.00  0.00     0.211 HD
ENDBRANCH   1  16
TORSDOF 2
ENDMDL
MODEL 2
REMARK VINA RESULT:    -4.711      2.050      3.272
REMARK INTER + INTRA:          -5.311
REMARK INTER:                  -5.059
REMARK INTRA:                  -0.252
REMARK UNBOUND:                -0.187
REMARK SMILES CC1=C2C[C@H](C(C)(C)O)CC[C@]2(C)CCC1
REMARK SMILES IDX 6 1 7 2 8 3 5 4 1 5 2 6 3 7 16 8 4 9 12 10 15 11 11 12 14 13
REMARK SMILES IDX 13 14 10 15 9 16
REMARK H PARENT 9 17
REMARK Flexibility Score: inf
ROOT
ATOM      1  C   UNL     1       3.232 -17.202  13.847  1.00  0.00     0.062 C 
ATOM      2  C   UNL     1       3.330 -16.790  15.333  1.00  0.00     0.042 C 
ATOM      3  C   UNL     1       2.134 -18.293  13.750  1.00  0.00     0.042 C 
ENDROOT
BRANCH   1   4
ATOM      4  C   UNL     1       2.877 -15.955  12.949  1.00  0.00     0.024 C 
ATOM      5  C   UNL     1       0.964 -16.760   9.042  1.00  0.00     0.039 C 
ATOM      6  C   UNL     1       1.053 -15.366   9.622  1.00  0.00    -0.074 C 
ATOM      7  C   UNL     1       1.563 -15.147  10.876  1.00  0.00    -0.065 C 
ATOM      8  C   UNL     1       0.402 -14.269   8.795  1.00  0.00     0.031 C 
ATOM      9  C   UNL     1       1.978 -16.332  11.747  1.00  0.00     0.038 C 
ATOM     10  C   UNL     1       1.646 -13.734  11.466  1.00  0.00    -0.011 C 
ATOM     11  C   UNL     1       0.623 -12.850   9.317  1.00  0.00     0.005 C 
ATOM     12  C   UNL     1       1.370 -13.812  12.986  1.00  0.00     0.011 C 
ATOM     13  C   UNL     1       0.557 -12.824  10.840  1.00  0.00     0.011 C 
ATOM     14  C   UNL     1       3.044 -13.112  11.200  1.00  0.00     0.016 C 
ATOM     15  C   UNL     1       2.301 -14.761  13.765  1.00  0.00     0.008 C 
ENDBRANCH   1   4
BRANCH   1  16
ATOM     16  O   UNL     1       4.484 -17.738  13.483  1.00  0.00    -0.390 OA
ATOM     17  H   UNL     1       4.814 -17.267  12.677  1.00  0.00     0.211 HD
ENDBRANCH   1  16
TORSDOF 2
ENDMDL
MODEL 3
REMARK VINA RESULT:    -4.547      1.949      3.165
REMARK INTER + INTRA:          -5.133
REMARK INTER:                  -4.871
REMARK INTRA:                  -0.262
REMARK UNBOUND:                -0.187
REMARK SMILES CC1=C2C[C@H](C(C)(C)O)CC[C@]2(C)CCC1
REMARK SMILES IDX 6 1 7 2 8 3 5 4 1 5 2 6 3 7 16 8 4 9 12 10 15 11 11 12 14 13
REMARK SMILES IDX 13 14 10 15 9 16
REMARK H PARENT 9 17
REMARK Flexibility Score: inf
ROOT
ATOM      1  C   UNL     1       1.877 -16.878  13.585  1.00  0.00     0.062 C 
ATOM      2  C   UNL     1       3.402 -16.929  13.829  1.00  0.00     0.042 C 
ATOM      3  C   UNL     1       1.258 -16.058  14.747  1.00  0.00     0.042 C 
ENDROOT
BRANCH   1   4
ATOM      4  C   UNL     1       1.561 -16.216  12.188  1.00  0.00     0.024 C 
ATOM      5  C   UNL     1       0.127 -12.031  12.215  1.00  0.00     0.039 C 
ATOM      6  C   UNL     1       0.545 -12.730  10.940  1.00  0.00    -0.074 C 
ATOM      7  C   UNL     1       1.077 -13.994  10.962  1.00  0.00    -0.065 C 
ATOM      8  C   UNL     1       0.481 -11.886   9.678  1.00  0.00     0.031 C 
ATOM      9  C   UNL     1       1.333 -14.690  12.298  1.00  0.00     0.038 C 
ATOM     10  C   UNL     1       1.506 -14.699   9.670  1.00  0.00    -0.011 C 
ATOM     11  C   UNL     1       0.766 -12.641   8.381  1.00  0.00     0.005 C 
ATOM     12  C   UNL     1       2.767 -15.547   9.961  1.00  0.00     0.011 C 
ATOM     13  C   UNL     1       1.885 -13.655   8.587  1.00  0.00     0.011 C 
ATOM     14  C   UNL     1       0.360 -15.598   9.131  1.00  0.00     0.016 C 
ATOM     15  C   UNL     1       2.605 -16.580  11.092  1.00  0.00     0.008 C 
ENDBRANCH   1   4
BRANCH   1  16
ATOM     16  O   UNL     1       1.408 -18.207  13.624  1.00  0.00    -0.390 OA
ATOM     17  H   UNL     1       0.989 -18.427  12.753  1.00  0.00     0.211 HD
ENDBRANCH   1  16
TORSDOF 2
ENDMDL
MODEL 4
REMARK VINA RESULT:    -4.490      3.480      7.719
REMARK INTER + INTRA:          -5.071
REMARK INTER:                  -4.838
REMARK INTRA:                  -0.233
REMARK UNBOUND:                -0.187
REMARK SMILES CC1=C2C[C@H](C(C)(C)O)CC[C@]2(C)CCC1
REMARK SMILES IDX 6 1 7 2 8 3 5 4 1 5 2 6 3 7 16 8 4 9 12 10 15 11 11 12 14 13
REMARK SMILES IDX 13 14 10 15 9 16
REMARK H PARENT 9 17
REMARK Flexibility Score: inf
ROOT
ATOM      1  C   UNL     1       2.127 -16.095  11.604  1.00  0.00     0.062 C 
ATOM      2  C   UNL     1       1.593 -14.662  11.387  1.00  0.00     0.042 C 
ATOM      3  C   UNL     1       3.674 -15.999  11.662  1.00  0.00     0.042 C 
ENDROOT
BRANCH   1   4
ATOM      4  C   UNL     1       1.544 -16.709  12.934  1.00  0.00     0.024 C 
ATOM      5  C   UNL     1       3.229 -20.570  14.286  1.00  0.00     0.039 C 
ATOM      6  C   UNL     1       2.324 -19.735  15.165  1.00  0.00    -0.074 C 
ATOM      7  C   UNL     1       1.889 -18.497  14.767  1.00  0.00    -0.065 C 
ATOM      8  C   UNL     1       2.069 -20.289  16.557  1.00  0.00     0.031 C 
ATOM      9  C   UNL     1       2.383 -17.902  13.450  1.00  0.00     0.038 C 
ATOM     10  C   UNL     1       0.978 -17.649  15.662  1.00  0.00    -0.011 C 
ATOM     11  C   UNL     1       1.043 -19.515  17.383  1.00  0.00     0.005 C 
ATOM     12  C   UNL     1       1.356 -16.159  15.490  1.00  0.00     0.011 C 
ATOM     13  C   UNL     1       1.195 -18.015  17.154  1.00  0.00     0.011 C 
ATOM     14  C   UNL     1      -0.514 -17.876  15.295  1.00  0.00     0.016 C 
ATOM     15  C   UNL     1       1.296 -15.640  14.040  1.00  0.00     0.008 C 
ENDBRANCH   1   4
BRANCH   1  16
ATOM     16  O   UNL     1       1.729 -16.859  10.487  1.00  0.00    -0.390 OA
ATOM     17  H   UNL     1       2.268 -16.586   9.701  1.00  0.00     0.211 HD
ENDBRANCH   1  16
TORSDOF 2
ENDMDL
MODEL 5
REMARK VINA RESULT:    -4.359      3.471      5.484
REMARK INTER + INTRA:          -4.928
REMARK INTER:                  -4.666
REMARK INTRA:                  -0.262
REMARK UNBOUND:                -0.187
REMARK SMILES CC1=C2C[C@H](C(C)(C)O)CC[C@]2(C)CCC1
REMARK SMILES IDX 6 1 7 2 8 3 5 4 1 5 2 6 3 7 16 8 4 9 12 10 15 11 11 12 14 13
REMARK SMILES IDX 13 14 10 15 9 16
REMARK H PARENT 9 17
REMARK Flexibility Score: inf
ROOT
ATOM      1  C   UNL     1       0.379 -18.170  15.424  1.00  0.00     0.062 C 
ATOM      2  C   UNL     1       1.255 -19.380  15.818  1.00  0.00     0.042 C 
ATOM      3  C   UNL     1       0.268 -17.263  16.677  1.00  0.00     0.042 C 
ENDROOT
BRANCH   1   4
ATOM      4  C   UNL     1       1.023 -17.391  14.213  1.00  0.00     0.024 C 
ATOM      5  C   UNL     1       0.578 -12.989  14.177  1.00  0.00     0.039 C 
ATOM      6  C   UNL     1       1.510 -13.712  13.229  1.00  0.00    -0.074 C 
ATOM      7  C   UNL     1       1.707 -15.066  13.318  1.00  0.00    -0.065 C 
ATOM      8  C   UNL     1       2.314 -12.822  12.296  1.00  0.00     0.031 C 
ATOM      9  C   UNL     1       1.044 -15.860  14.441  1.00  0.00     0.038 C 
ATOM     10  C   UNL     1       2.657 -15.796  12.361  1.00  0.00    -0.011 C 
ATOM     11  C   UNL     1       3.141 -13.565  11.247  1.00  0.00     0.005 C 
ATOM     12  C   UNL     1       3.366 -16.933  13.133  1.00  0.00     0.011 C 
ATOM     13  C   UNL     1       3.753 -14.826  11.846  1.00  0.00     0.011 C 
ATOM     14  C   UNL     1       1.875 -16.369  11.147  1.00  0.00     0.016 C 
ATOM     15  C   UNL     1       2.420 -17.946  13.806  1.00  0.00     0.008 C 
ENDBRANCH   1   4
BRANCH   1  16
ATOM     16  O   UNL     1      -0.890 -18.674  15.074  1.00  0.00    -0.390 OA
ATOM     17  H   UNL     1      -0.963 -19.611  15.389  1.00  0.00     0.211 HD
ENDBRANCH   1  16
TORSDOF 2
ENDMDL
MODEL 6
REMARK VINA RESULT:    -4.158      6.698     10.227
REMARK INTER + INTRA:          -4.710
REMARK INTER:                  -4.455
REMARK INTRA:                  -0.255
REMARK UNBOUND:                -0.187
REMARK SMILES CC1=C2C[C@H](C(C)(C)O)CC[C@]2(C)CCC1
REMARK SMILES IDX 6 1 7 2 8 3 5 4 1 5 2 6 3 7 16 8 4 9 12 10 15 11 11 12 14 13
REMARK SMILES IDX 13 14 10 15 9 16
REMARK H PARENT 9 17
REMARK Flexibility Score: inf
ROOT
ATOM      1  C   UNL     1       0.378 -18.128  15.463  1.00  0.00     0.062 C 
ATOM      2  C   UNL     1       0.045 -16.951  16.406  1.00  0.00     0.042 C 
ATOM      3  C   UNL     1       1.116 -17.532  14.236  1.00  0.00     0.042 C 
ENDROOT
BRANCH   1   4
ATOM      4  C   UNL     1       1.273 -19.195  16.203  1.00  0.00     0.024 C 
ATOM      5  C   UNL     1       3.964 -21.659  13.701  1.00  0.00     0.039 C 
ATOM      6  C   UNL     1       4.062 -21.641  15.211  1.00  0.00    -0.074 C 
ATOM      7  C   UNL     1       3.284 -20.800  15.965  1.00  0.00    -0.065 C 
ATOM      8  C   UNL     1       5.173 -22.490  15.806  1.00  0.00     0.031 C 
ATOM      9  C   UNL     1       2.356 -19.799  15.278  1.00  0.00     0.038 C 
ATOM     10  C   UNL     1       3.388 -20.777  17.494  1.00  0.00    -0.011 C 
ATOM     11  C   UNL     1       5.171 -22.579  17.332  1.00  0.00     0.005 C 
ATOM     12  C   UNL     1       3.189 -19.325  17.986  1.00  0.00     0.011 C 
ATOM     13  C   UNL     1       4.802 -21.233  17.945  1.00  0.00     0.011 C 
ATOM     14  C   UNL     1       2.326 -21.716  18.128  1.00  0.00     0.016 C 
ATOM     15  C   UNL     1       1.868 -18.667  17.542  1.00  0.00     0.008 C 
ENDBRANCH   1   4
BRANCH   1  16
ATOM     16  O   UNL     1      -0.849 -18.698  15.063  1.00  0.00    -0.390 OA
ATOM     17  H   UNL     1      -1.414 -17.993  14.657  1.00  0.00     0.211 HD
ENDBRANCH   1  16
TORSDOF 2
ENDMDL
MODEL 7
REMARK VINA RESULT:    -4.142     15.265     17.446
REMARK INTER + INTRA:          -4.693
REMARK INTER:                  -4.429
REMARK INTRA:                  -0.264
REMARK UNBOUND:                -0.187
REMARK SMILES CC1=C2C[C@H](C(C)(C)O)CC[C@]2(C)CCC1
REMARK SMILES IDX 6 1 7 2 8 3 5 4 1 5 2 6 3 7 16 8 4 9 12 10 15 11 11 12 14 13
REMARK SMILES IDX 13 14 10 15 9 16
REMARK H PARENT 9 17
REMARK Flexibility Score: inf
ROOT
ATOM      1  C   UNL     1      -4.322 -29.252  10.360  1.00  0.00     0.062 C 
ATOM      2  C   UNL     1      -2.879 -29.794  10.262  1.00  0.00     0.042 C 
ATOM      3  C   UNL     1      -5.275 -30.462  10.175  1.00  0.00     0.042 C 
ENDROOT
BRANCH   1   4
ATOM      4  C   UNL     1      -4.558 -28.549  11.752  1.00  0.00     0.024 C 
ATOM      5  C   UNL     1      -8.482 -29.179  13.696  1.00  0.00     0.039 C 
ATOM      6  C   UNL     1      -7.318 -28.540  14.421  1.00  0.00    -0.074 C 
ATOM      7  C   UNL     1      -6.082 -28.440  13.835  1.00  0.00    -0.065 C 
ATOM      8  C   UNL     1      -7.573 -28.171  15.873  1.00  0.00     0.031 C 
ATOM      9  C   UNL     1      -5.840 -29.053  12.457  1.00  0.00     0.038 C 
ATOM     10  C   UNL     1      -4.901 -27.798  14.574  1.00  0.00    -0.011 C 
ATOM     11  C   UNL     1      -6.443 -27.397  16.551  1.00  0.00     0.005 C 
ATOM     12  C   UNL     1      -3.606 -28.553  14.194  1.00  0.00     0.011 C 
ATOM     13  C   UNL     1      -5.087 -27.935  16.108  1.00  0.00     0.011 C 
ATOM     14  C   UNL     1      -4.781 -26.294  14.209  1.00  0.00     0.016 C 
ATOM     15  C   UNL     1      -3.310 -28.609  12.683  1.00  0.00     0.008 C 
ENDBRANCH   1   4
BRANCH   1  16
ATOM     16  O   UNL     1      -4.491 -28.333   9.303  1.00  0.00    -0.390 OA
ATOM     17  H   UNL     1      -4.695 -27.440   9.682  1.00  0.00     0.211 HD
ENDBRANCH   1  16
TORSDOF 2
ENDMDL
MODEL 8
REMARK VINA RESULT:    -4.136      5.049      7.625
REMARK INTER + INTRA:          -4.686
REMARK INTER:                  -4.508
REMARK INTRA:                  -0.178
REMARK UNBOUND:                -0.187
REMARK SMILES CC1=C2C[C@H](C(C)(C)O)CC[C@]2(C)CCC1
REMARK SMILES IDX 6 1 7 2 8 3 5 4 1 5 2 6 3 7 16 8 4 9 12 10 15 11 11 12 14 13
REMARK SMILES IDX 13 14 10 15 9 16
REMARK H PARENT 9 17
REMARK Flexibility Score: inf
ROOT
ATOM      1  C   UNL     1       4.025 -21.363  14.628  1.00  0.00     0.062 C 
ATOM      2  C   UNL     1       5.321 -20.953  13.894  1.00  0.00     0.042 C 
ATOM      3  C   UNL     1       4.432 -22.356  15.748  1.00  0.00     0.042 C 
ENDROOT
BRANCH   1   4
ATOM      4  C   UNL     1       3.301 -20.096  15.225  1.00  0.00     0.024 C 
ATOM      5  C   UNL     1       2.486 -16.744  12.454  1.00  0.00     0.039 C 
ATOM      6  C   UNL     1       1.886 -16.805  13.842  1.00  0.00    -0.074 C 
ATOM      7  C   UNL     1       2.072 -17.896  14.651  1.00  0.00    -0.065 C 
ATOM      8  C   UNL     1       0.952 -15.662  14.203  1.00  0.00     0.031 C 
ATOM      9  C   UNL     1       2.828 -19.115  14.125  1.00  0.00     0.038 C 
ATOM     10  C   UNL     1       1.459 -17.959  16.055  1.00  0.00    -0.011 C 
ATOM     11  C   UNL     1       0.468 -15.656  15.652  1.00  0.00     0.005 C 
ATOM     12  C   UNL     1       1.032 -19.417  16.347  1.00  0.00     0.011 C 
ATOM     13  C   UNL     1       0.184 -17.077  16.126  1.00  0.00     0.011 C 
ATOM     14  C   UNL     1       2.477 -17.468  17.119  1.00  0.00     0.016 C 
ATOM     15  C   UNL     1       2.161 -20.459  16.221  1.00  0.00     0.008 C 
ENDBRANCH   1   4
BRANCH   1  16
ATOM     16  O   UNL     1       3.201 -22.008  13.683  1.00  0.00    -0.390 OA
ATOM     17  H   UNL     1       3.754 -22.627  13.141  1.00  0.00     0.211 HD
ENDBRANCH   1  16
TORSDOF 2
ENDMDL
MODEL 9
REMARK VINA RESULT:    -4.062     15.484     17.714
REMARK INTER + INTRA:          -4.606
REMARK INTER:                  -4.426
REMARK INTRA:                  -0.180
REMARK UNBOUND:                -0.187
REMARK SMILES CC1=C2C[C@H](C(C)(C)O)CC[C@]2(C)CCC1
REMARK SMILES IDX 6 1 7 2 8 3 5 4 1 5 2 6 3 7 16 8 4 9 12 10 15 11 11 12 14 13
REMARK SMILES IDX 13 14 10 15 9 16
REMARK H PARENT 9 17
REMARK Flexibility Score: inf
ROOT
ATOM      1  C   UNL     1      -4.013 -29.564   9.968  1.00  0.00     0.062 C 
ATOM      2  C   UNL     1      -2.547 -29.457  10.444  1.00  0.00     0.042 C 
ATOM      3  C   UNL     1      -4.109 -30.828   9.075  1.00  0.00     0.042 C 
ENDROOT
BRANCH   1   4
ATOM      4  C   UNL     1      -4.990 -29.663  11.202  1.00  0.00     0.024 C 
ATOM      5  C   UNL     1      -4.498 -26.660  14.414  1.00  0.00     0.039 C 
ATOM      6  C   UNL     1      -5.694 -27.585  14.353  1.00  0.00    -0.074 C 
ATOM      7  C   UNL     1      -5.878 -28.444  13.300  1.00  0.00    -0.065 C 
ATOM      8  C   UNL     1      -6.735 -27.384  15.443  1.00  0.00     0.031 C 
ATOM      9  C   UNL     1      -4.910 -28.419  12.119  1.00  0.00     0.038 C 
ATOM     10  C   UNL     1      -7.094 -29.375  13.236  1.00  0.00    -0.011 C 
ATOM     11  C   UNL     1      -7.862 -28.414  15.457  1.00  0.00     0.005 C 
ATOM     12  C   UNL     1      -7.545 -29.506  11.762  1.00  0.00     0.011 C 
ATOM     13  C   UNL     1      -8.279 -28.771  14.035  1.00  0.00     0.011 C 
ATOM     14  C   UNL     1      -6.745 -30.770  13.823  1.00  0.00     0.016 C 
ATOM     15  C   UNL     1      -6.454 -30.002  10.794  1.00  0.00     0.008 C 
ENDBRANCH   1   4
BRANCH   1  16
ATOM     16  O   UNL     1      -4.287 -28.409   9.208  1.00  0.00    -0.390 OA
ATOM     17  H   UNL     1      -5.235 -28.430   8.920  1.00  0.00     0.211 HD
ENDBRANCH   1  16
TORSDOF 2
ENDMDL
