MODEL 1
REMARK VINA RESULT:    -5.088      0.000      0.000
REMARK INTER + INTRA:         -11.259
REMARK INTER:                  -9.550
REMARK INTRA:                  -1.709
REMARK UNBOUND:                -1.709
REMARK SMILES O=C([O-])CCCCCCCCCCCCCCC(=O)[O-]
REMARK SMILES IDX 10 1 9 2 8 3 7 4 6 5 5 6 4 7 2 8 1 9 3 10 11 11 12 12 13 13
REMARK SMILES IDX 14 14 15 15 16 16 17 17 18 18 19 19 20 20
REMARK H PARENT
REMARK Flexibility Score: inf
ROOT
ATOM      1  C   UNL     1     -20.767 -25.709  39.538  1.00  0.00     0.000 C 
ENDROOT
BRANCH   1   2
ATOM      2  C   UNL     1     -20.840 -26.753  38.407  1.00  0.00     0.000 C 
BRANCH   2   3
ATOM      3  C   UNL     1     -21.852 -27.893  38.634  1.00  0.00     0.000 C 
BRANCH   3   4
ATOM      4  C   UNL     1     -22.509 -27.922  40.028  1.00  0.00     0.000 C 
BRANCH   4   5
ATOM      5  C   UNL     1     -22.894 -29.323  40.535  1.00  0.00     0.000 C 
BRANCH   5   6
ATOM      6  C   UNL     1     -24.357 -29.412  40.991  1.00  0.00     0.006 C 
BRANCH   6   7
ATOM      7  C   UNL     1     -25.305 -28.939  39.885  1.00  0.00     0.053 C 
BRANCH   7   8
ATOM      8  C   UNL     1     -25.308 -29.908  38.745  1.00  0.00     0.041 C 
ATOM      9  O   UNL     1     -24.829 -29.576  37.630  1.00  0.00    -0.550 OA
ATOM     10  O   UNL     1     -25.885 -31.162  38.900  1.00  0.00    -0.550 OA
ENDBRANCH   7   8
ENDBRANCH   6   7
ENDBRANCH   5   6
ENDBRANCH   4   5
ENDBRANCH   3   4
ENDBRANCH   2   3
ENDBRANCH   1   2
BRANCH   1  11
ATOM     11  C   UNL     1     -21.211 -24.308  39.084  1.00  0.00     0.000 C 
BRANCH  11  12
ATOM     12  C   UNL     1     -21.868 -23.503  40.216  1.00  0.00     0.000 C 
BRANCH  12  13
ATOM     13  C   UNL     1     -22.469 -24.398  41.311  1.00  0.00     0.000 C 
BRANCH  13  14
ATOM     14  C   UNL     1     -23.986 -24.194  41.415  1.00  0.00     0.000 C 
BRANCH  14  15
ATOM     15  C   UNL     1     -24.725 -25.540  41.381  1.00  0.00     0.000 C 
BRANCH  15  16
ATOM     16  C   UNL     1     -24.938 -26.138  42.784  1.00  0.00     0.006 C 
BRANCH  16  17
ATOM     17  C   UNL     1     -26.375 -26.012  43.314  1.00  0.00     0.053 C 
BRANCH  17  18
ATOM     18  C   UNL     1     -27.307 -25.457  42.280  1.00  0.00     0.041 C 
ATOM     19  O   UNL     1     -27.918 -26.230  41.497  1.00  0.00    -0.550 OA
ATOM     20  O   UNL     1     -27.524 -24.087  42.203  1.00  0.00    -0.550 OA
ENDBRANCH  17  18
ENDBRANCH  16  17
ENDBRANCH  15  16
ENDBRANCH  14  15
ENDBRANCH  13  14
ENDBRANCH  12  13
ENDBRANCH  11  12
ENDBRANCH   1  11
TORSDOF 15
ENDMDL
MODEL 2
REMARK VINA RESULT:    -5.023      2.446      5.029
REMARK INTER + INTRA:         -11.137
REMARK INTER:                  -9.388
REMARK INTRA:                  -1.749
REMARK UNBOUND:                -1.709
REMARK SMILES O=C([O-])CCCCCCCCCCCCCCC(=O)[O-]
REMARK SMILES IDX 10 1 9 2 8 3 7 4 6 5 5 6 4 7 2 8 1 9 3 10 11 11 12 12 13 13
REMARK SMILES IDX 14 14 15 15 16 16 17 17 18 18 19 19 20 20
REMARK H PARENT
REMARK Flexibility Score: inf
ROOT
ATOM      1  C   UNL     1     -22.236 -28.164  38.178  1.00  0.00     0.000 C 
ENDROOT
BRANCH   1   2
ATOM      2  C   UNL     1     -21.800 -27.449  39.471  1.00  0.00     0.000 C 
BRANCH   2   3
ATOM      3  C   UNL     1     -20.737 -26.349  39.284  1.00  0.00     0.000 C 
BRANCH   3   4
ATOM      4  C   UNL     1     -21.201 -24.921  39.629  1.00  0.00     0.000 C 
BRANCH   4   5
ATOM      5  C   UNL     1     -22.038 -24.804  40.916  1.00  0.00     0.000 C 
BRANCH   5   6
ATOM      6  C   UNL     1     -22.382 -23.352  41.274  1.00  0.00     0.006 C 
BRANCH   6   7
ATOM      7  C   UNL     1     -23.710 -22.930  40.638  1.00  0.00     0.053 C 
BRANCH   7   8
ATOM      8  C   UNL     1     -23.499 -21.792  39.689  1.00  0.00     0.041 C 
ATOM      9  O   UNL     1     -24.471 -21.313  39.049  1.00  0.00    -0.550 OA
ATOM     10  O   UNL     1     -22.221 -21.294  39.474  1.00  0.00    -0.550 OA
ENDBRANCH   7   8
ENDBRANCH   6   7
ENDBRANCH   5   6
ENDBRANCH   4   5
ENDBRANCH   3   4
ENDBRANCH   2   3
ENDBRANCH   1   2
BRANCH   1  11
ATOM     11  C   UNL     1     -23.561 -28.930  38.339  1.00  0.00     0.000 C 
BRANCH  11  12
ATOM     12  C   UNL     1     -23.854 -29.299  39.802  1.00  0.00     0.000 C 
BRANCH  12  13
ATOM     13  C   UNL     1     -25.353 -29.261  40.136  1.00  0.00     0.000 C 
BRANCH  13  14
ATOM     14  C   UNL     1     -25.755 -27.894  40.701  1.00  0.00     0.000 C 
BRANCH  14  15
ATOM     15  C   UNL     1     -24.692 -27.368  41.677  1.00  0.00     0.000 C 
BRANCH  15  16
ATOM     16  C   UNL     1     -25.192 -26.180  42.520  1.00  0.00     0.006 C 
BRANCH  16  17
ATOM     17  C   UNL     1     -26.220 -25.287  41.808  1.00  0.00     0.053 C 
BRANCH  17  18
ATOM     18  C   UNL     1     -27.470 -25.117  42.615  1.00  0.00     0.041 C 
ATOM     19  O   UNL     1     -28.118 -26.125  43.002  1.00  0.00    -0.550 OA
ATOM     20  O   UNL     1     -27.904 -23.844  42.966  1.00  0.00    -0.550 OA
ENDBRANCH  17  18
ENDBRANCH  16  17
ENDBRANCH  15  16
ENDBRANCH  14  15
ENDBRANCH  13  14
ENDBRANCH  12  13
ENDBRANCH  11  12
ENDBRANCH   1  11
TORSDOF 15
ENDMDL
MODEL 3
REMARK VINA RESULT:    -5.019      1.305      2.667
REMARK INTER + INTRA:         -11.130
REMARK INTER:                  -9.569
REMARK INTRA:                  -1.561
REMARK UNBOUND:                -1.709
REMARK SMILES O=C([O-])CCCCCCCCCCCCCCC(=O)[O-]
REMARK SMILES IDX 10 1 9 2 8 3 7 4 6 5 5 6 4 7 2 8 1 9 3 10 11 11 12 12 13 13
REMARK SMILES IDX 14 14 15 15 16 16 17 17 18 18 19 19 20 20
REMARK H PARENT
REMARK Flexibility Score: inf
ROOT
ATOM      1  C   UNL     1     -21.756 -24.204  41.156  1.00  0.00     0.000 C 
ENDROOT
BRANCH   1   2
ATOM      2  C   UNL     1     -21.012 -23.940  39.833  1.00  0.00     0.000 C 
BRANCH   2   3
ATOM      3  C   UNL     1     -20.144 -25.109  39.326  1.00  0.00     0.000 C 
BRANCH   3   4
ATOM      4  C   UNL     1     -20.790 -26.504  39.437  1.00  0.00     0.000 C 
BRANCH   4   5
ATOM      5  C   UNL     1     -21.017 -27.222  38.094  1.00  0.00     0.000 C 
BRANCH   5   6
ATOM      6  C   UNL     1     -22.234 -28.158  38.117  1.00  0.00     0.006 C 
BRANCH   6   7
ATOM      7  C   UNL     1     -22.574 -28.580  39.549  1.00  0.00     0.053 C 
BRANCH   7   8
ATOM      8  C   UNL     1     -23.925 -29.222  39.600  1.00  0.00     0.041 C 
ATOM      9  O   UNL     1     -24.398 -29.616  40.698  1.00  0.00    -0.550 OA
ATOM     10  O   UNL     1     -24.640 -29.432  38.427  1.00  0.00    -0.550 OA
ENDBRANCH   7   8
ENDBRANCH   6   7
ENDBRANCH   5   6
ENDBRANCH   4   5
ENDBRANCH   3   4
ENDBRANCH   2   3
ENDBRANCH   1   2
BRANCH   1  11
ATOM     11  C   UNL     1     -23.046 -23.377  41.288  1.00  0.00     0.000 C 
BRANCH  11  12
ATOM     12  C   UNL     1     -24.313 -24.242  41.190  1.00  0.00     0.000 C 
BRANCH  12  13
ATOM     13  C   UNL     1     -24.036 -25.732  41.438  1.00  0.00     0.000 C 
BRANCH  13  14
ATOM     14  C   UNL     1     -25.109 -26.347  42.346  1.00  0.00     0.000 C 
BRANCH  14  15
ATOM     15  C   UNL     1     -26.277 -26.902  41.517  1.00  0.00     0.000 C 
BRANCH  15  16
ATOM     16  C   UNL     1     -27.635 -26.301  41.925  1.00  0.00     0.006 C 
BRANCH  16  17
ATOM     17  C   UNL     1     -27.551 -25.241  43.033  1.00  0.00     0.053 C 
BRANCH  17  18
ATOM     18  C   UNL     1     -28.213 -23.958  42.634  1.00  0.00     0.041 C 
ATOM     19  O   UNL     1     -29.444 -23.789  42.837  1.00  0.00    -0.550 OA
ATOM     20  O   UNL     1     -27.464 -22.936  42.064  1.00  0.00    -0.550 OA
ENDBRANCH  17  18
ENDBRANCH  16  17
ENDBRANCH  15  16
ENDBRANCH  14  15
ENDBRANCH  13  14
ENDBRANCH  12  13
ENDBRANCH  11  12
ENDBRANCH   1  11
TORSDOF 15
ENDMDL
MODEL 4
REMARK VINA RESULT:    -5.004      1.570      2.864
REMARK INTER + INTRA:         -11.101
REMARK INTER:                  -9.810
REMARK INTRA:                  -1.292
REMARK UNBOUND:                -1.709
REMARK SMILES O=C([O-])CCCCCCCCCCCCCCC(=O)[O-]
REMARK SMILES IDX 10 1 9 2 8 3 7 4 6 5 5 6 4 7 2 8 1 9 3 10 11 11 12 12 13 13
REMARK SMILES IDX 14 14 15 15 16 16 17 17 18 18 19 19 20 20
REMARK H PARENT
REMARK Flexibility Score: inf
ROOT
ATOM      1  C   UNL     1     -22.253 -24.022  40.400  1.00  0.00     0.000 C 
ENDROOT
BRANCH   1   2
ATOM      2  C   UNL     1     -20.959 -24.581  39.779  1.00  0.00     0.000 C 
BRANCH   2   3
ATOM      3  C   UNL     1     -20.810 -26.114  39.845  1.00  0.00     0.000 C 
BRANCH   3   4
ATOM      4  C   UNL     1     -20.957 -26.846  38.497  1.00  0.00     0.000 C 
BRANCH   4   5
ATOM      5  C   UNL     1     -21.880 -28.078  38.524  1.00  0.00     0.000 C 
BRANCH   5   6
ATOM      6  C   UNL     1     -22.815 -28.095  39.742  1.00  0.00     0.006 C 
BRANCH   6   7
ATOM      7  C   UNL     1     -23.450 -29.477  39.925  1.00  0.00     0.053 C 
BRANCH   7   8
ATOM      8  C   UNL     1     -24.712 -29.584  39.128  1.00  0.00     0.041 C 
ATOM      9  O   UNL     1     -25.766 -30.012  39.666  1.00  0.00    -0.550 OA
ATOM     10  O   UNL     1     -24.710 -29.261  37.777  1.00  0.00    -0.550 OA
ENDBRANCH   7   8
ENDBRANCH   6   7
ENDBRANCH   5   6
ENDBRANCH   4   5
ENDBRANCH   3   4
ENDBRANCH   2   3
ENDBRANCH   1   2
BRANCH   1  11
ATOM     11  C   UNL     1     -22.796 -24.904  41.538  1.00  0.00     0.000 C 
BRANCH  11  12
ATOM     12  C   UNL     1     -24.328 -25.032  41.503  1.00  0.00     0.000 C 
BRANCH  12  13
ATOM     13  C   UNL     1     -24.840 -26.251  42.286  1.00  0.00     0.000 C 
BRANCH  13  14
ATOM     14  C   UNL     1     -25.985 -26.943  41.537  1.00  0.00     0.000 C 
BRANCH  14  15
ATOM     15  C   UNL     1     -27.226 -26.040  41.475  1.00  0.00     0.000 C 
BRANCH  15  16
ATOM     16  C   UNL     1     -28.178 -26.251  42.667  1.00  0.00     0.006 C 
BRANCH  16  17
ATOM     17  C   UNL     1     -29.508 -25.490  42.557  1.00  0.00     0.053 C 
BRANCH  17  18
ATOM     18  C   UNL     1     -30.505 -26.222  41.712  1.00  0.00     0.041 C 
ATOM     19  O   UNL     1     -30.647 -25.926  40.497  1.00  0.00    -0.550 OA
ATOM     20  O   UNL     1     -31.257 -27.253  42.261  1.00  0.00    -0.550 OA
ENDBRANCH  17  18
ENDBRANCH  16  17
ENDBRANCH  15  16
ENDBRANCH  14  15
ENDBRANCH  13  14
ENDBRANCH  12  13
ENDBRANCH  11  12
ENDBRANCH   1  11
TORSDOF 15
ENDMDL
MODEL 5
REMARK VINA RESULT:    -4.960      2.477      4.398
REMARK INTER + INTRA:         -11.019
REMARK INTER:                  -9.380
REMARK INTRA:                  -1.639
REMARK UNBOUND:                -1.709
REMARK SMILES O=C([O-])CCCCCCCCCCCCCCC(=O)[O-]
REMARK SMILES IDX 10 1 9 2 8 3 7 4 6 5 5 6 4 7 2 8 1 9 3 10 11 11 12 12 13 13
REMARK SMILES IDX 14 14 15 15 16 16 17 17 18 18 19 19 20 20
REMARK H PARENT
REMARK Flexibility Score: inf
ROOT
ATOM      1  C   UNL     1     -22.237 -28.150  38.098  1.00  0.00     0.000 C 
ENDROOT
BRANCH   1   2
ATOM      2  C   UNL     1     -22.599 -28.629  39.516  1.00  0.00     0.000 C 
BRANCH   2   3
ATOM      3  C   UNL     1     -24.033 -29.170  39.679  1.00  0.00     0.000 C 
BRANCH   3   4
ATOM      4  C   UNL     1     -25.015 -28.224  40.398  1.00  0.00     0.000 C 
BRANCH   4   5
ATOM      5  C   UNL     1     -24.410 -27.433  41.572  1.00  0.00     0.000 C 
BRANCH   5   6
ATOM      6  C   UNL     1     -25.398 -26.434  42.189  1.00  0.00     0.006 C 
BRANCH   6   7
ATOM      7  C   UNL     1     -26.795 -26.599  41.584  1.00  0.00     0.053 C 
BRANCH   7   8
ATOM      8  C   UNL     1     -27.813 -25.874  42.407  1.00  0.00     0.041 C 
ATOM      9  O   UNL     1     -27.520 -24.782  42.960  1.00  0.00    -0.550 OA
ATOM     10  O   UNL     1     -29.070 -26.431  42.606  1.00  0.00    -0.550 OA
ENDBRANCH   7   8
ENDBRANCH   6   7
ENDBRANCH   5   6
ENDBRANCH   4   5
ENDBRANCH   3   4
ENDBRANCH   2   3
ENDBRANCH   1   2
BRANCH   1  11
ATOM     11  C   UNL     1     -21.016 -27.215  38.079  1.00  0.00     0.000 C 
BRANCH  11  12
ATOM     12  C   UNL     1     -20.683 -26.653  39.471  1.00  0.00     0.000 C 
BRANCH  12  13
ATOM     13  C   UNL     1     -19.886 -25.341  39.407  1.00  0.00     0.000 C 
BRANCH  13  14
ATOM     14  C   UNL     1     -20.677 -24.187  40.033  1.00  0.00     0.000 C 
BRANCH  14  15
ATOM     15  C   UNL     1     -22.050 -24.666  40.528  1.00  0.00     0.000 C 
BRANCH  15  16
ATOM     16  C   UNL     1     -22.791 -23.600  41.356  1.00  0.00     0.006 C 
BRANCH  16  17
ATOM     17  C   UNL     1     -24.166 -23.205  40.793  1.00  0.00     0.053 C 
BRANCH  17  18
ATOM     18  C   UNL     1     -24.090 -21.978  39.938  1.00  0.00     0.041 C 
ATOM     19  O   UNL     1     -22.979 -21.432  39.708  1.00  0.00    -0.550 OA
ATOM     20  O   UNL     1     -25.244 -21.453  39.369  1.00  0.00    -0.550 OA
ENDBRANCH  17  18
ENDBRANCH  16  17
ENDBRANCH  15  16
ENDBRANCH  14  15
ENDBRANCH  13  14
ENDBRANCH  12  13
ENDBRANCH  11  12
ENDBRANCH   1  11
TORSDOF 15
ENDMDL
MODEL 6
REMARK VINA RESULT:    -4.920      1.958      5.515
REMARK INTER + INTRA:         -10.944
REMARK INTER:                  -9.583
REMARK INTRA:                  -1.361
REMARK UNBOUND:                -1.709
REMARK SMILES O=C([O-])CCCCCCCCCCCCCCC(=O)[O-]
REMARK SMILES IDX 10 1 9 2 8 3 7 4 6 5 5 6 4 7 2 8 1 9 3 10 11 11 12 12 13 13
REMARK SMILES IDX 14 14 15 15 16 16 17 17 18 18 19 19 20 20
REMARK H PARENT
REMARK Flexibility Score: inf
ROOT
ATOM      1  C   UNL     1     -22.441 -24.375  41.502  1.00  0.00     0.000 C 
ENDROOT
BRANCH   1   2
ATOM      2  C   UNL     1     -23.941 -24.642  41.270  1.00  0.00     0.000 C 
BRANCH   2   3
ATOM      3  C   UNL     1     -24.494 -25.907  41.956  1.00  0.00     0.000 C 
BRANCH   3   4
ATOM      4  C   UNL     1     -25.938 -26.285  41.571  1.00  0.00     0.000 C 
BRANCH   4   5
ATOM      5  C   UNL     1     -27.008 -25.254  41.975  1.00  0.00     0.000 C 
BRANCH   5   6
ATOM      6  C   UNL     1     -28.175 -25.879  42.752  1.00  0.00     0.006 C 
BRANCH   6   7
ATOM      7  C   UNL     1     -29.411 -24.976  42.705  1.00  0.00     0.053 C 
BRANCH   7   8
ATOM      8  C   UNL     1     -30.645 -25.757  43.029  1.00  0.00     0.041 C 
ATOM      9  O   UNL     1     -31.462 -25.325  43.884  1.00  0.00    -0.550 OA
ATOM     10  O   UNL     1     -30.867 -26.988  42.425  1.00  0.00    -0.550 OA
ENDBRANCH   7   8
ENDBRANCH   6   7
ENDBRANCH   5   6
ENDBRANCH   4   5
ENDBRANCH   3   4
ENDBRANCH   2   3
ENDBRANCH   1   2
BRANCH   1  11
ATOM     11  C   UNL     1     -21.826 -23.463  40.427  1.00  0.00     0.000 C 
BRANCH  11  12
ATOM     12  C   UNL     1     -20.681 -24.144  39.661  1.00  0.00     0.000 C 
BRANCH  12  13
ATOM     13  C   UNL     1     -20.554 -25.640  39.990  1.00  0.00     0.000 C 
BRANCH  13  14
ATOM     14  C   UNL     1     -20.281 -26.459  38.722  1.00  0.00     0.000 C 
BRANCH  14  15
ATOM     15  C   UNL     1     -21.474 -27.366  38.387  1.00  0.00     0.000 C 
BRANCH  15  16
ATOM     16  C   UNL     1     -22.251 -27.816  39.638  1.00  0.00     0.006 C 
BRANCH  16  17
ATOM     17  C   UNL     1     -23.185 -29.014  39.406  1.00  0.00     0.053 C 
BRANCH  17  18
ATOM     18  C   UNL     1     -23.981 -29.350  40.629  1.00  0.00     0.041 C 
ATOM     19  O   UNL     1     -23.440 -29.321  41.766  1.00  0.00    -0.550 OA
ATOM     20  O   UNL     1     -25.329 -29.665  40.517  1.00  0.00    -0.550 OA
ENDBRANCH  17  18
ENDBRANCH  16  17
ENDBRANCH  15  16
ENDBRANCH  14  15
ENDBRANCH  13  14
ENDBRANCH  12  13
ENDBRANCH  11  12
ENDBRANCH   1  11
TORSDOF 15
ENDMDL
MODEL 7
REMARK VINA RESULT:    -4.918      2.685      5.765
REMARK INTER + INTRA:         -10.939
REMARK INTER:                  -9.676
REMARK INTRA:                  -1.262
REMARK UNBOUND:                -1.709
REMARK SMILES O=C([O-])CCCCCCCCCCCCCCC(=O)[O-]
REMARK SMILES IDX 10 1 9 2 8 3 7 4 6 5 5 6 4 7 2 8 1 9 3 10 11 11 12 12 13 13
REMARK SMILES IDX 14 14 15 15 16 16 17 17 18 18 19 19 20 20
REMARK H PARENT
REMARK Flexibility Score: inf
ROOT
ATOM      1  C   UNL     1     -25.135 -28.445  40.228  1.00  0.00     0.000 C 
ENDROOT
BRANCH   1   2
ATOM      2  C   UNL     1     -24.453 -27.859  41.479  1.00  0.00     0.000 C 
BRANCH   2   3
ATOM      3  C   UNL     1     -24.614 -26.336  41.658  1.00  0.00     0.000 C 
BRANCH   3   4
ATOM      4  C   UNL     1     -26.043 -25.797  41.449  1.00  0.00     0.000 C 
BRANCH   4   5
ATOM      5  C   UNL     1     -26.724 -25.254  42.718  1.00  0.00     0.000 C 
BRANCH   5   6
ATOM      6  C   UNL     1     -28.216 -24.956  42.514  1.00  0.00     0.006 C 
BRANCH   6   7
ATOM      7  C   UNL     1     -29.052 -26.233  42.638  1.00  0.00     0.053 C 
BRANCH   7   8
ATOM      8  C   UNL     1     -30.356 -26.079  41.921  1.00  0.00     0.041 C 
ATOM      9  O   UNL     1     -30.638 -24.996  41.345  1.00  0.00    -0.550 OA
ATOM     10  O   UNL     1     -31.282 -27.114  41.931  1.00  0.00    -0.550 OA
ENDBRANCH   7   8
ENDBRANCH   6   7
ENDBRANCH   5   6
ENDBRANCH   4   5
ENDBRANCH   3   4
ENDBRANCH   2   3
ENDBRANCH   1   2
BRANCH   1  11
ATOM     11  C   UNL     1     -24.141 -29.132  39.275  1.00  0.00     0.000 C 
BRANCH  11  12
ATOM     12  C   UNL     1     -22.707 -28.603  39.440  1.00  0.00     0.000 C 
BRANCH  12  13
ATOM     13  C   UNL     1     -22.076 -28.174  38.106  1.00  0.00     0.000 C 
BRANCH  13  14
ATOM     14  C   UNL     1     -21.115 -26.996  38.308  1.00  0.00     0.000 C 
BRANCH  14  15
ATOM     15  C   UNL     1     -21.182 -26.473  39.751  1.00  0.00     0.000 C 
BRANCH  15  16
ATOM     16  C   UNL     1     -20.330 -25.208  39.967  1.00  0.00     0.006 C 
BRANCH  16  17
ATOM     17  C   UNL     1     -21.030 -23.899  39.567  1.00  0.00     0.053 C 
BRANCH  17  18
ATOM     18  C   UNL     1     -22.162 -23.565  40.489  1.00  0.00     0.041 C 
ATOM     19  O   UNL     1     -23.236 -23.095  40.031  1.00  0.00    -0.550 OA
ATOM     20  O   UNL     1     -22.042 -23.802  41.853  1.00  0.00    -0.550 OA
ENDBRANCH  17  18
ENDBRANCH  16  17
ENDBRANCH  15  16
ENDBRANCH  14  15
ENDBRANCH  13  14
ENDBRANCH  12  13
ENDBRANCH  11  12
ENDBRANCH   1  11
TORSDOF 15
ENDMDL
MODEL 8
REMARK VINA RESULT:    -4.829      2.698      5.768
REMARK INTER + INTRA:         -10.772
REMARK INTER:                  -9.442
REMARK INTRA:                  -1.330
REMARK UNBOUND:                -1.709
REMARK SMILES O=C([O-])CCCCCCCCCCCCCCC(=O)[O-]
REMARK SMILES IDX 10 1 9 2 8 3 7 4 6 5 5 6 4 7 2 8 1 9 3 10 11 11 12 12 13 13
REMARK SMILES IDX 14 14 15 15 16 16 17 17 18 18 19 19 20 20
REMARK H PARENT
REMARK Flexibility Score: inf
ROOT
ATOM      1  C   UNL     1     -20.498 -26.290  39.034  1.00  0.00     0.000 C 
ENDROOT
BRANCH   1   2
ATOM      2  C   UNL     1     -21.117 -24.895  39.243  1.00  0.00     0.000 C 
BRANCH   2   3
ATOM      3  C   UNL     1     -21.409 -24.521  40.710  1.00  0.00     0.000 C 
BRANCH   3   4
ATOM      4  C   UNL     1     -22.896 -24.302  41.048  1.00  0.00     0.000 C 
BRANCH   4   5
ATOM      5  C   UNL     1     -23.351 -22.831  41.050  1.00  0.00     0.000 C 
BRANCH   5   6
ATOM      6  C   UNL     1     -23.759 -22.331  39.657  1.00  0.00     0.006 C 
BRANCH   6   7
ATOM      7  C   UNL     1     -22.782 -21.267  39.148  1.00  0.00     0.053 C 
BRANCH   7   8
ATOM      8  C   UNL     1     -23.453 -19.932  39.071  1.00  0.00     0.041 C 
ATOM      9  O   UNL     1     -24.587 -19.762  39.590  1.00  0.00    -0.550 OA
ATOM     10  O   UNL     1     -22.848 -18.889  38.381  1.00  0.00    -0.550 OA
ENDBRANCH   7   8
ENDBRANCH   6   7
ENDBRANCH   5   6
ENDBRANCH   4   5
ENDBRANCH   3   4
ENDBRANCH   2   3
ENDBRANCH   1   2
BRANCH   1  11
ATOM     11  C   UNL     1     -21.111 -27.041  37.840  1.00  0.00     0.000 C 
BRANCH  11  12
ATOM     12  C   UNL     1     -22.071 -28.159  38.278  1.00  0.00     0.000 C 
BRANCH  12  13
ATOM     13  C   UNL     1     -22.346 -28.148  39.789  1.00  0.00     0.000 C 
BRANCH  13  14
ATOM     14  C   UNL     1     -23.354 -29.239  40.171  1.00  0.00     0.000 C 
BRANCH  14  15
ATOM     15  C   UNL     1     -24.045 -28.907  41.503  1.00  0.00     0.000 C 
BRANCH  15  16
ATOM     16  C   UNL     1     -24.672 -27.500  41.514  1.00  0.00     0.006 C 
BRANCH  16  17
ATOM     17  C   UNL     1     -26.080 -27.431  40.901  1.00  0.00     0.053 C 
BRANCH  17  18
ATOM     18  C   UNL     1     -26.877 -26.292  41.458  1.00  0.00     0.041 C 
ATOM     19  O   UNL     1     -28.026 -26.493  41.933  1.00  0.00    -0.550 OA
ATOM     20  O   UNL     1     -26.339 -25.011  41.480  1.00  0.00    -0.550 OA
ENDBRANCH  17  18
ENDBRANCH  16  17
ENDBRANCH  15  16
ENDBRANCH  14  15
ENDBRANCH  13  14
ENDBRANCH  12  13
ENDBRANCH  11  12
ENDBRANCH   1  11
TORSDOF 15
ENDMDL
MODEL 9
REMARK VINA RESULT:    -4.796      2.929      4.698
REMARK INTER + INTRA:         -10.711
REMARK INTER:                  -9.451
REMARK INTRA:                  -1.260
REMARK UNBOUND:                -1.709
REMARK SMILES O=C([O-])CCCCCCCCCCCCCCC(=O)[O-]
REMARK SMILES IDX 10 1 9 2 8 3 7 4 6 5 5 6 4 7 2 8 1 9 3 10 11 11 12 12 13 13
REMARK SMILES IDX 14 14 15 15 16 16 17 17 18 18 19 19 20 20
REMARK H PARENT
REMARK Flexibility Score: inf
ROOT
ATOM      1  C   UNL     1     -22.568 -28.985  39.371  1.00  0.00     0.000 C 
ENDROOT
BRANCH   1   2
ATOM      2  C   UNL     1     -22.125 -28.122  38.174  1.00  0.00     0.000 C 
BRANCH   2   3
ATOM      3  C   UNL     1     -21.238 -26.913  38.532  1.00  0.00     0.000 C 
BRANCH   3   4
ATOM      4  C   UNL     1     -21.121 -26.606  40.038  1.00  0.00     0.000 C 
BRANCH   4   5
ATOM      5  C   UNL     1     -21.179 -25.111  40.402  1.00  0.00     0.000 C 
BRANCH   5   6
ATOM      6  C   UNL     1     -22.426 -24.745  41.220  1.00  0.00     0.006 C 
BRANCH   6   7
ATOM      7  C   UNL     1     -22.624 -23.227  41.266  1.00  0.00     0.053 C 
BRANCH   7   8
ATOM      8  C   UNL     1     -23.675 -22.805  40.287  1.00  0.00     0.041 C 
ATOM      9  O   UNL     1     -23.360 -22.525  39.101  1.00  0.00    -0.550 OA
ATOM     10  O   UNL     1     -24.995 -22.673  40.699  1.00  0.00    -0.550 OA
ENDBRANCH   7   8
ENDBRANCH   6   7
ENDBRANCH   5   6
ENDBRANCH   4   5
ENDBRANCH   3   4
ENDBRANCH   2   3
ENDBRANCH   1   2
BRANCH   1  11
ATOM     11  C   UNL     1     -24.085 -28.921  39.621  1.00  0.00     0.000 C 
BRANCH  11  12
ATOM     12  C   UNL     1     -24.432 -28.848  41.117  1.00  0.00     0.000 C 
BRANCH  12  13
ATOM     13  C   UNL     1     -24.741 -27.418  41.586  1.00  0.00     0.000 C 
BRANCH  13  14
ATOM     14  C   UNL     1     -26.187 -27.031  41.250  1.00  0.00     0.000 C 
BRANCH  14  15
ATOM     15  C   UNL     1     -26.484 -25.588  41.683  1.00  0.00     0.000 C 
BRANCH  15  16
ATOM     16  C   UNL     1     -27.483 -25.510  42.853  1.00  0.00     0.006 C 
BRANCH  16  17
ATOM     17  C   UNL     1     -28.884 -26.049  42.524  1.00  0.00     0.053 C 
BRANCH  17  18
ATOM     18  C   UNL     1     -29.959 -25.067  42.877  1.00  0.00     0.041 C 
ATOM     19  O   UNL     1     -29.736 -23.830  42.810  1.00  0.00    -0.550 OA
ATOM     20  O   UNL     1     -31.219 -25.519  43.250  1.00  0.00    -0.550 OA
ENDBRANCH  17  18
ENDBRANCH  16  17
ENDBRANCH  15  16
ENDBRANCH  14  15
ENDBRANCH  13  14
ENDBRANCH  12  13
ENDBRANCH  11  12
ENDBRANCH   1  11
TORSDOF 15
ENDMDL
