MODEL 1
REMARK VINA RESULT:    -5.216      0.000      0.000
REMARK INTER + INTRA:          -5.216
REMARK INTER:                  -5.216
REMARK INTRA:                   0.000
REMARK UNBOUND:                 0.000
REMARK SMILES CC1=CC(=O)[C@@H]2C[C@H]1C2(C)C
REMARK SMILES IDX 1 1 2 2 3 3 4 4 5 5 6 6 7 7 8 8 9 9 10 10 11 11
REMARK H PARENT
REMARK Flexibility Score: inf
ROOT
ATOM      1  C   UNL     1      -7.768  19.787   4.114  1.00  0.00     0.040 C 
ATOM      2  C   UNL     1      -9.083  19.752   4.827  1.00  0.00    -0.066 C 
ATOM      3  C   UNL     1     -10.245  19.509   4.159  1.00  0.00     0.047 C 
ATOM      4  C   UNL     1     -11.492  19.470   4.990  1.00  0.00     0.159 C 
ATOM      5  O   UNL     1     -12.621  19.216   4.495  1.00  0.00    -0.295 OA
ATOM      6  C   UNL     1     -11.295  19.758   6.478  1.00  0.00     0.067 C 
ATOM      7  C   UNL     1     -10.370  20.995   6.504  1.00  0.00     0.021 C 
ATOM      8  C   UNL     1      -9.191  20.008   6.346  1.00  0.00     0.022 C 
ATOM      9  C   UNL     1     -10.093  18.916   6.991  1.00  0.00    -0.019 C 
ATOM     10  C   UNL     1      -9.949  17.452   6.488  1.00  0.00     0.012 C 
ATOM     11  C   UNL     1      -9.995  18.911   8.538  1.00  0.00     0.012 C 
ENDROOT
TORSDOF 0
ENDMDL
MODEL 2
REMARK VINA RESULT:    -5.163      1.861      3.303
REMARK INTER + INTRA:          -5.163
REMARK INTER:                  -5.163
REMARK INTRA:                   0.000
REMARK UNBOUND:                 0.000
REMARK SMILES CC1=CC(=O)[C@@H]2C[C@H]1C2(C)C
REMARK SMILES IDX 1 1 2 2 3 3 4 4 5 5 6 6 7 7 8 8 9 9 10 10 11 11
REMARK H PARENT
REMARK Flexibility Score: inf
ROOT
ATOM      1  C   UNL     1      -9.676  18.311   9.049  1.00  0.00     0.040 C 
ATOM      2  C   UNL     1      -9.543  18.757   7.628  1.00  0.00    -0.066 C 
ATOM      3  C   UNL     1      -8.402  18.532   6.918  1.00  0.00     0.047 C 
ATOM      4  C   UNL     1      -8.403  18.998   5.494  1.00  0.00     0.159 C 
ATOM      5  O   UNL     1      -7.424  18.814   4.726  1.00  0.00    -0.295 OA
ATOM      6  C   UNL     1      -9.677  19.713   5.041  1.00  0.00     0.067 C 
ATOM      7  C   UNL     1      -9.989  20.695   6.192  1.00  0.00     0.021 C 
ATOM      8  C   UNL     1     -10.680  19.508   6.901  1.00  0.00     0.022 C 
ATOM      9  C   UNL     1     -10.904  18.873   5.497  1.00  0.00    -0.019 C 
ATOM     10  C   UNL     1     -10.829  17.326   5.370  1.00  0.00     0.012 C 
ATOM     11  C   UNL     1     -12.223  19.352   4.839  1.00  0.00     0.012 C 
ENDROOT
TORSDOF 0
ENDMDL
MODEL 3
REMARK VINA RESULT:    -5.082      1.812      3.208
REMARK INTER + INTRA:          -5.082
REMARK INTER:                  -5.082
REMARK INTRA:                   0.000
REMARK UNBOUND:                 0.000
REMARK SMILES CC1=CC(=O)[C@@H]2C[C@H]1C2(C)C
REMARK SMILES IDX 1 1 2 2 3 3 4 4 5 5 6 6 7 7 8 8 9 9 10 10 11 11
REMARK H PARENT
REMARK Flexibility Score: inf
ROOT
ATOM      1  C   UNL     1     -12.632  19.498   4.972  1.00  0.00     0.040 C 
ATOM      2  C   UNL     1     -11.259  19.074   5.386  1.00  0.00    -0.066 C 
ATOM      3  C   UNL     1     -10.793  17.822   5.119  1.00  0.00     0.047 C 
ATOM      4  C   UNL     1      -9.390  17.529   5.557  1.00  0.00     0.159 C 
ATOM      5  O   UNL     1      -8.833  16.423   5.333  1.00  0.00    -0.295 OA
ATOM      6  C   UNL     1      -8.684  18.667   6.294  1.00  0.00     0.067 C 
ATOM      7  C   UNL     1      -9.736  19.172   7.306  1.00  0.00     0.021 C 
ATOM      8  C   UNL     1     -10.311  20.023   6.151  1.00  0.00     0.022 C 
ATOM      9  C   UNL     1      -8.900  19.984   5.495  1.00  0.00    -0.019 C 
ATOM     10  C   UNL     1      -8.812  19.929   3.944  1.00  0.00     0.012 C 
ATOM     11  C   UNL     1      -7.988  21.132   5.994  1.00  0.00     0.012 C 
ENDROOT
TORSDOF 0
ENDMDL
MODEL 4
REMARK VINA RESULT:    -5.055      0.920      3.157
REMARK INTER + INTRA:          -5.055
REMARK INTER:                  -5.055
REMARK INTRA:                   0.000
REMARK UNBOUND:                 0.000
REMARK SMILES CC1=CC(=O)[C@@H]2C[C@H]1C2(C)C
REMARK SMILES IDX 1 1 2 2 3 3 4 4 5 5 6 6 7 7 8 8 9 9 10 10 11 11
REMARK H PARENT
REMARK Flexibility Score: inf
ROOT
ATOM      1  C   UNL     1     -10.005  18.918   8.735  1.00  0.00     0.040 C 
ATOM      2  C   UNL     1     -10.066  19.040   7.246  1.00  0.00    -0.066 C 
ATOM      3  C   UNL     1     -11.165  19.545   6.620  1.00  0.00     0.047 C 
ATOM      4  C   UNL     1     -11.091  19.646   5.127  1.00  0.00     0.159 C 
ATOM      5  O   UNL     1     -12.026  20.131   4.439  1.00  0.00    -0.295 OA
ATOM      6  C   UNL     1      -9.800  19.118   4.499  1.00  0.00     0.067 C 
ATOM      7  C   UNL     1      -9.558  17.769   5.211  1.00  0.00     0.021 C 
ATOM      8  C   UNL     1      -8.897  18.585   6.345  1.00  0.00     0.022 C 
ATOM      9  C   UNL     1      -8.593  19.692   5.294  1.00  0.00    -0.019 C 
ATOM     10  C   UNL     1      -8.649  21.176   5.753  1.00  0.00     0.012 C 
ATOM     11  C   UNL     1      -7.245  19.459   4.567  1.00  0.00     0.012 C 
ENDROOT
TORSDOF 0
ENDMDL
MODEL 5
REMARK VINA RESULT:    -4.936      1.210      2.377
REMARK INTER + INTRA:          -4.936
REMARK INTER:                  -4.936
REMARK INTRA:                   0.000
REMARK UNBOUND:                 0.000
REMARK SMILES CC1=CC(=O)[C@@H]2C[C@H]1C2(C)C
REMARK SMILES IDX 1 1 2 2 3 3 4 4 5 5 6 6 7 7 8 8 9 9 10 10 11 11
REMARK H PARENT
REMARK Flexibility Score: inf
ROOT
ATOM      1  C   UNL     1      -9.962  16.025   5.012  1.00  0.00     0.040 C 
ATOM      2  C   UNL     1     -10.178  17.501   5.103  1.00  0.00    -0.066 C 
ATOM      3  C   UNL     1     -11.431  18.036   5.111  1.00  0.00     0.047 C 
ATOM      4  C   UNL     1     -11.517  19.526   5.238  1.00  0.00     0.159 C 
ATOM      5  O   UNL     1     -12.617  20.134   5.296  1.00  0.00    -0.295 OA
ATOM      6  C   UNL     1     -10.174  20.256   5.292  1.00  0.00     0.067 C 
ATOM      7  C   UNL     1      -9.346  19.608   4.161  1.00  0.00     0.021 C 
ATOM      8  C   UNL     1      -8.997  18.493   5.174  1.00  0.00     0.022 C 
ATOM      9  C   UNL     1      -9.255  19.525   6.311  1.00  0.00    -0.019 C 
ATOM     10  C   UNL     1      -9.882  19.014   7.638  1.00  0.00     0.012 C 
ATOM     11  C   UNL     1      -7.988  20.347   6.657  1.00  0.00     0.012 C 
ENDROOT
TORSDOF 0
ENDMDL
MODEL 6
REMARK VINA RESULT:    -4.848      1.699      2.620
REMARK INTER + INTRA:          -4.848
REMARK INTER:                  -4.848
REMARK INTRA:                   0.000
REMARK UNBOUND:                 0.000
REMARK SMILES CC1=CC(=O)[C@@H]2C[C@H]1C2(C)C
REMARK SMILES IDX 1 1 2 2 3 3 4 4 5 5 6 6 7 7 8 8 9 9 10 10 11 11
REMARK H PARENT
REMARK Flexibility Score: inf
ROOT
ATOM      1  C   UNL     1      -6.456  19.891   6.006  1.00  0.00     0.040 C 
ATOM      2  C   UNL     1      -7.928  19.890   6.265  1.00  0.00    -0.066 C 
ATOM      3  C   UNL     1      -8.622  21.053   6.417  1.00  0.00     0.047 C 
ATOM      4  C   UNL     1     -10.098  20.921   6.640  1.00  0.00     0.159 C 
ATOM      5  O   UNL     1     -10.852  21.921   6.756  1.00  0.00    -0.295 OA
ATOM      6  C   UNL     1     -10.622  19.486   6.716  1.00  0.00     0.067 C 
ATOM      7  C   UNL     1      -9.618  18.765   7.642  1.00  0.00     0.021 C 
ATOM      8  C   UNL     1      -8.732  18.577   6.390  1.00  0.00     0.022 C 
ATOM      9  C   UNL     1     -10.025  18.678   5.530  1.00  0.00    -0.019 C 
ATOM     10  C   UNL     1      -9.931  19.367   4.139  1.00  0.00     0.012 C 
ATOM     11  C   UNL     1     -10.717  17.304   5.346  1.00  0.00     0.012 C 
ENDROOT
TORSDOF 0
ENDMDL
MODEL 7
REMARK VINA RESULT:    -4.847      1.803      2.898
REMARK INTER + INTRA:          -4.847
REMARK INTER:                  -4.847
REMARK INTRA:                   0.000
REMARK UNBOUND:                 0.000
REMARK SMILES CC1=CC(=O)[C@@H]2C[C@H]1C2(C)C
REMARK SMILES IDX 1 1 2 2 3 3 4 4 5 5 6 6 7 7 8 8 9 9 10 10 11 11
REMARK H PARENT
REMARK Flexibility Score: inf
ROOT
ATOM      1  C   UNL     1      -7.907  20.294   3.875  1.00  0.00     0.040 C 
ATOM      2  C   UNL     1      -8.869  19.379   4.563  1.00  0.00    -0.066 C 
ATOM      3  C   UNL     1      -8.440  18.421   5.430  1.00  0.00     0.047 C 
ATOM      4  C   UNL     1      -9.503  17.588   6.079  1.00  0.00     0.159 C 
ATOM      5  O   UNL     1      -9.236  16.698   6.926  1.00  0.00    -0.295 OA
ATOM      6  C   UNL     1     -10.935  17.897   5.639  1.00  0.00     0.067 C 
ATOM      7  C   UNL     1     -10.844  18.000   4.101  1.00  0.00     0.021 C 
ATOM      8  C   UNL     1     -10.390  19.462   4.312  1.00  0.00     0.022 C 
ATOM      9  C   UNL     1     -11.142  19.438   5.675  1.00  0.00    -0.019 C 
ATOM     10  C   UNL     1     -10.535  20.237   6.862  1.00  0.00     0.012 C 
ATOM     11  C   UNL     1     -12.633  19.836   5.532  1.00  0.00     0.012 C 
ENDROOT
TORSDOF 0
ENDMDL
MODEL 8
REMARK VINA RESULT:    -4.830      1.784      3.004
REMARK INTER + INTRA:          -4.830
REMARK INTER:                  -4.830
REMARK INTRA:                   0.000
REMARK UNBOUND:                 0.000
REMARK SMILES CC1=CC(=O)[C@@H]2C[C@H]1C2(C)C
REMARK SMILES IDX 1 1 2 2 3 3 4 4 5 5 6 6 7 7 8 8 9 9 10 10 11 11
REMARK H PARENT
REMARK Flexibility Score: inf
ROOT
ATOM      1  C   UNL     1     -12.259  19.475   4.142  1.00  0.00     0.040 C 
ATOM      2  C   UNL     1     -10.978  19.128   4.832  1.00  0.00    -0.066 C 
ATOM      3  C   UNL     1      -9.776  19.257   4.205  1.00  0.00     0.047 C 
ATOM      4  C   UNL     1      -8.564  18.908   5.013  1.00  0.00     0.159 C 
ATOM      5  O   UNL     1      -7.397  19.022   4.558  1.00  0.00    -0.295 OA
ATOM      6  C   UNL     1      -8.846  18.403   6.429  1.00  0.00     0.067 C 
ATOM      7  C   UNL     1      -9.991  17.384   6.246  1.00  0.00     0.021 C 
ATOM      8  C   UNL     1     -10.955  18.592   6.280  1.00  0.00     0.022 C 
ATOM      9  C   UNL     1      -9.875  19.357   7.099  1.00  0.00    -0.019 C 
ATOM     10  C   UNL     1      -9.725  20.887   6.866  1.00  0.00     0.012 C 
ATOM     11  C   UNL     1     -10.005  19.108   8.623  1.00  0.00     0.012 C 
ENDROOT
TORSDOF 0
ENDMDL
MODEL 9
REMARK VINA RESULT:    -4.826      1.822      3.000
REMARK INTER + INTRA:          -4.826
REMARK INTER:                  -4.826
REMARK INTRA:                   0.000
REMARK UNBOUND:                 0.000
REMARK SMILES CC1=CC(=O)[C@@H]2C[C@H]1C2(C)C
REMARK SMILES IDX 1 1 2 2 3 3 4 4 5 5 6 6 7 7 8 8 9 9 10 10 11 11
REMARK H PARENT
REMARK Flexibility Score: inf
ROOT
ATOM      1  C   UNL     1      -8.967  16.443   5.806  1.00  0.00     0.040 C 
ATOM      2  C   UNL     1      -9.262  17.907   5.876  1.00  0.00    -0.066 C 
ATOM      3  C   UNL     1      -8.354  18.835   5.464  1.00  0.00     0.047 C 
ATOM      4  C   UNL     1      -8.781  20.268   5.555  1.00  0.00     0.159 C 
ATOM      5  O   UNL     1      -8.046  21.214   5.169  1.00  0.00    -0.295 OA
ATOM      6  C   UNL     1     -10.171  20.500   6.149  1.00  0.00     0.067 C 
ATOM      7  C   UNL     1     -10.207  19.587   7.394  1.00  0.00     0.021 C 
ATOM      8  C   UNL     1     -10.600  18.441   6.434  1.00  0.00     0.022 C 
ATOM      9  C   UNL     1     -11.169  19.521   5.469  1.00  0.00    -0.019 C 
ATOM     10  C   UNL     1     -11.041  19.280   3.938  1.00  0.00     0.012 C 
ATOM     11  C   UNL     1     -12.645  19.872   5.784  1.00  0.00     0.012 C 
ENDROOT
TORSDOF 0
ENDMDL
