MODEL 1
REMARK VINA RESULT:    -3.656      0.000      0.000
REMARK INTER + INTRA:          -5.929
REMARK INTER:                  -5.366
REMARK INTRA:                  -0.564
REMARK UNBOUND:                -0.564
REMARK SMILES C=C1C=C[C@H](C(C)C)CCC(C)=CCC1
REMARK SMILES IDX 3 1 4 2 5 3 9 4 10 5 11 6 12 7 13 8 6 10 7 11 8 12 2 13 1 14
REMARK SMILES IDX 15 15 14 16
REMARK H PARENT
REMARK Flexibility Score: 70.00
ROOT
ATOM      1  C   UNL     1      32.007   7.501  32.962  1.00  0.00    -0.001 C 
ATOM      2  C   UNL     1      32.374   8.768  32.697  1.00  0.00    -0.023 C 
ENDROOT
BRANCH   2   3
ATOM      3  C   UNL     1      31.511  10.004  32.889  1.00  0.00     0.014 C 
BRANCH   3   4
ATOM      4  C   UNL     1      31.865  10.747  34.211  1.00  0.00     0.012 C 
BRANCH   4   5
ATOM      5  C   UNL     1      30.704  10.881  35.223  1.00  0.00     0.031 C 
BRANCH   5   6
ATOM      6  C   UNL     1      30.832  10.075  36.509  1.00  0.00    -0.077 C 
ATOM      7  C   UNL     1      31.522  10.744  37.673  1.00  0.00     0.039 C 
ATOM      8  C   UNL     1      30.400   8.797  36.651  1.00  0.00    -0.028 CG0
ATOM      9  G   UNL     1      29.638   8.008  35.617  1.00  0.00     0.000 G0
ENDBRANCH   5   6
ENDBRANCH   4   5
ENDBRANCH   3   4
BRANCH   3  10
ATOM     10  C   UNL     1      31.524  10.965  31.655  1.00  0.00    -0.010 C 
ATOM     11  C   UNL     1      32.609  12.062  31.700  1.00  0.00     0.008 C 
ATOM     12  C   UNL     1      31.632  10.179  30.339  1.00  0.00     0.008 C 
ENDBRANCH   3  10
ENDBRANCH   2   3
BRANCH   1  13
ATOM     13  C   UNL     1      30.708   7.048  33.525  1.00  0.00    -0.055 C 
ATOM     14  C   UNL     1      29.664   6.938  32.696  1.00  0.00     0.012 C 
BRANCH  13  15
ATOM     15  C   UNL     1      30.485   6.869  35.010  1.00  0.00     0.039 C 
BRANCH  15  16
ATOM     16  C   UNL     1      29.624   7.997  35.632  1.00  0.00     0.032 CG0
ATOM     17  G   UNL     1      30.401   8.788  36.653  1.00  0.00     0.000 G0
ENDBRANCH  15  16
ENDBRANCH  13  15
ENDBRANCH   1  13
TORSDOF 1
ENDMDL
MODEL 2
REMARK VINA RESULT:    -3.618      2.933      6.020
REMARK INTER + INTRA:          -5.874
REMARK INTER:                  -5.423
REMARK INTRA:                  -0.450
REMARK UNBOUND:                -0.564
REMARK SMILES C=C1C=C[C@H](C(C)C)CCC(C)=CCC1
REMARK SMILES IDX 3 1 4 2 5 3 9 4 10 5 11 6 12 7 13 8 6 10 7 11 8 12 2 13 1 14
REMARK SMILES IDX 15 15 14 16
REMARK H PARENT
REMARK Flexibility Score: 70.00
ROOT
ATOM      1  C   UNL     1      33.103   9.990  32.528  1.00  0.00    -0.001 C 
ATOM      2  C   UNL     1      32.702   8.750  32.865  1.00  0.00    -0.023 C 
ENDROOT
BRANCH   2   3
ATOM      3  C   UNL     1      31.291   8.203  32.728  1.00  0.00     0.014 C 
BRANCH   3   4
ATOM      4  C   UNL     1      31.094   7.467  31.370  1.00  0.00     0.012 C 
BRANCH   4   5
ATOM      5  C   UNL     1      30.215   8.210  30.338  1.00  0.00     0.031 C 
BRANCH   5   6
ATOM      6  C   UNL     1      30.898   8.627  29.042  1.00  0.00    -0.077 C 
ATOM      7  C   UNL     1      31.147   7.546  28.018  1.00  0.00     0.039 C 
ATOM      8  C   UNL     1      31.322   9.888  28.779  1.00  0.00    -0.028 CG0
ATOM      9  G   UNL     1      31.098  11.091  29.658  1.00  0.00     0.000 G0
ENDBRANCH   5   6
ENDBRANCH   4   5
ENDBRANCH   3   4
BRANCH   3  10
ATOM     10  C   UNL     1      30.849   7.321  33.941  1.00  0.00    -0.010 C 
ATOM     11  C   UNL     1      30.926   8.021  35.314  1.00  0.00     0.008 C 
ATOM     12  C   UNL     1      29.439   6.748  33.727  1.00  0.00     0.008 C 
ENDBRANCH   3  10
ENDBRANCH   2   3
BRANCH   1  13
ATOM     13  C   UNL     1      32.271  11.064  31.924  1.00  0.00    -0.055 C 
ATOM     14  C   UNL     1      31.296  11.601  32.667  1.00  0.00     0.012 C 
BRANCH  13  15
ATOM     15  C   UNL     1      32.376  11.449  30.466  1.00  0.00     0.039 C 
BRANCH  15  16
ATOM     16  C   UNL     1      31.105  11.097  29.654  1.00  0.00     0.032 CG0
ATOM     17  G   UNL     1      31.329   9.900  28.765  1.00  0.00     0.000 G0
ENDBRANCH  15  16
ENDBRANCH  13  15
ENDBRANCH   1  13
TORSDOF 1
ENDMDL
MODEL 3
REMARK VINA RESULT:    -3.566      4.227      6.884
REMARK INTER + INTRA:          -5.797
REMARK INTER:                  -5.303
REMARK INTRA:                  -0.494
REMARK UNBOUND:                -0.564
REMARK SMILES C=C1C=C[C@H](C(C)C)CCC(C)=CCC1
REMARK SMILES IDX 3 1 4 2 5 3 9 4 10 5 11 6 12 7 13 8 6 10 7 11 8 12 2 13 1 14
REMARK SMILES IDX 15 15 14 16
REMARK H PARENT
REMARK Flexibility Score: 70.00
ROOT
ATOM      1  C   UNL     1      29.483   8.799  29.911  1.00  0.00    -0.001 C 
ATOM      2  C   UNL     1      30.070   9.948  30.292  1.00  0.00    -0.023 C 
ENDROOT
BRANCH   2   3
ATOM      3  C   UNL     1      31.541  10.292  30.135  1.00  0.00     0.014 C 
BRANCH   3   4
ATOM      4  C   UNL     1      31.741  11.545  29.232  1.00  0.00     0.012 C 
BRANCH   4   5
ATOM      5  C   UNL     1      32.401  11.272  27.861  1.00  0.00     0.031 C 
BRANCH   5   6
ATOM      6  C   UNL     1      31.463  10.899  26.721  1.00  0.00    -0.077 C 
ATOM      7  C   UNL     1      30.956  12.025  25.852  1.00  0.00     0.039 C 
ATOM      8  C   UNL     1      31.035   9.637  26.471  1.00  0.00    -0.028 CG0
ATOM      9  G   UNL     1      31.490   8.396  27.197  1.00  0.00     0.000 G0
ENDBRANCH   5   6
ENDBRANCH   4   5
ENDBRANCH   3   4
BRANCH   3  10
ATOM     10  C   UNL     1      32.294  10.427  31.500  1.00  0.00    -0.010 C 
ATOM     11  C   UNL     1      32.116  11.787  32.205  1.00  0.00     0.008 C 
ATOM     12  C   UNL     1      31.914   9.288  32.458  1.00  0.00     0.008 C 
ENDBRANCH   3  10
ENDBRANCH   2   3
BRANCH   1  13
ATOM     13  C   UNL     1      30.135   7.648  29.230  1.00  0.00    -0.055 C 
ATOM     14  C   UNL     1      30.740   6.726  29.987  1.00  0.00     0.012 C 
BRANCH  13  15
ATOM     15  C   UNL     1      30.281   7.570  27.727  1.00  0.00     0.039 C 
BRANCH  15  16
ATOM     16  C   UNL     1      31.482   8.390  27.193  1.00  0.00     0.032 CG0
ATOM     17  G   UNL     1      31.028   9.632  26.471  1.00  0.00     0.000 G0
ENDBRANCH  15  16
ENDBRANCH  13  15
ENDBRANCH   1  13
TORSDOF 1
ENDMDL
MODEL 4
REMARK VINA RESULT:    -3.458      2.154      4.775
REMARK INTER + INTRA:          -5.639
REMARK INTER:                  -5.048
REMARK INTRA:                  -0.591
REMARK UNBOUND:                -0.564
REMARK SMILES C=C1C=C[C@H](C(C)C)CCC(C)=CCC1
REMARK SMILES IDX 3 1 4 2 5 3 9 4 10 5 11 6 12 7 13 8 6 10 7 11 8 12 2 13 1 14
REMARK SMILES IDX 15 15 14 16
REMARK H PARENT
REMARK Flexibility Score: 70.00
ROOT
ATOM      1  C   UNL     1      31.305  12.243  30.902  1.00  0.00    -0.001 C 
ATOM      2  C   UNL     1      31.311  12.193  32.247  1.00  0.00    -0.023 C 
ENDROOT
BRANCH   2   3
ATOM      3  C   UNL     1      31.279  10.930  33.090  1.00  0.00     0.014 C 
BRANCH   3   4
ATOM      4  C   UNL     1      32.682  10.258  33.164  1.00  0.00     0.012 C 
BRANCH   4   5
ATOM      5  C   UNL     1      32.761   8.829  32.578  1.00  0.00     0.031 C 
BRANCH   5   6
ATOM      6  C   UNL     1      31.458   8.040  32.541  1.00  0.00    -0.077 C 
ATOM      7  C   UNL     1      31.044   7.338  33.812  1.00  0.00     0.039 C 
ATOM      8  C   UNL     1      30.683   7.905  31.437  1.00  0.00    -0.028 CG0
ATOM      9  G   UNL     1      30.916   8.587  30.112  1.00  0.00     0.000 G0
ENDBRANCH   5   6
ENDBRANCH   4   5
ENDBRANCH   3   4
BRANCH   3  10
ATOM     10  C   UNL     1      30.660  11.149  34.510  1.00  0.00    -0.010 C 
ATOM     11  C   UNL     1      29.258  10.536  34.707  1.00  0.00     0.008 C 
ATOM     12  C   UNL     1      31.608  10.650  35.612  1.00  0.00     0.008 C 
ENDBRANCH   3  10
ENDBRANCH   2   3
BRANCH   1  13
ATOM     13  C   UNL     1      31.303  11.088  29.966  1.00  0.00    -0.055 C 
ATOM     14  C   UNL     1      32.157  11.107  28.936  1.00  0.00     0.012 C 
BRANCH  13  15
ATOM     15  C   UNL     1      30.270   9.986  30.039  1.00  0.00     0.039 C 
BRANCH  15  16
ATOM     16  C   UNL     1      30.899   8.571  30.097  1.00  0.00     0.032 CG0
ATOM     17  G   UNL     1      30.684   7.924  31.442  1.00  0.00     0.000 G0
ENDBRANCH  15  16
ENDBRANCH  13  15
ENDBRANCH   1  13
TORSDOF 1
ENDMDL
MODEL 5
REMARK VINA RESULT:    -3.448      2.763      5.018
REMARK INTER + INTRA:          -5.624
REMARK INTER:                  -5.184
REMARK INTRA:                  -0.439
REMARK UNBOUND:                -0.564
REMARK SMILES C=C1C=C[C@H](C(C)C)CCC(C)=CCC1
REMARK SMILES IDX 3 1 4 2 5 3 9 4 10 5 11 6 12 7 13 8 6 10 7 11 8 12 2 13 1 14
REMARK SMILES IDX 15 15 14 16
REMARK H PARENT
REMARK Flexibility Score: 70.00
ROOT
ATOM      1  C   UNL     1      32.869  12.030  31.332  1.00  0.00    -0.001 C 
ATOM      2  C   UNL     1      32.421  12.157  30.069  1.00  0.00    -0.023 C 
ENDROOT
BRANCH   2   3
ATOM      3  C   UNL     1      31.309  11.339  29.434  1.00  0.00     0.014 C 
BRANCH   3   4
ATOM      4  C   UNL     1      29.909  11.776  29.959  1.00  0.00     0.012 C 
BRANCH   4   5
ATOM      5  C   UNL     1      29.063  10.650  30.597  1.00  0.00     0.031 C 
BRANCH   5   6
ATOM      6  C   UNL     1      29.512   9.223  30.314  1.00  0.00    -0.077 C 
ATOM      7  C   UNL     1      29.012   8.585  29.041  1.00  0.00     0.039 C 
ATOM      8  C   UNL     1      30.293   8.492  31.149  1.00  0.00    -0.028 CG0
ATOM      9  G   UNL     1      30.927   8.994  32.421  1.00  0.00     0.000 G0
ENDBRANCH   5   6
ENDBRANCH   4   5
ENDBRANCH   3   4
BRANCH   3  10
ATOM     10  C   UNL     1      31.369  11.323  27.871  1.00  0.00    -0.010 C 
ATOM     11  C   UNL     1      31.864  12.635  27.228  1.00  0.00     0.008 C 
ATOM     12  C   UNL     1      32.209  10.142  27.360  1.00  0.00     0.008 C 
ENDBRANCH   3  10
ENDBRANCH   2   3
BRANCH   1  13
ATOM     13  C   UNL     1      32.354  11.101  32.373  1.00  0.00    -0.055 C 
ATOM     14  C   UNL     1      32.047  11.605  33.573  1.00  0.00     0.012 C 
BRANCH  13  15
ATOM     15  C   UNL     1      32.323   9.602  32.179  1.00  0.00     0.039 C 
BRANCH  15  16
ATOM     16  C   UNL     1      30.924   8.988  32.431  1.00  0.00     0.032 CG0
ATOM     17  G   UNL     1      30.295   8.498  31.152  1.00  0.00     0.000 G0
ENDBRANCH  15  16
ENDBRANCH  13  15
ENDBRANCH   1  13
TORSDOF 1
ENDMDL
MODEL 6
REMARK VINA RESULT:    -3.379      3.486      5.772
REMARK INTER + INTRA:          -5.523
REMARK INTER:                  -4.875
REMARK INTRA:                  -0.647
REMARK UNBOUND:                -0.564
REMARK SMILES C=C1C=C[C@H](C(C)C)CCC(C)=CCC1
REMARK SMILES IDX 3 1 4 2 5 3 9 4 10 5 11 6 12 7 13 8 6 10 7 11 8 12 2 13 1 14
REMARK SMILES IDX 15 15 14 16
REMARK H PARENT
REMARK Flexibility Score: 70.00
ROOT
ATOM      1  C   UNL     1      29.686  10.878  29.027  1.00  0.00    -0.001 C 
ATOM      2  C   UNL     1      29.631   9.814  29.851  1.00  0.00    -0.023 C 
ENDROOT
BRANCH   2   3
ATOM      3  C   UNL     1      30.791   8.898  30.200  1.00  0.00     0.014 C 
BRANCH   3   4
ATOM      4  C   UNL     1      31.173   9.011  31.705  1.00  0.00     0.012 C 
BRANCH   4   5
ATOM      5  C   UNL     1      32.514   9.725  31.995  1.00  0.00     0.031 C 
BRANCH   5   6
ATOM      6  C   UNL     1      32.439  11.222  32.261  1.00  0.00    -0.077 C 
ATOM      7  C   UNL     1      32.188  11.654  33.686  1.00  0.00     0.039 C 
ATOM      8  C   UNL     1      32.547  12.171  31.299  1.00  0.00    -0.028 CG0
ATOM      9  G   UNL     1      32.860  11.918  29.846  1.00  0.00     0.000 G0
ENDBRANCH   5   6
ENDBRANCH   4   5
ENDBRANCH   3   4
BRANCH   3  10
ATOM     10  C   UNL     1      30.560   7.414  29.764  1.00  0.00    -0.010 C 
ATOM     11  C   UNL     1      29.081   7.007  29.609  1.00  0.00     0.008 C 
ATOM     12  C   UNL     1      31.330   7.088  28.474  1.00  0.00     0.008 C 
ENDBRANCH   3  10
ENDBRANCH   2   3
BRANCH   1  13
ATOM     13  C   UNL     1      30.887  11.398  28.322  1.00  0.00    -0.055 C 
ATOM     14  C   UNL     1      31.279  10.780  27.202  1.00  0.00     0.012 C 
BRANCH  13  15
ATOM     15  C   UNL     1      31.766  12.482  28.905  1.00  0.00     0.039 C 
BRANCH  15  16
ATOM     16  C   UNL     1      32.871  11.927  29.837  1.00  0.00     0.032 CG0
ATOM     17  G   UNL     1      32.541  12.161  31.289  1.00  0.00     0.000 G0
ENDBRANCH  15  16
ENDBRANCH  13  15
ENDBRANCH   1  13
TORSDOF 1
ENDMDL
MODEL 7
REMARK VINA RESULT:    -3.360      3.645      6.453
REMARK INTER + INTRA:          -5.494
REMARK INTER:                  -5.223
REMARK INTRA:                  -0.271
REMARK UNBOUND:                -0.564
REMARK SMILES C=C1C=C[C@H](C(C)C)CCC(C)=CCC1
REMARK SMILES IDX 3 1 4 2 5 3 9 4 10 5 11 6 12 7 13 8 6 10 7 11 8 12 2 13 1 14
REMARK SMILES IDX 15 15 14 16
REMARK H PARENT
REMARK Flexibility Score: 70.00
ROOT
ATOM      1  C   UNL     1      31.813  11.879  29.364  1.00  0.00    -0.001 C 
ATOM      2  C   UNL     1      32.400  11.134  30.319  1.00  0.00    -0.023 C 
ENDROOT
BRANCH   2   3
ATOM      3  C   UNL     1      31.690  10.189  31.273  1.00  0.00     0.014 C 
BRANCH   3   4
ATOM      4  C   UNL     1      31.257   8.876  30.557  1.00  0.00     0.012 C 
BRANCH   4   5
ATOM      5  C   UNL     1      29.732   8.688  30.389  1.00  0.00     0.031 C 
BRANCH   5   6
ATOM      6  C   UNL     1      29.261   8.143  29.047  1.00  0.00    -0.077 C 
ATOM      7  C   UNL     1      29.384   6.654  28.829  1.00  0.00     0.039 C 
ATOM      8  C   UNL     1      28.780   8.914  28.040  1.00  0.00    -0.028 CG0
ATOM      9  G   UNL     1      28.533  10.399  28.113  1.00  0.00     0.000 G0
ENDBRANCH   5   6
ENDBRANCH   4   5
ENDBRANCH   3   4
BRANCH   3  10
ATOM     10  C   UNL     1      32.502   9.903  32.579  1.00  0.00    -0.010 C 
ATOM     11  C   UNL     1      32.132  10.797  33.780  1.00  0.00     0.008 C 
ATOM     12  C   UNL     1      32.404   8.423  32.981  1.00  0.00     0.008 C 
ENDBRANCH   3  10
ENDBRANCH   2   3
BRANCH   1  13
ATOM     13  C   UNL     1      30.367  11.907  29.018  1.00  0.00    -0.055 C 
ATOM     14  C   UNL     1      29.516  12.438  29.903  1.00  0.00     0.012 C 
BRANCH  13  15
ATOM     15  C   UNL     1      29.811  11.217  27.792  1.00  0.00     0.039 C 
BRANCH  15  16
ATOM     16  C   UNL     1      28.527  10.402  28.087  1.00  0.00     0.032 CG0
ATOM     17  G   UNL     1      28.790   8.919  28.042  1.00  0.00     0.000 G0
ENDBRANCH  15  16
ENDBRANCH  13  15
ENDBRANCH   1  13
TORSDOF 1
ENDMDL
MODEL 8
REMARK VINA RESULT:    -3.346      4.822      7.841
REMARK INTER + INTRA:          -5.474
REMARK INTER:                  -5.117
REMARK INTRA:                  -0.358
REMARK UNBOUND:                -0.564
REMARK SMILES C=C1C=C[C@H](C(C)C)CCC(C)=CCC1
REMARK SMILES IDX 3 1 4 2 5 3 9 4 10 5 11 6 12 7 13 8 6 10 7 11 8 12 2 13 1 14
REMARK SMILES IDX 15 15 14 16
REMARK H PARENT
REMARK Flexibility Score: 70.00
ROOT
ATOM      1  C   UNL     1      31.702  12.120  27.483  1.00  0.00    -0.001 C 
ATOM      2  C   UNL     1      32.302  11.521  28.529  1.00  0.00    -0.023 C 
ENDROOT
BRANCH   2   3
ATOM      3  C   UNL     1      31.596  10.871  29.707  1.00  0.00     0.014 C 
BRANCH   3   4
ATOM      4  C   UNL     1      31.230   9.388  29.405  1.00  0.00     0.012 C 
BRANCH   4   5
ATOM      5  C   UNL     1      31.739   8.845  28.050  1.00  0.00     0.031 C 
BRANCH   5   6
ATOM      6  C   UNL     1      30.693   8.219  27.137  1.00  0.00    -0.077 C 
ATOM      7  C   UNL     1      30.273   6.802  27.445  1.00  0.00     0.039 C 
ATOM      8  C   UNL     1      30.157   8.841  26.058  1.00  0.00    -0.028 CG0
ATOM      9  G   UNL     1      30.416  10.268  25.648  1.00  0.00     0.000 G0
ENDBRANCH   5   6
ENDBRANCH   4   5
ENDBRANCH   3   4
BRANCH   3  10
ATOM     10  C   UNL     1      32.378  11.019  31.054  1.00  0.00    -0.010 C 
ATOM     11  C   UNL     1      31.979  12.243  31.903  1.00  0.00     0.008 C 
ATOM     12  C   UNL     1      32.272   9.740  31.900  1.00  0.00     0.008 C 
ENDBRANCH   3  10
ENDBRANCH   2   3
BRANCH   1  13
ATOM     13  C   UNL     1      30.240  12.241  27.243  1.00  0.00    -0.055 C 
ATOM     14  C   UNL     1      29.560  13.162  27.935  1.00  0.00     0.012 C 
BRANCH  13  15
ATOM     15  C   UNL     1      29.475  11.263  26.380  1.00  0.00     0.039 C 
BRANCH  15  16
ATOM     16  C   UNL     1      30.396  10.270  25.629  1.00  0.00     0.032 CG0
ATOM     17  G   UNL     1      30.150   8.848  26.063  1.00  0.00     0.000 G0
ENDBRANCH  15  16
ENDBRANCH  13  15
ENDBRANCH   1  13
TORSDOF 1
ENDMDL
MODEL 9
REMARK VINA RESULT:    -3.308      2.265      4.589
REMARK INTER + INTRA:          -5.418
REMARK INTER:                  -4.866
REMARK INTRA:                  -0.553
REMARK UNBOUND:                -0.564
REMARK SMILES C=C1C=C[C@H](C(C)C)CCC(C)=CCC1
REMARK SMILES IDX 3 1 4 2 5 3 9 4 10 5 11 6 12 7 13 8 6 10 7 11 8 12 2 13 1 14
REMARK SMILES IDX 15 15 14 16
REMARK H PARENT
REMARK Flexibility Score: 70.00
ROOT
ATOM      1  C   UNL     1      30.471  11.928  30.291  1.00  0.00    -0.001 C 
ATOM      2  C   UNL     1      30.066  10.713  29.879  1.00  0.00    -0.023 C 
ENDROOT
BRANCH   2   3
ATOM      3  C   UNL     1      30.811   9.406  30.094  1.00  0.00     0.014 C 
BRANCH   3   4
ATOM      4  C   UNL     1      30.388   8.721  31.427  1.00  0.00     0.012 C 
BRANCH   4   5
ATOM      5  C   UNL     1      31.549   8.355  32.379  1.00  0.00     0.031 C 
BRANCH   5   6
ATOM      6  C   UNL     1      31.497   8.962  33.775  1.00  0.00    -0.077 C 
ATOM      7  C   UNL     1      30.854   8.133  34.860  1.00  0.00     0.039 C 
ATOM      8  C   UNL     1      31.956  10.201  34.082  1.00  0.00    -0.028 CG0
ATOM      9  G   UNL     1      32.678  11.128  33.138  1.00  0.00     0.000 G0
ENDBRANCH   5   6
ENDBRANCH   4   5
ENDBRANCH   3   4
BRANCH   3  10
ATOM     10  C   UNL     1      30.712   8.430  28.876  1.00  0.00    -0.010 C 
ATOM     11  C   UNL     1      29.285   7.941  28.552  1.00  0.00     0.008 C 
ATOM     12  C   UNL     1      31.352   9.042  27.620  1.00  0.00     0.008 C 
ENDBRANCH   3  10
ENDBRANCH   2   3
BRANCH   1  13
ATOM     13  C   UNL     1      31.700  12.244  31.065  1.00  0.00    -0.055 C 
ATOM     14  C   UNL     1      32.845  12.410  30.394  1.00  0.00     0.012 C 
BRANCH  13  15
ATOM     15  C   UNL     1      31.736  12.221  32.577  1.00  0.00     0.039 C 
BRANCH  15  16
ATOM     16  C   UNL     1      32.685  11.135  33.142  1.00  0.00     0.032 CG0
ATOM     17  G   UNL     1      31.960  10.194  34.070  1.00  0.00     0.000 G0
ENDBRANCH  15  16
ENDBRANCH  13  15
ENDBRANCH   1  13
TORSDOF 1
ENDMDL
