MODEL 1
REMARK VINA RESULT:    -3.663      0.000      0.000
REMARK INTER + INTRA:          -4.550
REMARK INTER:                  -4.520
REMARK INTRA:                  -0.030
REMARK UNBOUND:                -0.030
REMARK SMILES CCCCCC=O
REMARK SMILES IDX 4 1 3 2 2 3 1 4 5 5 6 6 7 7
REMARK H PARENT
REMARK Flexibility Score: inf
ROOT
ATOM      1  C   UNL     1      25.460  56.613  -8.525  1.00  0.00     0.008 C 
ENDROOT
BRANCH   1   2
ATOM      2  C   UNL     1      25.381  58.085  -8.957  1.00  0.00     0.000 C 
BRANCH   2   3
ATOM      3  C   UNL     1      26.623  58.489  -9.758  1.00  0.00    -0.003 C 
ATOM      4  C   UNL     1      26.897  59.986  -9.633  1.00  0.00     0.004 C 
ENDBRANCH   2   3
ENDBRANCH   1   2
BRANCH   1   5
ATOM      5  C   UNL     1      24.113  55.893  -8.671  1.00  0.00     0.072 C 
BRANCH   5   6
ATOM      6  C   UNL     1      23.568  55.427  -7.351  1.00  0.00     0.224 C 
ATOM      7  O   UNL     1      22.475  54.885  -7.302  1.00  0.00    -0.303 OA
ENDBRANCH   5   6
ENDBRANCH   1   5
TORSDOF 4
ENDMDL
MODEL 2
REMARK VINA RESULT:    -3.530      2.820      4.855
REMARK INTER + INTRA:          -4.386
REMARK INTER:                  -4.346
REMARK INTRA:                  -0.040
REMARK UNBOUND:                -0.030
REMARK SMILES CCCCCC=O
REMARK SMILES IDX 4 1 3 2 2 3 1 4 5 5 6 6 7 7
REMARK H PARENT
REMARK Flexibility Score: inf
ROOT
ATOM      1  C   UNL     1      25.514  56.869  -8.629  1.00  0.00     0.008 C 
ENDROOT
BRANCH   1   2
ATOM      2  C   UNL     1      24.137  56.219  -8.829  1.00  0.00     0.000 C 
BRANCH   2   3
ATOM      3  C   UNL     1      23.967  55.002  -7.913  1.00  0.00    -0.003 C 
ATOM      4  C   UNL     1      22.599  55.009  -7.234  1.00  0.00     0.004 C 
ENDBRANCH   2   3
ENDBRANCH   1   2
BRANCH   1   5
ATOM      5  C   UNL     1      25.519  58.350  -9.032  1.00  0.00     0.072 C 
BRANCH   5   6
ATOM      6  C   UNL     1      26.782  58.744  -9.745  1.00  0.00     0.224 C 
ATOM      7  O   UNL     1      27.029  59.924  -9.936  1.00  0.00    -0.303 OA
ENDBRANCH   5   6
ENDBRANCH   1   5
TORSDOF 4
ENDMDL
MODEL 3
REMARK VINA RESULT:    -3.379      2.862      4.842
REMARK INTER + INTRA:          -4.200
REMARK INTER:                  -4.154
REMARK INTRA:                  -0.045
REMARK UNBOUND:                -0.030
REMARK SMILES CCCCCC=O
REMARK SMILES IDX 4 1 3 2 2 3 1 4 5 5 6 6 7 7
REMARK H PARENT
REMARK Flexibility Score: inf
ROOT
ATOM      1  C   UNL     1      25.597  58.261  -9.010  1.00  0.00     0.008 C 
ENDROOT
BRANCH   1   2
ATOM      2  C   UNL     1      25.545  56.851  -8.402  1.00  0.00     0.000 C 
BRANCH   2   3
ATOM      3  C   UNL     1      24.294  56.099  -8.869  1.00  0.00    -0.003 C 
ATOM      4  C   UNL     1      23.600  55.404  -7.701  1.00  0.00     0.004 C 
ENDBRANCH   2   3
ENDBRANCH   1   2
BRANCH   1   5
ATOM      5  C   UNL     1      26.732  58.409 -10.032  1.00  0.00     0.072 C 
BRANCH   5   6
ATOM      6  C   UNL     1      27.379  59.764  -9.976  1.00  0.00     0.224 C 
ATOM      7  O   UNL     1      26.950  60.612  -9.211  1.00  0.00    -0.303 OA
ENDBRANCH   5   6
ENDBRANCH   1   5
TORSDOF 4
ENDMDL
MODEL 4
REMARK VINA RESULT:    -3.322     16.339     17.525
REMARK INTER + INTRA:          -4.129
REMARK INTER:                  -3.980
REMARK INTRA:                  -0.150
REMARK UNBOUND:                -0.030
REMARK SMILES CCCCCC=O
REMARK SMILES IDX 4 1 3 2 2 3 1 4 5 5 6 6 7 7
REMARK H PARENT
REMARK Flexibility Score: inf
ROOT
ATOM      1  C   UNL     1      19.523  44.885   0.200  1.00  0.00     0.008 C 
ENDROOT
BRANCH   1   2
ATOM      2  C   UNL     1      17.993  44.772   0.119  1.00  0.00     0.000 C 
BRANCH   2   3
ATOM      3  C   UNL     1      17.420  44.155   1.399  1.00  0.00    -0.003 C 
ATOM      4  C   UNL     1      16.045  44.735   1.723  1.00  0.00     0.004 C 
ENDBRANCH   2   3
ENDBRANCH   1   2
BRANCH   1   5
ATOM      5  C   UNL     1      20.080  44.284   1.498  1.00  0.00     0.072 C 
BRANCH   5   6
ATOM      6  C   UNL     1      21.062  43.176   1.240  1.00  0.00     0.224 C 
ATOM      7  O   UNL     1      21.074  42.614   0.157  1.00  0.00    -0.303 OA
ENDBRANCH   5   6
ENDBRANCH   1   5
TORSDOF 4
ENDMDL
MODEL 5
REMARK VINA RESULT:    -3.245     15.999     16.976
REMARK INTER + INTRA:          -4.034
REMARK INTER:                  -3.896
REMARK INTRA:                  -0.138
REMARK UNBOUND:                -0.030
REMARK SMILES CCCCCC=O
REMARK SMILES IDX 4 1 3 2 2 3 1 4 5 5 6 6 7 7
REMARK H PARENT
REMARK Flexibility Score: inf
ROOT
ATOM      1  C   UNL     1      19.527  45.035  -0.044  1.00  0.00     0.008 C 
ENDROOT
BRANCH   1   2
ATOM      2  C   UNL     1      19.623  44.607   1.429  1.00  0.00     0.000 C 
BRANCH   2   3
ATOM      3  C   UNL     1      20.094  43.154   1.548  1.00  0.00    -0.003 C 
ATOM      4  C   UNL     1      21.135  42.822   0.482  1.00  0.00     0.004 C 
ENDBRANCH   2   3
ENDBRANCH   1   2
BRANCH   1   5
ATOM      5  C   UNL     1      18.161  45.647  -0.382  1.00  0.00     0.072 C 
BRANCH   5   6
ATOM      6  C   UNL     1      17.019  44.795   0.093  1.00  0.00     0.224 C 
ATOM      7  O   UNL     1      16.120  45.294   0.751  1.00  0.00    -0.303 OA
ENDBRANCH   5   6
ENDBRANCH   1   5
TORSDOF 4
ENDMDL
MODEL 6
REMARK VINA RESULT:    -3.217     16.824     17.348
REMARK INTER + INTRA:          -4.000
REMARK INTER:                  -3.837
REMARK INTRA:                  -0.163
REMARK UNBOUND:                -0.030
REMARK SMILES CCCCCC=O
REMARK SMILES IDX 4 1 3 2 2 3 1 4 5 5 6 6 7 7
REMARK H PARENT
REMARK Flexibility Score: inf
ROOT
ATOM      1  C   UNL     1      18.719  44.118   2.261  1.00  0.00     0.008 C 
ENDROOT
BRANCH   1   2
ATOM      2  C   UNL     1      19.968  44.500   1.452  1.00  0.00     0.000 C 
BRANCH   2   3
ATOM      3  C   UNL     1      21.010  43.376   1.491  1.00  0.00    -0.003 C 
ATOM      4  C   UNL     1      21.073  42.637   0.157  1.00  0.00     0.004 C 
ENDBRANCH   2   3
ENDBRANCH   1   2
BRANCH   1   5
ATOM      5  C   UNL     1      17.445  44.143   1.406  1.00  0.00     0.072 C 
BRANCH   5   6
ATOM      6  C   UNL     1      17.701  44.642   0.012  1.00  0.00     0.224 C 
ATOM      7  O   UNL     1      17.207  45.694  -0.357  1.00  0.00    -0.303 OA
ENDBRANCH   5   6
ENDBRANCH   1   5
TORSDOF 4
ENDMDL
MODEL 7
REMARK VINA RESULT:    -3.114     15.988     17.840
REMARK INTER + INTRA:          -3.872
REMARK INTER:                  -3.646
REMARK INTRA:                  -0.226
REMARK UNBOUND:                -0.030
REMARK SMILES CCCCCC=O
REMARK SMILES IDX 4 1 3 2 2 3 1 4 5 5 6 6 7 7
REMARK H PARENT
REMARK Flexibility Score: inf
ROOT
ATOM      1  C   UNL     1      18.666  44.088   2.179  1.00  0.00     0.008 C 
ENDROOT
BRANCH   1   2
ATOM      2  C   UNL     1      17.969  42.906   1.488  1.00  0.00     0.000 C 
BRANCH   2   3
ATOM      3  C   UNL     1      16.479  43.195   1.276  1.00  0.00    -0.003 C 
ATOM      4  C   UNL     1      16.122  44.608   1.729  1.00  0.00     0.004 C 
ENDBRANCH   2   3
ENDBRANCH   1   2
BRANCH   1   5
ATOM      5  C   UNL     1      19.936  44.526   1.438  1.00  0.00     0.072 C 
BRANCH   5   6
ATOM      6  C   UNL     1      19.695  44.748  -0.029  1.00  0.00     0.224 C 
ATOM      7  O   UNL     1      19.013  45.690  -0.397  1.00  0.00    -0.303 OA
ENDBRANCH   5   6
ENDBRANCH   1   5
TORSDOF 4
ENDMDL
MODEL 8
REMARK VINA RESULT:    -3.066     15.832     17.419
REMARK INTER + INTRA:          -3.813
REMARK INTER:                  -3.670
REMARK INTRA:                  -0.142
REMARK UNBOUND:                -0.030
REMARK SMILES CCCCCC=O
REMARK SMILES IDX 4 1 3 2 2 3 1 4 5 5 6 6 7 7
REMARK H PARENT
REMARK Flexibility Score: inf
ROOT
ATOM      1  C   UNL     1      17.406  43.725   1.421  1.00  0.00     0.008 C 
ENDROOT
BRANCH   1   2
ATOM      2  C   UNL     1      18.745  44.095   2.078  1.00  0.00     0.000 C 
BRANCH   2   3
ATOM      3  C   UNL     1      19.871  44.141   1.038  1.00  0.00    -0.003 C 
ATOM      4  C   UNL     1      19.615  45.226  -0.004  1.00  0.00     0.004 C 
ENDBRANCH   2   3
ENDBRANCH   1   2
BRANCH   1   5
ATOM      5  C   UNL     1      16.272  44.665   1.850  1.00  0.00     0.072 C 
BRANCH   5   6
ATOM      6  C   UNL     1      15.606  45.330   0.678  1.00  0.00     0.224 C 
ATOM      7  O   UNL     1      16.269  45.658  -0.293  1.00  0.00    -0.303 OA
ENDBRANCH   5   6
ENDBRANCH   1   5
TORSDOF 4
ENDMDL
MODEL 9
REMARK VINA RESULT:    -3.027      6.762      8.105
REMARK INTER + INTRA:          -3.766
REMARK INTER:                  -3.649
REMARK INTRA:                  -0.117
REMARK UNBOUND:                -0.030
REMARK SMILES CCCCCC=O
REMARK SMILES IDX 4 1 3 2 2 3 1 4 5 5 6 6 7 7
REMARK H PARENT
REMARK Flexibility Score: inf
ROOT
ATOM      1  C   UNL     1      30.173  57.629 -13.258  1.00  0.00     0.008 C 
ENDROOT
BRANCH   1   2
ATOM      2  C   UNL     1      31.424  56.793 -13.567  1.00  0.00     0.000 C 
BRANCH   2   3
ATOM      3  C   UNL     1      32.592  57.689 -13.993  1.00  0.00    -0.003 C 
ATOM      4  C   UNL     1      33.933  57.061 -13.624  1.00  0.00     0.004 C 
ENDBRANCH   2   3
ENDBRANCH   1   2
BRANCH   1   5
ATOM      5  C   UNL     1      30.516  59.092 -12.947  1.00  0.00     0.072 C 
BRANCH   5   6
ATOM      6  C   UNL     1      30.262  59.446 -11.510  1.00  0.00     0.224 C 
ATOM      7  O   UNL     1      29.127  59.403 -11.064  1.00  0.00    -0.303 OA
ENDBRANCH   5   6
ENDBRANCH   1   5
TORSDOF 4
ENDMDL
