MODEL 1
REMARK VINA RESULT:    -3.853      0.000      0.000
REMARK INTER + INTRA:          -4.926
REMARK INTER:                  -4.754
REMARK INTRA:                  -0.173
REMARK UNBOUND:                -0.173
REMARK SMILES C=CC[C@@H](C)C(=O)CC
REMARK SMILES IDX 4 1 5 2 6 3 7 4 8 5 9 6 3 7 2 8 1 9
REMARK H PARENT
REMARK Flexibility Score: inf
ROOT
ATOM      1  C   UNL     1      -1.488   5.563  12.637  1.00  0.00     0.057 C 
ATOM      2  C   UNL     1      -2.735   6.429  12.841  1.00  0.00     0.016 C 
ENDROOT
BRANCH   1   3
ATOM      3  C   UNL     1      -1.094   4.905  13.946  1.00  0.00     0.135 C 
ATOM      4  O   UNL     1      -1.018   3.687  14.014  1.00  0.00    -0.299 OA
BRANCH   3   5
ATOM      5  C   UNL     1      -0.777   5.730  15.166  1.00  0.00     0.072 C 
ATOM      6  C   UNL     1      -0.020   4.901  16.196  1.00  0.00     0.012 C 
ENDBRANCH   3   5
ENDBRANCH   1   3
BRANCH   1   7
ATOM      7  C   UNL     1      -1.732   4.510  11.537  1.00  0.00     0.038 C 
BRANCH   7   8
ATOM      8  C   UNL     1      -3.076   4.680  10.878  1.00  0.00    -0.034 C 
ATOM      9  C   UNL     1      -3.636   3.704  10.157  1.00  0.00     0.004 C 
ENDBRANCH   7   8
ENDBRANCH   1   7
TORSDOF 4
ENDMDL
MODEL 2
REMARK VINA RESULT:    -3.846      1.094      4.413
REMARK INTER + INTRA:          -4.918
REMARK INTER:                  -4.672
REMARK INTRA:                  -0.246
REMARK UNBOUND:                -0.173
REMARK SMILES C=CC[C@@H](C)C(=O)CC
REMARK SMILES IDX 4 1 5 2 6 3 7 4 8 5 9 6 3 7 2 8 1 9
REMARK H PARENT
REMARK Flexibility Score: inf
ROOT
ATOM      1  C   UNL     1      -1.527   5.970  14.597  1.00  0.00     0.057 C 
ATOM      2  C   UNL     1      -2.212   7.125  13.859  1.00  0.00     0.016 C 
ENDROOT
BRANCH   1   3
ATOM      3  C   UNL     1      -1.133   4.886  13.612  1.00  0.00     0.135 C 
ATOM      4  O   UNL     1      -0.980   3.738  14.002  1.00  0.00    -0.299 OA
BRANCH   3   5
ATOM      5  C   UNL     1      -0.940   5.197  12.151  1.00  0.00     0.072 C 
ATOM      6  C   UNL     1      -1.966   4.456  11.301  1.00  0.00     0.012 C 
ENDBRANCH   3   5
ENDBRANCH   1   3
BRANCH   1   7
ATOM      7  C   UNL     1      -0.301   6.479  15.384  1.00  0.00     0.038 C 
BRANCH   7   8
ATOM      8  C   UNL     1      -0.318   6.020  16.819  1.00  0.00    -0.034 C 
ATOM      9  C   UNL     1       0.293   4.898  17.207  1.00  0.00     0.004 C 
ENDBRANCH   7   8
ENDBRANCH   1   7
TORSDOF 4
ENDMDL
MODEL 3
REMARK VINA RESULT:    -3.787      1.753      4.425
REMARK INTER + INTRA:          -4.846
REMARK INTER:                  -4.376
REMARK INTRA:                  -0.470
REMARK UNBOUND:                -0.173
REMARK SMILES C=CC[C@@H](C)C(=O)CC
REMARK SMILES IDX 4 1 5 2 6 3 7 4 8 5 9 6 3 7 2 8 1 9
REMARK H PARENT
REMARK Flexibility Score: inf
ROOT
ATOM      1  C   UNL     1      -0.486   5.749  15.320  1.00  0.00     0.057 C 
ATOM      2  C   UNL     1       0.022   4.877  16.473  1.00  0.00     0.016 C 
ENDROOT
BRANCH   1   3
ATOM      3  C   UNL     1      -1.136   4.880  14.261  1.00  0.00     0.135 C 
ATOM      4  O   UNL     1      -1.104   3.663  14.371  1.00  0.00    -0.299 OA
BRANCH   3   5
ATOM      5  C   UNL     1      -1.838   5.492  13.077  1.00  0.00     0.072 C 
ATOM      6  C   UNL     1      -0.830   5.970  12.039  1.00  0.00     0.012 C 
ENDBRANCH   3   5
ENDBRANCH   1   3
BRANCH   1   7
ATOM      7  C   UNL     1      -1.467   6.819  15.841  1.00  0.00     0.038 C 
BRANCH   7   8
ATOM      8  C   UNL     1      -0.973   8.218  15.576  1.00  0.00    -0.034 C 
ATOM      9  C   UNL     1       0.033   8.461  14.732  1.00  0.00     0.004 C 
ENDBRANCH   7   8
ENDBRANCH   1   7
TORSDOF 4
ENDMDL
MODEL 4
REMARK VINA RESULT:    -3.744     15.881     17.790
REMARK INTER + INTRA:          -4.792
REMARK INTER:                  -4.648
REMARK INTRA:                  -0.145
REMARK UNBOUND:                -0.173
REMARK SMILES C=CC[C@@H](C)C(=O)CC
REMARK SMILES IDX 4 1 5 2 6 3 7 4 8 5 9 6 3 7 2 8 1 9
REMARK H PARENT
REMARK Flexibility Score: inf
ROOT
ATOM      1  C   UNL     1     -15.704  -5.036   7.645  1.00  0.00     0.057 C 
ATOM      2  C   UNL     1     -16.892  -4.849   8.594  1.00  0.00     0.016 C 
ENDROOT
BRANCH   1   3
ATOM      3  C   UNL     1     -14.986  -3.716   7.445  1.00  0.00     0.135 C 
ATOM      4  O   UNL     1     -14.219  -3.307   8.305  1.00  0.00    -0.299 OA
BRANCH   3   5
ATOM      5  C   UNL     1     -15.189  -2.902   6.194  1.00  0.00     0.072 C 
ATOM      6  C   UNL     1     -14.030  -1.934   5.986  1.00  0.00     0.012 C 
ENDBRANCH   3   5
ENDBRANCH   1   3
BRANCH   1   7
ATOM      7  C   UNL     1     -14.744  -6.116   8.184  1.00  0.00     0.038 C 
BRANCH   7   8
ATOM      8  C   UNL     1     -15.273  -7.509   7.959  1.00  0.00    -0.034 C 
ATOM      9  C   UNL     1     -15.587  -8.316   8.977  1.00  0.00     0.004 C 
ENDBRANCH   7   8
ENDBRANCH   1   7
TORSDOF 4
ENDMDL
MODEL 5
REMARK VINA RESULT:    -3.560     16.078     17.925
REMARK INTER + INTRA:          -4.565
REMARK INTER:                  -4.384
REMARK INTRA:                  -0.181
REMARK UNBOUND:                -0.173
REMARK SMILES C=CC[C@@H](C)C(=O)CC
REMARK SMILES IDX 4 1 5 2 6 3 7 4 8 5 9 6 3 7 2 8 1 9
REMARK H PARENT
REMARK Flexibility Score: inf
ROOT
ATOM      1  C   UNL     1     -15.365  -4.847   8.249  1.00  0.00     0.057 C 
ATOM      2  C   UNL     1     -14.827  -6.154   7.655  1.00  0.00     0.016 C 
ENDROOT
BRANCH   1   3
ATOM      3  C   UNL     1     -14.676  -3.661   7.602  1.00  0.00     0.135 C 
ATOM      4  O   UNL     1     -13.875  -3.000   8.247  1.00  0.00    -0.299 OA
BRANCH   3   5
ATOM      5  C   UNL     1     -14.949  -3.290   6.169  1.00  0.00     0.072 C 
ATOM      6  C   UNL     1     -14.246  -1.988   5.804  1.00  0.00     0.012 C 
ENDBRANCH   3   5
ENDBRANCH   1   3
BRANCH   1   7
ATOM      7  C   UNL     1     -16.895  -4.763   8.078  1.00  0.00     0.038 C 
BRANCH   7   8
ATOM      8  C   UNL     1     -17.586  -6.026   8.522  1.00  0.00    -0.034 C 
ATOM      9  C   UNL     1     -18.614  -6.004   9.376  1.00  0.00     0.004 C 
ENDBRANCH   7   8
ENDBRANCH   1   7
TORSDOF 4
ENDMDL
MODEL 6
REMARK VINA RESULT:    -3.541      2.199      4.230
REMARK INTER + INTRA:          -4.542
REMARK INTER:                  -4.131
REMARK INTRA:                  -0.410
REMARK UNBOUND:                -0.173
REMARK SMILES C=CC[C@@H](C)C(=O)CC
REMARK SMILES IDX 4 1 5 2 6 3 7 4 8 5 9 6 3 7 2 8 1 9
REMARK H PARENT
REMARK Flexibility Score: inf
ROOT
ATOM      1  C   UNL     1      -1.067   6.115  14.975  1.00  0.00     0.057 C 
ATOM      2  C   UNL     1      -1.824   5.644  13.729  1.00  0.00     0.016 C 
ENDROOT
BRANCH   1   3
ATOM      3  C   UNL     1      -0.381   4.938  15.641  1.00  0.00     0.135 C 
ATOM      4  O   UNL     1      -0.419   3.836  15.112  1.00  0.00    -0.299 OA
BRANCH   3   5
ATOM      5  C   UNL     1       0.363   5.105  16.939  1.00  0.00     0.072 C 
ATOM      6  C   UNL     1      -0.509   5.805  17.975  1.00  0.00     0.012 C 
ENDBRANCH   3   5
ENDBRANCH   1   3
BRANCH   1   7
ATOM      7  C   UNL     1      -0.051   7.217  14.608  1.00  0.00     0.038 C 
BRANCH   7   8
ATOM      8  C   UNL     1      -0.477   8.572  15.110  1.00  0.00    -0.034 C 
ATOM      9  C   UNL     1       0.035   9.103  16.224  1.00  0.00     0.004 C 
ENDBRANCH   7   8
ENDBRANCH   1   7
TORSDOF 4
ENDMDL
MODEL 7
REMARK VINA RESULT:    -3.532     15.162     16.756
REMARK INTER + INTRA:          -4.531
REMARK INTER:                  -4.199
REMARK INTRA:                  -0.331
REMARK UNBOUND:                -0.173
REMARK SMILES C=CC[C@@H](C)C(=O)CC
REMARK SMILES IDX 4 1 5 2 6 3 7 4 8 5 9 6 3 7 2 8 1 9
REMARK H PARENT
REMARK Flexibility Score: inf
ROOT
ATOM      1  C   UNL     1     -15.161  -2.806   6.322  1.00  0.00     0.057 C 
ATOM      2  C   UNL     1     -16.560  -3.261   5.892  1.00  0.00     0.016 C 
ENDROOT
BRANCH   1   3
ATOM      3  C   UNL     1     -14.760  -3.506   7.607  1.00  0.00     0.135 C 
ATOM      4  O   UNL     1     -13.824  -3.076   8.264  1.00  0.00    -0.299 OA
BRANCH   3   5
ATOM      5  C   UNL     1     -15.508  -4.718   8.097  1.00  0.00     0.072 C 
ATOM      6  C   UNL     1     -14.706  -5.988   7.842  1.00  0.00     0.012 C 
ENDBRANCH   3   5
ENDBRANCH   1   3
BRANCH   1   7
ATOM      7  C   UNL     1     -14.136  -3.072   5.201  1.00  0.00     0.038 C 
BRANCH   7   8
ATOM      8  C   UNL     1     -13.475  -1.804   4.724  1.00  0.00    -0.034 C 
ATOM      9  C   UNL     1     -13.400  -0.716   5.496  1.00  0.00     0.004 C 
ENDBRANCH   7   8
ENDBRANCH   1   7
TORSDOF 4
ENDMDL
MODEL 8
REMARK VINA RESULT:    -3.520      1.026      1.253
REMARK INTER + INTRA:          -4.516
REMARK INTER:                  -4.313
REMARK INTRA:                  -0.203
REMARK UNBOUND:                -0.173
REMARK SMILES C=CC[C@@H](C)C(=O)CC
REMARK SMILES IDX 4 1 5 2 6 3 7 4 8 5 9 6 3 7 2 8 1 9
REMARK H PARENT
REMARK Flexibility Score: inf
ROOT
ATOM      1  C   UNL     1      -2.169   5.424  11.682  1.00  0.00     0.057 C 
ATOM      2  C   UNL     1      -3.572   5.955  11.995  1.00  0.00     0.016 C 
ENDROOT
BRANCH   1   3
ATOM      3  C   UNL     1      -1.394   5.215  12.969  1.00  0.00     0.135 C 
ATOM      4  O   UNL     1      -1.186   4.080  13.373  1.00  0.00    -0.299 OA
BRANCH   3   5
ATOM      5  C   UNL     1      -0.860   6.385  13.753  1.00  0.00     0.072 C 
ATOM      6  C   UNL     1      -1.068   6.172  15.248  1.00  0.00     0.012 C 
ENDBRANCH   3   5
ENDBRANCH   1   3
BRANCH   1   7
ATOM      7  C   UNL     1      -2.253   4.119  10.864  1.00  0.00     0.038 C 
BRANCH   7   8
ATOM      8  C   UNL     1      -3.660   3.817  10.420  1.00  0.00    -0.034 C 
ATOM      9  C   UNL     1      -3.938   3.438   9.170  1.00  0.00     0.004 C 
ENDBRANCH   7   8
ENDBRANCH   1   7
TORSDOF 4
ENDMDL
MODEL 9
REMARK VINA RESULT:    -3.475      1.509      2.502
REMARK INTER + INTRA:          -4.460
REMARK INTER:                  -4.172
REMARK INTRA:                  -0.288
REMARK UNBOUND:                -0.173
REMARK SMILES C=CC[C@@H](C)C(=O)CC
REMARK SMILES IDX 4 1 5 2 6 3 7 4 8 5 9 6 3 7 2 8 1 9
REMARK H PARENT
REMARK Flexibility Score: inf
ROOT
ATOM      1  C   UNL     1      -1.624   5.250  12.663  1.00  0.00     0.057 C 
ATOM      2  C   UNL     1      -0.554   6.110  11.983  1.00  0.00     0.016 C 
ENDROOT
BRANCH   1   3
ATOM      3  C   UNL     1      -1.131   4.784  14.020  1.00  0.00     0.135 C 
ATOM      4  O   UNL     1      -0.974   3.590  14.231  1.00  0.00    -0.299 OA
BRANCH   3   5
ATOM      5  C   UNL     1      -0.814   5.771  15.112  1.00  0.00     0.072 C 
ATOM      6  C   UNL     1      -0.067   5.092  16.254  1.00  0.00     0.012 C 
ENDBRANCH   3   5
ENDBRANCH   1   3
BRANCH   1   7
ATOM      7  C   UNL     1      -2.948   6.031  12.791  1.00  0.00     0.038 C 
BRANCH   7   8
ATOM      8  C   UNL     1      -2.753   7.513  12.600  1.00  0.00    -0.034 C 
ATOM      9  C   UNL     1      -3.011   8.388  13.575  1.00  0.00     0.004 C 
ENDBRANCH   7   8
ENDBRANCH   1   7
TORSDOF 4
ENDMDL
