MODEL 1
REMARK VINA RESULT:    -3.355      0.000      0.000
REMARK INTER + INTRA:          -3.567
REMARK INTER:                  -3.551
REMARK INTRA:                  -0.016
REMARK UNBOUND:                -0.016
REMARK SMILES O=C([O-])c1cccnc1
REMARK SMILES IDX 4 1 5 2 9 3 6 4 8 5 7 6 2 7 1 8 3 9
REMARK H PARENT
REMARK Flexibility Score: inf
ROOT
ATOM      1  C   UNL     1     -17.735  43.454  -5.460  1.00  0.00     0.016 A 
ATOM      2  C   UNL     1     -18.484  43.880  -6.568  1.00  0.00     0.013 A 
ATOM      3  C   UNL     1     -16.334  43.414  -5.576  1.00  0.00     0.120 A 
ATOM      4  C   UNL     1     -17.840  44.253  -7.749  1.00  0.00     0.021 A 
ATOM      5  N   UNL     1     -15.732  43.782  -6.738  1.00  0.00    -0.264 NA
ATOM      6  C   UNL     1     -16.448  44.196  -7.816  1.00  0.00     0.111 A 
ENDROOT
BRANCH   1   7
ATOM      7  C   UNL     1     -18.407  43.058  -4.203  1.00  0.00     0.073 C 
ATOM      8  O   UNL     1     -18.692  41.850  -3.983  1.00  0.00    -0.545 OA
ATOM      9  O   UNL     1     -18.733  44.013  -3.248  1.00  0.00    -0.545 OA
ENDBRANCH   1   7
TORSDOF 1
ENDMDL
MODEL 2
REMARK VINA RESULT:    -3.312      1.071      1.454
REMARK INTER + INTRA:          -3.522
REMARK INTER:                  -3.504
REMARK INTRA:                  -0.018
REMARK UNBOUND:                -0.016
REMARK SMILES O=C([O-])c1cccnc1
REMARK SMILES IDX 4 1 5 2 9 3 6 4 8 5 7 6 2 7 1 8 3 9
REMARK H PARENT
REMARK Flexibility Score: inf
ROOT
ATOM      1  C   UNL     1     -17.114  43.402  -6.006  1.00  0.00     0.016 A 
ATOM      2  C   UNL     1     -18.190  43.789  -6.822  1.00  0.00     0.013 A 
ATOM      3  C   UNL     1     -15.808  43.691  -6.442  1.00  0.00     0.120 A 
ATOM      4  C   UNL     1     -17.953  44.443  -8.033  1.00  0.00     0.021 A 
ATOM      5  N   UNL     1     -15.605  44.329  -7.625  1.00  0.00    -0.264 NA
ATOM      6  C   UNL     1     -16.640  44.707  -8.421  1.00  0.00     0.111 A 
ENDROOT
BRANCH   1   7
ATOM      7  C   UNL     1     -17.354  42.710  -4.721  1.00  0.00     0.073 C 
ATOM      8  O   UNL     1     -16.876  43.168  -3.649  1.00  0.00    -0.545 OA
ATOM      9  O   UNL     1     -18.108  41.544  -4.680  1.00  0.00    -0.545 OA
ENDBRANCH   1   7
TORSDOF 1
ENDMDL
MODEL 3
REMARK VINA RESULT:    -3.276      2.676      3.602
REMARK INTER + INTRA:          -3.484
REMARK INTER:                  -3.460
REMARK INTRA:                  -0.024
REMARK UNBOUND:                -0.016
REMARK SMILES O=C([O-])c1cccnc1
REMARK SMILES IDX 4 1 5 2 9 3 6 4 8 5 7 6 2 7 1 8 3 9
REMARK H PARENT
REMARK Flexibility Score: inf
ROOT
ATOM      1  C   UNL     1     -17.998  43.745  -6.105  1.00  0.00     0.016 A 
ATOM      2  C   UNL     1     -19.064  44.116  -5.270  1.00  0.00     0.013 A 
ATOM      3  C   UNL     1     -16.922  43.038  -5.540  1.00  0.00     0.120 A 
ATOM      4  C   UNL     1     -19.042  43.785  -3.914  1.00  0.00     0.021 A 
ATOM      5  N   UNL     1     -16.925  42.728  -4.216  1.00  0.00    -0.264 NA
ATOM      6  C   UNL     1     -17.952  43.083  -3.400  1.00  0.00     0.111 A 
ENDROOT
BRANCH   1   7
ATOM      7  C   UNL     1     -18.012  44.090  -7.544  1.00  0.00     0.073 C 
ATOM      8  O   UNL     1     -19.078  44.461  -8.102  1.00  0.00    -0.545 OA
ATOM      9  O   UNL     1     -16.848  44.007  -8.298  1.00  0.00    -0.545 OA
ENDBRANCH   1   7
TORSDOF 1
ENDMDL
MODEL 4
REMARK VINA RESULT:    -3.250      1.367      2.142
REMARK INTER + INTRA:          -3.457
REMARK INTER:                  -3.438
REMARK INTRA:                  -0.018
REMARK UNBOUND:                -0.016
REMARK SMILES O=C([O-])c1cccnc1
REMARK SMILES IDX 4 1 5 2 9 3 6 4 8 5 7 6 2 7 1 8 3 9
REMARK H PARENT
REMARK Flexibility Score: inf
ROOT
ATOM      1  C   UNL     1     -17.057  43.414  -6.028  1.00  0.00     0.016 A 
ATOM      2  C   UNL     1     -15.739  43.656  -6.449  1.00  0.00     0.013 A 
ATOM      3  C   UNL     1     -18.111  43.812  -6.871  1.00  0.00     0.120 A 
ATOM      4  C   UNL     1     -15.497  44.277  -7.676  1.00  0.00     0.021 A 
ATOM      5  N   UNL     1     -17.847  44.415  -8.060  1.00  0.00    -0.264 NA
ATOM      6  C   UNL     1     -16.576  44.654  -8.476  1.00  0.00     0.111 A 
ENDROOT
BRANCH   1   7
ATOM      7  C   UNL     1     -17.325  42.756  -4.731  1.00  0.00     0.073 C 
ATOM      8  O   UNL     1     -16.853  43.230  -3.664  1.00  0.00    -0.545 OA
ATOM      9  O   UNL     1     -18.101  41.605  -4.673  1.00  0.00    -0.545 OA
ENDBRANCH   1   7
TORSDOF 1
ENDMDL
MODEL 5
REMARK VINA RESULT:    -3.124      3.414      4.196
REMARK INTER + INTRA:          -3.323
REMARK INTER:                  -3.304
REMARK INTRA:                  -0.019
REMARK UNBOUND:                -0.016
REMARK SMILES O=C([O-])c1cccnc1
REMARK SMILES IDX 4 1 5 2 9 3 6 4 8 5 7 6 2 7 1 8 3 9
REMARK H PARENT
REMARK Flexibility Score: inf
ROOT
ATOM      1  C   UNL     1     -18.239  44.152  -8.842  1.00  0.00     0.016 A 
ATOM      2  C   UNL     1     -19.096  43.118  -9.252  1.00  0.00     0.013 A 
ATOM      3  C   UNL     1     -18.197  45.329  -9.610  1.00  0.00     0.120 A 
ATOM      4  C   UNL     1     -19.882  43.270 -10.397  1.00  0.00     0.021 A 
ATOM      5  N   UNL     1     -18.972  45.452 -10.720  1.00  0.00    -0.264 NA
ATOM      6  C   UNL     1     -19.805  44.457 -11.125  1.00  0.00     0.111 A 
ENDROOT
BRANCH   1   7
ATOM      7  C   UNL     1     -17.403  44.002  -7.631  1.00  0.00     0.073 C 
ATOM      8  O   UNL     1     -17.924  43.679  -6.530  1.00  0.00    -0.545 OA
ATOM      9  O   UNL     1     -16.031  44.216  -7.691  1.00  0.00    -0.545 OA
ENDBRANCH   1   7
TORSDOF 1
ENDMDL
MODEL 6
REMARK VINA RESULT:    -2.986      3.894      4.786
REMARK INTER + INTRA:          -3.177
REMARK INTER:                  -3.153
REMARK INTRA:                  -0.023
REMARK UNBOUND:                -0.016
REMARK SMILES O=C([O-])c1cccnc1
REMARK SMILES IDX 4 1 5 2 9 3 6 4 8 5 7 6 2 7 1 8 3 9
REMARK H PARENT
REMARK Flexibility Score: inf
ROOT
ATOM      1  C   UNL     1     -17.790  44.642  -9.153  1.00  0.00     0.016 A 
ATOM      2  C   UNL     1     -18.436  43.409  -8.967  1.00  0.00     0.013 A 
ATOM      3  C   UNL     1     -18.299  45.522 -10.126  1.00  0.00     0.120 A 
ATOM      4  C   UNL     1     -19.554  43.079  -9.736  1.00  0.00     0.021 A 
ATOM      5  N   UNL     1     -19.388  45.176 -10.861  1.00  0.00    -0.264 NA
ATOM      6  C   UNL     1     -20.019  43.985 -10.689  1.00  0.00     0.111 A 
ENDROOT
BRANCH   1   7
ATOM      7  C   UNL     1     -16.606  45.003  -8.344  1.00  0.00     0.073 C 
ATOM      8  O   UNL     1     -16.120  46.164  -8.404  1.00  0.00    -0.545 OA
ATOM      9  O   UNL     1     -16.014  44.066  -7.506  1.00  0.00    -0.545 OA
ENDBRANCH   1   7
TORSDOF 1
ENDMDL
MODEL 7
REMARK VINA RESULT:    -2.976      2.979      3.733
REMARK INTER + INTRA:          -3.166
REMARK INTER:                  -3.145
REMARK INTRA:                  -0.021
REMARK UNBOUND:                -0.016
REMARK SMILES O=C([O-])c1cccnc1
REMARK SMILES IDX 4 1 5 2 9 3 6 4 8 5 7 6 2 7 1 8 3 9
REMARK H PARENT
REMARK Flexibility Score: inf
ROOT
ATOM      1  C   UNL     1     -17.821  44.148  -7.843  1.00  0.00     0.016 A 
ATOM      2  C   UNL     1     -18.350  43.632  -6.649  1.00  0.00     0.013 A 
ATOM      3  C   UNL     1     -16.425  44.289  -7.949  1.00  0.00     0.120 A 
ATOM      4  C   UNL     1     -17.499  43.272  -5.602  1.00  0.00     0.021 A 
ATOM      5  N   UNL     1     -15.620  43.931  -6.915  1.00  0.00    -0.264 NA
ATOM      6  C   UNL     1     -16.122  43.432  -5.755  1.00  0.00     0.111 A 
ENDROOT
BRANCH   1   7
ATOM      7  C   UNL     1     -18.713  44.530  -8.959  1.00  0.00     0.073 C 
ATOM      8  O   UNL     1     -19.709  43.819  -9.255  1.00  0.00    -0.545 OA
ATOM      9  O   UNL     1     -18.462  45.681  -9.698  1.00  0.00    -0.545 OA
ENDBRANCH   1   7
TORSDOF 1
ENDMDL
MODEL 8
REMARK VINA RESULT:    -2.966      3.476      4.283
REMARK INTER + INTRA:          -3.155
REMARK INTER:                  -3.137
REMARK INTRA:                  -0.018
REMARK UNBOUND:                -0.016
REMARK SMILES O=C([O-])c1cccnc1
REMARK SMILES IDX 4 1 5 2 9 3 6 4 8 5 7 6 2 7 1 8 3 9
REMARK H PARENT
REMARK Flexibility Score: inf
ROOT
ATOM      1  C   UNL     1     -18.228  44.115  -8.921  1.00  0.00     0.016 A 
ATOM      2  C   UNL     1     -18.253  45.289  -9.692  1.00  0.00     0.013 A 
ATOM      3  C   UNL     1     -19.074  43.054  -9.294  1.00  0.00     0.120 A 
ATOM      4  C   UNL     1     -19.101  45.386 -10.796  1.00  0.00     0.021 A 
ATOM      5  N   UNL     1     -19.890  43.174 -10.374  1.00  0.00    -0.264 NA
ATOM      6  C   UNL     1     -19.921  44.307 -11.125  1.00  0.00     0.111 A 
ENDROOT
BRANCH   1   7
ATOM      7  C   UNL     1     -17.333  44.000  -7.749  1.00  0.00     0.073 C 
ATOM      8  O   UNL     1     -16.087  44.135  -7.881  1.00  0.00    -0.545 OA
ATOM      9  O   UNL     1     -17.854  43.741  -6.488  1.00  0.00    -0.545 OA
ENDBRANCH   1   7
TORSDOF 1
ENDMDL
MODEL 9
REMARK VINA RESULT:    -2.729      3.537      4.391
REMARK INTER + INTRA:          -2.904
REMARK INTER:                  -2.885
REMARK INTRA:                  -0.019
REMARK UNBOUND:                -0.016
REMARK SMILES O=C([O-])c1cccnc1
REMARK SMILES IDX 4 1 5 2 9 3 6 4 8 5 7 6 2 7 1 8 3 9
REMARK H PARENT
REMARK Flexibility Score: inf
ROOT
ATOM      1  C   UNL     1     -17.962  44.209  -8.998  1.00  0.00     0.016 A 
ATOM      2  C   UNL     1     -16.666  44.481  -9.467  1.00  0.00     0.013 A 
ATOM      3  C   UNL     1     -18.127  43.897  -7.636  1.00  0.00     0.120 A 
ATOM      4  C   UNL     1     -15.579  44.438  -8.592  1.00  0.00     0.021 A 
ATOM      5  N   UNL     1     -17.052  43.862  -6.805  1.00  0.00    -0.264 NA
ATOM      6  C   UNL     1     -15.795  44.123  -7.250  1.00  0.00     0.111 A 
ENDROOT
BRANCH   1   7
ATOM      7  C   UNL     1     -19.121  44.252  -9.916  1.00  0.00     0.073 C 
ATOM      8  O   UNL     1     -19.943  43.298  -9.953  1.00  0.00    -0.545 OA
ATOM      9  O   UNL     1     -19.318  45.346 -10.750  1.00  0.00    -0.545 OA
ENDBRANCH   1   7
TORSDOF 1
ENDMDL
