MODEL 1
REMARK VINA RESULT:    -3.004      0.000      0.000
REMARK INTER + INTRA:          -5.757
REMARK INTER:                  -4.584
REMARK INTRA:                  -1.173
REMARK UNBOUND:                -1.173
REMARK SMILES CCCCCCCCCCC(=O)[O-]
REMARK SMILES IDX 7 1 8 2 9 3 10 4 11 5 12 6 13 7 6 8 5 9 4 10 3 11 2 12 1 13
REMARK H PARENT
REMARK Flexibility Score: inf
ROOT
ATOM      1  C   UNL     1     -10.509  -5.566   5.935  1.00  0.00     0.000 C 
ENDROOT
BRANCH   1   2
ATOM      2  C   UNL     1     -11.075  -5.148   7.305  1.00  0.00     0.000 C 
BRANCH   2   3
ATOM      3  C   UNL     1     -10.440  -3.886   7.914  1.00  0.00     0.006 C 
BRANCH   3   4
ATOM      4  C   UNL     1      -8.937  -3.774   7.628  1.00  0.00     0.053 C 
BRANCH   4   5
ATOM      5  C   UNL     1      -8.643  -2.527   6.856  1.00  0.00     0.041 C 
ATOM      6  O   UNL     1      -8.923  -2.460   5.630  1.00  0.00    -0.550 OA
ATOM      7  O   UNL     1      -8.013  -1.456   7.477  1.00  0.00    -0.550 OA
ENDBRANCH   4   5
ENDBRANCH   3   4
ENDBRANCH   2   3
ENDBRANCH   1   2
BRANCH   1   8
ATOM      8  C   UNL     1     -10.132  -7.053   5.871  1.00  0.00     0.000 C 
BRANCH   8   9
ATOM      9  C   UNL     1      -8.697  -7.277   6.365  1.00  0.00    -0.000 C 
BRANCH   9  10
ATOM     10  C   UNL     1      -8.553  -8.654   7.028  1.00  0.00    -0.000 C 
BRANCH  10  11
ATOM     11  C   UNL     1      -8.208  -8.564   8.525  1.00  0.00    -0.000 C 
BRANCH  11  12
ATOM     12  C   UNL     1      -8.085  -7.133   9.077  1.00  0.00    -0.003 C 
ATOM     13  C   UNL     1      -9.189  -6.778  10.071  1.00  0.00     0.004 C 
ENDBRANCH  11  12
ENDBRANCH  10  11
ENDBRANCH   9  10
ENDBRANCH   8   9
ENDBRANCH   1   8
TORSDOF 9
ENDMDL
MODEL 2
REMARK VINA RESULT:    -2.930     20.175     21.846
REMARK INTER + INTRA:          -5.644
REMARK INTER:                  -4.594
REMARK INTRA:                  -1.050
REMARK UNBOUND:                -1.173
REMARK SMILES CCCCCCCCCCC(=O)[O-]
REMARK SMILES IDX 7 1 8 2 9 3 10 4 11 5 12 6 13 7 6 8 5 9 4 10 3 11 2 12 1 13
REMARK H PARENT
REMARK Flexibility Score: inf
ROOT
ATOM      1  C   UNL     1       6.237   6.744   6.422  1.00  0.00     0.000 C 
ENDROOT
BRANCH   1   2
ATOM      2  C   UNL     1       6.574   7.777   5.331  1.00  0.00     0.000 C 
BRANCH   2   3
ATOM      3  C   UNL     1       6.493   9.247   5.778  1.00  0.00     0.006 C 
BRANCH   3   4
ATOM      4  C   UNL     1       7.579  10.126   5.144  1.00  0.00     0.053 C 
BRANCH   4   5
ATOM      5  C   UNL     1       7.058  10.793   3.911  1.00  0.00     0.041 C 
ATOM      6  O   UNL     1       5.825  11.014   3.784  1.00  0.00    -0.550 OA
ATOM      7  O   UNL     1       7.926  11.125   2.879  1.00  0.00    -0.550 OA
ENDBRANCH   4   5
ENDBRANCH   3   4
ENDBRANCH   2   3
ENDBRANCH   1   2
BRANCH   1   8
ATOM      8  C   UNL     1       5.774   7.391   7.736  1.00  0.00     0.000 C 
BRANCH   8   9
ATOM      9  C   UNL     1       6.562   6.836   8.929  1.00  0.00    -0.000 C 
BRANCH   9  10
ATOM     10  C   UNL     1       6.988   7.964   9.878  1.00  0.00    -0.000 C 
BRANCH  10  11
ATOM     11  C   UNL     1       6.117   9.226   9.740  1.00  0.00    -0.000 C 
BRANCH  11  12
ATOM     12  C   UNL     1       6.883  10.502   9.350  1.00  0.00    -0.003 C 
ATOM     13  C   UNL     1       8.326  10.228   8.928  1.00  0.00     0.004 C 
ENDBRANCH  11  12
ENDBRANCH  10  11
ENDBRANCH   9  10
ENDBRANCH   8   9
ENDBRANCH   1   8
TORSDOF 9
ENDMDL
MODEL 3
REMARK VINA RESULT:    -2.923     20.292     21.451
REMARK INTER + INTRA:          -5.633
REMARK INTER:                  -4.530
REMARK INTRA:                  -1.103
REMARK UNBOUND:                -1.173
REMARK SMILES CCCCCCCCCCC(=O)[O-]
REMARK SMILES IDX 7 1 8 2 9 3 10 4 11 5 12 6 13 7 6 8 5 9 4 10 3 11 2 12 1 13
REMARK H PARENT
REMARK Flexibility Score: inf
ROOT
ATOM      1  C   UNL     1       5.205  -5.452  -6.540  1.00  0.00     0.000 C 
ENDROOT
BRANCH   1   2
ATOM      2  C   UNL     1       6.445  -4.824  -7.200  1.00  0.00     0.000 C 
BRANCH   2   3
ATOM      3  C   UNL     1       6.237  -4.334  -8.644  1.00  0.00     0.006 C 
BRANCH   3   4
ATOM      4  C   UNL     1       4.757  -4.260  -9.043  1.00  0.00     0.053 C 
BRANCH   4   5
ATOM      5  C   UNL     1       4.356  -2.842  -9.301  1.00  0.00     0.041 C 
ATOM      6  O   UNL     1       3.289  -2.387  -8.812  1.00  0.00    -0.550 OA
ATOM      7  O   UNL     1       5.135  -2.037 -10.123  1.00  0.00    -0.550 OA
ENDBRANCH   4   5
ENDBRANCH   3   4
ENDBRANCH   2   3
ENDBRANCH   1   2
BRANCH   1   8
ATOM      8  C   UNL     1       5.481  -6.842  -5.947  1.00  0.00     0.000 C 
BRANCH   8   9
ATOM      9  C   UNL     1       6.690  -7.498  -6.626  1.00  0.00    -0.000 C 
BRANCH   9  10
ATOM     10  C   UNL     1       6.257  -8.700  -7.477  1.00  0.00    -0.000 C 
BRANCH  10  11
ATOM     11  C   UNL     1       5.921  -8.316  -8.930  1.00  0.00    -0.000 C 
BRANCH  11  12
ATOM     12  C   UNL     1       4.606  -8.906  -9.468  1.00  0.00    -0.003 C 
ATOM     13  C   UNL     1       3.447  -7.912  -9.435  1.00  0.00     0.004 C 
ENDBRANCH  11  12
ENDBRANCH  10  11
ENDBRANCH   9  10
ENDBRANCH   8   9
ENDBRANCH   1   8
TORSDOF 9
ENDMDL
MODEL 4
REMARK VINA RESULT:    -2.911      1.317      2.969
REMARK INTER + INTRA:          -5.615
REMARK INTER:                  -4.722
REMARK INTRA:                  -0.893
REMARK UNBOUND:                -1.173
REMARK SMILES CCCCCCCCCCC(=O)[O-]
REMARK SMILES IDX 7 1 8 2 9 3 10 4 11 5 12 6 13 7 6 8 5 9 4 10 3 11 2 12 1 13
REMARK H PARENT
REMARK Flexibility Score: inf
ROOT
ATOM      1  C   UNL     1      -8.777  -5.108   9.488  1.00  0.00     0.000 C 
ENDROOT
BRANCH   1   2
ATOM      2  C   UNL     1     -10.196  -4.893   8.930  1.00  0.00     0.000 C 
BRANCH   2   3
ATOM      3  C   UNL     1     -10.431  -3.530   8.256  1.00  0.00     0.006 C 
BRANCH   3   4
ATOM      4  C   UNL     1      -9.384  -2.479   8.649  1.00  0.00     0.053 C 
BRANCH   4   5
ATOM      5  C   UNL     1      -8.628  -2.018   7.444  1.00  0.00     0.041 C 
ATOM      6  O   UNL     1      -7.636  -1.253   7.573  1.00  0.00    -0.550 OA
ATOM      7  O   UNL     1      -9.048  -2.392   6.174  1.00  0.00    -0.550 OA
ENDBRANCH   4   5
ENDBRANCH   3   4
ENDBRANCH   2   3
ENDBRANCH   1   2
BRANCH   1   8
ATOM      8  C   UNL     1      -7.970  -6.143   8.690  1.00  0.00     0.000 C 
BRANCH   8   9
ATOM      9  C   UNL     1      -8.052  -5.862   7.185  1.00  0.00    -0.000 C 
BRANCH   9  10
ATOM     10  C   UNL     1      -8.274  -7.159   6.395  1.00  0.00    -0.000 C 
BRANCH  10  11
ATOM     11  C   UNL     1      -9.742  -7.624   6.407  1.00  0.00    -0.000 C 
BRANCH  11  12
ATOM     12  C   UNL     1     -10.745  -6.616   5.820  1.00  0.00    -0.003 C 
ATOM     13  C   UNL     1     -10.837  -6.681   4.296  1.00  0.00     0.004 C 
ENDBRANCH  11  12
ENDBRANCH  10  11
ENDBRANCH   9  10
ENDBRANCH   8   9
ENDBRANCH   1   8
TORSDOF 9
ENDMDL
MODEL 5
REMARK VINA RESULT:    -2.893     20.338     21.695
REMARK INTER + INTRA:          -5.587
REMARK INTER:                  -4.582
REMARK INTRA:                  -1.005
REMARK UNBOUND:                -1.173
REMARK SMILES CCCCCCCCCCC(=O)[O-]
REMARK SMILES IDX 7 1 8 2 9 3 10 4 11 5 12 6 13 7 6 8 5 9 4 10 3 11 2 12 1 13
REMARK H PARENT
REMARK Flexibility Score: inf
ROOT
ATOM      1  C   UNL     1       8.142  -5.414  -7.668  1.00  0.00     0.000 C 
ENDROOT
BRANCH   1   2
ATOM      2  C   UNL     1       7.776  -6.906  -7.560  1.00  0.00     0.000 C 
BRANCH   2   3
ATOM      3  C   UNL     1       7.036  -7.303  -6.270  1.00  0.00     0.006 C 
BRANCH   3   4
ATOM      4  C   UNL     1       5.513  -7.363  -6.450  1.00  0.00     0.053 C 
BRANCH   4   5
ATOM      5  C   UNL     1       4.847  -6.315  -5.616  1.00  0.00     0.041 C 
ATOM      6  O   UNL     1       5.209  -5.112  -5.702  1.00  0.00    -0.550 OA
ATOM      7  O   UNL     1       3.861  -6.673  -4.705  1.00  0.00    -0.550 OA
ENDBRANCH   4   5
ENDBRANCH   3   4
ENDBRANCH   2   3
ENDBRANCH   1   2
BRANCH   1   8
ATOM      8  C   UNL     1       7.324  -4.674  -8.738  1.00  0.00     0.000 C 
BRANCH   8   9
ATOM      9  C   UNL     1       6.513  -5.659  -9.588  1.00  0.00    -0.000 C 
BRANCH   9  10
ATOM     10  C   UNL     1       5.011  -5.353  -9.501  1.00  0.00    -0.000 C 
BRANCH  10  11
ATOM     11  C   UNL     1       4.718  -3.933  -8.987  1.00  0.00    -0.000 C 
BRANCH  11  12
ATOM     12  C   UNL     1       3.830  -3.080  -9.911  1.00  0.00    -0.003 C 
ATOM     13  C   UNL     1       3.644  -1.649  -9.408  1.00  0.00     0.004 C 
ENDBRANCH  11  12
ENDBRANCH  10  11
ENDBRANCH   9  10
ENDBRANCH   8   9
ENDBRANCH   1   8
TORSDOF 9
ENDMDL
MODEL 6
REMARK VINA RESULT:    -2.882      1.609      2.565
REMARK INTER + INTRA:          -5.572
REMARK INTER:                  -4.659
REMARK INTRA:                  -0.913
REMARK UNBOUND:                -1.173
REMARK SMILES CCCCCCCCCCC(=O)[O-]
REMARK SMILES IDX 7 1 8 2 9 3 10 4 11 5 12 6 13 7 6 8 5 9 4 10 3 11 2 12 1 13
REMARK H PARENT
REMARK Flexibility Score: inf
ROOT
ATOM      1  C   UNL     1      -8.389  -6.792   6.784  1.00  0.00     0.000 C 
ENDROOT
BRANCH   1   2
ATOM      2  C   UNL     1      -9.848  -6.347   6.573  1.00  0.00     0.000 C 
BRANCH   2   3
ATOM      3  C   UNL     1     -10.068  -4.824   6.542  1.00  0.00     0.006 C 
BRANCH   3   4
ATOM      4  C   UNL     1      -8.929  -4.042   7.210  1.00  0.00     0.053 C 
BRANCH   4   5
ATOM      5  C   UNL     1      -8.843  -2.660   6.646  1.00  0.00     0.041 C 
ATOM      6  O   UNL     1      -8.896  -2.480   5.401  1.00  0.00    -0.550 OA
ATOM      7  O   UNL     1      -8.652  -1.574   7.491  1.00  0.00    -0.550 OA
ENDBRANCH   4   5
ENDBRANCH   3   4
ENDBRANCH   2   3
ENDBRANCH   1   2
BRANCH   1   8
ATOM      8  C   UNL     1      -8.219  -7.738   7.981  1.00  0.00     0.000 C 
BRANCH   8   9
ATOM      9  C   UNL     1      -9.129  -7.322   9.144  1.00  0.00    -0.000 C 
BRANCH   9  10
ATOM     10  C   UNL     1      -8.432  -6.296  10.048  1.00  0.00    -0.000 C 
BRANCH  10  11
ATOM     11  C   UNL     1      -6.899  -6.324   9.915  1.00  0.00    -0.000 C 
BRANCH  11  12
ATOM     12  C   UNL     1      -6.245  -4.954   9.664  1.00  0.00    -0.003 C 
ATOM     13  C   UNL     1      -4.722  -5.027   9.564  1.00  0.00     0.004 C 
ENDBRANCH  11  12
ENDBRANCH  10  11
ENDBRANCH   9  10
ENDBRANCH   8   9
ENDBRANCH   1   8
TORSDOF 9
ENDMDL
MODEL 7
REMARK VINA RESULT:    -2.860      1.443      3.098
REMARK INTER + INTRA:          -5.537
REMARK INTER:                  -4.525
REMARK INTRA:                  -1.012
REMARK UNBOUND:                -1.173
REMARK SMILES CCCCCCCCCCC(=O)[O-]
REMARK SMILES IDX 7 1 8 2 9 3 10 4 11 5 12 6 13 7 6 8 5 9 4 10 3 11 2 12 1 13
REMARK H PARENT
REMARK Flexibility Score: inf
ROOT
ATOM      1  C   UNL     1      -7.729  -5.949   7.012  1.00  0.00     0.000 C 
ENDROOT
BRANCH   1   2
ATOM      2  C   UNL     1      -7.577  -5.758   8.532  1.00  0.00     0.000 C 
BRANCH   2   3
ATOM      3  C   UNL     1      -7.762  -4.313   9.028  1.00  0.00     0.006 C 
BRANCH   3   4
ATOM      4  C   UNL     1      -8.924  -3.587   8.337  1.00  0.00     0.053 C 
BRANCH   4   5
ATOM      5  C   UNL     1      -8.498  -2.224   7.892  1.00  0.00     0.041 C 
ATOM      6  O   UNL     1      -9.185  -1.590   7.049  1.00  0.00    -0.550 OA
ATOM      7  O   UNL     1      -7.315  -1.674   8.369  1.00  0.00    -0.550 OA
ENDBRANCH   4   5
ENDBRANCH   3   4
ENDBRANCH   2   3
ENDBRANCH   1   2
BRANCH   1   8
ATOM      8  C   UNL     1      -8.303  -7.323   6.635  1.00  0.00     0.000 C 
BRANCH   8   9
ATOM      9  C   UNL     1      -9.436  -7.725   7.588  1.00  0.00    -0.000 C 
BRANCH   9  10
ATOM     10  C   UNL     1     -10.790  -7.215   7.076  1.00  0.00    -0.000 C 
BRANCH  10  11
ATOM     11  C   UNL     1     -10.982  -7.436   5.565  1.00  0.00    -0.000 C 
BRANCH  11  12
ATOM     12  C   UNL     1     -11.119  -6.148   4.735  1.00  0.00    -0.003 C 
ATOM     13  C   UNL     1     -10.984  -4.878   5.574  1.00  0.00     0.004 C 
ENDBRANCH  11  12
ENDBRANCH  10  11
ENDBRANCH   9  10
ENDBRANCH   8   9
ENDBRANCH   1   8
TORSDOF 9
ENDMDL
MODEL 8
REMARK VINA RESULT:    -2.820     14.909     15.978
REMARK INTER + INTRA:          -5.476
REMARK INTER:                  -4.312
REMARK INTRA:                  -1.164
REMARK UNBOUND:                -1.173
REMARK SMILES CCCCCCCCCCC(=O)[O-]
REMARK SMILES IDX 7 1 8 2 9 3 10 4 11 5 12 6 13 7 6 8 5 9 4 10 3 11 2 12 1 13
REMARK H PARENT
REMARK Flexibility Score: inf
ROOT
ATOM      1  C   UNL     1       7.106  -7.778   3.627  1.00  0.00     0.000 C 
ENDROOT
BRANCH   1   2
ATOM      2  C   UNL     1       6.176  -8.968   3.926  1.00  0.00     0.000 C 
BRANCH   2   3
ATOM      3  C   UNL     1       4.809  -8.594   4.525  1.00  0.00     0.006 C 
BRANCH   3   4
ATOM      4  C   UNL     1       3.637  -8.914   3.587  1.00  0.00     0.053 C 
BRANCH   4   5
ATOM      5  C   UNL     1       3.611  -7.958   2.437  1.00  0.00     0.041 C 
ATOM      6  O   UNL     1       3.672  -6.718   2.644  1.00  0.00    -0.550 OA
ATOM      7  O   UNL     1       3.469  -8.434   1.140  1.00  0.00    -0.550 OA
ENDBRANCH   4   5
ENDBRANCH   3   4
ENDBRANCH   2   3
ENDBRANCH   1   2
BRANCH   1   8
ATOM      8  C   UNL     1       6.737  -6.516   4.422  1.00  0.00     0.000 C 
BRANCH   8   9
ATOM      9  C   UNL     1       7.992  -5.817   4.957  1.00  0.00    -0.000 C 
BRANCH   9  10
ATOM     10  C   UNL     1       8.580  -6.581   6.152  1.00  0.00    -0.000 C 
BRANCH  10  11
ATOM     11  C   UNL     1       7.536  -6.879   7.245  1.00  0.00    -0.000 C 
BRANCH  11  12
ATOM     12  C   UNL     1       7.402  -8.364   7.623  1.00  0.00    -0.003 C 
ATOM     13  C   UNL     1       5.975  -8.758   8.001  1.00  0.00     0.004 C 
ENDBRANCH  11  12
ENDBRANCH  10  11
ENDBRANCH   9  10
ENDBRANCH   8   9
ENDBRANCH   1   8
TORSDOF 9
ENDMDL
MODEL 9
REMARK VINA RESULT:    -2.792     19.625     21.806
REMARK INTER + INTRA:          -5.434
REMARK INTER:                  -4.562
REMARK INTRA:                  -0.873
REMARK UNBOUND:                -1.173
REMARK SMILES CCCCCCCCCCC(=O)[O-]
REMARK SMILES IDX 7 1 8 2 9 3 10 4 11 5 12 6 13 7 6 8 5 9 4 10 3 11 2 12 1 13
REMARK H PARENT
REMARK Flexibility Score: inf
ROOT
ATOM      1  C   UNL     1       6.903   8.141   4.753  1.00  0.00     0.000 C 
ENDROOT
BRANCH   1   2
ATOM      2  C   UNL     1       6.075   7.179   5.626  1.00  0.00     0.000 C 
BRANCH   2   3
ATOM      3  C   UNL     1       6.056   7.515   7.128  1.00  0.00     0.006 C 
BRANCH   3   4
ATOM      4  C   UNL     1       6.140   6.270   8.020  1.00  0.00     0.053 C 
BRANCH   4   5
ATOM      5  C   UNL     1       6.643   6.634   9.380  1.00  0.00     0.041 C 
ATOM      6  O   UNL     1       7.484   5.900   9.962  1.00  0.00    -0.550 OA
ATOM      7  O   UNL     1       6.147   7.759  10.028  1.00  0.00    -0.550 OA
ENDBRANCH   4   5
ENDBRANCH   3   4
ENDBRANCH   2   3
ENDBRANCH   1   2
BRANCH   1   8
ATOM      8  C   UNL     1       6.441   9.601   4.868  1.00  0.00     0.000 C 
BRANCH   8   9
ATOM      9  C   UNL     1       7.641  10.548   4.993  1.00  0.00    -0.000 C 
BRANCH   9  10
ATOM     10  C   UNL     1       7.741  11.125   6.412  1.00  0.00    -0.000 C 
BRANCH  10  11
ATOM     11  C   UNL     1       6.393  11.125   7.155  1.00  0.00    -0.000 C 
BRANCH  11  12
ATOM     12  C   UNL     1       6.488  10.855   8.667  1.00  0.00    -0.003 C 
ATOM     13  C   UNL     1       7.927  10.722   9.162  1.00  0.00     0.004 C 
ENDBRANCH  11  12
ENDBRANCH  10  11
ENDBRANCH   9  10
ENDBRANCH   8   9
ENDBRANCH   1   8
TORSDOF 9
ENDMDL
