MODEL 1
REMARK VINA RESULT:    -4.911      0.000      0.000
REMARK INTER + INTRA:          -7.069
REMARK INTER:                  -6.634
REMARK INTRA:                  -0.435
REMARK UNBOUND:                -0.435
REMARK SMILES C=C(CC[C@@H](C(=O)[O-])[C@H]1[C@H](O)C[C@@]2(C)C3=C(CC[C@@]12C)[C@@]1(C)CC[C@@H](O)C(C)(C)[C@@H]1CC3)C(C)C
REMARK SMILES IDX 4 1 5 2 6 3 7 4 8 5 9 6 10 7 19 8 12 9 13 10 18 11 20 12
REMARK SMILES IDX 14 13 15 14 17 15 16 16 32 17 21 18 31 19 30 20 23 21 22 22
REMARK SMILES IDX 27 23 24 24 25 25 28 26 29 27 11 28 26 30 3 32 2 33 1 34
REMARK SMILES IDX 33 35 34 36 35 37
REMARK H PARENT 11 29 26 31
REMARK Flexibility Score: inf
ROOT
ATOM      1  C   UNL     1      17.508 -14.185 -24.077  1.00  0.00     0.014 C 
ENDROOT
BRANCH   1   2
ATOM      2  C   UNL     1      18.863 -14.839 -24.727  1.00  0.00     0.042 C 
BRANCH   2   3
ATOM      3  C   UNL     1      19.287 -16.023 -23.846  1.00  0.00     0.045 C 
ATOM      4  O   UNL     1      18.996 -15.925 -22.660  1.00  0.00    -0.550 OA
ATOM      5  O   UNL     1      20.412 -16.772 -24.238  1.00  0.00    -0.550 OA
ENDBRANCH   2   3
BRANCH   2   6
ATOM      6  C   UNL     1      18.678 -15.214 -26.401  1.00  0.00     0.033 C 
ATOM      7  C   UNL     1      17.634 -14.465 -27.144  1.00  0.00     0.119 C 
ATOM      8  C   UNL     1      19.965 -14.800 -27.425  1.00  0.00    -0.017 C 
ATOM      9  C   UNL     1      18.634 -13.154 -27.098  1.00  0.00     0.043 C 
ATOM     10  C   UNL     1      20.274 -13.488 -26.664  1.00  0.00    -0.003 C 
ATOM     11  C   UNL     1      20.746 -16.207 -27.380  1.00  0.00     0.012 C 
ATOM     12  C   UNL     1      20.139 -14.211 -29.026  1.00  0.00     0.013 C 
ATOM     13  C   UNL     1      20.986 -12.077 -27.236  1.00  0.00     0.017 C 
ATOM     14  C   UNL     1      21.653 -14.056 -25.949  1.00  0.00    -0.064 C 
ATOM     15  C   UNL     1      22.136 -16.060 -27.541  1.00  0.00     0.032 C 
ATOM     16  C   UNL     1      22.587 -14.848 -26.737  1.00  0.00    -0.064 C 
ATOM     17  C   UNL     1      22.286 -13.492 -24.684  1.00  0.00     0.032 C 
ATOM     18  C   UNL     1      24.093 -14.703 -26.579  1.00  0.00    -0.008 C 
ATOM     19  C   UNL     1      23.663 -12.729 -24.957  1.00  0.00     0.009 C 
ATOM     20  C   UNL     1      24.283 -13.164 -26.301  1.00  0.00     0.007 C 
ATOM     21  C   UNL     1      24.824 -15.071 -28.027  1.00  0.00     0.014 C 
ATOM     22  C   UNL     1      24.695 -15.684 -25.411  1.00  0.00     0.016 C 
ATOM     23  C   UNL     1      25.628 -12.521 -26.838  1.00  0.00    -0.006 C 
ATOM     24  C   UNL     1      24.792 -13.864 -28.966  1.00  0.00     0.033 C 
ATOM     25  C   UNL     1      25.728 -12.758 -28.436  1.00  0.00     0.120 C 
ATOM     26  C   UNL     1      25.595 -10.972 -26.521  1.00  0.00     0.014 C 
ATOM     27  C   UNL     1      26.880 -13.218 -26.146  1.00  0.00     0.014 C 
BRANCH   7  28
ATOM     28  O   UNL     1      17.456 -15.193 -28.485  1.00  0.00    -0.393 OA
ATOM     29  H   UNL     1      17.023 -14.572 -29.182  1.00  0.00     0.210 HD
ENDBRANCH   7  28
BRANCH  25  30
ATOM     30  O   UNL     1      25.382 -11.572 -29.125  1.00  0.00    -0.393 OA
ATOM     31  H   UNL     1      25.009 -10.964 -28.490  1.00  0.00     0.210 HD
ENDBRANCH  25  30
ENDBRANCH   2   6
ENDBRANCH   1   2
BRANCH   1  32
ATOM     32  C   UNL     1      16.214 -14.985 -23.958  1.00  0.00     0.031 C 
BRANCH  32  33
ATOM     33  C   UNL     1      14.892 -14.160 -24.014  1.00  0.00    -0.075 C 
ATOM     34  C   UNL     1      14.943 -13.159 -24.898  1.00  0.00     0.008 C 
BRANCH  33  35
ATOM     35  C   UNL     1      13.508 -14.532 -23.443  1.00  0.00     0.008 C 
ATOM     36  C   UNL     1      12.651 -13.358 -22.858  1.00  0.00     0.012 C 
ATOM     37  C   UNL     1      13.639 -15.661 -22.353  1.00  0.00     0.012 C 
ENDBRANCH  33  35
ENDBRANCH  32  33
ENDBRANCH   1  32
TORSDOF 8
ENDMDL
MODEL 2
REMARK VINA RESULT:    -4.808      1.940      8.704
REMARK INTER + INTRA:          -6.930
REMARK INTER:                  -6.384
REMARK INTRA:                  -0.546
REMARK UNBOUND:                -0.435
REMARK SMILES C=C(CC[C@@H](C(=O)[O-])[C@H]1[C@H](O)C[C@@]2(C)C3=C(CC[C@@]12C)[C@@]1(C)CC[C@@H](O)C(C)(C)[C@@H]1CC3)C(C)C
REMARK SMILES IDX 4 1 5 2 6 3 7 4 8 5 9 6 10 7 19 8 12 9 13 10 18 11 20 12
REMARK SMILES IDX 14 13 15 14 17 15 16 16 32 17 21 18 31 19 30 20 23 21 22 22
REMARK SMILES IDX 27 23 24 24 25 25 28 26 29 27 11 28 26 30 3 32 2 33 1 34
REMARK SMILES IDX 33 35 34 36 35 37
REMARK H PARENT 11 29 26 31
REMARK Flexibility Score: inf
ROOT
ATOM      1  C   UNL     1      21.462 -12.638 -26.820  1.00  0.00     0.014 C 
ENDROOT
BRANCH   1   2
ATOM      2  C   UNL     1      20.164 -13.604 -27.081  1.00  0.00     0.042 C 
BRANCH   2   3
ATOM      3  C   UNL     1      19.765 -13.472 -28.558  1.00  0.00     0.045 C 
ATOM      4  O   UNL     1      19.908 -12.355 -29.043  1.00  0.00    -0.550 OA
ATOM      5  O   UNL     1      18.772 -14.336 -29.057  1.00  0.00    -0.550 OA
ENDBRANCH   2   3
BRANCH   2   6
ATOM      6  C   UNL     1      20.427 -15.224 -26.547  1.00  0.00     0.033 C 
ATOM      7  C   UNL     1      21.442 -15.420 -25.482  1.00  0.00     0.119 C 
ATOM      8  C   UNL     1      19.148 -15.974 -25.723  1.00  0.00    -0.017 C 
ATOM      9  C   UNL     1      20.356 -14.780 -24.419  1.00  0.00     0.043 C 
ATOM     10  C   UNL     1      18.729 -14.676 -24.994  1.00  0.00    -0.003 C 
ATOM     11  C   UNL     1      18.462 -16.694 -26.990  1.00  0.00     0.012 C 
ATOM     12  C   UNL     1      18.987 -17.066 -24.412  1.00  0.00     0.013 C 
ATOM     13  C   UNL     1      17.943 -14.499 -23.518  1.00  0.00     0.017 C 
ATOM     14  C   UNL     1      17.368 -14.431 -25.902  1.00  0.00    -0.064 C 
ATOM     15  C   UNL     1      17.071 -16.844 -26.838  1.00  0.00     0.032 C 
ATOM     16  C   UNL     1      16.515 -15.567 -26.221  1.00  0.00    -0.064 C 
ATOM     17  C   UNL     1      16.659 -13.097 -26.085  1.00  0.00     0.032 C 
ATOM     18  C   UNL     1      14.998 -15.450 -26.239  1.00  0.00    -0.008 C 
ATOM     19  C   UNL     1      15.244 -13.030 -25.347  1.00  0.00     0.009 C 
ATOM     20  C   UNL     1      14.698 -14.445 -25.064  1.00  0.00     0.007 C 
ATOM     21  C   UNL     1      14.341 -16.927 -25.851  1.00  0.00     0.014 C 
ATOM     22  C   UNL     1      14.426 -14.976 -27.701  1.00  0.00     0.016 C 
ATOM     23  C   UNL     1      13.331 -14.666 -24.293  1.00  0.00    -0.006 C 
ATOM     24  C   UNL     1      14.322 -17.125 -24.334  1.00  0.00     0.033 C 
ATOM     25  C   UNL     1      13.298 -16.167 -23.690  1.00  0.00     0.120 C 
ATOM     26  C   UNL     1      13.251 -13.608 -23.119  1.00  0.00     0.014 C 
ATOM     27  C   UNL     1      12.106 -14.498 -25.296  1.00  0.00     0.014 C 
BRANCH   7  28
ATOM     28  O   UNL     1      21.711 -16.932 -25.420  1.00  0.00    -0.393 OA
ATOM     29  H   UNL     1      21.513 -17.299 -24.480  1.00  0.00     0.210 HD
ENDBRANCH   7  28
BRANCH  25  30
ATOM     30  O   UNL     1      13.587 -16.140 -22.306  1.00  0.00    -0.393 OA
ATOM     31  H   UNL     1      12.864 -16.565 -21.848  1.00  0.00     0.210 HD
ENDBRANCH  25  30
ENDBRANCH   2   6
ENDBRANCH   1   2
BRANCH   1  32
ATOM     32  C   UNL     1      22.763 -12.825 -27.595  1.00  0.00     0.031 C 
BRANCH  32  33
ATOM     33  C   UNL     1      24.077 -12.724 -26.761  1.00  0.00    -0.075 C 
ATOM     34  C   UNL     1      24.896 -11.762 -27.199  1.00  0.00     0.008 C 
BRANCH  33  35
ATOM     35  C   UNL     1      24.384 -13.343 -25.382  1.00  0.00     0.008 C 
ATOM     36  C   UNL     1      23.773 -12.619 -24.135  1.00  0.00     0.012 C 
ATOM     37  C   UNL     1      25.937 -13.496 -25.172  1.00  0.00     0.012 C 
ENDBRANCH  33  35
ENDBRANCH  32  33
ENDBRANCH   1  32
TORSDOF 8
ENDMDL
MODEL 3
REMARK VINA RESULT:    -4.496     14.391     16.931
REMARK INTER + INTRA:          -6.508
REMARK INTER:                  -6.430
REMARK INTRA:                  -0.079
REMARK UNBOUND:                -0.435
REMARK SMILES C=C(CC[C@@H](C(=O)[O-])[C@H]1[C@H](O)C[C@@]2(C)C3=C(CC[C@@]12C)[C@@]1(C)CC[C@@H](O)C(C)(C)[C@@H]1CC3)C(C)C
REMARK SMILES IDX 4 1 5 2 6 3 7 4 8 5 9 6 10 7 19 8 12 9 13 10 18 11 20 12
REMARK SMILES IDX 14 13 15 14 17 15 16 16 32 17 21 18 31 19 30 20 23 21 22 22
REMARK SMILES IDX 27 23 24 24 25 25 28 26 29 27 11 28 26 30 3 32 2 33 1 34
REMARK SMILES IDX 33 35 34 36 35 37
REMARK H PARENT 11 29 26 31
REMARK Flexibility Score: inf
ROOT
ATOM      1  C   UNL     1      21.657  -0.487 -18.737  1.00  0.00     0.014 C 
ENDROOT
BRANCH   1   2
ATOM      2  C   UNL     1      20.677   0.413 -19.693  1.00  0.00     0.042 C 
BRANCH   2   3
ATOM      3  C   UNL     1      19.411   0.748 -18.891  1.00  0.00     0.045 C 
ATOM      4  O   UNL     1      18.477   1.196 -19.547  1.00  0.00    -0.550 OA
ATOM      5  O   UNL     1      19.558   1.105 -17.537  1.00  0.00    -0.550 OA
ENDBRANCH   2   3
BRANCH   2   6
ATOM      6  C   UNL     1      21.486   1.778 -20.370  1.00  0.00     0.033 C 
ATOM      7  C   UNL     1      22.965   1.702 -20.462  1.00  0.00     0.119 C 
ATOM      8  C   UNL     1      21.215   2.090 -22.015  1.00  0.00    -0.017 C 
ATOM      9  C   UNL     1      22.767   0.646 -21.714  1.00  0.00     0.043 C 
ATOM     10  C   UNL     1      21.178   0.590 -22.392  1.00  0.00    -0.003 C 
ATOM     11  C   UNL     1      19.992   3.125 -21.845  1.00  0.00     0.012 C 
ATOM     12  C   UNL     1      22.141   2.663 -23.339  1.00  0.00     0.013 C 
ATOM     13  C   UNL     1      21.548  -0.140 -23.860  1.00  0.00     0.017 C 
ATOM     14  C   UNL     1      19.541   0.538 -22.623  1.00  0.00    -0.064 C 
ATOM     15  C   UNL     1      19.097   3.086 -22.930  1.00  0.00     0.032 C 
ATOM     16  C   UNL     1      18.889   1.632 -23.330  1.00  0.00    -0.064 C 
ATOM     17  C   UNL     1      18.683  -0.719 -22.570  1.00  0.00     0.032 C 
ATOM     18  C   UNL     1      17.747   1.388 -24.305  1.00  0.00    -0.008 C 
ATOM     19  C   UNL     1      18.123  -1.157 -24.000  1.00  0.00     0.009 C 
ATOM     20  C   UNL     1      18.139   0.026 -24.990  1.00  0.00     0.007 C 
ATOM     21  C   UNL     1      17.761   2.584 -25.460  1.00  0.00     0.014 C 
ATOM     22  C   UNL     1      16.285   1.378 -23.562  1.00  0.00     0.016 C 
ATOM     23  C   UNL     1      17.682  -0.150 -26.498  1.00  0.00    -0.006 C 
ATOM     24  C   UNL     1      18.781   2.262 -26.553  1.00  0.00     0.033 C 
ATOM     25  C   UNL     1      18.301   1.054 -27.384  1.00  0.00     0.120 C 
ATOM     26  C   UNL     1      18.226  -1.541 -27.019  1.00  0.00     0.014 C 
ATOM     27  C   UNL     1      16.095  -0.087 -26.597  1.00  0.00     0.014 C 
BRANCH   7  28
ATOM     28  O   UNL     1      23.449   3.124 -20.784  1.00  0.00    -0.393 OA
ATOM     29  H   UNL     1      24.457   3.216 -20.605  1.00  0.00     0.210 HD
ENDBRANCH   7  28
BRANCH  25  30
ATOM     30  O   UNL     1      19.422   0.594 -28.113  1.00  0.00    -0.393 OA
ATOM     31  H   UNL     1      19.172   0.545 -29.034  1.00  0.00     0.210 HD
ENDBRANCH  25  30
ENDBRANCH   2   6
ENDBRANCH   1   2
BRANCH   1  32
ATOM     32  C   UNL     1      21.108  -1.285 -17.558  1.00  0.00     0.031 C 
BRANCH  32  33
ATOM     33  C   UNL     1      21.661  -0.898 -16.152  1.00  0.00    -0.075 C 
ATOM     34  C   UNL     1      20.890  -1.339 -15.153  1.00  0.00     0.008 C 
BRANCH  33  35
ATOM     35  C   UNL     1      23.068  -0.382 -15.787  1.00  0.00     0.008 C 
ATOM     36  C   UNL     1      23.882  -1.231 -14.752  1.00  0.00     0.012 C 
ATOM     37  C   UNL     1      23.002   1.109 -15.285  1.00  0.00     0.012 C 
ENDBRANCH  33  35
ENDBRANCH  32  33
ENDBRANCH   1  32
TORSDOF 8
ENDMDL
MODEL 4
REMARK VINA RESULT:    -4.304     14.329     16.796
REMARK INTER + INTRA:          -6.249
REMARK INTER:                  -5.829
REMARK INTRA:                  -0.420
REMARK UNBOUND:                -0.435
REMARK SMILES C=C(CC[C@@H](C(=O)[O-])[C@H]1[C@H](O)C[C@@]2(C)C3=C(CC[C@@]12C)[C@@]1(C)CC[C@@H](O)C(C)(C)[C@@H]1CC3)C(C)C
REMARK SMILES IDX 4 1 5 2 6 3 7 4 8 5 9 6 10 7 19 8 12 9 13 10 18 11 20 12
REMARK SMILES IDX 14 13 15 14 17 15 16 16 32 17 21 18 31 19 30 20 23 21 22 22
REMARK SMILES IDX 27 23 24 24 25 25 28 26 29 27 11 28 26 30 3 32 2 33 1 34
REMARK SMILES IDX 33 35 34 36 35 37
REMARK H PARENT 11 29 26 31
REMARK Flexibility Score: inf
ROOT
ATOM      1  C   UNL     1      22.010  -0.300 -18.608  1.00  0.00     0.014 C 
ENDROOT
BRANCH   1   2
ATOM      2  C   UNL     1      21.058   0.413 -19.736  1.00  0.00     0.042 C 
BRANCH   2   3
ATOM      3  C   UNL     1      19.695   0.704 -19.091  1.00  0.00     0.045 C 
ATOM      4  O   UNL     1      19.545   1.846 -18.673  1.00  0.00    -0.550 OA
ATOM      5  O   UNL     1      19.005  -0.365 -18.488  1.00  0.00    -0.550 OA
ENDBRANCH   2   3
BRANCH   2   6
ATOM      6  C   UNL     1      21.815   1.778 -20.472  1.00  0.00     0.033 C 
ATOM      7  C   UNL     1      23.284   1.702 -20.672  1.00  0.00     0.119 C 
ATOM      8  C   UNL     1      21.424   2.090 -22.092  1.00  0.00    -0.017 C 
ATOM      9  C   UNL     1      22.994   0.646 -21.906  1.00  0.00     0.043 C 
ATOM     10  C   UNL     1      21.359   0.590 -22.465  1.00  0.00    -0.003 C 
ATOM     11  C   UNL     1      20.217   3.124 -21.833  1.00  0.00     0.012 C 
ATOM     12  C   UNL     1      22.250   2.662 -23.481  1.00  0.00     0.013 C 
ATOM     13  C   UNL     1      21.620  -0.141 -23.956  1.00  0.00     0.017 C 
ATOM     14  C   UNL     1      19.710   0.537 -22.575  1.00  0.00    -0.064 C 
ATOM     15  C   UNL     1      19.244   3.085 -22.849  1.00  0.00     0.032 C 
ATOM     16  C   UNL     1      19.008   1.630 -23.232  1.00  0.00    -0.064 C 
ATOM     17  C   UNL     1      18.858  -0.720 -22.459  1.00  0.00     0.032 C 
ATOM     18  C   UNL     1      17.797   1.386 -24.120  1.00  0.00    -0.008 C 
ATOM     19  C   UNL     1      18.194  -1.159 -23.843  1.00  0.00     0.009 C 
ATOM     20  C   UNL     1      18.138   0.024 -24.832  1.00  0.00     0.007 C 
ATOM     21  C   UNL     1      17.726   2.582 -25.274  1.00  0.00     0.014 C 
ATOM     22  C   UNL     1      16.393   1.377 -23.272  1.00  0.00     0.016 C 
ATOM     23  C   UNL     1      17.571  -0.153 -26.302  1.00  0.00    -0.006 C 
ATOM     24  C   UNL     1      18.663   2.259 -26.439  1.00  0.00     0.033 C 
ATOM     25  C   UNL     1      18.122   1.051 -27.232  1.00  0.00     0.120 C 
ATOM     26  C   UNL     1      18.076  -1.544 -26.861  1.00  0.00     0.014 C 
ATOM     27  C   UNL     1      15.981  -0.089 -26.285  1.00  0.00     0.014 C 
BRANCH   7  28
ATOM     28  O   UNL     1      23.742   3.124 -21.030  1.00  0.00    -0.393 OA
ATOM     29  H   UNL     1      23.827   3.703 -20.184  1.00  0.00     0.210 HD
ENDBRANCH   7  28
BRANCH  25  30
ATOM     30  O   UNL     1      19.187   0.591 -28.041  1.00  0.00    -0.393 OA
ATOM     31  H   UNL     1      19.836   1.290 -28.095  1.00  0.00     0.210 HD
ENDBRANCH  25  30
ENDBRANCH   2   6
ENDBRANCH   1   2
BRANCH   1  32
ATOM     32  C   UNL     1      22.197   0.309 -17.222  1.00  0.00     0.031 C 
BRANCH  32  33
ATOM     33  C   UNL     1      21.998  -0.659 -16.016  1.00  0.00    -0.075 C 
ATOM     34  C   UNL     1      23.092  -0.773 -15.257  1.00  0.00     0.008 C 
BRANCH  33  35
ATOM     35  C   UNL     1      20.677  -1.216 -15.444  1.00  0.00     0.008 C 
ATOM     36  C   UNL     1      19.958  -2.323 -16.287  1.00  0.00     0.012 C 
ATOM     37  C   UNL     1      19.659  -0.050 -15.158  1.00  0.00     0.012 C 
ENDBRANCH  33  35
ENDBRANCH  32  33
ENDBRANCH   1  32
TORSDOF 8
ENDMDL
MODEL 5
REMARK VINA RESULT:    -4.217      1.485      1.923
REMARK INTER + INTRA:          -6.132
REMARK INTER:                  -5.775
REMARK INTRA:                  -0.356
REMARK UNBOUND:                -0.435
REMARK SMILES C=C(CC[C@@H](C(=O)[O-])[C@H]1[C@H](O)C[C@@]2(C)C3=C(CC[C@@]12C)[C@@]1(C)CC[C@@H](O)C(C)(C)[C@@H]1CC3)C(C)C
REMARK SMILES IDX 4 1 5 2 6 3 7 4 8 5 9 6 10 7 19 8 12 9 13 10 18 11 20 12
REMARK SMILES IDX 14 13 15 14 17 15 16 16 32 17 21 18 31 19 30 20 23 21 22 22
REMARK SMILES IDX 27 23 24 24 25 25 28 26 29 27 11 28 26 30 3 32 2 33 1 34
REMARK SMILES IDX 33 35 34 36 35 37
REMARK H PARENT 11 29 26 31
REMARK Flexibility Score: inf
ROOT
ATOM      1  C   UNL     1      15.909 -14.760 -23.976  1.00  0.00     0.014 C 
ENDROOT
BRANCH   1   2
ATOM      2  C   UNL     1      17.228 -15.142 -24.871  1.00  0.00     0.042 C 
BRANCH   2   3
ATOM      3  C   UNL     1      17.567 -16.617 -24.609  1.00  0.00     0.045 C 
ATOM      4  O   UNL     1      17.099 -17.088 -23.578  1.00  0.00    -0.550 OA
ATOM      5  O   UNL     1      18.769 -17.125 -25.136  1.00  0.00    -0.550 OA
ENDBRANCH   2   3
BRANCH   2   6
ATOM      6  C   UNL     1      17.039 -14.730 -26.536  1.00  0.00     0.033 C 
ATOM      7  C   UNL     1      16.108 -13.616 -26.848  1.00  0.00     0.119 C 
ATOM      8  C   UNL     1      18.390 -14.065 -27.317  1.00  0.00    -0.017 C 
ATOM      9  C   UNL     1      17.255 -12.582 -26.268  1.00  0.00     0.043 C 
ATOM     10  C   UNL     1      18.833 -13.260 -26.072  1.00  0.00    -0.003 C 
ATOM     11  C   UNL     1      18.998 -15.433 -27.910  1.00  0.00     0.012 C 
ATOM     12  C   UNL     1      18.669 -12.865 -28.509  1.00  0.00     0.013 C 
ATOM     13  C   UNL     1      19.720 -11.833 -25.997  1.00  0.00     0.017 C 
ATOM     14  C   UNL     1      20.119 -14.237 -25.716  1.00  0.00    -0.064 C 
ATOM     15  C   UNL     1      20.399 -15.393 -28.034  1.00  0.00     0.032 C 
ATOM     16  C   UNL     1      20.970 -14.712 -26.798  1.00  0.00    -0.064 C 
ATOM     17  C   UNL     1      20.784 -14.357 -24.352  1.00  0.00     0.032 C 
ATOM     18  C   UNL     1      22.479 -14.826 -26.638  1.00  0.00    -0.008 C 
ATOM     19  C   UNL     1      22.247 -13.717 -24.308  1.00  0.00     0.009 C 
ATOM     20  C   UNL     1      22.842 -13.595 -25.726  1.00  0.00     0.007 C 
ATOM     21  C   UNL     1      23.195 -14.612 -28.124  1.00  0.00     0.014 C 
ATOM     22  C   UNL     1      22.933 -16.280 -26.029  1.00  0.00     0.016 C 
ATOM     23  C   UNL     1      24.266 -12.944 -25.972  1.00  0.00    -0.006 C 
ATOM     24  C   UNL     1      23.328 -13.123 -28.445  1.00  0.00     0.033 C 
ATOM     25  C   UNL     1      24.375 -12.473 -27.517  1.00  0.00     0.120 C 
ATOM     26  C   UNL     1      24.409 -11.693 -25.014  1.00  0.00     0.014 C 
ATOM     27  C   UNL     1      25.411 -14.012 -25.688  1.00  0.00     0.014 C 
BRANCH   7  28
ATOM     28  O   UNL     1      15.877 -13.664 -28.366  1.00  0.00    -0.393 OA
ATOM     29  H   UNL     1      14.963 -13.261 -28.608  1.00  0.00     0.210 HD
ENDBRANCH   7  28
BRANCH  25  30
ATOM     30  O   UNL     1      24.188 -11.075 -27.612  1.00  0.00    -0.393 OA
ATOM     31  H   UNL     1      25.006 -10.652 -27.359  1.00  0.00     0.210 HD
ENDBRANCH  25  30
ENDBRANCH   2   6
ENDBRANCH   1   2
BRANCH   1  32
ATOM     32  C   UNL     1      14.522 -15.288 -24.334  1.00  0.00     0.031 C 
BRANCH  32  33
ATOM     33  C   UNL     1      13.534 -15.477 -23.142  1.00  0.00    -0.075 C 
ATOM     34  C   UNL     1      13.814 -16.555 -22.403  1.00  0.00     0.008 C 
BRANCH  33  35
ATOM     35  C   UNL     1      12.532 -14.459 -22.560  1.00  0.00     0.008 C 
ATOM     36  C   UNL     1      12.621 -12.994 -23.108  1.00  0.00     0.012 C 
ATOM     37  C   UNL     1      12.625 -14.422 -20.988  1.00  0.00     0.012 C 
ENDBRANCH  33  35
ENDBRANCH  32  33
ENDBRANCH   1  32
TORSDOF 8
ENDMDL
MODEL 6
REMARK VINA RESULT:    -4.168     13.617     16.008
REMARK INTER + INTRA:          -6.065
REMARK INTER:                  -5.298
REMARK INTRA:                  -0.767
REMARK UNBOUND:                -0.435
REMARK SMILES C=C(CC[C@@H](C(=O)[O-])[C@H]1[C@H](O)C[C@@]2(C)C3=C(CC[C@@]12C)[C@@]1(C)CC[C@@H](O)C(C)(C)[C@@H]1CC3)C(C)C
REMARK SMILES IDX 4 1 5 2 6 3 7 4 8 5 9 6 10 7 19 8 12 9 13 10 18 11 20 12
REMARK SMILES IDX 14 13 15 14 17 15 16 16 32 17 21 18 31 19 30 20 23 21 22 22
REMARK SMILES IDX 27 23 24 24 25 25 28 26 29 27 11 28 26 30 3 32 2 33 1 34
REMARK SMILES IDX 33 35 34 36 35 37
REMARK H PARENT 11 29 26 31
REMARK Flexibility Score: inf
ROOT
ATOM      1  C   UNL     1      21.035   0.143 -19.410  1.00  0.00     0.014 C 
ENDROOT
BRANCH   1   2
ATOM      2  C   UNL     1      20.404   0.849 -20.748  1.00  0.00     0.042 C 
BRANCH   2   3
ATOM      3  C   UNL     1      19.029   1.423 -20.377  1.00  0.00     0.045 C 
ATOM      4  O   UNL     1      18.700   1.280 -19.205  1.00  0.00    -0.550 OA
ATOM      5  O   UNL     1      18.047   1.496 -21.383  1.00  0.00    -0.550 OA
ENDBRANCH   2   3
BRANCH   2   6
ATOM      6  C   UNL     1      21.487   1.980 -21.472  1.00  0.00     0.033 C 
ATOM      7  C   UNL     1      22.926   1.841 -21.131  1.00  0.00     0.119 C 
ATOM      8  C   UNL     1      21.685   1.883 -23.153  1.00  0.00    -0.017 C 
ATOM      9  C   UNL     1      22.962   0.514 -22.111  1.00  0.00     0.043 C 
ATOM     10  C   UNL     1      21.606   0.338 -23.169  1.00  0.00    -0.003 C 
ATOM     11  C   UNL     1      20.565   2.961 -23.571  1.00  0.00     0.012 C 
ATOM     12  C   UNL     1      22.975   2.082 -24.265  1.00  0.00     0.013 C 
ATOM     13  C   UNL     1      22.275  -0.744 -24.268  1.00  0.00     0.017 C 
ATOM     14  C   UNL     1      20.089   0.276 -23.824  1.00  0.00    -0.064 C 
ATOM     15  C   UNL     1      19.984   2.681 -24.821  1.00  0.00     0.032 C 
ATOM     16  C   UNL     1      19.751   1.179 -24.916  1.00  0.00    -0.064 C 
ATOM     17  C   UNL     1      19.131  -0.903 -23.722  1.00  0.00     0.032 C 
ATOM     18  C   UNL     1      18.884   0.734 -26.085  1.00  0.00    -0.008 C 
ATOM     19  C   UNL     1      18.924  -1.667 -25.110  1.00  0.00     0.009 C 
ATOM     20  C   UNL     1      19.310  -0.767 -26.302  1.00  0.00     0.007 C 
ATOM     21  C   UNL     1      19.313   1.605 -27.434  1.00  0.00     0.014 C 
ATOM     22  C   UNL     1      17.285   0.950 -25.793  1.00  0.00     0.016 C 
ATOM     23  C   UNL     1      19.247  -1.298 -27.794  1.00  0.00    -0.006 C 
ATOM     24  C   UNL     1      20.547   0.993 -28.098  1.00  0.00     0.033 C 
ATOM     25  C   UNL     1      20.187  -0.369 -28.728  1.00  0.00     0.120 C 
ATOM     26  C   UNL     1      19.774  -2.789 -27.809  1.00  0.00     0.014 C 
ATOM     27  C   UNL     1      17.755  -1.216 -28.340  1.00  0.00     0.014 C 
BRANCH   7  28
ATOM     28  O   UNL     1      23.609   3.125 -21.627  1.00  0.00    -0.393 OA
ATOM     29  H   UNL     1      24.609   3.121 -21.388  1.00  0.00     0.210 HD
ENDBRANCH   7  28
BRANCH  25  30
ATOM     30  O   UNL     1      21.411  -1.027 -28.992  1.00  0.00    -0.393 OA
ATOM     31  H   UNL     1      21.427  -1.252 -29.921  1.00  0.00     0.210 HD
ENDBRANCH  25  30
ENDBRANCH   2   6
ENDBRANCH   1   2
BRANCH   1  32
ATOM     32  C   UNL     1      20.641  -1.271 -18.994  1.00  0.00     0.031 C 
BRANCH  32  33
ATOM     33  C   UNL     1      20.321  -1.475 -17.481  1.00  0.00    -0.075 C 
ATOM     34  C   UNL     1      19.787  -2.672 -17.222  1.00  0.00     0.008 C 
BRANCH  33  35
ATOM     35  C   UNL     1      20.813  -0.643 -16.279  1.00  0.00     0.008 C 
ATOM     36  C   UNL     1      21.732  -1.378 -15.244  1.00  0.00     0.012 C 
ATOM     37  C   UNL     1      19.598   0.004 -15.514  1.00  0.00     0.012 C 
ENDBRANCH  33  35
ENDBRANCH  32  33
ENDBRANCH   1  32
TORSDOF 8
ENDMDL
MODEL 7
REMARK VINA RESULT:    -3.696      1.701      2.421
REMARK INTER + INTRA:          -5.428
REMARK INTER:                  -4.907
REMARK INTRA:                  -0.521
REMARK UNBOUND:                -0.435
REMARK SMILES C=C(CC[C@@H](C(=O)[O-])[C@H]1[C@H](O)C[C@@]2(C)C3=C(CC[C@@]12C)[C@@]1(C)CC[C@@H](O)C(C)(C)[C@@H]1CC3)C(C)C
REMARK SMILES IDX 4 1 5 2 6 3 7 4 8 5 9 6 10 7 19 8 12 9 13 10 18 11 20 12
REMARK SMILES IDX 14 13 15 14 17 15 16 16 32 17 21 18 31 19 30 20 23 21 22 22
REMARK SMILES IDX 27 23 24 24 25 25 28 26 29 27 11 28 26 30 3 32 2 33 1 34
REMARK SMILES IDX 33 35 34 36 35 37
REMARK H PARENT 11 29 26 31
REMARK Flexibility Score: inf
ROOT
ATOM      1  C   UNL     1      17.145 -15.553 -25.023  1.00  0.00     0.014 C 
ENDROOT
BRANCH   1   2
ATOM      2  C   UNL     1      18.312 -15.365 -26.158  1.00  0.00     0.042 C 
BRANCH   2   3
ATOM      3  C   UNL     1      18.496 -16.711 -26.875  1.00  0.00     0.045 C 
ATOM      4  O   UNL     1      19.648 -17.125 -26.926  1.00  0.00    -0.550 OA
ATOM      5  O   UNL     1      17.575 -17.058 -27.881  1.00  0.00    -0.550 OA
ENDBRANCH   2   3
BRANCH   2   6
ATOM      6  C   UNL     1      18.007 -14.026 -27.204  1.00  0.00     0.033 C 
ATOM      7  C   UNL     1      17.078 -12.983 -26.701  1.00  0.00     0.119 C 
ATOM      8  C   UNL     1      19.309 -12.983 -27.510  1.00  0.00    -0.017 C 
ATOM      9  C   UNL     1      18.287 -12.485 -25.694  1.00  0.00     0.043 C 
ATOM     10  C   UNL     1      19.861 -13.094 -26.069  1.00  0.00    -0.003 C 
ATOM     11  C   UNL     1      19.842 -13.684 -28.858  1.00  0.00     0.012 C 
ATOM     12  C   UNL     1      19.522 -11.297 -27.734  1.00  0.00     0.013 C 
ATOM     13  C   UNL     1      20.781 -11.986 -25.201  1.00  0.00     0.017 C 
ATOM     14  C   UNL     1      21.149 -14.047 -26.479  1.00  0.00    -0.064 C 
ATOM     15  C   UNL     1      21.230 -13.536 -29.032  1.00  0.00     0.032 C 
ATOM     16  C   UNL     1      21.907 -13.735 -27.682  1.00  0.00    -0.064 C 
ATOM     17  C   UNL     1      21.913 -14.956 -25.525  1.00  0.00     0.032 C 
ATOM     18  C   UNL     1      23.421 -13.878 -27.736  1.00  0.00    -0.008 C 
ATOM     19  C   UNL     1      23.388 -14.433 -25.205  1.00  0.00     0.009 C 
ATOM     20  C   UNL     1      23.877 -13.452 -26.290  1.00  0.00     0.007 C 
ATOM     21  C   UNL     1      24.027 -12.779 -28.826  1.00  0.00     0.014 C 
ATOM     22  C   UNL     1      23.889 -15.387 -28.178  1.00  0.00     0.016 C 
ATOM     23  C   UNL     1      25.292 -12.744 -26.188  1.00  0.00    -0.006 C 
ATOM     24  C   UNL     1      24.166 -11.401 -28.178  1.00  0.00     0.033 C 
ATOM     25  C   UNL     1      25.294 -11.424 -27.125  1.00  0.00     0.120 C 
ATOM     26  C   UNL     1      25.532 -12.337 -24.679  1.00  0.00     0.014 C 
ATOM     27  C   UNL     1      26.432 -13.729 -26.701  1.00  0.00     0.014 C 
BRANCH   7  28
ATOM     28  O   UNL     1      16.734 -12.099 -27.910  1.00  0.00    -0.393 OA
ATOM     29  H   UNL     1      16.386 -11.181 -27.602  1.00  0.00     0.210 HD
ENDBRANCH   7  28
BRANCH  25  30
ATOM     30  O   UNL     1      25.129 -10.266 -26.332  1.00  0.00    -0.393 OA
ATOM     31  H   UNL     1      24.795  -9.570 -26.896  1.00  0.00     0.210 HD
ENDBRANCH  25  30
ENDBRANCH   2   6
ENDBRANCH   1   2
BRANCH   1  32
ATOM     32  C   UNL     1      15.912 -16.414 -25.280  1.00  0.00     0.031 C 
BRANCH  32  33
ATOM     33  C   UNL     1      14.584 -15.920 -24.628  1.00  0.00    -0.075 C 
ATOM     34  C   UNL     1      13.835 -16.922 -24.157  1.00  0.00     0.008 C 
BRANCH  33  35
ATOM     35  C   UNL     1      14.204 -14.488 -24.200  1.00  0.00     0.008 C 
ATOM     36  C   UNL     1      13.669 -14.310 -22.739  1.00  0.00     0.012 C 
ATOM     37  C   UNL     1      13.164 -13.863 -25.204  1.00  0.00     0.012 C 
ENDBRANCH  33  35
ENDBRANCH  32  33
ENDBRANCH   1  32
TORSDOF 8
ENDMDL
MODEL 8
REMARK VINA RESULT:    -3.471      1.928      8.536
REMARK INTER + INTRA:          -5.124
REMARK INTER:                  -4.943
REMARK INTRA:                  -0.181
REMARK UNBOUND:                -0.435
REMARK SMILES C=C(CC[C@@H](C(=O)[O-])[C@H]1[C@H](O)C[C@@]2(C)C3=C(CC[C@@]12C)[C@@]1(C)CC[C@@H](O)C(C)(C)[C@@H]1CC3)C(C)C
REMARK SMILES IDX 4 1 5 2 6 3 7 4 8 5 9 6 10 7 19 8 12 9 13 10 18 11 20 12
REMARK SMILES IDX 14 13 15 14 17 15 16 16 32 17 21 18 31 19 30 20 23 21 22 22
REMARK SMILES IDX 27 23 24 24 25 25 28 26 29 27 11 28 26 30 3 32 2 33 1 34
REMARK SMILES IDX 33 35 34 36 35 37
REMARK H PARENT 11 29 26 31
REMARK Flexibility Score: inf
ROOT
ATOM      1  C   UNL     1      23.550 -12.128 -26.560  1.00  0.00     0.014 C 
ENDROOT
BRANCH   1   2
ATOM      2  C   UNL     1      22.263 -12.839 -27.286  1.00  0.00     0.042 C 
BRANCH   2   3
ATOM      3  C   UNL     1      21.971 -12.074 -28.585  1.00  0.00     0.045 C 
ATOM      4  O   UNL     1      22.936 -11.516 -29.094  1.00  0.00    -0.550 OA
ATOM      5  O   UNL     1      20.675 -11.557 -28.774  1.00  0.00    -0.550 OA
ENDBRANCH   2   3
BRANCH   2   6
ATOM      6  C   UNL     1      22.470 -14.541 -27.480  1.00  0.00     0.033 C 
ATOM      7  C   UNL     1      23.459 -15.200 -26.590  1.00  0.00     0.119 C 
ATOM      8  C   UNL     1      21.155 -15.524 -27.057  1.00  0.00    -0.017 C 
ATOM      9  C   UNL     1      22.369 -15.030 -25.363  1.00  0.00     0.043 C 
ATOM     10  C   UNL     1      20.758 -14.639 -25.852  1.00  0.00    -0.003 C 
ATOM     11  C   UNL     1      20.474 -15.623 -28.513  1.00  0.00     0.012 C 
ATOM     12  C   UNL     1      20.938 -17.060 -26.327  1.00  0.00     0.013 C 
ATOM     13  C   UNL     1      19.948 -15.073 -24.444  1.00  0.00     0.017 C 
ATOM     14  C   UNL     1      19.423 -13.990 -26.581  1.00  0.00    -0.064 C 
ATOM     15  C   UNL     1      19.078 -15.775 -28.447  1.00  0.00     0.032 C 
ATOM     16  C   UNL     1      18.545 -14.858 -27.355  1.00  0.00    -0.064 C 
ATOM     17  C   UNL     1      18.754 -12.679 -26.191  1.00  0.00     0.032 C 
ATOM     18  C   UNL     1      17.032 -14.694 -27.331  1.00  0.00    -0.008 C 
ATOM     19  C   UNL     1      17.328 -12.882 -25.502  1.00  0.00     0.009 C 
ATOM     20  C   UNL     1      16.737 -14.265 -25.845  1.00  0.00     0.007 C 
ATOM     21  C   UNL     1      16.327 -16.174 -27.604  1.00  0.00     0.014 C 
ATOM     22  C   UNL     1      16.503 -13.631 -28.462  1.00  0.00     0.016 C 
ATOM     23  C   UNL     1      15.349 -14.743 -25.247  1.00  0.00    -0.006 C 
ATOM     24  C   UNL     1      16.272 -16.989 -26.311  1.00  0.00     0.033 C 
ATOM     25  C   UNL     1      15.263 -16.357 -25.330  1.00  0.00     0.120 C 
ATOM     26  C   UNL     1      15.275 -14.275 -23.738  1.00  0.00     0.014 C 
ATOM     27  C   UNL     1      14.150 -14.129 -26.093  1.00  0.00     0.014 C 
BRANCH   7  28
ATOM     28  O   UNL     1      23.683 -16.606 -27.168  1.00  0.00    -0.393 OA
ATOM     29  H   UNL     1      22.921 -17.239 -26.892  1.00  0.00     0.210 HD
ENDBRANCH   7  28
BRANCH  25  30
ATOM     30  O   UNL     1      15.524 -16.924 -24.062  1.00  0.00    -0.393 OA
ATOM     31  H   UNL     1      16.452 -17.150 -24.028  1.00  0.00     0.210 HD
ENDBRANCH  25  30
ENDBRANCH   2   6
ENDBRANCH   1   2
BRANCH   1  32
ATOM     32  C   UNL     1      24.751 -11.641 -27.366  1.00  0.00     0.031 C 
BRANCH  32  33
ATOM     33  C   UNL     1      26.078 -12.435 -27.164  1.00  0.00    -0.075 C 
ATOM     34  C   UNL     1      26.515 -12.400 -25.901  1.00  0.00     0.008 C 
BRANCH  33  35
ATOM     35  C   UNL     1      26.733 -13.460 -28.113  1.00  0.00     0.008 C 
ATOM     36  C   UNL     1      27.988 -12.972 -28.915  1.00  0.00     0.012 C 
ATOM     37  C   UNL     1      25.675 -14.039 -29.125  1.00  0.00     0.012 C 
ENDBRANCH  33  35
ENDBRANCH  32  33
ENDBRANCH   1  32
TORSDOF 8
ENDMDL
