MODEL 1
REMARK VINA RESULT:    -4.758      0.000      0.000
REMARK INTER + INTRA:          -5.311
REMARK INTER:                  -5.176
REMARK INTRA:                  -0.135
REMARK UNBOUND:                -0.135
REMARK SMILES C=C(C)[C@@H]1CC[C@@H](C)C[C@@H]1O
REMARK SMILES IDX 8 1 7 2 6 3 5 4 4 5 10 6 9 7 11 8 2 10 1 11 3 12
REMARK H PARENT 11 9
REMARK Flexibility Score: inf
ROOT
ATOM      1  C   UNL     1     118.323 128.342 129.774  1.00  0.00     0.008 C 
ATOM      2  C   UNL     1     119.294 129.370 129.184  1.00  0.00    -0.012 C 
ATOM      3  C   UNL     1     120.733 129.087 129.659  1.00  0.00     0.004 C 
ATOM      4  C   UNL     1     121.715 130.125 129.102  1.00  0.00     0.011 C 
ATOM      5  C   UNL     1     121.282 131.553 129.492  1.00  0.00     0.043 C 
ATOM      6  C   UNL     1     119.842 131.855 129.011  1.00  0.00     0.121 C 
ATOM      7  C   UNL     1     118.865 130.801 129.568  1.00  0.00     0.035 C 
ENDROOT
BRANCH   6   8
ATOM      8  O   UNL     1     119.779 131.869 127.607  1.00  0.00    -0.392 OA
ATOM      9  H   UNL     1     118.856 131.603 127.358  1.00  0.00     0.210 HD
ENDBRANCH   6   8
BRANCH   5  10
ATOM     10  C   UNL     1     122.279 132.608 129.023  1.00  0.00    -0.075 C 
ATOM     11  C   UNL     1     123.104 132.391 127.983  1.00  0.00     0.008 C 
ATOM     12  C   UNL     1     122.364 133.933 129.738  1.00  0.00     0.039 C 
ENDBRANCH   5  10
TORSDOF 2
ENDMDL
MODEL 2
REMARK VINA RESULT:    -4.749     15.196     15.718
REMARK INTER + INTRA:          -5.301
REMARK INTER:                  -5.115
REMARK INTRA:                  -0.185
REMARK UNBOUND:                -0.135
REMARK SMILES C=C(C)[C@@H]1CC[C@@H](C)C[C@@H]1O
REMARK SMILES IDX 8 1 7 2 6 3 5 4 4 5 10 6 9 7 11 8 2 10 1 11 3 12
REMARK H PARENT 11 9
REMARK Flexibility Score: inf
ROOT
ATOM      1  C   UNL     1     123.038 118.074 120.141  1.00  0.00     0.008 C 
ATOM      2  C   UNL     1     124.214 119.056 120.184  1.00  0.00    -0.012 C 
ATOM      3  C   UNL     1     124.507 119.607 118.774  1.00  0.00     0.004 C 
ATOM      4  C   UNL     1     125.702 120.569 118.793  1.00  0.00     0.011 C 
ATOM      5  C   UNL     1     126.950 119.880 119.382  1.00  0.00     0.043 C 
ATOM      6  C   UNL     1     126.673 119.332 120.802  1.00  0.00     0.121 C 
ATOM      7  C   UNL     1     125.465 118.374 120.774  1.00  0.00     0.035 C 
ENDROOT
BRANCH   6   8
ATOM      8  O   UNL     1     126.428 120.384 121.702  1.00  0.00    -0.392 OA
ATOM      9  H   UNL     1     125.520 120.730 121.498  1.00  0.00     0.210 HD
ENDBRANCH   6   8
BRANCH   5  10
ATOM     10  C   UNL     1     128.181 120.782 119.342  1.00  0.00    -0.075 C 
ATOM     11  C   UNL     1     128.084 122.101 119.098  1.00  0.00     0.008 C 
ATOM     12  C   UNL     1     129.550 120.196 119.571  1.00  0.00     0.039 C 
ENDBRANCH   5  10
TORSDOF 2
ENDMDL
MODEL 3
REMARK VINA RESULT:    -4.549     14.987     16.181
REMARK INTER + INTRA:          -5.083
REMARK INTER:                  -4.959
REMARK INTRA:                  -0.125
REMARK UNBOUND:                -0.135
REMARK SMILES C=C(C)[C@@H]1CC[C@@H](C)C[C@@H]1O
REMARK SMILES IDX 8 1 7 2 6 3 5 4 4 5 10 6 9 7 11 8 2 10 1 11 3 12
REMARK H PARENT 11 9
REMARK Flexibility Score: inf
ROOT
ATOM      1  C   UNL     1     128.254 121.799 119.091  1.00  0.00     0.008 C 
ATOM      2  C   UNL     1     127.272 120.634 119.267  1.00  0.00    -0.012 C 
ATOM      3  C   UNL     1     126.019 120.850 118.396  1.00  0.00     0.004 C 
ATOM      4  C   UNL     1     125.012 119.708 118.583  1.00  0.00     0.011 C 
ATOM      5  C   UNL     1     124.626 119.557 120.068  1.00  0.00     0.043 C 
ATOM      6  C   UNL     1     125.875 119.328 120.954  1.00  0.00     0.121 C 
ATOM      7  C   UNL     1     126.885 120.476 120.751  1.00  0.00     0.035 C 
ENDROOT
BRANCH   6   8
ATOM      8  O   UNL     1     126.482 118.098 120.649  1.00  0.00    -0.392 OA
ATOM      9  H   UNL     1     127.222 118.292 120.016  1.00  0.00     0.210 HD
ENDBRANCH   6   8
BRANCH   5  10
ATOM     10  C   UNL     1     123.563 118.482 120.283  1.00  0.00    -0.075 C 
ATOM     11  C   UNL     1     122.680 118.551 121.295  1.00  0.00     0.008 C 
ATOM     12  C   UNL     1     123.491 117.300 119.351  1.00  0.00     0.039 C 
ENDBRANCH   5  10
TORSDOF 2
ENDMDL
MODEL 4
REMARK VINA RESULT:    -4.464     11.071     11.947
REMARK INTER + INTRA:          -4.991
REMARK INTER:                  -4.799
REMARK INTRA:                  -0.192
REMARK UNBOUND:                -0.135
REMARK SMILES C=C(C)[C@@H]1CC[C@@H](C)C[C@@H]1O
REMARK SMILES IDX 8 1 7 2 6 3 5 4 4 5 10 6 9 7 11 8 2 10 1 11 3 12
REMARK H PARENT 11 9
REMARK Flexibility Score: inf
ROOT
ATOM      1  C   UNL     1     114.774 121.629 127.979  1.00  0.00     0.008 C 
ATOM      2  C   UNL     1     115.332 121.593 129.406  1.00  0.00    -0.012 C 
ATOM      3  C   UNL     1     115.710 120.151 129.800  1.00  0.00     0.004 C 
ATOM      4  C   UNL     1     116.242 120.092 131.238  1.00  0.00     0.011 C 
ATOM      5  C   UNL     1     115.213 120.677 132.227  1.00  0.00     0.043 C 
ATOM      6  C   UNL     1     114.832 122.129 131.849  1.00  0.00     0.121 C 
ATOM      7  C   UNL     1     114.308 122.180 130.400  1.00  0.00     0.035 C 
ENDROOT
BRANCH   6   8
ATOM      8  O   UNL     1     115.938 122.985 131.987  1.00  0.00    -0.392 OA
ATOM      9  H   UNL     1     116.682 122.437 132.350  1.00  0.00     0.210 HD
ENDBRANCH   6   8
BRANCH   5  10
ATOM     10  C   UNL     1     115.674 120.561 133.677  1.00  0.00    -0.075 C 
ATOM     11  C   UNL     1     114.857 120.850 134.705  1.00  0.00     0.008 C 
ATOM     12  C   UNL     1     117.082 120.120 133.985  1.00  0.00     0.039 C 
ENDBRANCH   5  10
TORSDOF 2
ENDMDL
MODEL 5
REMARK VINA RESULT:    -4.440      8.871     10.844
REMARK INTER + INTRA:          -4.964
REMARK INTER:                  -4.773
REMARK INTRA:                  -0.191
REMARK UNBOUND:                -0.135
REMARK SMILES C=C(C)[C@@H]1CC[C@@H](C)C[C@@H]1O
REMARK SMILES IDX 8 1 7 2 6 3 5 4 4 5 10 6 9 7 11 8 2 10 1 11 3 12
REMARK H PARENT 11 9
REMARK Flexibility Score: inf
ROOT
ATOM      1  C   UNL     1     115.593 120.125 134.292  1.00  0.00     0.008 C 
ATOM      2  C   UNL     1     115.444 120.997 133.041  1.00  0.00    -0.012 C 
ATOM      3  C   UNL     1     115.169 120.121 131.803  1.00  0.00     0.004 C 
ATOM      4  C   UNL     1     115.047 120.976 130.535  1.00  0.00     0.011 C 
ATOM      5  C   UNL     1     116.313 121.833 130.329  1.00  0.00     0.043 C 
ATOM      6  C   UNL     1     116.595 122.726 131.561  1.00  0.00     0.121 C 
ATOM      7  C   UNL     1     116.706 121.859 132.831  1.00  0.00     0.035 C 
ENDROOT
BRANCH   6   8
ATOM      8  O   UNL     1     115.579 123.683 131.724  1.00  0.00    -0.392 OA
ATOM      9  H   UNL     1     114.718 123.220 131.551  1.00  0.00     0.210 HD
ENDBRANCH   6   8
BRANCH   5  10
ATOM     10  C   UNL     1     116.262 122.638 129.033  1.00  0.00    -0.075 C 
ATOM     11  C   UNL     1     117.313 123.360 128.606  1.00  0.00     0.008 C 
ATOM     12  C   UNL     1     115.006 122.641 128.200  1.00  0.00     0.039 C 
ENDBRANCH   5  10
TORSDOF 2
ENDMDL
MODEL 6
REMARK VINA RESULT:    -4.424     15.325     15.772
REMARK INTER + INTRA:          -4.947
REMARK INTER:                  -4.782
REMARK INTRA:                  -0.165
REMARK UNBOUND:                -0.135
REMARK SMILES C=C(C)[C@@H]1CC[C@@H](C)C[C@@H]1O
REMARK SMILES IDX 8 1 7 2 6 3 5 4 4 5 10 6 9 7 11 8 2 10 1 11 3 12
REMARK H PARENT 11 9
REMARK Flexibility Score: inf
ROOT
ATOM      1  C   UNL     1     122.980 118.287 120.487  1.00  0.00     0.008 C 
ATOM      2  C   UNL     1     124.420 118.625 120.085  1.00  0.00    -0.012 C 
ATOM      3  C   UNL     1     125.236 119.058 121.319  1.00  0.00     0.004 C 
ATOM      4  C   UNL     1     126.673 119.429 120.930  1.00  0.00     0.011 C 
ATOM      5  C   UNL     1     126.681 120.534 119.854  1.00  0.00     0.043 C 
ATOM      6  C   UNL     1     125.874 120.107 118.604  1.00  0.00     0.121 C 
ATOM      7  C   UNL     1     124.435 119.727 119.006  1.00  0.00     0.035 C 
ENDROOT
BRANCH   6   8
ATOM      8  O   UNL     1     126.492 119.022 117.960  1.00  0.00    -0.392 OA
ATOM      9  H   UNL     1     127.454 119.054 118.202  1.00  0.00     0.210 HD
ENDBRANCH   6   8
BRANCH   5  10
ATOM     10  C   UNL     1     128.095 120.986 119.500  1.00  0.00    -0.075 C 
ATOM     11  C   UNL     1     128.339 122.197 118.968  1.00  0.00     0.008 C 
ATOM     12  C   UNL     1     129.262 120.062 119.739  1.00  0.00     0.039 C 
ENDBRANCH   5  10
TORSDOF 2
ENDMDL
MODEL 7
REMARK VINA RESULT:    -4.349     14.980     16.326
REMARK INTER + INTRA:          -4.866
REMARK INTER:                  -4.688
REMARK INTRA:                  -0.177
REMARK UNBOUND:                -0.135
REMARK SMILES C=C(C)[C@@H]1CC[C@@H](C)C[C@@H]1O
REMARK SMILES IDX 8 1 7 2 6 3 5 4 4 5 10 6 9 7 11 8 2 10 1 11 3 12
REMARK H PARENT 11 9
REMARK Flexibility Score: inf
ROOT
ATOM      1  C   UNL     1     128.549 121.575 119.980  1.00  0.00     0.008 C 
ATOM      2  C   UNL     1     127.141 120.975 119.893  1.00  0.00    -0.012 C 
ATOM      3  C   UNL     1     126.824 120.160 121.162  1.00  0.00     0.004 C 
ATOM      4  C   UNL     1     125.429 119.526 121.079  1.00  0.00     0.011 C 
ATOM      5  C   UNL     1     125.302 118.648 119.818  1.00  0.00     0.043 C 
ATOM      6  C   UNL     1     125.607 119.457 118.534  1.00  0.00     0.121 C 
ATOM      7  C   UNL     1     127.006 120.097 118.632  1.00  0.00     0.035 C 
ENDROOT
BRANCH   6   8
ATOM      8  O   UNL     1     124.638 120.455 118.334  1.00  0.00    -0.392 OA
ATOM      9  H   UNL     1     123.755 120.002 118.329  1.00  0.00     0.210 HD
ENDBRANCH   6   8
BRANCH   5  10
ATOM     10  C   UNL     1     123.953 117.936 119.743  1.00  0.00    -0.075 C 
ATOM     11  C   UNL     1     122.907 118.319 120.496  1.00  0.00     0.008 C 
ATOM     12  C   UNL     1     123.772 116.765 118.811  1.00  0.00     0.039 C 
ENDBRANCH   5  10
TORSDOF 2
ENDMDL
MODEL 8
REMARK VINA RESULT:    -4.237      5.616      7.581
REMARK INTER + INTRA:          -4.744
REMARK INTER:                  -4.555
REMARK INTRA:                  -0.189
REMARK UNBOUND:                -0.135
REMARK SMILES C=C(C)[C@@H]1CC[C@@H](C)C[C@@H]1O
REMARK SMILES IDX 8 1 7 2 6 3 5 4 4 5 10 6 9 7 11 8 2 10 1 11 3 12
REMARK H PARENT 11 9
REMARK Flexibility Score: inf
ROOT
ATOM      1  C   UNL     1     117.479 127.740 131.863  1.00  0.00     0.008 C 
ATOM      2  C   UNL     1     117.025 126.780 130.757  1.00  0.00    -0.012 C 
ATOM      3  C   UNL     1     117.506 125.347 131.057  1.00  0.00     0.004 C 
ATOM      4  C   UNL     1     117.085 124.378 129.945  1.00  0.00     0.011 C 
ATOM      5  C   UNL     1     117.610 124.856 128.575  1.00  0.00     0.043 C 
ATOM      6  C   UNL     1     117.125 126.291 128.256  1.00  0.00     0.121 C 
ATOM      7  C   UNL     1     117.544 127.255 129.384  1.00  0.00     0.035 C 
ENDROOT
BRANCH   6   8
ATOM      8  O   UNL     1     115.729 126.320 128.097  1.00  0.00    -0.392 OA
ATOM      9  H   UNL     1     115.553 126.440 127.128  1.00  0.00     0.210 HD
ENDBRANCH   6   8
BRANCH   5  10
ATOM     10  C   UNL     1     117.280 123.874 127.455  1.00  0.00    -0.075 C 
ATOM     11  C   UNL     1     117.909 123.916 126.267  1.00  0.00     0.008 C 
ATOM     12  C   UNL     1     116.216 122.825 127.663  1.00  0.00     0.039 C 
ENDBRANCH   5  10
TORSDOF 2
ENDMDL
MODEL 9
REMARK VINA RESULT:    -4.213      4.371      6.111
REMARK INTER + INTRA:          -4.718
REMARK INTER:                  -4.524
REMARK INTRA:                  -0.193
REMARK UNBOUND:                -0.135
REMARK SMILES C=C(C)[C@@H]1CC[C@@H](C)C[C@@H]1O
REMARK SMILES IDX 8 1 7 2 6 3 5 4 4 5 10 6 9 7 11 8 2 10 1 11 3 12
REMARK H PARENT 11 9
REMARK Flexibility Score: inf
ROOT
ATOM      1  C   UNL     1     118.741 123.921 126.075  1.00  0.00     0.008 C 
ATOM      2  C   UNL     1     118.299 125.087 126.966  1.00  0.00    -0.012 C 
ATOM      3  C   UNL     1     119.508 125.963 127.346  1.00  0.00     0.004 C 
ATOM      4  C   UNL     1     119.089 127.119 128.263  1.00  0.00     0.011 C 
ATOM      5  C   UNL     1     118.382 126.586 129.526  1.00  0.00     0.043 C 
ATOM      6  C   UNL     1     117.158 125.713 129.159  1.00  0.00     0.121 C 
ATOM      7  C   UNL     1     117.588 124.560 128.230  1.00  0.00     0.035 C 
ENDROOT
BRANCH   6   8
ATOM      8  O   UNL     1     116.165 126.486 128.533  1.00  0.00    -0.392 OA
ATOM      9  H   UNL     1     116.555 126.820 127.684  1.00  0.00     0.210 HD
ENDBRANCH   6   8
BRANCH   5  10
ATOM     10  C   UNL     1     118.021 127.703 130.501  1.00  0.00    -0.075 C 
ATOM     11  C   UNL     1     118.287 128.993 130.230  1.00  0.00     0.008 C 
ATOM     12  C   UNL     1     117.356 127.371 131.812  1.00  0.00     0.039 C 
ENDBRANCH   5  10
TORSDOF 2
ENDMDL
