MODEL 1
REMARK VINA RESULT:    -4.378      0.000      0.000
REMARK INTER + INTRA:          -8.362
REMARK INTER:                  -7.705
REMARK INTRA:                  -0.657
REMARK UNBOUND:                -0.657
REMARK SMILES CCCCCCCCCCCCCCC(=O)[O-]
REMARK SMILES IDX 9 1 10 2 11 3 12 4 13 5 14 6 15 7 16 8 17 9 8 10 7 11 6 12
REMARK SMILES IDX 5 13 4 14 3 15 2 16 1 17
REMARK H PARENT
REMARK Flexibility Score: inf
ROOT
ATOM      1  C   UNL     1      38.094  31.506  28.181  1.00  0.00     0.000 C 
ENDROOT
BRANCH   1   2
ATOM      2  C   UNL     1      37.982  32.738  29.092  1.00  0.00     0.000 C 
BRANCH   2   3
ATOM      3  C   UNL     1      39.268  32.940  29.903  1.00  0.00     0.000 C 
BRANCH   3   4
ATOM      4  C   UNL     1      40.508  32.642  29.053  1.00  0.00     0.000 C 
BRANCH   4   5
ATOM      5  C   UNL     1      41.594  31.946  29.888  1.00  0.00     0.006 C 
BRANCH   5   6
ATOM      6  C   UNL     1      43.006  32.252  29.372  1.00  0.00     0.053 C 
BRANCH   6   7
ATOM      7  C   UNL     1      43.218  33.720  29.169  1.00  0.00     0.041 C 
ATOM      8  O   UNL     1      43.051  34.523  30.125  1.00  0.00    -0.550 OA
ATOM      9  O   UNL     1      43.567  34.205  27.915  1.00  0.00    -0.550 OA
ENDBRANCH   6   7
ENDBRANCH   5   6
ENDBRANCH   4   5
ENDBRANCH   3   4
ENDBRANCH   2   3
ENDBRANCH   1   2
BRANCH   1  10
ATOM     10  C   UNL     1      36.878  30.573  28.297  1.00  0.00     0.000 C 
BRANCH  10  11
ATOM     11  C   UNL     1      36.865  29.778  29.611  1.00  0.00    -0.000 C 
BRANCH  11  12
ATOM     12  C   UNL     1      36.073  28.474  29.456  1.00  0.00    -0.000 C 
BRANCH  12  13
ATOM     13  C   UNL     1      34.648  28.748  28.962  1.00  0.00    -0.000 C 
BRANCH  13  14
ATOM     14  C   UNL     1      33.727  27.552  29.244  1.00  0.00    -0.000 C 
BRANCH  14  15
ATOM     15  C   UNL     1      32.262  27.831  28.875  1.00  0.00    -0.000 C 
BRANCH  15  16
ATOM     16  C   UNL     1      31.667  26.752  27.957  1.00  0.00    -0.003 C 
ATOM     17  C   UNL     1      32.659  26.349  26.870  1.00  0.00     0.004 C 
ENDBRANCH  15  16
ENDBRANCH  14  15
ENDBRANCH  13  14
ENDBRANCH  12  13
ENDBRANCH  11  12
ENDBRANCH  10  11
ENDBRANCH   1  10
TORSDOF 13
ENDMDL
MODEL 2
REMARK VINA RESULT:    -4.294      4.996      9.557
REMARK INTER + INTRA:          -8.214
REMARK INTER:                  -7.718
REMARK INTRA:                  -0.496
REMARK UNBOUND:                -0.657
REMARK SMILES CCCCCCCCCCCCCCC(=O)[O-]
REMARK SMILES IDX 9 1 10 2 11 3 12 4 13 5 14 6 15 7 16 8 17 9 8 10 7 11 6 12
REMARK SMILES IDX 5 13 4 14 3 15 2 16 1 17
REMARK H PARENT
REMARK Flexibility Score: inf
ROOT
ATOM      1  C   UNL     1      38.139  31.044  28.557  1.00  0.00     0.000 C 
ENDROOT
BRANCH   1   2
ATOM      2  C   UNL     1      36.769  30.807  29.212  1.00  0.00     0.000 C 
BRANCH   2   3
ATOM      3  C   UNL     1      36.155  29.484  28.738  1.00  0.00     0.000 C 
BRANCH   3   4
ATOM      4  C   UNL     1      35.390  28.793  29.873  1.00  0.00     0.000 C 
BRANCH   4   5
ATOM      5  C   UNL     1      34.529  27.641  29.334  1.00  0.00     0.006 C 
BRANCH   5   6
ATOM      6  C   UNL     1      33.392  28.139  28.433  1.00  0.00     0.053 C 
BRANCH   6   7
ATOM      7  C   UNL     1      32.136  27.348  28.636  1.00  0.00     0.041 C 
ATOM      8  O   UNL     1      31.360  27.623  29.588  1.00  0.00    -0.550 OA
ATOM      9  O   UNL     1      31.841  26.285  27.792  1.00  0.00    -0.550 OA
ENDBRANCH   6   7
ENDBRANCH   5   6
ENDBRANCH   4   5
ENDBRANCH   3   4
ENDBRANCH   2   3
ENDBRANCH   1   2
BRANCH   1  10
ATOM     10  C   UNL     1      39.282  31.110  29.583  1.00  0.00     0.000 C 
BRANCH  10  11
ATOM     11  C   UNL     1      40.239  32.284  29.328  1.00  0.00    -0.000 C 
BRANCH  11  12
ATOM     12  C   UNL     1      41.583  32.058  30.031  1.00  0.00    -0.000 C 
BRANCH  12  13
ATOM     13  C   UNL     1      42.684  32.925  29.410  1.00  0.00    -0.000 C 
BRANCH  13  14
ATOM     14  C   UNL     1      43.974  32.116  29.207  1.00  0.00    -0.000 C 
BRANCH  14  15
ATOM     15  C   UNL     1      43.927  30.744  29.896  1.00  0.00    -0.000 C 
BRANCH  15  16
ATOM     16  C   UNL     1      44.115  29.581  28.910  1.00  0.00    -0.003 C 
ATOM     17  C   UNL     1      45.179  28.607  29.407  1.00  0.00     0.004 C 
ENDBRANCH  15  16
ENDBRANCH  14  15
ENDBRANCH  13  14
ENDBRANCH  12  13
ENDBRANCH  11  12
ENDBRANCH  10  11
ENDBRANCH   1  10
TORSDOF 13
ENDMDL
MODEL 3
REMARK VINA RESULT:    -4.189      1.700      3.172
REMARK INTER + INTRA:          -8.030
REMARK INTER:                  -7.263
REMARK INTRA:                  -0.767
REMARK UNBOUND:                -0.657
REMARK SMILES CCCCCCCCCCCCCCC(=O)[O-]
REMARK SMILES IDX 9 1 10 2 11 3 12 4 13 5 14 6 15 7 16 8 17 9 8 10 7 11 6 12
REMARK SMILES IDX 5 13 4 14 3 15 2 16 1 17
REMARK H PARENT
REMARK Flexibility Score: inf
ROOT
ATOM      1  C   UNL     1      40.059  32.794  29.071  1.00  0.00     0.000 C 
ENDROOT
BRANCH   1   2
ATOM      2  C   UNL     1      40.877  31.644  29.679  1.00  0.00     0.000 C 
BRANCH   2   3
ATOM      3  C   UNL     1      42.353  32.033  29.817  1.00  0.00     0.000 C 
BRANCH   3   4
ATOM      4  C   UNL     1      42.540  33.548  29.675  1.00  0.00     0.000 C 
BRANCH   4   5
ATOM      5  C   UNL     1      43.673  33.873  28.690  1.00  0.00     0.006 C 
BRANCH   5   6
ATOM      6  C   UNL     1      44.056  35.359  28.716  1.00  0.00     0.053 C 
BRANCH   6   7
ATOM      7  C   UNL     1      44.262  35.903  27.336  1.00  0.00     0.041 C 
ATOM      8  O   UNL     1      44.612  37.101  27.172  1.00  0.00    -0.550 OA
ATOM      9  O   UNL     1      44.034  35.094  26.229  1.00  0.00    -0.550 OA
ENDBRANCH   6   7
ENDBRANCH   5   6
ENDBRANCH   4   5
ENDBRANCH   3   4
ENDBRANCH   2   3
ENDBRANCH   1   2
BRANCH   1  10
ATOM     10  C   UNL     1      38.754  33.061  29.838  1.00  0.00     0.000 C 
BRANCH  10  11
ATOM     11  C   UNL     1      37.803  31.855  29.826  1.00  0.00    -0.000 C 
BRANCH  11  12
ATOM     12  C   UNL     1      37.262  31.596  28.414  1.00  0.00    -0.000 C 
BRANCH  12  13
ATOM     13  C   UNL     1      36.785  30.147  28.262  1.00  0.00    -0.000 C 
BRANCH  13  14
ATOM     14  C   UNL     1      36.228  29.610  29.589  1.00  0.00    -0.000 C 
BRANCH  14  15
ATOM     15  C   UNL     1      36.174  28.075  29.630  1.00  0.00    -0.000 C 
BRANCH  15  16
ATOM     16  C   UNL     1      34.748  27.539  29.834  1.00  0.00    -0.003 C 
ATOM     17  C   UNL     1      33.720  28.448  29.166  1.00  0.00     0.004 C 
ENDBRANCH  15  16
ENDBRANCH  14  15
ENDBRANCH  13  14
ENDBRANCH  12  13
ENDBRANCH  11  12
ENDBRANCH  10  11
ENDBRANCH   1  10
TORSDOF 13
ENDMDL
MODEL 4
REMARK VINA RESULT:    -3.975      1.640      2.465
REMARK INTER + INTRA:          -7.653
REMARK INTER:                  -7.280
REMARK INTRA:                  -0.372
REMARK UNBOUND:                -0.657
REMARK SMILES CCCCCCCCCCCCCCC(=O)[O-]
REMARK SMILES IDX 9 1 10 2 11 3 12 4 13 5 14 6 15 7 16 8 17 9 8 10 7 11 6 12
REMARK SMILES IDX 5 13 4 14 3 15 2 16 1 17
REMARK H PARENT
REMARK Flexibility Score: inf
ROOT
ATOM      1  C   UNL     1      36.695  30.215  28.513  1.00  0.00     0.000 C 
ENDROOT
BRANCH   1   2
ATOM      2  C   UNL     1      38.053  30.589  29.125  1.00  0.00     0.000 C 
BRANCH   2   3
ATOM      3  C   UNL     1      38.526  31.957  28.617  1.00  0.00     0.000 C 
BRANCH   3   4
ATOM      4  C   UNL     1      39.377  32.672  29.672  1.00  0.00     0.000 C 
BRANCH   4   5
ATOM      5  C   UNL     1      40.806  32.907  29.160  1.00  0.00     0.006 C 
BRANCH   5   6
ATOM      6  C   UNL     1      41.865  32.350  30.120  1.00  0.00     0.053 C 
BRANCH   6   7
ATOM      7  C   UNL     1      42.330  30.988  29.704  1.00  0.00     0.041 C 
ATOM      8  O   UNL     1      43.330  30.862  28.950  1.00  0.00    -0.550 OA
ATOM      9  O   UNL     1      41.637  29.859  30.125  1.00  0.00    -0.550 OA
ENDBRANCH   6   7
ENDBRANCH   5   6
ENDBRANCH   4   5
ENDBRANCH   3   4
ENDBRANCH   2   3
ENDBRANCH   1   2
BRANCH   1  10
ATOM     10  C   UNL     1      36.116  28.920  29.105  1.00  0.00     0.000 C 
BRANCH  10  11
ATOM     11  C   UNL     1      34.676  29.093  29.613  1.00  0.00    -0.000 C 
BRANCH  11  12
ATOM     12  C   UNL     1      33.862  27.810  29.403  1.00  0.00    -0.000 C 
BRANCH  12  13
ATOM     13  C   UNL     1      32.426  28.132  28.972  1.00  0.00    -0.000 C 
BRANCH  13  14
ATOM     14  C   UNL     1      31.560  26.863  28.953  1.00  0.00    -0.000 C 
BRANCH  14  15
ATOM     15  C   UNL     1      31.410  26.269  27.544  1.00  0.00    -0.000 C 
BRANCH  15  16
ATOM     16  C   UNL     1      32.734  26.251  26.766  1.00  0.00    -0.003 C 
ATOM     17  C   UNL     1      32.664  27.157  25.540  1.00  0.00     0.004 C 
ENDBRANCH  15  16
ENDBRANCH  14  15
ENDBRANCH  13  14
ENDBRANCH  12  13
ENDBRANCH  11  12
ENDBRANCH  10  11
ENDBRANCH   1  10
TORSDOF 13
ENDMDL
MODEL 5
REMARK VINA RESULT:    -3.871     13.108     14.119
REMARK INTER + INTRA:          -7.469
REMARK INTER:                  -6.736
REMARK INTRA:                  -0.733
REMARK UNBOUND:                -0.657
REMARK SMILES CCCCCCCCCCCCCCC(=O)[O-]
REMARK SMILES IDX 9 1 10 2 11 3 12 4 13 5 14 6 15 7 16 8 17 9 8 10 7 11 6 12
REMARK SMILES IDX 5 13 4 14 3 15 2 16 1 17
REMARK H PARENT
REMARK Flexibility Score: inf
ROOT
ATOM      1  C   UNL     1      42.858  25.120  17.614  1.00  0.00     0.000 C 
ENDROOT
BRANCH   1   2
ATOM      2  C   UNL     1      41.524  25.709  17.129  1.00  0.00     0.000 C 
BRANCH   2   3
ATOM      3  C   UNL     1      41.583  27.240  17.087  1.00  0.00     0.000 C 
BRANCH   3   4
ATOM      4  C   UNL     1      41.407  27.837  18.489  1.00  0.00     0.000 C 
BRANCH   4   5
ATOM      5  C   UNL     1      40.384  27.033  19.305  1.00  0.00     0.006 C 
BRANCH   5   6
ATOM      6  C   UNL     1      40.921  26.646  20.688  1.00  0.00     0.053 C 
BRANCH   6   7
ATOM      7  C   UNL     1      40.493  27.620  21.742  1.00  0.00     0.041 C 
ATOM      8  O   UNL     1      40.747  27.396  22.954  1.00  0.00    -0.550 OA
ATOM      9  O   UNL     1      39.785  28.762  21.387  1.00  0.00    -0.550 OA
ENDBRANCH   6   7
ENDBRANCH   5   6
ENDBRANCH   4   5
ENDBRANCH   3   4
ENDBRANCH   2   3
ENDBRANCH   1   2
BRANCH   1  10
ATOM     10  C   UNL     1      43.194  23.780  16.939  1.00  0.00     0.000 C 
BRANCH  10  11
ATOM     11  C   UNL     1      44.626  23.311  17.234  1.00  0.00    -0.000 C 
BRANCH  11  12
ATOM     12  C   UNL     1      44.715  21.780  17.225  1.00  0.00    -0.000 C 
BRANCH  12  13
ATOM     13  C   UNL     1      43.373  21.151  16.835  1.00  0.00    -0.000 C 
BRANCH  13  14
ATOM     14  C   UNL     1      42.905  20.148  17.901  1.00  0.00    -0.000 C 
BRANCH  14  15
ATOM     15  C   UNL     1      41.579  19.466  17.531  1.00  0.00    -0.000 C 
BRANCH  15  16
ATOM     16  C   UNL     1      41.418  19.271  16.015  1.00  0.00    -0.003 C 
ATOM     17  C   UNL     1      40.766  17.927  15.701  1.00  0.00     0.004 C 
ENDBRANCH  15  16
ENDBRANCH  14  15
ENDBRANCH  13  14
ENDBRANCH  12  13
ENDBRANCH  11  12
ENDBRANCH  10  11
ENDBRANCH   1  10
TORSDOF 13
ENDMDL
MODEL 6
REMARK VINA RESULT:    -3.829     13.045     16.027
REMARK INTER + INTRA:          -7.396
REMARK INTER:                  -6.853
REMARK INTRA:                  -0.543
REMARK UNBOUND:                -0.657
REMARK SMILES CCCCCCCCCCCCCCC(=O)[O-]
REMARK SMILES IDX 9 1 10 2 11 3 12 4 13 5 14 6 15 7 16 8 17 9 8 10 7 11 6 12
REMARK SMILES IDX 5 13 4 14 3 15 2 16 1 17
REMARK H PARENT
REMARK Flexibility Score: inf
ROOT
ATOM      1  C   UNL     1      40.951  27.254  17.958  1.00  0.00     0.000 C 
ENDROOT
BRANCH   1   2
ATOM      2  C   UNL     1      40.183  26.317  17.013  1.00  0.00     0.000 C 
BRANCH   2   3
ATOM      3  C   UNL     1      38.703  26.234  17.406  1.00  0.00     0.000 C 
BRANCH   3   4
ATOM      4  C   UNL     1      37.806  26.162  16.164  1.00  0.00     0.000 C 
BRANCH   4   5
ATOM      5  C   UNL     1      36.418  25.610  16.519  1.00  0.00     0.006 C 
BRANCH   5   6
ATOM      6  C   UNL     1      35.339  26.075  15.533  1.00  0.00     0.053 C 
BRANCH   6   7
ATOM      7  C   UNL     1      34.913  27.486  15.802  1.00  0.00     0.041 C 
ATOM      8  O   UNL     1      34.390  27.791  16.905  1.00  0.00    -0.550 OA
ATOM      9  O   UNL     1      35.064  28.456  14.818  1.00  0.00    -0.550 OA
ENDBRANCH   6   7
ENDBRANCH   5   6
ENDBRANCH   4   5
ENDBRANCH   3   4
ENDBRANCH   2   3
ENDBRANCH   1   2
BRANCH   1  10
ATOM     10  C   UNL     1      42.053  28.048  17.237  1.00  0.00     0.000 C 
BRANCH  10  11
ATOM     11  C   UNL     1      41.673  29.520  17.016  1.00  0.00    -0.000 C 
BRANCH  11  12
ATOM     12  C   UNL     1      42.509  30.139  15.890  1.00  0.00    -0.000 C 
BRANCH  12  13
ATOM     13  C   UNL     1      42.941  31.567  16.244  1.00  0.00    -0.000 C 
BRANCH  13  14
ATOM     14  C   UNL     1      44.256  31.935  15.540  1.00  0.00    -0.000 C 
BRANCH  14  15
ATOM     15  C   UNL     1      45.472  31.210  16.137  1.00  0.00    -0.000 C 
BRANCH  15  16
ATOM     16  C   UNL     1      46.424  30.668  15.061  1.00  0.00    -0.003 C 
ATOM     17  C   UNL     1      47.685  30.081  15.689  1.00  0.00     0.004 C 
ENDBRANCH  15  16
ENDBRANCH  14  15
ENDBRANCH  13  14
ENDBRANCH  12  13
ENDBRANCH  11  12
ENDBRANCH  10  11
ENDBRANCH   1  10
TORSDOF 13
ENDMDL
MODEL 7
REMARK VINA RESULT:    -3.827     11.388     12.745
REMARK INTER + INTRA:          -7.391
REMARK INTER:                  -6.987
REMARK INTRA:                  -0.404
REMARK UNBOUND:                -0.657
REMARK SMILES CCCCCCCCCCCCCCC(=O)[O-]
REMARK SMILES IDX 9 1 10 2 11 3 12 4 13 5 14 6 15 7 16 8 17 9 8 10 7 11 6 12
REMARK SMILES IDX 5 13 4 14 3 15 2 16 1 17
REMARK H PARENT
REMARK Flexibility Score: inf
ROOT
ATOM      1  C   UNL     1      39.080  26.565  17.194  1.00  0.00     0.000 C 
ENDROOT
BRANCH   1   2
ATOM      2  C   UNL     1      40.538  26.337  16.766  1.00  0.00     0.000 C 
BRANCH   2   3
ATOM      3  C   UNL     1      41.391  27.582  17.040  1.00  0.00     0.000 C 
BRANCH   3   4
ATOM      4  C   UNL     1      41.293  28.004  18.511  1.00  0.00     0.000 C 
BRANCH   4   5
ATOM      5  C   UNL     1      41.334  26.781  19.439  1.00  0.00     0.006 C 
BRANCH   5   6
ATOM      6  C   UNL     1      40.406  26.940  20.650  1.00  0.00     0.053 C 
BRANCH   6   7
ATOM      7  C   UNL     1      41.172  27.249  21.900  1.00  0.00     0.041 C 
ATOM      8  O   UNL     1      40.569  27.377  22.997  1.00  0.00    -0.550 OA
ATOM      9  O   UNL     1      42.549  27.428  21.844  1.00  0.00    -0.550 OA
ENDBRANCH   6   7
ENDBRANCH   5   6
ENDBRANCH   4   5
ENDBRANCH   3   4
ENDBRANCH   2   3
ENDBRANCH   1   2
BRANCH   1  10
ATOM     10  C   UNL     1      38.074  26.176  16.098  1.00  0.00     0.000 C 
BRANCH  10  11
ATOM     11  C   UNL     1      36.797  25.541  16.667  1.00  0.00    -0.000 C 
BRANCH  11  12
ATOM     12  C   UNL     1      35.587  25.851  15.777  1.00  0.00    -0.000 C 
BRANCH  12  13
ATOM     13  C   UNL     1      34.996  27.226  16.109  1.00  0.00    -0.000 C 
BRANCH  13  14
ATOM     14  C   UNL     1      35.012  28.144  14.877  1.00  0.00    -0.000 C 
BRANCH  14  15
ATOM     15  C   UNL     1      34.900  29.632  15.245  1.00  0.00    -0.000 C 
BRANCH  15  16
ATOM     16  C   UNL     1      35.164  30.557  14.047  1.00  0.00    -0.003 C 
ATOM     17  C   UNL     1      33.857  31.009  13.404  1.00  0.00     0.004 C 
ENDBRANCH  15  16
ENDBRANCH  14  15
ENDBRANCH  13  14
ENDBRANCH  12  13
ENDBRANCH  11  12
ENDBRANCH  10  11
ENDBRANCH   1  10
TORSDOF 13
ENDMDL
MODEL 8
REMARK VINA RESULT:    -3.820     12.449     14.979
REMARK INTER + INTRA:          -7.379
REMARK INTER:                  -6.867
REMARK INTRA:                  -0.512
REMARK UNBOUND:                -0.657
REMARK SMILES CCCCCCCCCCCCCCC(=O)[O-]
REMARK SMILES IDX 9 1 10 2 11 3 12 4 13 5 14 6 15 7 16 8 17 9 8 10 7 11 6 12
REMARK SMILES IDX 5 13 4 14 3 15 2 16 1 17
REMARK H PARENT
REMARK Flexibility Score: inf
ROOT
ATOM      1  C   UNL     1      41.929  28.802  17.325  1.00  0.00     0.000 C 
ENDROOT
BRANCH   1   2
ATOM      2  C   UNL     1      41.007  27.644  16.912  1.00  0.00     0.000 C 
BRANCH   2   3
ATOM      3  C   UNL     1      41.724  26.295  17.053  1.00  0.00     0.000 C 
BRANCH   3   4
ATOM      4  C   UNL     1      41.842  25.885  18.526  1.00  0.00     0.000 C 
BRANCH   4   5
ATOM      5  C   UNL     1      40.700  26.487  19.358  1.00  0.00     0.006 C 
BRANCH   5   6
ATOM      6  C   UNL     1      41.216  27.256  20.581  1.00  0.00     0.053 C 
BRANCH   6   7
ATOM      7  C   UNL     1      40.567  26.787  21.846  1.00  0.00     0.041 C 
ATOM      8  O   UNL     1      40.645  27.481  22.894  1.00  0.00    -0.550 OA
ATOM      9  O   UNL     1      39.904  25.566  21.876  1.00  0.00    -0.550 OA
ENDBRANCH   6   7
ENDBRANCH   5   6
ENDBRANCH   4   5
ENDBRANCH   3   4
ENDBRANCH   2   3
ENDBRANCH   1   2
BRANCH   1  10
ATOM     10  C   UNL     1      42.485  29.575  16.118  1.00  0.00     0.000 C 
BRANCH  10  11
ATOM     11  C   UNL     1      42.246  31.088  16.223  1.00  0.00    -0.000 C 
BRANCH  11  12
ATOM     12  C   UNL     1      43.433  31.873  15.651  1.00  0.00    -0.000 C 
BRANCH  12  13
ATOM     13  C   UNL     1      44.731  31.525  16.389  1.00  0.00    -0.000 C 
BRANCH  13  14
ATOM     14  C   UNL     1      45.844  31.150  15.399  1.00  0.00    -0.000 C 
BRANCH  14  15
ATOM     15  C   UNL     1      47.039  30.467  16.081  1.00  0.00    -0.000 C 
BRANCH  15  16
ATOM     16  C   UNL     1      47.905  29.668  15.094  1.00  0.00    -0.003 C 
ATOM     17  C   UNL     1      49.167  30.441  14.722  1.00  0.00     0.004 C 
ENDBRANCH  15  16
ENDBRANCH  14  15
ENDBRANCH  13  14
ENDBRANCH  12  13
ENDBRANCH  11  12
ENDBRANCH  10  11
ENDBRANCH   1  10
TORSDOF 13
ENDMDL
MODEL 9
REMARK VINA RESULT:    -3.672      4.845      9.598
REMARK INTER + INTRA:          -7.120
REMARK INTER:                  -6.466
REMARK INTRA:                  -0.654
REMARK UNBOUND:                -0.657
REMARK SMILES CCCCCCCCCCCCCCC(=O)[O-]
REMARK SMILES IDX 9 1 10 2 11 3 12 4 13 5 14 6 15 7 16 8 17 9 8 10 7 11 6 12
REMARK SMILES IDX 5 13 4 14 3 15 2 16 1 17
REMARK H PARENT
REMARK Flexibility Score: inf
ROOT
ATOM      1  C   UNL     1      36.068  29.696  28.684  1.00  0.00     0.000 C 
ENDROOT
BRANCH   1   2
ATOM      2  C   UNL     1      35.348  29.688  30.042  1.00  0.00     0.000 C 
BRANCH   2   3
ATOM      3  C   UNL     1      34.346  28.530  30.124  1.00  0.00     0.000 C 
BRANCH   3   4
ATOM      4  C   UNL     1      33.930  28.060  28.725  1.00  0.00     0.000 C 
BRANCH   4   5
ATOM      5  C   UNL     1      32.600  27.294  28.775  1.00  0.00     0.006 C 
BRANCH   5   6
ATOM      6  C   UNL     1      31.759  27.509  27.510  1.00  0.00     0.053 C 
BRANCH   6   7
ATOM      7  C   UNL     1      32.277  26.708  26.356  1.00  0.00     0.041 C 
ATOM      8  O   UNL     1      32.314  25.451  26.422  1.00  0.00    -0.550 OA
ATOM      9  O   UNL     1      32.750  27.352  25.219  1.00  0.00    -0.550 OA
ENDBRANCH   6   7
ENDBRANCH   5   6
ENDBRANCH   4   5
ENDBRANCH   3   4
ENDBRANCH   2   3
ENDBRANCH   1   2
BRANCH   1  10
ATOM     10  C   UNL     1      37.594  29.584  28.824  1.00  0.00     0.000 C 
BRANCH  10  11
ATOM     11  C   UNL     1      38.159  30.510  29.912  1.00  0.00    -0.000 C 
BRANCH  11  12
ATOM     12  C   UNL     1      39.692  30.519  29.884  1.00  0.00    -0.000 C 
BRANCH  12  13
ATOM     13  C   UNL     1      40.240  31.931  30.123  1.00  0.00    -0.000 C 
BRANCH  13  14
ATOM     14  C   UNL     1      41.219  32.337  29.011  1.00  0.00    -0.000 C 
BRANCH  14  15
ATOM     15  C   UNL     1      42.233  33.396  29.472  1.00  0.00    -0.000 C 
BRANCH  15  16
ATOM     16  C   UNL     1      43.686  32.986  29.188  1.00  0.00    -0.003 C 
ATOM     17  C   UNL     1      43.882  31.486  29.391  1.00  0.00     0.004 C 
ENDBRANCH  15  16
ENDBRANCH  14  15
ENDBRANCH  13  14
ENDBRANCH  12  13
ENDBRANCH  11  12
ENDBRANCH  10  11
ENDBRANCH   1  10
TORSDOF 13
ENDMDL
