MODEL 1
REMARK VINA RESULT:     9.233      0.000      0.000
REMARK INTER + INTRA:           9.755
REMARK INTER:                   9.773
REMARK INTRA:                  -0.019
REMARK UNBOUND:                -0.019
REMARK SMILES O=C([O-])c1cccnc1
REMARK SMILES IDX 4 1 5 2 9 3 6 4 8 5 7 6 2 7 1 8 3 9
REMARK H PARENT
REMARK Flexibility Score: inf
ROOT
ATOM      1  C   UNL     1      -0.905  -8.367  24.968  1.00  0.00     0.016 A 
ATOM      2  C   UNL     1      -0.131  -7.206  25.123  1.00  0.00     0.013 A 
ATOM      3  C   UNL     1      -0.629  -9.469  25.796  1.00  0.00     0.120 A 
ATOM      4  C   UNL     1       0.883  -7.162  26.081  1.00  0.00     0.021 A 
ATOM      5  N   UNL     1       0.365  -9.400  26.722  1.00  0.00    -0.264 NA
ATOM      6  C   UNL     1       1.119  -8.281  26.880  1.00  0.00     0.111 A 
ENDROOT
BRANCH   1   7
ATOM      7  C   UNL     1      -1.983  -8.426  23.957  1.00  0.00     0.073 C 
ATOM      8  O   UNL     1      -3.149  -8.771  24.284  1.00  0.00    -0.545 OA
ATOM      9  O   UNL     1      -1.722  -8.100  22.631  1.00  0.00    -0.545 OA
ENDBRANCH   1   7
TORSDOF 1
ENDMDL
MODEL 2
REMARK VINA RESULT:     9.343      0.922      1.601
REMARK INTER + INTRA:           9.871
REMARK INTER:                   9.890
REMARK INTRA:                  -0.019
REMARK UNBOUND:                -0.019
REMARK SMILES O=C([O-])c1cccnc1
REMARK SMILES IDX 4 1 5 2 9 3 6 4 8 5 7 6 2 7 1 8 3 9
REMARK H PARENT
REMARK Flexibility Score: inf
ROOT
ATOM      1  C   UNL     1      -0.879  -8.348  24.968  1.00  0.00     0.016 A 
ATOM      2  C   UNL     1      -0.604  -9.436  25.812  1.00  0.00     0.013 A 
ATOM      3  C   UNL     1      -0.113  -7.178  25.117  1.00  0.00     0.120 A 
ATOM      4  C   UNL     1       0.408  -9.344  26.769  1.00  0.00     0.021 A 
ATOM      5  N   UNL     1       0.867  -7.114  26.058  1.00  0.00    -0.264 NA
ATOM      6  C   UNL     1       1.141  -8.162  26.878  1.00  0.00     0.111 A 
ENDROOT
BRANCH   1   7
ATOM      7  C   UNL     1      -1.948  -8.433  23.951  1.00  0.00     0.073 C 
ATOM      8  O   UNL     1      -3.106  -8.811  24.270  1.00  0.00    -0.545 OA
ATOM      9  O   UNL     1      -1.688  -8.098  22.627  1.00  0.00    -0.545 OA
ENDBRANCH   1   7
TORSDOF 1
ENDMDL
MODEL 3
REMARK VINA RESULT:    11.385      9.035     10.293
REMARK INTER + INTRA:          12.032
REMARK INTER:                  12.054
REMARK INTRA:                  -0.022
REMARK UNBOUND:                -0.019
REMARK SMILES O=C([O-])c1cccnc1
REMARK SMILES IDX 4 1 5 2 9 3 6 4 8 5 7 6 2 7 1 8 3 9
REMARK H PARENT
REMARK Flexibility Score: inf
ROOT
ATOM      1  C   UNL     1      -5.000 -16.695  25.385  1.00  0.00     0.016 A 
ATOM      2  C   UNL     1      -5.694 -17.691  26.091  1.00  0.00     0.013 A 
ATOM      3  C   UNL     1      -4.657 -16.943  24.044  1.00  0.00     0.120 A 
ATOM      4  C   UNL     1      -6.029 -18.892  25.463  1.00  0.00     0.021 A 
ATOM      5  N   UNL     1      -4.996 -18.121  23.455  1.00  0.00    -0.264 NA
ATOM      6  C   UNL     1      -5.668 -19.091  24.130  1.00  0.00     0.111 A 
ENDROOT
BRANCH   1   7
ATOM      7  C   UNL     1      -4.639 -15.419  26.039  1.00  0.00     0.073 C 
ATOM      8  O   UNL     1      -3.665 -14.739  25.622  1.00  0.00    -0.545 OA
ATOM      9  O   UNL     1      -5.371 -14.954  27.125  1.00  0.00    -0.545 OA
ENDBRANCH   1   7
TORSDOF 1
ENDMDL
MODEL 4
REMARK VINA RESULT:    12.121      2.913      3.967
REMARK INTER + INTRA:          12.811
REMARK INTER:                  12.832
REMARK INTRA:                  -0.020
REMARK UNBOUND:                -0.019
REMARK SMILES O=C([O-])c1cccnc1
REMARK SMILES IDX 4 1 5 2 9 3 6 4 8 5 7 6 2 7 1 8 3 9
REMARK H PARENT
REMARK Flexibility Score: inf
ROOT
ATOM      1  C   UNL     1      -0.293  -8.211  25.353  1.00  0.00     0.016 A 
ATOM      2  C   UNL     1      -1.257  -9.218  25.189  1.00  0.00     0.013 A 
ATOM      3  C   UNL     1      -0.156  -7.245  24.341  1.00  0.00     0.120 A 
ATOM      4  C   UNL     1      -2.054  -9.245  24.043  1.00  0.00     0.021 A 
ATOM      5  N   UNL     1      -0.945  -7.295  23.234  1.00  0.00    -0.264 NA
ATOM      6  C   UNL     1      -1.882  -8.265  23.066  1.00  0.00     0.111 A 
ENDROOT
BRANCH   1   7
ATOM      7  C   UNL     1       0.557  -8.171  26.563  1.00  0.00     0.073 C 
ATOM      8  O   UNL     1       0.857  -7.071  27.098  1.00  0.00    -0.545 OA
ATOM      9  O   UNL     1       1.036  -9.348  27.125  1.00  0.00    -0.545 OA
ENDBRANCH   1   7
TORSDOF 1
ENDMDL
