MODEL 1
REMARK VINA RESULT:    -6.222      0.000      0.000
REMARK INTER + INTRA:         -11.512
REMARK INTER:                 -10.951
REMARK INTRA:                  -0.562
REMARK UNBOUND:                -0.562
REMARK SMILES CCCCCCCCCCCCCCC(=O)[O-]
REMARK SMILES IDX 9 1 10 2 11 3 12 4 13 5 14 6 15 7 16 8 17 9 8 10 7 11 6 12
REMARK SMILES IDX 5 13 4 14 3 15 2 16 1 17
REMARK H PARENT
REMARK Flexibility Score: inf
ROOT
ATOM      1  C   UNL     1      96.072 123.380 123.449  1.00  0.00     0.000 C 
ENDROOT
BRANCH   1   2
ATOM      2  C   UNL     1      96.267 124.597 124.369  1.00  0.00     0.000 C 
BRANCH   2   3
ATOM      3  C   UNL     1      96.854 124.218 125.740  1.00  0.00     0.000 C 
BRANCH   3   4
ATOM      4  C   UNL     1      97.982 125.165 126.180  1.00  0.00     0.000 C 
BRANCH   4   5
ATOM      5  C   UNL     1      97.973 126.493 125.401  1.00  0.00     0.006 C 
BRANCH   5   6
ATOM      6  C   UNL     1      98.607 127.637 126.203  1.00  0.00     0.053 C 
BRANCH   6   7
ATOM      7  C   UNL     1      99.907 128.079 125.604  1.00  0.00     0.041 C 
ATOM      8  O   UNL     1     100.366 129.224 125.860  1.00  0.00    -0.550 OA
ATOM      9  O   UNL     1     100.594 127.240 124.737  1.00  0.00    -0.550 OA
ENDBRANCH   6   7
ENDBRANCH   5   6
ENDBRANCH   4   5
ENDBRANCH   3   4
ENDBRANCH   2   3
ENDBRANCH   1   2
BRANCH   1  10
ATOM     10  C   UNL     1      94.602 123.031 123.138  1.00  0.00     0.000 C 
BRANCH  10  11
ATOM     11  C   UNL     1      94.355 121.572 122.704  1.00  0.00    -0.000 C 
BRANCH  11  12
ATOM     12  C   UNL     1      93.935 121.393 121.231  1.00  0.00    -0.000 C 
BRANCH  12  13
ATOM     13  C   UNL     1      95.101 121.198 120.244  1.00  0.00    -0.000 C 
BRANCH  13  14
ATOM     14  C   UNL     1      94.627 120.996 118.794  1.00  0.00    -0.000 C 
BRANCH  14  15
ATOM     15  C   UNL     1      93.133 121.339 118.618  1.00  0.00    -0.000 C 
BRANCH  15  16
ATOM     16  C   UNL     1      92.820 122.062 117.297  1.00  0.00    -0.003 C 
ATOM     17  C   UNL     1      92.519 121.105 116.147  1.00  0.00     0.004 C 
ENDBRANCH  15  16
ENDBRANCH  14  15
ENDBRANCH  13  14
ENDBRANCH  12  13
ENDBRANCH  11  12
ENDBRANCH  10  11
ENDBRANCH   1  10
TORSDOF 13
ENDMDL
MODEL 2
REMARK VINA RESULT:    -6.013      4.373      9.368
REMARK INTER + INTRA:         -11.144
REMARK INTER:                 -10.633
REMARK INTRA:                  -0.510
REMARK UNBOUND:                -0.562
REMARK SMILES CCCCCCCCCCCCCCC(=O)[O-]
REMARK SMILES IDX 9 1 10 2 11 3 12 4 13 5 14 6 15 7 16 8 17 9 8 10 7 11 6 12
REMARK SMILES IDX 5 13 4 14 3 15 2 16 1 17
REMARK H PARENT
REMARK Flexibility Score: inf
ROOT
ATOM      1  C   UNL     1      95.876 122.380 122.240  1.00  0.00     0.000 C 
ENDROOT
BRANCH   1   2
ATOM      2  C   UNL     1      94.373 122.050 122.274  1.00  0.00     0.000 C 
BRANCH   2   3
ATOM      3  C   UNL     1      93.940 121.128 121.121  1.00  0.00     0.000 C 
BRANCH   3   4
ATOM      4  C   UNL     1      94.839 121.271 119.883  1.00  0.00     0.000 C 
BRANCH   4   5
ATOM      5  C   UNL     1      94.083 120.998 118.571  1.00  0.00     0.006 C 
BRANCH   5   6
ATOM      6  C   UNL     1      92.792 121.821 118.466  1.00  0.00     0.053 C 
BRANCH   6   7
ATOM      7  C   UNL     1      92.607 122.388 117.092  1.00  0.00     0.041 C 
ATOM      8  O   UNL     1      92.449 121.621 116.105  1.00  0.00    -0.550 OA
ATOM      9  O   UNL     1      92.643 123.763 116.897  1.00  0.00    -0.550 OA
ENDBRANCH   6   7
ENDBRANCH   5   6
ENDBRANCH   4   5
ENDBRANCH   3   4
ENDBRANCH   2   3
ENDBRANCH   1   2
BRANCH   1  10
ATOM     10  C   UNL     1      96.552 122.465 123.624  1.00  0.00     0.000 C 
BRANCH  10  11
ATOM     11  C   UNL     1      95.951 123.513 124.581  1.00  0.00    -0.000 C 
BRANCH  11  12
ATOM     12  C   UNL     1      96.489 124.947 124.399  1.00  0.00    -0.000 C 
BRANCH  12  13
ATOM     13  C   UNL     1      97.487 125.407 125.477  1.00  0.00    -0.000 C 
BRANCH  13  14
ATOM     14  C   UNL     1      98.123 126.771 125.158  1.00  0.00    -0.000 C 
BRANCH  14  15
ATOM     15  C   UNL     1      99.577 126.869 125.669  1.00  0.00    -0.000 C 
BRANCH  15  16
ATOM     16  C   UNL     1     100.449 127.842 124.858  1.00  0.00    -0.003 C 
ATOM     17  C   UNL     1     101.750 127.212 124.365  1.00  0.00     0.004 C 
ENDBRANCH  15  16
ENDBRANCH  14  15
ENDBRANCH  13  14
ENDBRANCH  12  13
ENDBRANCH  11  12
ENDBRANCH  10  11
ENDBRANCH   1  10
TORSDOF 13
ENDMDL
MODEL 3
REMARK VINA RESULT:    -5.806      1.810      2.381
REMARK INTER + INTRA:         -10.780
REMARK INTER:                 -10.179
REMARK INTRA:                  -0.601
REMARK UNBOUND:                -0.562
REMARK SMILES CCCCCCCCCCCCCCC(=O)[O-]
REMARK SMILES IDX 9 1 10 2 11 3 12 4 13 5 14 6 15 7 16 8 17 9 8 10 7 11 6 12
REMARK SMILES IDX 5 13 4 14 3 15 2 16 1 17
REMARK H PARENT
REMARK Flexibility Score: inf
ROOT
ATOM      1  C   UNL     1      96.128 124.417 124.313  1.00  0.00     0.000 C 
ENDROOT
BRANCH   1   2
ATOM      2  C   UNL     1      96.944 123.945 125.529  1.00  0.00     0.000 C 
BRANCH   2   3
ATOM      3  C   UNL     1      97.544 125.113 126.332  1.00  0.00     0.000 C 
BRANCH   3   4
ATOM      4  C   UNL     1      98.100 126.225 125.430  1.00  0.00     0.000 C 
BRANCH   4   5
ATOM      5  C   UNL     1      98.038 127.611 126.096  1.00  0.00     0.006 C 
BRANCH   5   6
ATOM      6  C   UNL     1      98.422 127.556 127.580  1.00  0.00     0.053 C 
BRANCH   6   7
ATOM      7  C   UNL     1      97.460 128.327 128.430  1.00  0.00     0.041 C 
ATOM      8  O   UNL     1      96.482 127.745 128.970  1.00  0.00    -0.550 OA
ATOM      9  O   UNL     1      97.624 129.697 128.598  1.00  0.00    -0.550 OA
ENDBRANCH   6   7
ENDBRANCH   5   6
ENDBRANCH   4   5
ENDBRANCH   3   4
ENDBRANCH   2   3
ENDBRANCH   1   2
BRANCH   1  10
ATOM     10  C   UNL     1      94.823 123.633 124.065  1.00  0.00     0.000 C 
BRANCH  10  11
ATOM     11  C   UNL     1      94.876 122.629 122.897  1.00  0.00    -0.000 C 
BRANCH  11  12
ATOM     12  C   UNL     1      93.519 122.337 122.225  1.00  0.00    -0.000 C 
BRANCH  12  13
ATOM     13  C   UNL     1      93.539 121.195 121.193  1.00  0.00    -0.000 C 
BRANCH  13  14
ATOM     14  C   UNL     1      94.749 121.268 120.245  1.00  0.00    -0.000 C 
BRANCH  14  15
ATOM     15  C   UNL     1      94.331 121.180 118.762  1.00  0.00    -0.000 C 
BRANCH  15  16
ATOM     16  C   UNL     1      92.868 121.581 118.510  1.00  0.00    -0.003 C 
ATOM     17  C   UNL     1      92.519 121.672 117.027  1.00  0.00     0.004 C 
ENDBRANCH  15  16
ENDBRANCH  14  15
ENDBRANCH  13  14
ENDBRANCH  12  13
ENDBRANCH  11  12
ENDBRANCH  10  11
ENDBRANCH   1  10
TORSDOF 13
ENDMDL
MODEL 4
REMARK VINA RESULT:    -5.578      1.050      1.737
REMARK INTER + INTRA:         -10.379
REMARK INTER:                  -9.955
REMARK INTRA:                  -0.424
REMARK UNBOUND:                -0.562
REMARK SMILES CCCCCCCCCCCCCCC(=O)[O-]
REMARK SMILES IDX 9 1 10 2 11 3 12 4 13 5 14 6 15 7 16 8 17 9 8 10 7 11 6 12
REMARK SMILES IDX 5 13 4 14 3 15 2 16 1 17
REMARK H PARENT
REMARK Flexibility Score: inf
ROOT
ATOM      1  C   UNL     1      96.480 124.639 124.648  1.00  0.00     0.000 C 
ENDROOT
BRANCH   1   2
ATOM      2  C   UNL     1      97.223 124.072 125.871  1.00  0.00     0.000 C 
BRANCH   2   3
ATOM      3  C   UNL     1      98.144 125.108 126.540  1.00  0.00     0.000 C 
BRANCH   3   4
ATOM      4  C   UNL     1      98.051 126.493 125.880  1.00  0.00     0.000 C 
BRANCH   4   5
ATOM      5  C   UNL     1      99.425 127.030 125.443  1.00  0.00     0.006 C 
BRANCH   5   6
ATOM      6  C   UNL     1     100.172 127.713 126.596  1.00  0.00     0.053 C 
BRANCH   6   7
ATOM      7  C   UNL     1     100.322 129.185 126.365  1.00  0.00     0.041 C 
ATOM      8  O   UNL     1     100.904 129.609 125.332  1.00  0.00    -0.550 OA
ATOM      9  O   UNL     1      99.848 130.088 127.308  1.00  0.00    -0.550 OA
ENDBRANCH   6   7
ENDBRANCH   5   6
ENDBRANCH   4   5
ENDBRANCH   3   4
ENDBRANCH   2   3
ENDBRANCH   1   2
BRANCH   1  10
ATOM     10  C   UNL     1      95.185 123.890 124.273  1.00  0.00     0.000 C 
BRANCH  10  11
ATOM     11  C   UNL     1      95.351 122.799 123.197  1.00  0.00    -0.000 C 
BRANCH  11  12
ATOM     12  C   UNL     1      94.060 122.431 122.438  1.00  0.00    -0.000 C 
BRANCH  12  13
ATOM     13  C   UNL     1      94.107 121.085 121.692  1.00  0.00    -0.000 C 
BRANCH  13  14
ATOM     14  C   UNL     1      94.399 121.245 120.190  1.00  0.00    -0.000 C 
BRANCH  14  15
ATOM     15  C   UNL     1      93.163 121.732 119.406  1.00  0.00    -0.000 C 
BRANCH  15  16
ATOM     16  C   UNL     1      93.226 121.419 117.901  1.00  0.00    -0.003 C 
ATOM     17  C   UNL     1      92.196 122.194 117.084  1.00  0.00     0.004 C 
ENDBRANCH  15  16
ENDBRANCH  14  15
ENDBRANCH  13  14
ENDBRANCH  12  13
ENDBRANCH  11  12
ENDBRANCH  10  11
ENDBRANCH   1  10
TORSDOF 13
ENDMDL
MODEL 5
REMARK VINA RESULT:    -5.533      4.278      9.258
REMARK INTER + INTRA:         -10.300
REMARK INTER:                  -9.669
REMARK INTRA:                  -0.631
REMARK UNBOUND:                -0.562
REMARK SMILES CCCCCCCCCCCCCCC(=O)[O-]
REMARK SMILES IDX 9 1 10 2 11 3 12 4 13 5 14 6 15 7 16 8 17 9 8 10 7 11 6 12
REMARK SMILES IDX 5 13 4 14 3 15 2 16 1 17
REMARK H PARENT
REMARK Flexibility Score: inf
ROOT
ATOM      1  C   UNL     1      95.639 123.367 123.691  1.00  0.00     0.000 C 
ENDROOT
BRANCH   1   2
ATOM      2  C   UNL     1      94.114 123.484 123.530  1.00  0.00     0.000 C 
BRANCH   2   3
ATOM      3  C   UNL     1      93.499 122.281 122.794  1.00  0.00     0.000 C 
BRANCH   3   4
ATOM      4  C   UNL     1      94.564 121.355 122.186  1.00  0.00     0.000 C 
BRANCH   4   5
ATOM      5  C   UNL     1      94.435 121.232 120.658  1.00  0.00     0.006 C 
BRANCH   5   6
ATOM      6  C   UNL     1      93.043 121.642 120.160  1.00  0.00     0.053 C 
BRANCH   6   7
ATOM      7  C   UNL     1      92.959 121.618 118.665  1.00  0.00     0.041 C 
ATOM      8  O   UNL     1      93.929 121.196 117.982  1.00  0.00    -0.550 OA
ATOM      9  O   UNL     1      91.822 122.095 118.025  1.00  0.00    -0.550 OA
ENDBRANCH   6   7
ENDBRANCH   5   6
ENDBRANCH   4   5
ENDBRANCH   3   4
ENDBRANCH   2   3
ENDBRANCH   1   2
BRANCH   1  10
ATOM     10  C   UNL     1      96.303 124.535 124.449  1.00  0.00     0.000 C 
BRANCH  10  11
ATOM     11  C   UNL     1      97.130 124.127 125.684  1.00  0.00    -0.000 C 
BRANCH  11  12
ATOM     12  C   UNL     1      97.845 125.289 126.402  1.00  0.00    -0.000 C 
BRANCH  12  13
ATOM     13  C   UNL     1      98.160 126.505 125.513  1.00  0.00    -0.000 C 
BRANCH  13  14
ATOM     14  C   UNL     1      99.415 127.269 125.969  1.00  0.00    -0.000 C 
BRANCH  14  15
ATOM     15  C   UNL     1     100.252 127.777 124.776  1.00  0.00    -0.000 C 
BRANCH  15  16
ATOM     16  C   UNL     1     101.764 127.548 124.945  1.00  0.00    -0.003 C 
ATOM     17  C   UNL     1     102.125 126.084 125.183  1.00  0.00     0.004 C 
ENDBRANCH  15  16
ENDBRANCH  14  15
ENDBRANCH  13  14
ENDBRANCH  12  13
ENDBRANCH  11  12
ENDBRANCH  10  11
ENDBRANCH   1  10
TORSDOF 13
ENDMDL
MODEL 6
REMARK VINA RESULT:    -5.454      4.231      9.613
REMARK INTER + INTRA:         -10.161
REMARK INTER:                  -9.556
REMARK INTRA:                  -0.605
REMARK UNBOUND:                -0.562
REMARK SMILES CCCCCCCCCCCCCCC(=O)[O-]
REMARK SMILES IDX 9 1 10 2 11 3 12 4 13 5 14 6 15 7 16 8 17 9 8 10 7 11 6 12
REMARK SMILES IDX 5 13 4 14 3 15 2 16 1 17
REMARK H PARENT
REMARK Flexibility Score: inf
ROOT
ATOM      1  C   UNL     1      96.126 124.417 124.251  1.00  0.00     0.000 C 
ENDROOT
BRANCH   1   2
ATOM      2  C   UNL     1      94.883 123.609 123.841  1.00  0.00     0.000 C 
BRANCH   2   3
ATOM      3  C   UNL     1      95.214 122.453 122.881  1.00  0.00     0.000 C 
BRANCH   3   4
ATOM      4  C   UNL     1      93.971 121.644 122.481  1.00  0.00     0.000 C 
BRANCH   4   5
ATOM      5  C   UNL     1      93.989 121.228 120.999  1.00  0.00     0.006 C 
BRANCH   5   6
ATOM      6  C   UNL     1      92.847 121.875 120.204  1.00  0.00     0.053 C 
BRANCH   6   7
ATOM      7  C   UNL     1      92.972 121.604 118.736  1.00  0.00     0.041 C 
ATOM      8  O   UNL     1      91.965 121.699 117.986  1.00  0.00    -0.550 OA
ATOM      9  O   UNL     1      94.193 121.212 118.203  1.00  0.00    -0.550 OA
ENDBRANCH   6   7
ENDBRANCH   5   6
ENDBRANCH   4   5
ENDBRANCH   3   4
ENDBRANCH   2   3
ENDBRANCH   1   2
BRANCH   1  10
ATOM     10  C   UNL     1      96.879 123.870 125.480  1.00  0.00     0.000 C 
BRANCH  10  11
ATOM     11  C   UNL     1      97.674 124.921 126.280  1.00  0.00    -0.000 C 
BRANCH  11  12
ATOM     12  C   UNL     1      97.974 126.228 125.520  1.00  0.00    -0.000 C 
BRANCH  12  13
ATOM     13  C   UNL     1      99.242 126.970 125.980  1.00  0.00    -0.000 C 
BRANCH  13  14
ATOM     14  C   UNL     1      98.936 128.334 126.622  1.00  0.00    -0.000 C 
BRANCH  14  15
ATOM     15  C   UNL     1      97.574 128.342 127.349  1.00  0.00    -0.000 C 
BRANCH  15  16
ATOM     16  C   UNL     1      97.692 128.191 128.875  1.00  0.00    -0.003 C 
ATOM     17  C   UNL     1      96.446 127.584 129.515  1.00  0.00     0.004 C 
ENDBRANCH  15  16
ENDBRANCH  14  15
ENDBRANCH  13  14
ENDBRANCH  12  13
ENDBRANCH  11  12
ENDBRANCH  10  11
ENDBRANCH   1  10
TORSDOF 13
ENDMDL
MODEL 7
REMARK VINA RESULT:    -5.398      4.132      9.743
REMARK INTER + INTRA:         -10.063
REMARK INTER:                  -9.378
REMARK INTRA:                  -0.685
REMARK UNBOUND:                -0.562
REMARK SMILES CCCCCCCCCCCCCCC(=O)[O-]
REMARK SMILES IDX 9 1 10 2 11 3 12 4 13 5 14 6 15 7 16 8 17 9 8 10 7 11 6 12
REMARK SMILES IDX 5 13 4 14 3 15 2 16 1 17
REMARK H PARENT
REMARK Flexibility Score: inf
ROOT
ATOM      1  C   UNL     1      96.885 124.253 125.831  1.00  0.00     0.000 C 
ENDROOT
BRANCH   1   2
ATOM      2  C   UNL     1      96.483 124.610 124.389  1.00  0.00     0.000 C 
BRANCH   2   3
ATOM      3  C   UNL     1      95.738 123.466 123.678  1.00  0.00     0.000 C 
BRANCH   3   4
ATOM      4  C   UNL     1      94.246 123.417 124.043  1.00  0.00     0.000 C 
BRANCH   4   5
ATOM      5  C   UNL     1      93.459 122.424 123.171  1.00  0.00     0.006 C 
BRANCH   5   6
ATOM      6  C   UNL     1      94.384 121.518 122.348  1.00  0.00     0.053 C 
BRANCH   6   7
ATOM      7  C   UNL     1      93.900 121.366 120.939  1.00  0.00     0.041 C 
ATOM      8  O   UNL     1      92.701 121.619 120.648  1.00  0.00    -0.550 OA
ATOM      9  O   UNL     1      94.766 120.912 119.952  1.00  0.00    -0.550 OA
ENDBRANCH   6   7
ENDBRANCH   5   6
ENDBRANCH   4   5
ENDBRANCH   3   4
ENDBRANCH   2   3
ENDBRANCH   1   2
BRANCH   1  10
ATOM     10  C   UNL     1      97.732 125.322 126.550  1.00  0.00     0.000 C 
BRANCH  10  11
ATOM     11  C   UNL     1      98.513 126.272 125.621  1.00  0.00    -0.000 C 
BRANCH  11  12
ATOM     12  C   UNL     1      98.348 127.772 125.935  1.00  0.00    -0.000 C 
BRANCH  12  13
ATOM     13  C   UNL     1      98.786 128.190 127.350  1.00  0.00    -0.000 C 
BRANCH  13  14
ATOM     14  C   UNL     1      97.675 128.913 128.130  1.00  0.00    -0.000 C 
BRANCH  14  15
ATOM     15  C   UNL     1      97.375 128.232 129.482  1.00  0.00    -0.000 C 
BRANCH  15  16
ATOM     16  C   UNL     1      96.415 129.035 130.376  1.00  0.00    -0.003 C 
ATOM     17  C   UNL     1      95.839 130.267 129.682  1.00  0.00     0.004 C 
ENDBRANCH  15  16
ENDBRANCH  14  15
ENDBRANCH  13  14
ENDBRANCH  12  13
ENDBRANCH  11  12
ENDBRANCH  10  11
ENDBRANCH   1  10
TORSDOF 13
ENDMDL
MODEL 8
REMARK VINA RESULT:    -5.389      4.120      9.424
REMARK INTER + INTRA:         -10.046
REMARK INTER:                  -9.286
REMARK INTRA:                  -0.760
REMARK UNBOUND:                -0.562
REMARK SMILES CCCCCCCCCCCCCCC(=O)[O-]
REMARK SMILES IDX 9 1 10 2 11 3 12 4 13 5 14 6 15 7 16 8 17 9 8 10 7 11 6 12
REMARK SMILES IDX 5 13 4 14 3 15 2 16 1 17
REMARK H PARENT
REMARK Flexibility Score: inf
ROOT
ATOM      1  C   UNL     1      97.693 125.744 125.290  1.00  0.00     0.000 C 
ENDROOT
BRANCH   1   2
ATOM      2  C   UNL     1      97.010 124.380 125.493  1.00  0.00     0.000 C 
BRANCH   2   3
ATOM      3  C   UNL     1      96.151 123.961 124.288  1.00  0.00     0.000 C 
BRANCH   3   4
ATOM      4  C   UNL     1      96.523 122.568 123.755  1.00  0.00     0.000 C 
BRANCH   4   5
ATOM      5  C   UNL     1      95.989 122.320 122.333  1.00  0.00     0.006 C 
BRANCH   5   6
ATOM      6  C   UNL     1      94.585 121.701 122.343  1.00  0.00     0.053 C 
BRANCH   6   7
ATOM      7  C   UNL     1      94.095 121.416 120.957  1.00  0.00     0.041 C 
ATOM      8  O   UNL     1      92.875 121.551 120.674  1.00  0.00    -0.550 OA
ATOM      9  O   UNL     1      94.981 120.968 119.985  1.00  0.00    -0.550 OA
ENDBRANCH   6   7
ENDBRANCH   5   6
ENDBRANCH   4   5
ENDBRANCH   3   4
ENDBRANCH   2   3
ENDBRANCH   1   2
BRANCH   1  10
ATOM     10  C   UNL     1      98.077 126.477 126.592  1.00  0.00     0.000 C 
BRANCH  10  11
ATOM     11  C   UNL     1      98.092 128.015 126.495  1.00  0.00    -0.000 C 
BRANCH  11  12
ATOM     12  C   UNL     1      99.002 128.723 127.519  1.00  0.00    -0.000 C 
BRANCH  12  13
ATOM     13  C   UNL     1     100.489 128.794 127.125  1.00  0.00    -0.000 C 
BRANCH  13  14
ATOM     14  C   UNL     1     100.778 129.883 126.077  1.00  0.00    -0.000 C 
BRANCH  14  15
ATOM     15  C   UNL     1     101.510 129.320 124.840  1.00  0.00    -0.000 C 
BRANCH  15  16
ATOM     16  C   UNL     1     100.988 127.946 124.389  1.00  0.00    -0.003 C 
ATOM     17  C   UNL     1     102.010 126.827 124.570  1.00  0.00     0.004 C 
ENDBRANCH  15  16
ENDBRANCH  14  15
ENDBRANCH  13  14
ENDBRANCH  12  13
ENDBRANCH  11  12
ENDBRANCH  10  11
ENDBRANCH   1  10
TORSDOF 13
ENDMDL
MODEL 9
REMARK VINA RESULT:    -5.303      4.090      9.351
REMARK INTER + INTRA:          -9.894
REMARK INTER:                  -9.135
REMARK INTRA:                  -0.759
REMARK UNBOUND:                -0.562
REMARK SMILES CCCCCCCCCCCCCCC(=O)[O-]
REMARK SMILES IDX 9 1 10 2 11 3 12 4 13 5 14 6 15 7 16 8 17 9 8 10 7 11 6 12
REMARK SMILES IDX 5 13 4 14 3 15 2 16 1 17
REMARK H PARENT
REMARK Flexibility Score: inf
ROOT
ATOM      1  C   UNL     1      96.602 124.511 124.733  1.00  0.00     0.000 C 
ENDROOT
BRANCH   1   2
ATOM      2  C   UNL     1      95.697 123.518 123.982  1.00  0.00     0.000 C 
BRANCH   2   3
ATOM      3  C   UNL     1      96.487 122.376 123.319  1.00  0.00     0.000 C 
BRANCH   3   4
ATOM      4  C   UNL     1      95.961 122.032 121.917  1.00  0.00     0.000 C 
BRANCH   4   5
ATOM      5  C   UNL     1      94.423 122.011 121.853  1.00  0.00     0.006 C 
BRANCH   5   6
ATOM      6  C   UNL     1      93.898 120.898 120.938  1.00  0.00     0.053 C 
BRANCH   6   7
ATOM      7  C   UNL     1      93.772 121.360 119.519  1.00  0.00     0.041 C 
ATOM      8  O   UNL     1      94.739 121.231 118.722  1.00  0.00    -0.550 OA
ATOM      9  O   UNL     1      92.598 121.963 119.086  1.00  0.00    -0.550 OA
ENDBRANCH   6   7
ENDBRANCH   5   6
ENDBRANCH   4   5
ENDBRANCH   3   4
ENDBRANCH   2   3
ENDBRANCH   1   2
BRANCH   1  10
ATOM     10  C   UNL     1      97.229 123.962 126.031  1.00  0.00     0.000 C 
BRANCH  10  11
ATOM     11  C   UNL     1      98.383 124.807 126.606  1.00  0.00    -0.000 C 
BRANCH  11  12
ATOM     12  C   UNL     1      97.944 126.026 127.441  1.00  0.00    -0.000 C 
BRANCH  12  13
ATOM     13  C   UNL     1      98.443 127.385 126.916  1.00  0.00    -0.000 C 
BRANCH  13  14
ATOM     14  C   UNL     1      98.871 127.333 125.440  1.00  0.00    -0.000 C 
BRANCH  14  15
ATOM     15  C   UNL     1     100.288 127.907 125.225  1.00  0.00    -0.000 C 
BRANCH  15  16
ATOM     16  C   UNL     1     100.692 128.958 126.273  1.00  0.00    -0.003 C 
ATOM     17  C   UNL     1     101.343 130.195 125.660  1.00  0.00     0.004 C 
ENDBRANCH  15  16
ENDBRANCH  14  15
ENDBRANCH  13  14
ENDBRANCH  12  13
ENDBRANCH  11  12
ENDBRANCH  10  11
ENDBRANCH   1  10
TORSDOF 13
ENDMDL
