MODEL 1
REMARK VINA RESULT:    -3.177      0.000      0.000
REMARK INTER + INTRA:          -4.894
REMARK INTER:                  -4.291
REMARK INTRA:                  -0.603
REMARK UNBOUND:                -0.603
REMARK SMILES CCCCCCCC(=O)[O-]
REMARK SMILES IDX 5 1 6 2 7 3 8 4 9 5 10 6 4 7 3 8 2 9 1 10
REMARK H PARENT
REMARK Flexibility Score: inf
ROOT
ATOM      1  C   UNL     1     184.210 181.863 202.125  1.00  0.00     0.000 C 
ENDROOT
BRANCH   1   2
ATOM      2  C   UNL     1     182.739 181.432 202.110  1.00  0.00     0.006 C 
BRANCH   2   3
ATOM      3  C   UNL     1     181.842 182.556 201.585  1.00  0.00     0.053 C 
BRANCH   3   4
ATOM      4  C   UNL     1     181.239 182.175 200.270  1.00  0.00     0.041 C 
ATOM      5  O   UNL     1     181.871 181.432 199.474  1.00  0.00    -0.550 OA
ATOM      6  O   UNL     1     179.956 182.599 199.946  1.00  0.00    -0.550 OA
ENDBRANCH   3   4
ENDBRANCH   2   3
ENDBRANCH   1   2
BRANCH   1   7
ATOM      7  C   UNL     1     184.340 183.385 201.982  1.00  0.00     0.000 C 
BRANCH   7   8
ATOM      8  C   UNL     1     185.366 183.751 200.902  1.00  0.00    -0.000 C 
BRANCH   8   9
ATOM      9  C   UNL     1     184.895 183.291 199.518  1.00  0.00    -0.003 C 
ATOM     10  C   UNL     1     184.125 184.396 198.802  1.00  0.00     0.004 C 
ENDBRANCH   8   9
ENDBRANCH   7   8
ENDBRANCH   1   7
TORSDOF 6
ENDMDL
MODEL 2
REMARK VINA RESULT:    -3.170      2.621      3.735
REMARK INTER + INTRA:          -4.886
REMARK INTER:                  -4.293
REMARK INTRA:                  -0.593
REMARK UNBOUND:                -0.603
REMARK SMILES CCCCCCCC(=O)[O-]
REMARK SMILES IDX 5 1 6 2 7 3 8 4 9 5 10 6 4 7 3 8 2 9 1 10
REMARK H PARENT
REMARK Flexibility Score: inf
ROOT
ATOM      1  C   UNL     1     181.846 181.896 200.154  1.00  0.00     0.000 C 
ENDROOT
BRANCH   1   2
ATOM      2  C   UNL     1     183.378 181.925 200.211  1.00  0.00     0.006 C 
BRANCH   2   3
ATOM      3  C   UNL     1     183.973 182.210 198.830  1.00  0.00     0.053 C 
BRANCH   3   4
ATOM      4  C   UNL     1     184.794 183.461 198.860  1.00  0.00     0.041 C 
ATOM      5  O   UNL     1     185.326 183.843 199.935  1.00  0.00    -0.550 OA
ATOM      6  O   UNL     1     185.014 184.176 197.690  1.00  0.00    -0.550 OA
ENDBRANCH   3   4
ENDBRANCH   2   3
ENDBRANCH   1   2
BRANCH   1   7
ATOM      7  C   UNL     1     181.239 182.934 201.106  1.00  0.00     0.000 C 
BRANCH   7   8
ATOM      8  C   UNL     1     182.319 183.566 201.993  1.00  0.00    -0.000 C 
BRANCH   8   9
ATOM      9  C   UNL     1     182.188 185.093 202.015  1.00  0.00    -0.003 C 
ATOM     10  C   UNL     1     182.309 185.677 200.611  1.00  0.00     0.004 C 
ENDBRANCH   8   9
ENDBRANCH   7   8
ENDBRANCH   1   7
TORSDOF 6
ENDMDL
MODEL 3
REMARK VINA RESULT:    -3.163     15.941     17.515
REMARK INTER + INTRA:          -4.875
REMARK INTER:                  -4.524
REMARK INTRA:                  -0.352
REMARK UNBOUND:                -0.603
REMARK SMILES CCCCCCCC(=O)[O-]
REMARK SMILES IDX 5 1 6 2 7 3 8 4 9 5 10 6 4 7 3 8 2 9 1 10
REMARK H PARENT
REMARK Flexibility Score: inf
ROOT
ATOM      1  C   UNL     1     185.937 193.663 190.501  1.00  0.00     0.000 C 
ENDROOT
BRANCH   1   2
ATOM      2  C   UNL     1     187.355 194.206 190.293  1.00  0.00     0.006 C 
BRANCH   2   3
ATOM      3  C   UNL     1     187.826 193.977 188.855  1.00  0.00     0.053 C 
BRANCH   3   4
ATOM      4  C   UNL     1     189.266 194.355 188.707  1.00  0.00     0.041 C 
ATOM      5  O   UNL     1     189.638 195.068 187.737  1.00  0.00    -0.550 OA
ATOM      6  O   UNL     1     190.189 193.963 189.668  1.00  0.00    -0.550 OA
ENDBRANCH   3   4
ENDBRANCH   2   3
ENDBRANCH   1   2
BRANCH   1   7
ATOM      7  C   UNL     1     184.951 194.306 189.518  1.00  0.00     0.000 C 
BRANCH   7   8
ATOM      8  C   UNL     1     184.428 195.643 190.057  1.00  0.00    -0.000 C 
BRANCH   8   9
ATOM      9  C   UNL     1     185.185 196.821 189.433  1.00  0.00    -0.003 C 
ATOM     10  C   UNL     1     185.859 197.671 190.505  1.00  0.00     0.004 C 
ENDBRANCH   8   9
ENDBRANCH   7   8
ENDBRANCH   1   7
TORSDOF 6
ENDMDL
MODEL 4
REMARK VINA RESULT:    -3.156      1.938      3.973
REMARK INTER + INTRA:          -4.867
REMARK INTER:                  -4.378
REMARK INTRA:                  -0.489
REMARK UNBOUND:                -0.603
REMARK SMILES CCCCCCCC(=O)[O-]
REMARK SMILES IDX 5 1 6 2 7 3 8 4 9 5 10 6 4 7 3 8 2 9 1 10
REMARK H PARENT
REMARK Flexibility Score: inf
ROOT
ATOM      1  C   UNL     1     183.041 184.066 201.246  1.00  0.00     0.000 C 
ENDROOT
BRANCH   1   2
ATOM      2  C   UNL     1     184.432 183.427 201.145  1.00  0.00     0.006 C 
BRANCH   2   3
ATOM      3  C   UNL     1     185.246 184.061 200.014  1.00  0.00     0.053 C 
BRANCH   3   4
ATOM      4  C   UNL     1     184.821 183.512 198.689  1.00  0.00     0.041 C 
ATOM      5  O   UNL     1     184.969 184.195 197.643  1.00  0.00    -0.550 OA
ATOM      6  O   UNL     1     184.307 182.224 198.604  1.00  0.00    -0.550 OA
ENDBRANCH   3   4
ENDBRANCH   2   3
ENDBRANCH   1   2
BRANCH   1   7
ATOM      7  C   UNL     1     181.991 183.036 201.679  1.00  0.00     0.000 C 
BRANCH   7   8
ATOM      8  C   UNL     1     181.181 182.536 200.476  1.00  0.00    -0.000 C 
BRANCH   8   9
ATOM      9  C   UNL     1     181.457 181.053 200.205  1.00  0.00    -0.003 C 
ATOM     10  C   UNL     1     182.231 180.417 201.356  1.00  0.00     0.004 C 
ENDBRANCH   8   9
ENDBRANCH   7   8
ENDBRANCH   1   7
TORSDOF 6
ENDMDL
MODEL 5
REMARK VINA RESULT:    -3.141      2.505      3.921
REMARK INTER + INTRA:          -4.847
REMARK INTER:                  -4.418
REMARK INTRA:                  -0.429
REMARK UNBOUND:                -0.603
REMARK SMILES CCCCCCCC(=O)[O-]
REMARK SMILES IDX 5 1 6 2 7 3 8 4 9 5 10 6 4 7 3 8 2 9 1 10
REMARK H PARENT
REMARK Flexibility Score: inf
ROOT
ATOM      1  C   UNL     1     183.965 183.284 202.032  1.00  0.00     0.000 C 
ENDROOT
BRANCH   1   2
ATOM      2  C   UNL     1     183.900 184.384 200.966  1.00  0.00     0.006 C 
BRANCH   2   3
ATOM      3  C   UNL     1     183.636 183.791 199.580  1.00  0.00     0.053 C 
BRANCH   3   4
ATOM      4  C   UNL     1     184.464 184.485 198.546  1.00  0.00     0.041 C 
ATOM      5  O   UNL     1     185.055 183.819 197.655  1.00  0.00    -0.550 OA
ATOM      6  O   UNL     1     184.543 185.872 198.535  1.00  0.00    -0.550 OA
ENDBRANCH   3   4
ENDBRANCH   2   3
ENDBRANCH   1   2
BRANCH   1   7
ATOM      7  C   UNL     1     183.983 181.892 201.387  1.00  0.00     0.000 C 
BRANCH   7   8
ATOM      8  C   UNL     1     183.044 180.931 202.125  1.00  0.00    -0.000 C 
BRANCH   8   9
ATOM      9  C   UNL     1     182.167 180.153 201.137  1.00  0.00    -0.003 C 
ATOM     10  C   UNL     1     181.173 181.074 200.438  1.00  0.00     0.004 C 
ENDBRANCH   8   9
ENDBRANCH   7   8
ENDBRANCH   1   7
TORSDOF 6
ENDMDL
MODEL 6
REMARK VINA RESULT:    -3.043      2.204      3.160
REMARK INTER + INTRA:          -4.713
REMARK INTER:                  -4.168
REMARK INTRA:                  -0.546
REMARK UNBOUND:                -0.603
REMARK SMILES CCCCCCCC(=O)[O-]
REMARK SMILES IDX 5 1 6 2 7 3 8 4 9 5 10 6 4 7 3 8 2 9 1 10
REMARK H PARENT
REMARK Flexibility Score: inf
ROOT
ATOM      1  C   UNL     1     181.114 182.957 201.134  1.00  0.00     0.000 C 
ENDROOT
BRANCH   1   2
ATOM      2  C   UNL     1     181.902 181.849 201.844  1.00  0.00     0.006 C 
BRANCH   2   3
ATOM      3  C   UNL     1     182.768 181.069 200.853  1.00  0.00     0.053 C 
BRANCH   3   4
ATOM      4  C   UNL     1     183.911 181.910 200.378  1.00  0.00     0.041 C 
ATOM      5  O   UNL     1     184.063 182.138 199.149  1.00  0.00    -0.550 OA
ATOM      6  O   UNL     1     184.779 182.485 201.298  1.00  0.00    -0.550 OA
ENDBRANCH   3   4
ENDBRANCH   2   3
ENDBRANCH   1   2
BRANCH   1   7
ATOM      7  C   UNL     1     180.867 184.145 202.071  1.00  0.00     0.000 C 
BRANCH   7   8
ATOM      8  C   UNL     1     182.091 185.068 202.125  1.00  0.00    -0.000 C 
BRANCH   8   9
ATOM      9  C   UNL     1     182.222 185.884 200.834  1.00  0.00    -0.003 C 
ATOM     10  C   UNL     1     183.558 185.619 200.147  1.00  0.00     0.004 C 
ENDBRANCH   8   9
ENDBRANCH   7   8
ENDBRANCH   1   7
TORSDOF 6
ENDMDL
MODEL 7
REMARK VINA RESULT:    -3.030      2.595      4.246
REMARK INTER + INTRA:          -4.697
REMARK INTER:                  -4.319
REMARK INTRA:                  -0.378
REMARK UNBOUND:                -0.603
REMARK SMILES CCCCCCCC(=O)[O-]
REMARK SMILES IDX 5 1 6 2 7 3 8 4 9 5 10 6 4 7 3 8 2 9 1 10
REMARK H PARENT
REMARK Flexibility Score: inf
ROOT
ATOM      1  C   UNL     1     183.714 182.080 199.816  1.00  0.00     0.000 C 
ENDROOT
BRANCH   1   2
ATOM      2  C   UNL     1     184.867 183.072 199.625  1.00  0.00     0.006 C 
BRANCH   2   3
ATOM      3  C   UNL     1     184.657 183.924 198.371  1.00  0.00     0.053 C 
BRANCH   3   4
ATOM      4  C   UNL     1     184.397 185.350 198.743  1.00  0.00     0.041 C 
ATOM      5  O   UNL     1     183.432 185.643 199.497  1.00  0.00    -0.550 OA
ATOM      6  O   UNL     1     185.252 186.351 198.298  1.00  0.00    -0.550 OA
ENDBRANCH   3   4
ENDBRANCH   2   3
ENDBRANCH   1   2
BRANCH   1   7
ATOM      7  C   UNL     1     183.595 181.649 201.283  1.00  0.00     0.000 C 
BRANCH   7   8
ATOM      8  C   UNL     1     182.157 181.814 201.790  1.00  0.00    -0.000 C 
BRANCH   8   9
ATOM      9  C   UNL     1     181.463 182.996 201.102  1.00  0.00    -0.003 C 
ATOM     10  C   UNL     1     181.062 184.064 202.114  1.00  0.00     0.004 C 
ENDBRANCH   8   9
ENDBRANCH   7   8
ENDBRANCH   1   7
TORSDOF 6
ENDMDL
MODEL 8
REMARK VINA RESULT:    -3.018      2.430      4.038
REMARK INTER + INTRA:          -4.681
REMARK INTER:                  -4.116
REMARK INTRA:                  -0.564
REMARK UNBOUND:                -0.603
REMARK SMILES CCCCCCCC(=O)[O-]
REMARK SMILES IDX 5 1 6 2 7 3 8 4 9 5 10 6 4 7 3 8 2 9 1 10
REMARK H PARENT
REMARK Flexibility Score: inf
ROOT
ATOM      1  C   UNL     1     184.551 183.253 198.698  1.00  0.00     0.000 C 
ENDROOT
BRANCH   1   2
ATOM      2  C   UNL     1     185.290 183.901 199.875  1.00  0.00     0.006 C 
BRANCH   2   3
ATOM      3  C   UNL     1     185.160 185.426 199.832  1.00  0.00     0.053 C 
BRANCH   3   4
ATOM      4  C   UNL     1     183.725 185.833 199.945  1.00  0.00     0.041 C 
ATOM      5  O   UNL     1     183.188 186.521 199.038  1.00  0.00    -0.550 OA
ATOM      6  O   UNL     1     182.967 185.410 201.029  1.00  0.00    -0.550 OA
ENDBRANCH   3   4
ENDBRANCH   2   3
ENDBRANCH   1   2
BRANCH   1   7
ATOM      7  C   UNL     1     183.690 182.075 199.170  1.00  0.00     0.000 C 
BRANCH   7   8
ATOM      8  C   UNL     1     183.859 181.838 200.676  1.00  0.00    -0.000 C 
BRANCH   8   9
ATOM      9  C   UNL     1     182.510 181.531 201.338  1.00  0.00    -0.003 C 
ATOM     10  C   UNL     1     181.367 182.234 200.613  1.00  0.00     0.004 C 
ENDBRANCH   8   9
ENDBRANCH   7   8
ENDBRANCH   1   7
TORSDOF 6
ENDMDL
MODEL 9
REMARK VINA RESULT:    -3.012     16.728     18.195
REMARK INTER + INTRA:          -4.672
REMARK INTER:                  -4.253
REMARK INTRA:                  -0.419
REMARK UNBOUND:                -0.603
REMARK SMILES CCCCCCCC(=O)[O-]
REMARK SMILES IDX 5 1 6 2 7 3 8 4 9 5 10 6 4 7 3 8 2 9 1 10
REMARK H PARENT
REMARK Flexibility Score: inf
ROOT
ATOM      1  C   UNL     1     187.477 194.265 190.179  1.00  0.00     0.000 C 
ENDROOT
BRANCH   1   2
ATOM      2  C   UNL     1     187.800 193.974 188.708  1.00  0.00     0.006 C 
BRANCH   2   3
ATOM      3  C   UNL     1     188.929 194.875 188.205  1.00  0.00     0.053 C 
BRANCH   3   4
ATOM      4  C   UNL     1     188.423 195.816 187.158  1.00  0.00     0.041 C 
ATOM      5  O   UNL     1     188.776 195.678 185.957  1.00  0.00    -0.550 OA
ATOM      6  O   UNL     1     187.519 196.815 187.500  1.00  0.00    -0.550 OA
ENDBRANCH   3   4
ENDBRANCH   2   3
ENDBRANCH   1   2
BRANCH   1   7
ATOM      7  C   UNL     1     185.973 194.134 190.450  1.00  0.00     0.000 C 
BRANCH   7   8
ATOM      8  C   UNL     1     185.171 195.118 189.590  1.00  0.00    -0.000 C 
BRANCH   8   9
ATOM      9  C   UNL     1     184.679 196.304 190.427  1.00  0.00    -0.003 C 
ATOM     10  C   UNL     1     185.708 197.430 190.446  1.00  0.00     0.004 C 
ENDBRANCH   8   9
ENDBRANCH   7   8
ENDBRANCH   1   7
TORSDOF 6
ENDMDL
