MODEL 1
REMARK VINA RESULT:    -4.714      0.000      0.000
REMARK INTER + INTRA:          -4.714
REMARK INTER:                  -4.714
REMARK INTRA:                   0.000
REMARK UNBOUND:                 0.000
REMARK SMILES CC1(C)O[C@]2(C)CC[C@H]1CC2
REMARK SMILES IDX 1 1 2 2 9 3 10 4 11 5 5 6 4 7 7 8 8 9 6 10 3 11
REMARK H PARENT
REMARK Flexibility Score: inf
ROOT
ATOM      1  C   UNL     1     178.565 193.874 203.124  1.00  0.00     0.042 C 
ATOM      2  C   UNL     1     179.599 193.051 202.326  1.00  0.00     0.066 C 
ATOM      3  C   UNL     1     179.808 191.632 202.983  1.00  0.00     0.021 C 
ATOM      4  C   UNL     1     178.469 190.857 202.912  1.00  0.00     0.009 C 
ATOM      5  C   UNL     1     177.942 190.884 201.457  1.00  0.00     0.035 C 
ATOM      6  C   UNL     1     178.974 191.597 200.536  1.00  0.00     0.066 C 
ATOM      7  O   UNL     1     179.136 192.948 200.971  1.00  0.00    -0.369 OA
ATOM      8  C   UNL     1     180.340 190.859 200.641  1.00  0.00     0.035 C 
ATOM      9  C   UNL     1     180.811 190.833 202.116  1.00  0.00     0.009 C 
ATOM     10  C   UNL     1     178.481 191.601 199.085  1.00  0.00     0.042 C 
ATOM     11  C   UNL     1     180.920 193.851 202.323  1.00  0.00     0.042 C 
ENDROOT
TORSDOF 0
ENDMDL
MODEL 2
REMARK VINA RESULT:    -4.630      1.227      3.206
REMARK INTER + INTRA:          -4.630
REMARK INTER:                  -4.630
REMARK INTRA:                   0.000
REMARK UNBOUND:                 0.000
REMARK SMILES CC1(C)O[C@]2(C)CC[C@H]1CC2
REMARK SMILES IDX 1 1 2 2 9 3 10 4 11 5 5 6 4 7 7 8 8 9 6 10 3 11
REMARK H PARENT
REMARK Flexibility Score: inf
ROOT
ATOM      1  C   UNL     1     177.875 189.919 199.742  1.00  0.00     0.042 C 
ATOM      2  C   UNL     1     178.548 191.275 200.048  1.00  0.00     0.066 C 
ATOM      3  C   UNL     1     177.881 191.959 201.302  1.00  0.00     0.021 C 
ATOM      4  C   UNL     1     178.115 191.054 202.537  1.00  0.00     0.009 C 
ATOM      5  C   UNL     1     179.623 190.720 202.643  1.00  0.00     0.035 C 
ATOM      6  C   UNL     1     180.410 191.476 201.532  1.00  0.00     0.066 C 
ATOM      7  O   UNL     1     179.950 191.039 200.252  1.00  0.00    -0.369 OA
ATOM      8  C   UNL     1     180.147 193.003 201.677  1.00  0.00     0.035 C 
ATOM      9  C   UNL     1     178.627 193.284 201.593  1.00  0.00     0.009 C 
ATOM     10  C   UNL     1     181.909 191.180 201.646  1.00  0.00     0.042 C 
ATOM     11  C   UNL     1     178.389 192.160 198.793  1.00  0.00     0.042 C 
ENDROOT
TORSDOF 0
ENDMDL
MODEL 3
REMARK VINA RESULT:    -4.629      1.246      3.280
REMARK INTER + INTRA:          -4.629
REMARK INTER:                  -4.629
REMARK INTRA:                   0.000
REMARK UNBOUND:                 0.000
REMARK SMILES CC1(C)O[C@]2(C)CC[C@H]1CC2
REMARK SMILES IDX 1 1 2 2 9 3 10 4 11 5 5 6 4 7 7 8 8 9 6 10 3 11
REMARK H PARENT
REMARK Flexibility Score: inf
ROOT
ATOM      1  C   UNL     1     181.207 189.298 201.831  1.00  0.00     0.042 C 
ATOM      2  C   UNL     1     180.453 190.367 201.011  1.00  0.00     0.066 C 
ATOM      3  C   UNL     1     178.920 190.378 201.384  1.00  0.00     0.021 C 
ATOM      4  C   UNL     1     178.781 190.778 202.873  1.00  0.00     0.009 C 
ATOM      5  C   UNL     1     179.572 192.085 203.125  1.00  0.00     0.035 C 
ATOM      6  C   UNL     1     180.164 192.609 201.785  1.00  0.00     0.066 C 
ATOM      7  O   UNL     1     181.072 191.638 201.261  1.00  0.00    -0.369 OA
ATOM      8  C   UNL     1     179.004 192.824 200.769  1.00  0.00     0.035 C 
ATOM      9  C   UNL     1     178.227 191.500 200.573  1.00  0.00     0.009 C 
ATOM     10  C   UNL     1     180.921 193.921 202.013  1.00  0.00     0.042 C 
ATOM     11  C   UNL     1     180.650 190.023 199.519  1.00  0.00     0.042 C 
ENDROOT
TORSDOF 0
ENDMDL
MODEL 4
REMARK VINA RESULT:    -4.552      1.114      2.776
REMARK INTER + INTRA:          -4.552
REMARK INTER:                  -4.552
REMARK INTRA:                   0.000
REMARK UNBOUND:                 0.000
REMARK SMILES CC1(C)O[C@]2(C)CC[C@H]1CC2
REMARK SMILES IDX 1 1 2 2 9 3 10 4 11 5 5 6 4 7 7 8 8 9 6 10 3 11
REMARK H PARENT
REMARK Flexibility Score: inf
ROOT
ATOM      1  C   UNL     1     182.268 191.183 201.625  1.00  0.00     0.042 C 
ATOM      2  C   UNL     1     180.820 190.710 201.877  1.00  0.00     0.066 C 
ATOM      3  C   UNL     1     180.114 191.623 202.952  1.00  0.00     0.021 C 
ATOM      4  C   UNL     1     180.023 193.062 202.389  1.00  0.00     0.009 C 
ATOM      5  C   UNL     1     179.382 193.017 200.980  1.00  0.00     0.035 C 
ATOM      6  C   UNL     1     178.961 191.559 200.639  1.00  0.00     0.066 C 
ATOM      7  O   UNL     1     180.122 190.727 200.622  1.00  0.00    -0.369 OA
ATOM      8  C   UNL     1     177.981 191.046 201.734  1.00  0.00     0.035 C 
ATOM      9  C   UNL     1     178.655 191.137 203.125  1.00  0.00     0.009 C 
ATOM     10  C   UNL     1     178.295 191.505 199.260  1.00  0.00     0.042 C 
ATOM     11  C   UNL     1     180.893 189.247 202.365  1.00  0.00     0.042 C 
ENDROOT
TORSDOF 0
ENDMDL
MODEL 5
REMARK VINA RESULT:    -4.316     12.830     14.686
REMARK INTER + INTRA:          -4.316
REMARK INTER:                  -4.316
REMARK INTRA:                   0.000
REMARK UNBOUND:                 0.000
REMARK SMILES CC1(C)O[C@]2(C)CC[C@H]1CC2
REMARK SMILES IDX 1 1 2 2 9 3 10 4 11 5 5 6 4 7 7 8 8 9 6 10 3 11
REMARK H PARENT
REMARK Flexibility Score: inf
ROOT
ATOM      1  C   UNL     1     186.596 189.644 187.307  1.00  0.00     0.042 C 
ATOM      2  C   UNL     1     186.739 190.937 188.138  1.00  0.00     0.066 C 
ATOM      3  C   UNL     1     185.684 192.016 187.677  1.00  0.00     0.021 C 
ATOM      4  C   UNL     1     184.265 191.462 187.953  1.00  0.00     0.009 C 
ATOM      5  C   UNL     1     184.182 190.987 189.424  1.00  0.00     0.035 C 
ATOM      6  C   UNL     1     185.516 191.306 190.158  1.00  0.00     0.066 C 
ATOM      7  O   UNL     1     186.582 190.596 189.524  1.00  0.00    -0.369 OA
ATOM      8  C   UNL     1     185.793 192.834 190.061  1.00  0.00     0.035 C 
ATOM      9  C   UNL     1     185.839 193.267 188.575  1.00  0.00     0.009 C 
ATOM     10  C   UNL     1     185.436 190.871 191.624  1.00  0.00     0.042 C 
ATOM     11  C   UNL     1     188.178 191.458 187.933  1.00  0.00     0.042 C 
ENDROOT
TORSDOF 0
ENDMDL
MODEL 6
REMARK VINA RESULT:    -4.227     12.980     14.745
REMARK INTER + INTRA:          -4.227
REMARK INTER:                  -4.227
REMARK INTRA:                   0.000
REMARK UNBOUND:                 0.000
REMARK SMILES CC1(C)O[C@]2(C)CC[C@H]1CC2
REMARK SMILES IDX 1 1 2 2 9 3 10 4 11 5 5 6 4 7 7 8 8 9 6 10 3 11
REMARK H PARENT
REMARK Flexibility Score: inf
ROOT
ATOM      1  C   UNL     1     185.370 191.087 191.283  1.00  0.00     0.042 C 
ATOM      2  C   UNL     1     185.478 190.914 189.753  1.00  0.00     0.066 C 
ATOM      3  C   UNL     1     184.906 192.181 189.007  1.00  0.00     0.021 C 
ATOM      4  C   UNL     1     185.778 193.405 189.380  1.00  0.00     0.009 C 
ATOM      5  C   UNL     1     187.268 193.062 189.136  1.00  0.00     0.035 C 
ATOM      6  C   UNL     1     187.386 191.641 188.512  1.00  0.00     0.066 C 
ATOM      7  O   UNL     1     186.857 190.681 189.428  1.00  0.00    -0.369 OA
ATOM      8  C   UNL     1     186.561 191.598 187.193  1.00  0.00     0.035 C 
ATOM      9  C   UNL     1     185.087 191.975 187.483  1.00  0.00     0.009 C 
ATOM     10  C   UNL     1     188.854 191.302 188.233  1.00  0.00     0.042 C 
ATOM     11  C   UNL     1     184.676 189.650 189.376  1.00  0.00     0.042 C 
ENDROOT
TORSDOF 0
ENDMDL
MODEL 7
REMARK VINA RESULT:    -4.194     12.551     14.267
REMARK INTER + INTRA:          -4.194
REMARK INTER:                  -4.194
REMARK INTRA:                   0.000
REMARK UNBOUND:                 0.000
REMARK SMILES CC1(C)O[C@]2(C)CC[C@H]1CC2
REMARK SMILES IDX 1 1 2 2 9 3 10 4 11 5 5 6 4 7 7 8 8 9 6 10 3 11
REMARK H PARENT
REMARK Flexibility Score: inf
ROOT
ATOM      1  C   UNL     1     187.773 192.592 190.468  1.00  0.00     0.042 C 
ATOM      2  C   UNL     1     186.457 192.621 189.661  1.00  0.00     0.066 C 
ATOM      3  C   UNL     1     186.691 192.091 188.194  1.00  0.00     0.021 C 
ATOM      4  C   UNL     1     187.135 190.609 188.272  1.00  0.00     0.009 C 
ATOM      5  C   UNL     1     186.129 189.823 189.148  1.00  0.00     0.035 C 
ATOM      6  C   UNL     1     184.962 190.758 189.580  1.00  0.00     0.066 C 
ATOM      7  O   UNL     1     185.486 191.830 190.365  1.00  0.00    -0.369 OA
ATOM      8  C   UNL     1     184.284 191.341 188.307  1.00  0.00     0.035 C 
ATOM      9  C   UNL     1     185.333 192.092 187.450  1.00  0.00     0.009 C 
ATOM     10  C   UNL     1     183.942 189.984 190.420  1.00  0.00     0.042 C 
ATOM     11  C   UNL     1     185.962 194.083 189.641  1.00  0.00     0.042 C 
ENDROOT
TORSDOF 0
ENDMDL
MODEL 8
REMARK VINA RESULT:    -4.084     12.043     13.410
REMARK INTER + INTRA:          -4.084
REMARK INTER:                  -4.084
REMARK INTRA:                   0.000
REMARK UNBOUND:                 0.000
REMARK SMILES CC1(C)O[C@]2(C)CC[C@H]1CC2
REMARK SMILES IDX 1 1 2 2 9 3 10 4 11 5 5 6 4 7 7 8 8 9 6 10 3 11
REMARK H PARENT
REMARK Flexibility Score: inf
ROOT
ATOM      1  C   UNL     1     186.567 186.059 190.368  1.00  0.00     0.042 C 
ATOM      2  C   UNL     1     185.420 186.800 191.089  1.00  0.00     0.066 C 
ATOM      3  C   UNL     1     185.347 188.305 190.620  1.00  0.00     0.021 C 
ATOM      4  C   UNL     1     185.016 188.332 189.108  1.00  0.00     0.009 C 
ATOM      5  C   UNL     1     183.767 187.457 188.845  1.00  0.00     0.035 C 
ATOM      6  C   UNL     1     183.207 186.918 190.193  1.00  0.00     0.066 C 
ATOM      7  O   UNL     1     184.197 186.098 190.818  1.00  0.00    -0.369 OA
ATOM      8  C   UNL     1     182.881 188.123 191.123  1.00  0.00     0.035 C 
ATOM      9  C   UNL     1     184.152 188.983 191.333  1.00  0.00     0.009 C 
ATOM     10  C   UNL     1     181.950 186.077 189.951  1.00  0.00     0.042 C 
ATOM     11  C   UNL     1     185.697 186.713 192.605  1.00  0.00     0.042 C 
ENDROOT
TORSDOF 0
ENDMDL
MODEL 9
REMARK VINA RESULT:    -4.073     13.608     14.722
REMARK INTER + INTRA:          -4.073
REMARK INTER:                  -4.073
REMARK INTRA:                   0.000
REMARK UNBOUND:                 0.000
REMARK SMILES CC1(C)O[C@]2(C)CC[C@H]1CC2
REMARK SMILES IDX 1 1 2 2 9 3 10 4 11 5 5 6 4 7 7 8 8 9 6 10 3 11
REMARK H PARENT
REMARK Flexibility Score: inf
ROOT
ATOM      1  C   UNL     1     185.929 193.996 189.396  1.00  0.00     0.042 C 
ATOM      2  C   UNL     1     186.498 192.561 189.366  1.00  0.00     0.066 C 
ATOM      3  C   UNL     1     185.435 191.529 189.906  1.00  0.00     0.021 C 
ATOM      4  C   UNL     1     184.210 191.544 188.959  1.00  0.00     0.009 C 
ATOM      5  C   UNL     1     184.693 191.352 187.501  1.00  0.00     0.035 C 
ATOM      6  C   UNL     1     186.231 191.116 187.482  1.00  0.00     0.066 C 
ATOM      7  O   UNL     1     186.889 192.266 188.016  1.00  0.00    -0.369 OA
ATOM      8  C   UNL     1     186.564 189.880 188.366  1.00  0.00     0.035 C 
ATOM      9  C   UNL     1     186.037 190.107 189.804  1.00  0.00     0.009 C 
ATOM     10  C   UNL     1     186.718 190.891 186.046  1.00  0.00     0.042 C 
ATOM     11  C   UNL     1     187.766 192.551 190.246  1.00  0.00     0.042 C 
ENDROOT
TORSDOF 0
ENDMDL
