MODEL 1
REMARK VINA RESULT:    -2.525      0.000      0.000
REMARK INTER + INTRA:          -3.989
REMARK INTER:                  -3.410
REMARK INTRA:                  -0.578
REMARK UNBOUND:                -0.578
REMARK SMILES CCCCCCCC(=O)[O-]
REMARK SMILES IDX 5 1 6 2 7 3 8 4 9 5 10 6 4 7 3 8 2 9 1 10
REMARK H PARENT
REMARK Flexibility Score: inf
ROOT
ATOM      1  C   UNL     1       8.803 -16.384  19.251  1.00  0.00     0.000 C 
ENDROOT
BRANCH   1   2
ATOM      2  C   UNL     1      10.307 -16.515  19.562  1.00  0.00     0.006 C 
BRANCH   2   3
ATOM      3  C   UNL     1      10.651 -17.667  20.525  1.00  0.00     0.053 C 
BRANCH   3   4
ATOM      4  C   UNL     1      11.736 -18.557  19.997  1.00  0.00     0.041 C 
ATOM      5  O   UNL     1      11.625 -19.090  18.861  1.00  0.00    -0.550 OA
ATOM      6  O   UNL     1      12.890 -18.765  20.742  1.00  0.00    -0.550 OA
ENDBRANCH   3   4
ENDBRANCH   2   3
ENDBRANCH   1   2
BRANCH   1   7
ATOM      7  C   UNL     1       8.358 -16.974  17.903  1.00  0.00     0.000 C 
BRANCH   7   8
ATOM      8  C   UNL     1       7.385 -18.153  18.055  1.00  0.00    -0.000 C 
BRANCH   8   9
ATOM      9  C   UNL     1       8.147 -19.472  18.229  1.00  0.00    -0.003 C 
ATOM     10  C   UNL     1       7.980 -20.025  19.641  1.00  0.00     0.004 C 
ENDBRANCH   8   9
ENDBRANCH   7   8
ENDBRANCH   1   7
TORSDOF 6
ENDMDL
MODEL 2
REMARK VINA RESULT:    -2.468      1.264      2.820
REMARK INTER + INTRA:          -3.912
REMARK INTER:                  -3.326
REMARK INTRA:                  -0.586
REMARK UNBOUND:                -0.578
REMARK SMILES CCCCCCCC(=O)[O-]
REMARK SMILES IDX 5 1 6 2 7 3 8 4 9 5 10 6 4 7 3 8 2 9 1 10
REMARK H PARENT
REMARK Flexibility Score: inf
ROOT
ATOM      1  C   UNL     1       7.767 -19.234  18.144  1.00  0.00     0.000 C 
ENDROOT
BRANCH   1   2
ATOM      2  C   UNL     1       8.632 -19.997  19.166  1.00  0.00     0.006 C 
BRANCH   2   3
ATOM      3  C   UNL     1       9.375 -19.088  20.163  1.00  0.00     0.053 C 
BRANCH   3   4
ATOM      4  C   UNL     1      10.673 -18.572  19.618  1.00  0.00     0.041 C 
ATOM      5  O   UNL     1      11.186 -17.520  20.083  1.00  0.00    -0.550 OA
ATOM      6  O   UNL     1      11.339 -19.277  18.623  1.00  0.00    -0.550 OA
ENDBRANCH   3   4
ENDBRANCH   2   3
ENDBRANCH   1   2
BRANCH   1   7
ATOM      7  C   UNL     1       6.530 -18.531  18.726  1.00  0.00     0.000 C 
BRANCH   7   8
ATOM      8  C   UNL     1       6.425 -17.057  18.308  1.00  0.00    -0.000 C 
BRANCH   8   9
ATOM      9  C   UNL     1       7.811 -16.471  18.016  1.00  0.00    -0.003 C 
ATOM     10  C   UNL     1       8.298 -15.603  19.173  1.00  0.00     0.004 C 
ENDBRANCH   8   9
ENDBRANCH   7   8
ENDBRANCH   1   7
TORSDOF 6
ENDMDL
MODEL 3
REMARK VINA RESULT:    -2.440      2.832      5.196
REMARK INTER + INTRA:          -3.874
REMARK INTER:                  -3.742
REMARK INTRA:                  -0.132
REMARK UNBOUND:                -0.578
REMARK SMILES CCCCCCCC(=O)[O-]
REMARK SMILES IDX 5 1 6 2 7 3 8 4 9 5 10 6 4 7 3 8 2 9 1 10
REMARK H PARENT
REMARK Flexibility Score: inf
ROOT
ATOM      1  C   UNL     1      10.902 -18.725  19.998  1.00  0.00     0.000 C 
ENDROOT
BRANCH   1   2
ATOM      2  C   UNL     1      10.647 -19.236  18.567  1.00  0.00     0.006 C 
BRANCH   2   3
ATOM      3  C   UNL     1       9.287 -18.812  17.981  1.00  0.00     0.053 C 
BRANCH   3   4
ATOM      4  C   UNL     1       8.139 -19.562  18.584  1.00  0.00     0.041 C 
ATOM      5  O   UNL     1       8.266 -20.776  18.897  1.00  0.00    -0.550 OA
ATOM      6  O   UNL     1       6.939 -18.911  18.841  1.00  0.00    -0.550 OA
ENDBRANCH   3   4
ENDBRANCH   2   3
ENDBRANCH   1   2
BRANCH   1   7
ATOM      7  C   UNL     1      12.344 -18.886  20.506  1.00  0.00     0.000 C 
BRANCH   7   8
ATOM      8  C   UNL     1      12.419 -19.425  21.942  1.00  0.00    -0.000 C 
BRANCH   8   9
ATOM      9  C   UNL     1      13.821 -19.226  22.529  1.00  0.00    -0.003 C 
ATOM     10  C   UNL     1      14.321 -20.500  23.205  1.00  0.00     0.004 C 
ENDBRANCH   8   9
ENDBRANCH   7   8
ENDBRANCH   1   7
TORSDOF 6
ENDMDL
MODEL 4
REMARK VINA RESULT:    -2.439      3.037      4.830
REMARK INTER + INTRA:          -3.873
REMARK INTER:                  -3.556
REMARK INTRA:                  -0.317
REMARK UNBOUND:                -0.578
REMARK SMILES CCCCCCCC(=O)[O-]
REMARK SMILES IDX 5 1 6 2 7 3 8 4 9 5 10 6 4 7 3 8 2 9 1 10
REMARK H PARENT
REMARK Flexibility Score: inf
ROOT
ATOM      1  C   UNL     1       9.222 -19.276  20.158  1.00  0.00     0.000 C 
ENDROOT
BRANCH   1   2
ATOM      2  C   UNL     1       8.464 -19.986  19.019  1.00  0.00     0.006 C 
BRANCH   2   3
ATOM      3  C   UNL     1       7.983 -19.041  17.902  1.00  0.00     0.053 C 
BRANCH   3   4
ATOM      4  C   UNL     1       6.839 -18.173  18.332  1.00  0.00     0.041 C 
ATOM      5  O   UNL     1       6.812 -16.953  18.018  1.00  0.00    -0.550 OA
ATOM      6  O   UNL     1       5.779 -18.720  19.044  1.00  0.00    -0.550 OA
ENDBRANCH   3   4
ENDBRANCH   2   3
ENDBRANCH   1   2
BRANCH   1   7
ATOM      7  C   UNL     1      10.322 -18.301  19.707  1.00  0.00     0.000 C 
BRANCH   7   8
ATOM      8  C   UNL     1      11.704 -18.962  19.600  1.00  0.00    -0.000 C 
BRANCH   8   9
ATOM      9  C   UNL     1      12.603 -18.543  20.770  1.00  0.00    -0.003 C 
ATOM     10  C   UNL     1      12.483 -19.520  21.936  1.00  0.00     0.004 C 
ENDBRANCH   8   9
ENDBRANCH   7   8
ENDBRANCH   1   7
TORSDOF 6
ENDMDL
MODEL 5
REMARK VINA RESULT:    -2.393      8.988     10.448
REMARK INTER + INTRA:          -3.810
REMARK INTER:                  -3.380
REMARK INTRA:                  -0.430
REMARK UNBOUND:                -0.578
REMARK SMILES CCCCCCCC(=O)[O-]
REMARK SMILES IDX 5 1 6 2 7 3 8 4 9 5 10 6 4 7 3 8 2 9 1 10
REMARK H PARENT
REMARK Flexibility Score: inf
ROOT
ATOM      1  C   UNL     1      -1.292 -19.435  19.465  1.00  0.00     0.000 C 
ENDROOT
BRANCH   1   2
ATOM      2  C   UNL     1      -0.361 -19.701  18.265  1.00  0.00     0.006 C 
BRANCH   2   3
ATOM      3  C   UNL     1       0.824 -20.632  18.586  1.00  0.00     0.053 C 
BRANCH   3   4
ATOM      4  C   UNL     1       1.945 -19.920  19.281  1.00  0.00     0.041 C 
ATOM      5  O   UNL     1       2.751 -19.207  18.625  1.00  0.00    -0.550 OA
ATOM      6  O   UNL     1       2.077 -20.010  20.661  1.00  0.00    -0.550 OA
ENDBRANCH   3   4
ENDBRANCH   2   3
ENDBRANCH   1   2
BRANCH   1   7
ATOM      7  C   UNL     1      -2.514 -20.362  19.566  1.00  0.00     0.000 C 
BRANCH   7   8
ATOM      8  C   UNL     1      -2.580 -21.125  20.897  1.00  0.00    -0.000 C 
BRANCH   8   9
ATOM      9  C   UNL     1      -1.221 -21.106  21.607  1.00  0.00    -0.003 C 
ATOM     10  C   UNL     1      -1.365 -20.674  23.063  1.00  0.00     0.004 C 
ENDBRANCH   8   9
ENDBRANCH   7   8
ENDBRANCH   1   7
TORSDOF 6
ENDMDL
MODEL 6
REMARK VINA RESULT:    -2.355      2.207      3.893
REMARK INTER + INTRA:          -3.759
REMARK INTER:                  -3.234
REMARK INTRA:                  -0.526
REMARK UNBOUND:                -0.578
REMARK SMILES CCCCCCCC(=O)[O-]
REMARK SMILES IDX 5 1 6 2 7 3 8 4 9 5 10 6 4 7 3 8 2 9 1 10
REMARK H PARENT
REMARK Flexibility Score: inf
ROOT
ATOM      1  C   UNL     1       8.598 -15.963  19.151  1.00  0.00     0.000 C 
ENDROOT
BRANCH   1   2
ATOM      2  C   UNL     1       8.529 -16.949  17.968  1.00  0.00     0.006 C 
BRANCH   2   3
ATOM      3  C   UNL     1       7.241 -17.793  17.929  1.00  0.00     0.053 C 
BRANCH   3   4
ATOM      4  C   UNL     1       7.343 -19.041  18.753  1.00  0.00     0.041 C 
ATOM      5  O   UNL     1       8.085 -19.989  18.383  1.00  0.00    -0.550 OA
ATOM      6  O   UNL     1       6.651 -19.141  19.954  1.00  0.00    -0.550 OA
ENDBRANCH   3   4
ENDBRANCH   2   3
ENDBRANCH   1   2
BRANCH   1   7
ATOM      7  C   UNL     1       9.867 -16.061  20.013  1.00  0.00     0.000 C 
BRANCH   7   8
ATOM      8  C   UNL     1      10.190 -17.499  20.445  1.00  0.00    -0.000 C 
BRANCH   8   9
ATOM      9  C   UNL     1      11.590 -17.911  19.974  1.00  0.00    -0.003 C 
ATOM     10  C   UNL     1      11.521 -19.085  19.001  1.00  0.00     0.004 C 
ENDBRANCH   8   9
ENDBRANCH   7   8
ENDBRANCH   1   7
TORSDOF 6
ENDMDL
MODEL 7
REMARK VINA RESULT:    -2.347     10.296     11.726
REMARK INTER + INTRA:          -3.748
REMARK INTER:                  -3.243
REMARK INTRA:                  -0.505
REMARK UNBOUND:                -0.578
REMARK SMILES CCCCCCCC(=O)[O-]
REMARK SMILES IDX 5 1 6 2 7 3 8 4 9 5 10 6 4 7 3 8 2 9 1 10
REMARK H PARENT
REMARK Flexibility Score: inf
ROOT
ATOM      1  C   UNL     1      -2.454 -20.367  19.319  1.00  0.00     0.000 C 
ENDROOT
BRANCH   1   2
ATOM      2  C   UNL     1      -2.876 -20.729  20.756  1.00  0.00     0.006 C 
BRANCH   2   3
ATOM      3  C   UNL     1      -1.702 -21.124  21.673  1.00  0.00     0.053 C 
BRANCH   3   4
ATOM      4  C   UNL     1      -1.654 -20.312  22.932  1.00  0.00     0.041 C 
ATOM      5  O   UNL     1      -2.292 -19.228  23.015  1.00  0.00    -0.550 OA
ATOM      6  O   UNL     1      -0.938 -20.770  24.030  1.00  0.00    -0.550 OA
ENDBRANCH   3   4
ENDBRANCH   2   3
ENDBRANCH   1   2
BRANCH   1   7
ATOM      7  C   UNL     1      -1.470 -19.191  19.199  1.00  0.00     0.000 C 
BRANCH   7   8
ATOM      8  C   UNL     1      -0.332 -19.460  18.204  1.00  0.00    -0.000 C 
BRANCH   8   9
ATOM      9  C   UNL     1       0.630 -20.524  18.747  1.00  0.00    -0.003 C 
ATOM     10  C   UNL     1       1.415 -19.998  19.944  1.00  0.00     0.004 C 
ENDBRANCH   8   9
ENDBRANCH   7   8
ENDBRANCH   1   7
TORSDOF 6
ENDMDL
MODEL 8
REMARK VINA RESULT:    -2.346      2.523      4.138
REMARK INTER + INTRA:          -3.747
REMARK INTER:                  -3.124
REMARK INTRA:                  -0.623
REMARK UNBOUND:                -0.578
REMARK SMILES CCCCCCCC(=O)[O-]
REMARK SMILES IDX 5 1 6 2 7 3 8 4 9 5 10 6 4 7 3 8 2 9 1 10
REMARK H PARENT
REMARK Flexibility Score: inf
ROOT
ATOM      1  C   UNL     1       9.291 -18.517  18.131  1.00  0.00     0.000 C 
ENDROOT
BRANCH   1   2
ATOM      2  C   UNL     1       8.003 -19.354  18.263  1.00  0.00     0.006 C 
BRANCH   2   3
ATOM      3  C   UNL     1       8.143 -20.578  19.187  1.00  0.00     0.053 C 
BRANCH   3   4
ATOM      4  C   UNL     1       7.810 -20.265  20.614  1.00  0.00     0.041 C 
ATOM      5  O   UNL     1       8.238 -21.000  21.544  1.00  0.00    -0.550 OA
ATOM      6  O   UNL     1       7.062 -19.136  20.924  1.00  0.00    -0.550 OA
ENDBRANCH   3   4
ENDBRANCH   2   3
ENDBRANCH   1   2
BRANCH   1   7
ATOM      7  C   UNL     1      10.602 -19.294  18.334  1.00  0.00     0.000 C 
BRANCH   7   8
ATOM      8  C   UNL     1      11.422 -18.787  19.530  1.00  0.00    -0.000 C 
BRANCH   8   9
ATOM      9  C   UNL     1      10.726 -17.599  20.205  1.00  0.00    -0.003 C 
ATOM     10  C   UNL     1      10.460 -17.882  21.681  1.00  0.00     0.004 C 
ENDBRANCH   8   9
ENDBRANCH   7   8
ENDBRANCH   1   7
TORSDOF 6
ENDMDL
