MODEL 1
REMARK VINA RESULT:    -4.208      0.000      0.000
REMARK INTER + INTRA:          -5.480
REMARK INTER:                  -5.192
REMARK INTRA:                  -0.288
REMARK UNBOUND:                -0.288
REMARK SMILES C=CCc1ccc(OC)c(OC)c1
REMARK SMILES IDX 7 1 10 2 13 3 4 4 5 5 6 6 8 7 9 8 11 9 12 10 3 11 2 12 1 13
REMARK H PARENT
REMARK Flexibility Score: inf
ROOT
ATOM      1  C   UNL     1      26.237  37.762  19.508  1.00  0.00     0.160 A 
ATOM      2  C   UNL     1      25.724  38.466  20.610  1.00  0.00     0.160 A 
ATOM      3  C   UNL     1      26.074  39.817  20.799  1.00  0.00     0.054 A 
ATOM      4  C   UNL     1      26.926  40.467  19.892  1.00  0.00    -0.040 A 
ATOM      5  C   UNL     1      27.443  39.754  18.802  1.00  0.00     0.008 A 
ATOM      6  C   UNL     1      27.100  38.415  18.607  1.00  0.00     0.051 A 
ENDROOT
BRANCH   1   7
ATOM      7  O   UNL     1      25.869  36.417  19.345  1.00  0.00    -0.493 OA
ATOM      8  C   UNL     1      24.752  35.973  18.583  1.00  0.00     0.278 C 
ENDBRANCH   1   7
BRANCH   2   9
ATOM      9  O   UNL     1      24.871  37.787  21.495  1.00  0.00    -0.493 OA
ATOM     10  C   UNL     1      23.492  38.087  21.678  1.00  0.00     0.278 C 
ENDBRANCH   2   9
BRANCH   4  11
ATOM     11  C   UNL     1      27.324  41.902  20.115  1.00  0.00     0.062 C 
BRANCH  11  12
ATOM     12  C   UNL     1      27.260  42.678  18.829  1.00  0.00    -0.030 C 
ATOM     13  C   UNL     1      26.805  43.933  18.788  1.00  0.00     0.004 C 
ENDBRANCH  11  12
ENDBRANCH   4  11
TORSDOF 4
ENDMDL
MODEL 2
REMARK VINA RESULT:    -4.111      6.675      8.902
REMARK INTER + INTRA:          -5.360
REMARK INTER:                  -5.030
REMARK INTRA:                  -0.331
REMARK UNBOUND:                -0.288
REMARK SMILES C=CCc1ccc(OC)c(OC)c1
REMARK SMILES IDX 7 1 10 2 13 3 4 4 5 5 6 6 8 7 9 8 11 9 12 10 3 11 2 12 1 13
REMARK H PARENT
REMARK Flexibility Score: inf
ROOT
ATOM      1  C   UNL     1      28.685  33.641  21.905  1.00  0.00     0.160 A 
ATOM      2  C   UNL     1      28.144  33.929  23.169  1.00  0.00     0.160 A 
ATOM      3  C   UNL     1      28.052  32.909  24.136  1.00  0.00     0.054 A 
ATOM      4  C   UNL     1      28.501  31.611  23.849  1.00  0.00    -0.040 A 
ATOM      5  C   UNL     1      29.028  31.330  22.582  1.00  0.00     0.008 A 
ATOM      6  C   UNL     1      29.124  32.335  21.619  1.00  0.00     0.051 A 
ENDROOT
BRANCH   1   7
ATOM      7  O   UNL     1      28.766  34.678  20.962  1.00  0.00    -0.493 OA
ATOM      8  C   UNL     1      27.834  34.882  19.906  1.00  0.00     0.278 C 
ENDBRANCH   1   7
BRANCH   2   9
ATOM      9  O   UNL     1      27.708  35.238  23.425  1.00  0.00    -0.493 OA
ATOM     10  C   UNL     1      26.426  35.577  23.943  1.00  0.00     0.278 C 
ENDBRANCH   2   9
BRANCH   4  11
ATOM     11  C   UNL     1      28.371  30.514  24.874  1.00  0.00     0.062 C 
BRANCH  11  12
ATOM     12  C   UNL     1      27.447  29.435  24.385  1.00  0.00    -0.030 C 
ATOM     13  C   UNL     1      26.156  29.405  24.730  1.00  0.00     0.004 C 
ENDBRANCH  11  12
ENDBRANCH   4  11
TORSDOF 4
ENDMDL
MODEL 3
REMARK VINA RESULT:    -3.914      1.067      2.554
REMARK INTER + INTRA:          -5.117
REMARK INTER:                  -4.824
REMARK INTRA:                  -0.294
REMARK UNBOUND:                -0.288
REMARK SMILES C=CCc1ccc(OC)c(OC)c1
REMARK SMILES IDX 7 1 10 2 13 3 4 4 5 5 6 6 8 7 9 8 11 9 12 10 3 11 2 12 1 13
REMARK H PARENT
REMARK Flexibility Score: inf
ROOT
ATOM      1  C   UNL     1      25.938  38.513  20.745  1.00  0.00     0.160 A 
ATOM      2  C   UNL     1      26.538  38.107  19.542  1.00  0.00     0.160 A 
ATOM      3  C   UNL     1      27.207  39.054  18.742  1.00  0.00     0.054 A 
ATOM      4  C   UNL     1      27.285  40.397  19.141  1.00  0.00    -0.040 A 
ATOM      5  C   UNL     1      26.674  40.796  20.337  1.00  0.00     0.008 A 
ATOM      6  C   UNL     1      26.010  39.864  21.136  1.00  0.00     0.051 A 
ENDROOT
BRANCH   1   7
ATOM      7  O   UNL     1      25.280  37.547  21.522  1.00  0.00    -0.493 OA
ATOM      8  C   UNL     1      23.867  37.386  21.581  1.00  0.00     0.278 C 
ENDBRANCH   1   7
BRANCH   2   9
ATOM      9  O   UNL     1      26.445  36.755  19.175  1.00  0.00    -0.493 OA
ATOM     10  C   UNL     1      27.464  35.786  19.395  1.00  0.00     0.278 C 
ENDBRANCH   2   9
BRANCH   4  11
ATOM     11  C   UNL     1      27.973  41.413  18.268  1.00  0.00     0.062 C 
BRANCH  11  12
ATOM     12  C   UNL     1      27.544  42.807  18.633  1.00  0.00    -0.030 C 
ATOM     13  C   UNL     1      28.419  43.815  18.703  1.00  0.00     0.004 C 
ENDBRANCH  11  12
ENDBRANCH   4  11
TORSDOF 4
ENDMDL
MODEL 4
REMARK VINA RESULT:    -3.888      9.291     10.618
REMARK INTER + INTRA:          -5.086
REMARK INTER:                  -4.833
REMARK INTRA:                  -0.252
REMARK UNBOUND:                -0.288
REMARK SMILES C=CCc1ccc(OC)c(OC)c1
REMARK SMILES IDX 7 1 10 2 13 3 4 4 5 5 6 6 8 7 9 8 11 9 12 10 3 11 2 12 1 13
REMARK H PARENT
REMARK Flexibility Score: inf
ROOT
ATOM      1  C   UNL     1      28.719  28.788  24.986  1.00  0.00     0.160 A 
ATOM      2  C   UNL     1      28.499  30.027  25.610  1.00  0.00     0.160 A 
ATOM      3  C   UNL     1      28.514  31.207  24.841  1.00  0.00     0.054 A 
ATOM      4  C   UNL     1      28.740  31.154  23.457  1.00  0.00    -0.040 A 
ATOM      5  C   UNL     1      28.969  29.914  22.845  1.00  0.00     0.008 A 
ATOM      6  C   UNL     1      28.955  28.741  23.599  1.00  0.00     0.051 A 
ENDROOT
BRANCH   1   7
ATOM      7  O   UNL     1      28.696  27.629  25.778  1.00  0.00    -0.493 OA
ATOM      8  C   UNL     1      27.942  26.460  25.476  1.00  0.00     0.278 C 
ENDBRANCH   1   7
BRANCH   2   9
ATOM      9  O   UNL     1      28.273  30.044  26.995  1.00  0.00    -0.493 OA
ATOM     10  C   UNL     1      29.125  30.674  27.946  1.00  0.00     0.278 C 
ENDBRANCH   2   9
BRANCH   4  11
ATOM     11  C   UNL     1      28.788  32.420  22.643  1.00  0.00     0.062 C 
BRANCH  11  12
ATOM     12  C   UNL     1      28.341  33.598  23.463  1.00  0.00    -0.030 C 
ATOM     13  C   UNL     1      27.988  34.755  22.896  1.00  0.00     0.004 C 
ENDBRANCH  11  12
ENDBRANCH   4  11
TORSDOF 4
ENDMDL
MODEL 5
REMARK VINA RESULT:    -3.877     10.215     11.719
REMARK INTER + INTRA:          -5.072
REMARK INTER:                  -4.810
REMARK INTRA:                  -0.262
REMARK UNBOUND:                -0.288
REMARK SMILES C=CCc1ccc(OC)c(OC)c1
REMARK SMILES IDX 7 1 10 2 13 3 4 4 5 5 6 6 8 7 9 8 11 9 12 10 3 11 2 12 1 13
REMARK H PARENT
REMARK Flexibility Score: inf
ROOT
ATOM      1  C   UNL     1      27.987  27.511  25.273  1.00  0.00     0.160 A 
ATOM      2  C   UNL     1      27.103  28.401  25.903  1.00  0.00     0.160 A 
ATOM      3  C   UNL     1      27.124  29.767  25.557  1.00  0.00     0.054 A 
ATOM      4  C   UNL     1      28.017  30.242  24.584  1.00  0.00    -0.040 A 
ATOM      5  C   UNL     1      28.903  29.349  23.968  1.00  0.00     0.008 A 
ATOM      6  C   UNL     1      28.888  27.995  24.304  1.00  0.00     0.051 A 
ENDROOT
BRANCH   1   7
ATOM      7  O   UNL     1      27.942  26.156  25.636  1.00  0.00    -0.493 OA
ATOM      8  C   UNL     1      29.086  25.357  25.915  1.00  0.00     0.278 C 
ENDBRANCH   1   7
BRANCH   2   9
ATOM      9  O   UNL     1      26.220  27.892  26.868  1.00  0.00    -0.493 OA
ATOM     10  C   UNL     1      25.027  28.541  27.296  1.00  0.00     0.278 C 
ENDBRANCH   2   9
BRANCH   4  11
ATOM     11  C   UNL     1      28.059  31.708  24.240  1.00  0.00     0.062 C 
BRANCH  11  12
ATOM     12  C   UNL     1      28.853  31.937  22.984  1.00  0.00    -0.030 C 
ATOM     13  C   UNL     1      28.697  33.040  22.245  1.00  0.00     0.004 C 
ENDBRANCH  11  12
ENDBRANCH   4  11
TORSDOF 4
ENDMDL
MODEL 6
REMARK VINA RESULT:    -3.775      2.055      4.834
REMARK INTER + INTRA:          -4.946
REMARK INTER:                  -4.672
REMARK INTRA:                  -0.274
REMARK UNBOUND:                -0.288
REMARK SMILES C=CCc1ccc(OC)c(OC)c1
REMARK SMILES IDX 7 1 10 2 13 3 4 4 5 5 6 6 8 7 9 8 11 9 12 10 3 11 2 12 1 13
REMARK H PARENT
REMARK Flexibility Score: inf
ROOT
ATOM      1  C   UNL     1      26.367  39.792  20.407  1.00  0.00     0.160 A 
ATOM      2  C   UNL     1      25.447  38.839  20.873  1.00  0.00     0.160 A 
ATOM      3  C   UNL     1      25.568  37.496  20.465  1.00  0.00     0.054 A 
ATOM      4  C   UNL     1      26.603  37.102  19.603  1.00  0.00    -0.040 A 
ATOM      5  C   UNL     1      27.509  38.062  19.134  1.00  0.00     0.008 A 
ATOM      6  C   UNL     1      27.398  39.394  19.534  1.00  0.00     0.051 A 
ENDROOT
BRANCH   1   7
ATOM      7  O   UNL     1      26.223  41.122  20.832  1.00  0.00    -0.493 OA
ATOM      8  C   UNL     1      27.202  41.843  21.572  1.00  0.00     0.278 C 
ENDBRANCH   1   7
BRANCH   2   9
ATOM      9  O   UNL     1      24.426  39.265  21.737  1.00  0.00    -0.493 OA
ATOM     10  C   UNL     1      23.178  38.601  21.903  1.00  0.00     0.278 C 
ENDBRANCH   2   9
BRANCH   4  11
ATOM     11  C   UNL     1      26.710  35.672  19.143  1.00  0.00     0.062 C 
BRANCH  11  12
ATOM     12  C   UNL     1      28.106  35.152  19.342  1.00  0.00    -0.030 C 
ATOM     13  C   UNL     1      28.346  34.033  20.031  1.00  0.00     0.004 C 
ENDBRANCH  11  12
ENDBRANCH   4  11
TORSDOF 4
ENDMDL
MODEL 7
REMARK VINA RESULT:    -3.595     11.068     13.490
REMARK INTER + INTRA:          -4.723
REMARK INTER:                  -4.462
REMARK INTRA:                  -0.261
REMARK UNBOUND:                -0.288
REMARK SMILES C=CCc1ccc(OC)c(OC)c1
REMARK SMILES IDX 7 1 10 2 13 3 4 4 5 5 6 6 8 7 9 8 11 9 12 10 3 11 2 12 1 13
REMARK H PARENT
REMARK Flexibility Score: inf
ROOT
ATOM      1  C   UNL     1      27.569  28.698  24.841  1.00  0.00     0.160 A 
ATOM      2  C   UNL     1      27.569  27.858  25.967  1.00  0.00     0.160 A 
ATOM      3  C   UNL     1      26.483  27.893  26.863  1.00  0.00     0.054 A 
ATOM      4  C   UNL     1      25.399  28.755  26.637  1.00  0.00    -0.040 A 
ATOM      5  C   UNL     1      25.412  29.598  25.517  1.00  0.00     0.008 A 
ATOM      6  C   UNL     1      26.483  29.568  24.624  1.00  0.00     0.051 A 
ENDROOT
BRANCH   1   7
ATOM      7  O   UNL     1      28.664  28.640  23.965  1.00  0.00    -0.493 OA
ATOM      8  C   UNL     1      28.937  29.601  22.951  1.00  0.00     0.278 C 
ENDBRANCH   1   7
BRANCH   2   9
ATOM      9  O   UNL     1      28.667  27.006  26.161  1.00  0.00    -0.493 OA
ATOM     10  C   UNL     1      28.666  25.610  25.882  1.00  0.00     0.278 C 
ENDBRANCH   2   9
BRANCH   4  11
ATOM     11  C   UNL     1      24.254  28.813  27.614  1.00  0.00     0.062 C 
BRANCH  11  12
ATOM     12  C   UNL     1      23.930  27.442  28.137  1.00  0.00    -0.030 C 
ATOM     13  C   UNL     1      22.717  26.901  27.983  1.00  0.00     0.004 C 
ENDBRANCH  11  12
ENDBRANCH   4  11
TORSDOF 4
ENDMDL
MODEL 8
REMARK VINA RESULT:    -3.487     12.402     14.356
REMARK INTER + INTRA:          -4.591
REMARK INTER:                  -4.321
REMARK INTRA:                  -0.270
REMARK UNBOUND:                -0.288
REMARK SMILES C=CCc1ccc(OC)c(OC)c1
REMARK SMILES IDX 7 1 10 2 13 3 4 4 5 5 6 6 8 7 9 8 11 9 12 10 3 11 2 12 1 13
REMARK H PARENT
REMARK Flexibility Score: inf
ROOT
ATOM      1  C   UNL     1      24.417  27.010  27.938  1.00  0.00     0.160 A 
ATOM      2  C   UNL     1      25.390  26.076  27.547  1.00  0.00     0.160 A 
ATOM      3  C   UNL     1      26.524  26.507  26.831  1.00  0.00     0.054 A 
ATOM      4  C   UNL     1      26.692  27.863  26.510  1.00  0.00    -0.040 A 
ATOM      5  C   UNL     1      25.711  28.787  26.894  1.00  0.00     0.008 A 
ATOM      6  C   UNL     1      24.585  28.368  27.604  1.00  0.00     0.051 A 
ENDROOT
BRANCH   1   7
ATOM      7  O   UNL     1      23.299  26.551  28.652  1.00  0.00    -0.493 OA
ATOM      8  C   UNL     1      21.998  27.123  28.567  1.00  0.00     0.278 C 
ENDBRANCH   1   7
BRANCH   2   9
ATOM      9  O   UNL     1      25.193  24.728  27.887  1.00  0.00    -0.493 OA
ATOM     10  C   UNL     1      25.822  24.070  28.982  1.00  0.00     0.278 C 
ENDBRANCH   2   9
BRANCH   4  11
ATOM     11  C   UNL     1      27.889  28.316  25.716  1.00  0.00     0.062 C 
BRANCH  11  12
ATOM     12  C   UNL     1      27.725  29.743  25.275  1.00  0.00    -0.030 C 
ATOM     13  C   UNL     1      28.540  30.710  25.707  1.00  0.00     0.004 C 
ENDBRANCH  11  12
ENDBRANCH   4  11
TORSDOF 4
ENDMDL
