MODEL 1
REMARK VINA RESULT:    -6.319      0.000      0.000
REMARK INTER + INTRA:          -9.902
REMARK INTER:                  -9.274
REMARK INTRA:                  -0.628
REMARK UNBOUND:                -0.628
REMARK SMILES CC(C)(O)CC[C@H](O)[C@](C)(O)[C@@H]1CC[C@]2(O)C3=CC(=O)[C@@H]4C[C@H](O)[C@H](O)C[C@@]4(C)[C@H]3CC[C@]12C
REMARK SMILES IDX 6 1 7 2 9 3 10 4 12 5 34 6 33 7 32 8 15 9 31 10 17 11 14 12
REMARK SMILES IDX 13 13 30 14 18 15 28 16 19 17 21 18 27 19 29 20 20 21 22 22
REMARK SMILES IDX 25 23 23 24 16 25 26 27 24 29 11 31 8 33 5 35 2 36 1 37 3 38
REMARK SMILES IDX 4 39
REMARK H PARENT 16 26 26 28 24 30 11 32 8 34 4 40
REMARK Flexibility Score: inf
ROOT
ATOM      1  C   UNL     1      14.635 -21.623 -37.911  1.00  0.00     0.038 C 
ENDROOT
BRANCH   1   2
ATOM      2  C   UNL     1      14.017 -23.030 -37.721  1.00  0.00     0.146 C 
BRANCH   2   3
ATOM      3  C   UNL     1      12.628 -23.244 -38.432  1.00  0.00     0.091 C 
ATOM      4  C   UNL     1      12.571 -24.660 -39.078  1.00  0.00     0.045 C 
BRANCH   3   5
ATOM      5  C   UNL     1      11.470 -22.996 -37.369  1.00  0.00     0.032 C 
ATOM      6  C   UNL     1      11.151 -20.425 -37.283  1.00  0.00     0.015 C 
ATOM      7  C   UNL     1      10.476 -21.799 -37.549  1.00  0.00     0.006 C 
ATOM      8  C   UNL     1       9.825 -21.801 -38.972  1.00  0.00     0.011 C 
ATOM      9  C   UNL     1       9.415 -22.110 -36.446  1.00  0.00     0.092 C 
ATOM     10  C   UNL     1       8.561 -20.926 -39.089  1.00  0.00     0.009 C 
ATOM     11  C   UNL     1       8.124 -21.309 -36.691  1.00  0.00    -0.031 C 
ATOM     12  C   UNL     1       9.236 -23.643 -36.525  1.00  0.00     0.041 C 
ATOM     13  C   UNL     1      10.568 -24.208 -37.035  1.00  0.00     0.010 C 
ATOM     14  C   UNL     1       7.490 -21.402 -38.080  1.00  0.00     0.025 C 
ATOM     15  C   UNL     1       7.752 -20.330 -35.831  1.00  0.00     0.050 C 
ATOM     16  C   UNL     1       6.071 -20.708 -38.160  1.00  0.00    -0.013 C 
ATOM     17  C   UNL     1       6.714 -19.344 -36.160  1.00  0.00     0.159 C 
ATOM     18  C   UNL     1       6.172 -19.275 -37.560  1.00  0.00     0.070 C 
ATOM     19  C   UNL     1       5.558 -20.597 -39.633  1.00  0.00     0.042 C 
ATOM     20  C   UNL     1       5.088 -21.607 -37.343  1.00  0.00     0.013 C 
ATOM     21  O   UNL     1       6.375 -18.492 -35.291  1.00  0.00    -0.295 OA
ATOM     22  C   UNL     1       4.841 -18.495 -37.653  1.00  0.00     0.047 C 
ATOM     23  C   UNL     1       4.245 -19.799 -39.790  1.00  0.00     0.143 C 
ATOM     24  C   UNL     1       4.357 -18.411 -39.115  1.00  0.00     0.143 C 
BRANCH   9  25
ATOM     25  O   UNL     1       9.975 -21.804 -35.181  1.00  0.00    -0.385 OA
ATOM     26  H   UNL     1      10.907 -22.153 -35.155  1.00  0.00     0.211 HD
ENDBRANCH   9  25
BRANCH  23  27
ATOM     27  O   UNL     1       3.159 -20.540 -39.300  1.00  0.00    -0.390 OA
ATOM     28  H   UNL     1       2.635 -20.848 -40.085  1.00  0.00     0.211 HD
ENDBRANCH  23  27
BRANCH  24  29
ATOM     29  O   UNL     1       3.150 -17.696 -39.212  1.00  0.00    -0.390 OA
ATOM     30  H   UNL     1       2.931 -17.341 -38.312  1.00  0.00     0.211 HD
ENDBRANCH  24  29
ENDBRANCH   3   5
BRANCH   3  31
ATOM     31  O   UNL     1      12.494 -22.267 -39.440  1.00  0.00    -0.387 OA
ATOM     32  H   UNL     1      12.039 -22.659 -40.229  1.00  0.00     0.211 HD
ENDBRANCH   3  31
ENDBRANCH   2   3
BRANCH   2  33
ATOM     33  O   UNL     1      14.937 -23.993 -38.175  1.00  0.00    -0.390 OA
ATOM     34  H   UNL     1      14.743 -24.841 -37.696  1.00  0.00     0.211 HD
ENDBRANCH   2  33
ENDBRANCH   1   2
BRANCH   1  35
ATOM     35  C   UNL     1      15.943 -21.618 -38.738  1.00  0.00     0.037 C 
BRANCH  35  36
ATOM     36  C   UNL     1      15.808 -21.364 -40.268  1.00  0.00     0.059 C 
ATOM     37  C   UNL     1      14.921 -20.117 -40.473  1.00  0.00     0.042 C 
ATOM     38  C   UNL     1      17.184 -21.118 -40.922  1.00  0.00     0.042 C 
BRANCH  36  39
ATOM     39  O   UNL     1      15.180 -22.468 -40.873  1.00  0.00    -0.390 OA
ATOM     40  H   UNL     1      15.304 -23.250 -40.277  1.00  0.00     0.211 HD
ENDBRANCH  36  39
ENDBRANCH  35  36
ENDBRANCH   1  35
TORSDOF 11
ENDMDL
MODEL 2
REMARK VINA RESULT:    -6.182      2.378      4.657
REMARK INTER + INTRA:          -9.701
REMARK INTER:                  -9.504
REMARK INTRA:                  -0.198
REMARK UNBOUND:                -0.628
REMARK SMILES CC(C)(O)CC[C@H](O)[C@](C)(O)[C@@H]1CC[C@]2(O)C3=CC(=O)[C@@H]4C[C@H](O)[C@H](O)C[C@@]4(C)[C@H]3CC[C@]12C
REMARK SMILES IDX 6 1 7 2 9 3 10 4 12 5 34 6 33 7 32 8 15 9 31 10 17 11 14 12
REMARK SMILES IDX 13 13 30 14 18 15 28 16 19 17 21 18 27 19 29 20 20 21 22 22
REMARK SMILES IDX 25 23 23 24 16 25 26 27 24 29 11 31 8 33 5 35 2 36 1 37 3 38
REMARK SMILES IDX 4 39
REMARK H PARENT 16 26 26 28 24 30 11 32 8 34 4 40
REMARK Flexibility Score: inf
ROOT
ATOM      1  C   UNL     1      11.824 -22.558 -37.427  1.00  0.00     0.038 C 
ENDROOT
BRANCH   1   2
ATOM      2  C   UNL     1      10.516 -21.847 -36.999  1.00  0.00     0.146 C 
BRANCH   2   3
ATOM      3  C   UNL     1       9.203 -22.690 -37.218  1.00  0.00     0.091 C 
ATOM      4  C   UNL     1       8.612 -23.121 -35.843  1.00  0.00     0.045 C 
BRANCH   3   5
ATOM      5  C   UNL     1       8.188 -21.830 -38.093  1.00  0.00     0.032 C 
ATOM      6  C   UNL     1       5.943 -21.888 -36.799  1.00  0.00     0.015 C 
ATOM      7  C   UNL     1       7.063 -20.992 -37.398  1.00  0.00     0.006 C 
ATOM      8  C   UNL     1       7.643 -20.058 -36.285  1.00  0.00     0.011 C 
ATOM      9  C   UNL     1       6.512 -20.159 -38.599  1.00  0.00     0.092 C 
ATOM     10  C   UNL     1       6.690 -18.929 -35.848  1.00  0.00     0.009 C 
ATOM     11  C   UNL     1       5.678 -18.966 -38.099  1.00  0.00    -0.031 C 
ATOM     12  C   UNL     1       7.781 -19.761 -39.387  1.00  0.00     0.041 C 
ATOM     13  C   UNL     1       8.815 -20.864 -39.127  1.00  0.00     0.010 C 
ATOM     14  C   UNL     1       6.322 -18.043 -37.061  1.00  0.00     0.025 C 
ATOM     15  C   UNL     1       4.343 -18.923 -38.321  1.00  0.00     0.050 C 
ATOM     16  C   UNL     1       5.463 -16.748 -36.770  1.00  0.00    -0.013 C 
ATOM     17  C   UNL     1       3.457 -17.981 -37.622  1.00  0.00     0.159 C 
ATOM     18  C   UNL     1       3.993 -17.167 -36.478  1.00  0.00     0.070 C 
ATOM     19  C   UNL     1       6.008 -15.952 -35.540  1.00  0.00     0.042 C 
ATOM     20  C   UNL     1       5.564 -15.850 -38.045  1.00  0.00     0.013 C 
ATOM     21  O   UNL     1       2.229 -17.955 -37.918  1.00  0.00    -0.295 OA
ATOM     22  C   UNL     1       3.090 -15.966 -36.119  1.00  0.00     0.047 C 
ATOM     23  C   UNL     1       5.128 -14.755 -35.115  1.00  0.00     0.143 C 
ATOM     24  C   UNL     1       3.658 -15.196 -34.910  1.00  0.00     0.143 C 
BRANCH   9  25
ATOM     25  O   UNL     1       5.739 -21.012 -39.425  1.00  0.00    -0.385 OA
ATOM     26  H   UNL     1       4.775 -20.825 -39.257  1.00  0.00     0.211 HD
ENDBRANCH   9  25
BRANCH  23  27
ATOM     27  O   UNL     1       5.242 -13.709 -36.043  1.00  0.00    -0.390 OA
ATOM     28  H   UNL     1       6.159 -13.750 -36.421  1.00  0.00     0.211 HD
ENDBRANCH  23  27
BRANCH  24  29
ATOM     29  O   UNL     1       2.840 -14.104 -34.569  1.00  0.00    -0.390 OA
ATOM     30  H   UNL     1       2.787 -14.059 -33.579  1.00  0.00     0.211 HD
ENDBRANCH  24  29
ENDBRANCH   3   5
BRANCH   3  31
ATOM     31  O   UNL     1       9.537 -23.839 -37.964  1.00  0.00    -0.387 OA
ATOM     32  H   UNL     1      10.434 -24.164 -37.695  1.00  0.00     0.211 HD
ENDBRANCH   3  31
ENDBRANCH   2   3
BRANCH   2  33
ATOM     33  O   UNL     1      10.624 -21.478 -35.647  1.00  0.00    -0.390 OA
ATOM     34  H   UNL     1      10.493 -22.297 -35.102  1.00  0.00     0.211 HD
ENDBRANCH   2  33
ENDBRANCH   1   2
BRANCH   1  35
ATOM     35  C   UNL     1      12.646 -21.780 -38.481  1.00  0.00     0.037 C 
BRANCH  35  36
ATOM     36  C   UNL     1      13.771 -20.846 -37.947  1.00  0.00     0.059 C 
ATOM     37  C   UNL     1      14.988 -21.721 -37.575  1.00  0.00     0.042 C 
ATOM     38  C   UNL     1      14.199 -19.814 -39.011  1.00  0.00     0.042 C 
BRANCH  36  39
ATOM     39  O   UNL     1      13.321 -20.185 -36.790  1.00  0.00    -0.390 OA
ATOM     40  H   UNL     1      13.571 -20.739 -36.008  1.00  0.00     0.211 HD
ENDBRANCH  36  39
ENDBRANCH  35  36
ENDBRANCH   1  35
TORSDOF 11
ENDMDL
MODEL 3
REMARK VINA RESULT:    -6.148      8.997     11.256
REMARK INTER + INTRA:          -9.652
REMARK INTER:                  -9.474
REMARK INTRA:                  -0.178
REMARK UNBOUND:                -0.628
REMARK SMILES CC(C)(O)CC[C@H](O)[C@](C)(O)[C@@H]1CC[C@]2(O)C3=CC(=O)[C@@H]4C[C@H](O)[C@H](O)C[C@@]4(C)[C@H]3CC[C@]12C
REMARK SMILES IDX 6 1 7 2 9 3 10 4 12 5 34 6 33 7 32 8 15 9 31 10 17 11 14 12
REMARK SMILES IDX 13 13 30 14 18 15 28 16 19 17 21 18 27 19 29 20 20 21 22 22
REMARK SMILES IDX 25 23 23 24 16 25 26 27 24 29 11 31 8 33 5 35 2 36 1 37 3 38
REMARK SMILES IDX 4 39
REMARK H PARENT 16 26 26 28 24 30 11 32 8 34 4 40
REMARK Flexibility Score: inf
ROOT
ATOM      1  C   UNL     1      13.306 -11.906 -43.376  1.00  0.00     0.038 C 
ENDROOT
BRANCH   1   2
ATOM      2  C   UNL     1      12.525 -11.041 -44.396  1.00  0.00     0.146 C 
BRANCH   2   3
ATOM      3  C   UNL     1      11.028 -10.746 -44.002  1.00  0.00     0.091 C 
ATOM      4  C   UNL     1      10.827  -9.217 -43.782  1.00  0.00     0.045 C 
BRANCH   3   5
ATOM      5  C   UNL     1      10.079 -11.344 -45.132  1.00  0.00     0.032 C 
ATOM      6  C   UNL     1      11.022 -13.703 -45.647  1.00  0.00     0.015 C 
ATOM      7  C   UNL     1       9.786 -12.881 -45.183  1.00  0.00     0.006 C 
ATOM      8  C   UNL     1       9.283 -13.419 -43.802  1.00  0.00     0.011 C 
ATOM      9  C   UNL     1       8.654 -12.944 -46.258  1.00  0.00     0.092 C 
ATOM     10  C   UNL     1       8.596 -14.796 -43.874  1.00  0.00     0.009 C 
ATOM     11  C   UNL     1       7.915 -14.292 -46.192  1.00  0.00    -0.031 C 
ATOM     12  C   UNL     1       7.770 -11.718 -45.935  1.00  0.00     0.041 C 
ATOM     13  C   UNL     1       8.693 -10.675 -45.294  1.00  0.00     0.010 C 
ATOM     14  C   UNL     1       7.381 -14.737 -44.829  1.00  0.00     0.025 C 
ATOM     15  C   UNL     1       8.014 -15.178 -47.212  1.00  0.00     0.050 C 
ATOM     16  C   UNL     1       6.470 -16.027 -44.912  1.00  0.00    -0.013 C 
ATOM     17  C   UNL     1       7.589 -16.579 -47.084  1.00  0.00     0.159 C 
ATOM     18  C   UNL     1       7.214 -17.121 -45.734  1.00  0.00     0.070 C 
ATOM     19  C   UNL     1       6.144 -16.603 -43.496  1.00  0.00     0.042 C 
ATOM     20  C   UNL     1       5.140 -15.590 -45.606  1.00  0.00     0.013 C 
ATOM     21  O   UNL     1       7.657 -17.338 -48.092  1.00  0.00    -0.295 OA
ATOM     22  C   UNL     1       6.423 -18.446 -45.815  1.00  0.00     0.047 C 
ATOM     23  C   UNL     1       5.379 -17.945 -43.516  1.00  0.00     0.143 C 
ATOM     24  C   UNL     1       6.107 -18.983 -44.405  1.00  0.00     0.143 C 
BRANCH   9  25
ATOM     25  O   UNL     1       9.231 -12.739 -47.536  1.00  0.00    -0.385 OA
ATOM     26  H   UNL     1       9.466 -11.775 -47.624  1.00  0.00     0.211 HD
ENDBRANCH   9  25
BRANCH  23  27
ATOM     27  O   UNL     1       4.049 -17.746 -43.916  1.00  0.00    -0.390 OA
ATOM     28  H   UNL     1       3.982 -18.034 -44.864  1.00  0.00     0.211 HD
ENDBRANCH  23  27
BRANCH  24  29
ATOM     29  O   UNL     1       5.394 -20.194 -44.467  1.00  0.00    -0.390 OA
ATOM     30  H   UNL     1       4.510 -20.006 -44.876  1.00  0.00     0.211 HD
ENDBRANCH  24  29
ENDBRANCH   3   5
BRANCH   3  31
ATOM     31  O   UNL     1      10.744 -11.431 -42.804  1.00  0.00    -0.387 OA
ATOM     32  H   UNL     1      10.084 -12.151 -42.978  1.00  0.00     0.211 HD
ENDBRANCH   3  31
ENDBRANCH   2   3
BRANCH   2  33
ATOM     33  O   UNL     1      13.215  -9.830 -44.584  1.00  0.00    -0.390 OA
ATOM     34  H   UNL     1      13.502  -9.794 -45.534  1.00  0.00     0.211 HD
ENDBRANCH   2  33
ENDBRANCH   1   2
BRANCH   1  35
ATOM     35  C   UNL     1      14.330 -12.868 -44.023  1.00  0.00     0.037 C 
BRANCH  35  36
ATOM     36  C   UNL     1      15.735 -12.284 -44.351  1.00  0.00     0.059 C 
ATOM     37  C   UNL     1      16.300 -11.636 -43.068  1.00  0.00     0.042 C 
ATOM     38  C   UNL     1      16.706 -13.385 -44.829  1.00  0.00     0.042 C 
BRANCH  36  39
ATOM     39  O   UNL     1      15.611 -11.291 -45.340  1.00  0.00    -0.390 OA
ATOM     40  H   UNL     1      16.230 -10.554 -45.107  1.00  0.00     0.211 HD
ENDBRANCH  36  39
ENDBRANCH  35  36
ENDBRANCH   1  35
TORSDOF 11
ENDMDL
MODEL 4
REMARK VINA RESULT:    -6.042      2.523      9.088
REMARK INTER + INTRA:          -9.496
REMARK INTER:                  -9.418
REMARK INTRA:                  -0.078
REMARK UNBOUND:                -0.628
REMARK SMILES CC(C)(O)CC[C@H](O)[C@](C)(O)[C@@H]1CC[C@]2(O)C3=CC(=O)[C@@H]4C[C@H](O)[C@H](O)C[C@@]4(C)[C@H]3CC[C@]12C
REMARK SMILES IDX 6 1 7 2 9 3 10 4 12 5 34 6 33 7 32 8 15 9 31 10 17 11 14 12
REMARK SMILES IDX 13 13 30 14 18 15 28 16 19 17 21 18 27 19 29 20 20 21 22 22
REMARK SMILES IDX 25 23 23 24 16 25 26 27 24 29 11 31 8 33 5 35 2 36 1 37 3 38
REMARK SMILES IDX 4 39
REMARK H PARENT 16 26 26 28 24 30 11 32 8 34 4 40
REMARK Flexibility Score: inf
ROOT
ATOM      1  C   UNL     1       6.004 -17.901 -35.210  1.00  0.00     0.038 C 
ENDROOT
BRANCH   1   2
ATOM      2  C   UNL     1       6.149 -18.344 -36.686  1.00  0.00     0.146 C 
BRANCH   2   3
ATOM      3  C   UNL     1       7.070 -19.602 -36.912  1.00  0.00     0.091 C 
ATOM      4  C   UNL     1       6.206 -20.829 -37.327  1.00  0.00     0.045 C 
BRANCH   3   5
ATOM      5  C   UNL     1       8.183 -19.229 -37.988  1.00  0.00     0.032 C 
ATOM      6  C   UNL     1      10.437 -19.329 -36.713  1.00  0.00     0.015 C 
ATOM      7  C   UNL     1       9.606 -19.876 -37.907  1.00  0.00     0.006 C 
ATOM      8  C   UNL     1       9.526 -21.437 -37.824  1.00  0.00     0.011 C 
ATOM      9  C   UNL     1      10.231 -19.417 -39.263  1.00  0.00     0.092 C 
ATOM     10  C   UNL     1      10.850 -22.155 -38.150  1.00  0.00     0.009 C 
ATOM     11  C   UNL     1      11.473 -20.260 -39.603  1.00  0.00    -0.031 C 
ATOM     12  C   UNL     1       9.071 -19.560 -40.273  1.00  0.00     0.041 C 
ATOM     13  C   UNL     1       7.776 -19.361 -39.475  1.00  0.00     0.010 C 
ATOM     14  C   UNL     1      11.321 -21.782 -39.575  1.00  0.00     0.025 C 
ATOM     15  C   UNL     1      12.704 -19.694 -39.610  1.00  0.00     0.050 C 
ATOM     16  C   UNL     1      12.591 -22.541 -40.133  1.00  0.00    -0.013 C 
ATOM     17  C   UNL     1      13.939 -20.491 -39.629  1.00  0.00     0.159 C 
ATOM     18  C   UNL     1      13.865 -21.979 -39.436  1.00  0.00     0.070 C 
ATOM     19  C   UNL     1      12.515 -24.080 -39.866  1.00  0.00     0.042 C 
ATOM     20  C   UNL     1      12.620 -22.291 -41.675  1.00  0.00     0.013 C 
ATOM     21  O   UNL     1      15.053 -19.900 -39.693  1.00  0.00    -0.295 OA
ATOM     22  C   UNL     1      15.155 -22.709 -39.875  1.00  0.00     0.047 C 
ATOM     23  C   UNL     1      13.791 -24.857 -40.257  1.00  0.00     0.143 C 
ATOM     24  C   UNL     1      15.046 -24.223 -39.608  1.00  0.00     0.143 C 
BRANCH   9  25
ATOM     25  O   UNL     1      10.558 -18.041 -39.168  1.00  0.00    -0.385 OA
ATOM     26  H   UNL     1       9.723 -17.511 -39.286  1.00  0.00     0.211 HD
ENDBRANCH   9  25
BRANCH  23  27
ATOM     27  O   UNL     1      13.904 -24.944 -41.653  1.00  0.00    -0.390 OA
ATOM     28  H   UNL     1      14.741 -25.441 -41.850  1.00  0.00     0.211 HD
ENDBRANCH  23  27
BRANCH  24  29
ATOM     29  O   UNL     1      16.218 -24.896 -39.997  1.00  0.00    -0.390 OA
ATOM     30  H   UNL     1      15.954 -25.667 -40.562  1.00  0.00     0.211 HD
ENDBRANCH  24  29
ENDBRANCH   3   5
BRANCH   3  31
ATOM     31  O   UNL     1       7.732 -19.886 -35.700  1.00  0.00    -0.387 OA
ATOM     32  H   UNL     1       8.704 -19.719 -35.801  1.00  0.00     0.211 HD
ENDBRANCH   3  31
ENDBRANCH   2   3
BRANCH   2  33
ATOM     33  O   UNL     1       4.868 -18.593 -37.211  1.00  0.00    -0.390 OA
ATOM     34  H   UNL     1       4.347 -19.071 -36.513  1.00  0.00     0.211 HD
ENDBRANCH   2  33
ENDBRANCH   1   2
BRANCH   1  35
ATOM     35  C   UNL     1       4.760 -17.022 -34.936  1.00  0.00     0.037 C 
BRANCH  35  36
ATOM     36  C   UNL     1       5.020 -15.573 -34.429  1.00  0.00     0.059 C 
ATOM     37  C   UNL     1       5.985 -14.882 -35.417  1.00  0.00     0.042 C 
ATOM     38  C   UNL     1       3.710 -14.760 -34.350  1.00  0.00     0.042 C 
BRANCH  36  39
ATOM     39  O   UNL     1       5.631 -15.623 -33.162  1.00  0.00    -0.390 OA
ATOM     40  H   UNL     1       6.609 -15.697 -33.301  1.00  0.00     0.211 HD
ENDBRANCH  36  39
ENDBRANCH  35  36
ENDBRANCH   1  35
TORSDOF 11
ENDMDL
MODEL 5
REMARK VINA RESULT:    -5.987      3.929     10.513
REMARK INTER + INTRA:          -9.415
REMARK INTER:                  -9.061
REMARK INTRA:                  -0.354
REMARK UNBOUND:                -0.628
REMARK SMILES CC(C)(O)CC[C@H](O)[C@](C)(O)[C@@H]1CC[C@]2(O)C3=CC(=O)[C@@H]4C[C@H](O)[C@H](O)C[C@@]4(C)[C@H]3CC[C@]12C
REMARK SMILES IDX 6 1 7 2 9 3 10 4 12 5 34 6 33 7 32 8 15 9 31 10 17 11 14 12
REMARK SMILES IDX 13 13 30 14 18 15 28 16 19 17 21 18 27 19 29 20 20 21 22 22
REMARK SMILES IDX 25 23 23 24 16 25 26 27 24 29 11 31 8 33 5 35 2 36 1 37 3 38
REMARK SMILES IDX 4 39
REMARK H PARENT 16 26 26 28 24 30 11 32 8 34 4 40
REMARK Flexibility Score: inf
ROOT
ATOM      1  C   UNL     1       2.643 -13.454 -38.851  1.00  0.00     0.038 C 
ENDROOT
BRANCH   1   2
ATOM      2  C   UNL     1       2.530 -13.284 -37.316  1.00  0.00     0.146 C 
BRANCH   2   3
ATOM      3  C   UNL     1       3.281 -14.383 -36.473  1.00  0.00     0.091 C 
ATOM      4  C   UNL     1       2.576 -14.573 -35.096  1.00  0.00     0.045 C 
BRANCH   3   5
ATOM      5  C   UNL     1       3.347 -15.723 -37.330  1.00  0.00     0.032 C 
ATOM      6  C   UNL     1       5.657 -15.678 -38.503  1.00  0.00     0.015 C 
ATOM      7  C   UNL     1       4.714 -16.456 -37.544  1.00  0.00     0.006 C 
ATOM      8  C   UNL     1       5.445 -16.721 -36.185  1.00  0.00     0.011 C 
ATOM      9  C   UNL     1       4.248 -17.793 -38.202  1.00  0.00     0.092 C 
ATOM     10  C   UNL     1       6.566 -17.775 -36.267  1.00  0.00     0.009 C 
ATOM     11  C   UNL     1       5.363 -18.851 -38.134  1.00  0.00    -0.031 C 
ATOM     12  C   UNL     1       2.970 -18.166 -37.417  1.00  0.00     0.041 C 
ATOM     13  C   UNL     1       2.358 -16.846 -36.933  1.00  0.00     0.010 C 
ATOM     14  C   UNL     1       5.995 -19.122 -36.767  1.00  0.00     0.025 C 
ATOM     15  C   UNL     1       5.969 -19.282 -39.267  1.00  0.00     0.050 C 
ATOM     16  C   UNL     1       6.980 -20.360 -36.775  1.00  0.00    -0.013 C 
ATOM     17  C   UNL     1       7.221 -20.050 -39.249  1.00  0.00     0.159 C 
ATOM     18  C   UNL     1       7.978 -20.207 -37.960  1.00  0.00     0.070 C 
ATOM     19  C   UNL     1       7.796 -20.464 -35.446  1.00  0.00     0.042 C 
ATOM     20  C   UNL     1       6.092 -21.636 -36.932  1.00  0.00     0.013 C 
ATOM     21  O   UNL     1       7.703 -20.470 -40.339  1.00  0.00    -0.295 OA
ATOM     22  C   UNL     1       9.023 -21.344 -38.010  1.00  0.00     0.047 C 
ATOM     23  C   UNL     1       8.879 -21.566 -35.450  1.00  0.00     0.143 C 
ATOM     24  C   UNL     1       9.805 -21.428 -36.683  1.00  0.00     0.143 C 
BRANCH   9  25
ATOM     25  O   UNL     1       3.872 -17.532 -39.543  1.00  0.00    -0.385 OA
ATOM     26  H   UNL     1       4.442 -16.793 -39.891  1.00  0.00     0.211 HD
ENDBRANCH   9  25
BRANCH  23  27
ATOM     27  O   UNL     1       8.287 -22.836 -35.372  1.00  0.00    -0.390 OA
ATOM     28  H   UNL     1       7.332 -22.701 -35.138  1.00  0.00     0.211 HD
ENDBRANCH  23  27
BRANCH  24  29
ATOM     29  O   UNL     1      10.764 -22.455 -36.720  1.00  0.00    -0.390 OA
ATOM     30  H   UNL     1      11.200 -22.498 -35.829  1.00  0.00     0.211 HD
ENDBRANCH  24  29
ENDBRANCH   3   5
BRANCH   3  31
ATOM     31  O   UNL     1       4.605 -13.949 -36.263  1.00  0.00    -0.387 OA
ATOM     32  H   UNL     1       4.617 -13.224 -35.585  1.00  0.00     0.211 HD
ENDBRANCH   3  31
ENDBRANCH   2   3
BRANCH   2  33
ATOM     33  O   UNL     1       3.007 -12.009 -36.966  1.00  0.00    -0.390 OA
ATOM     34  H   UNL     1       3.619 -11.710 -37.688  1.00  0.00     0.211 HD
ENDBRANCH   2  33
ENDBRANCH   1   2
BRANCH   1  35
ATOM     35  C   UNL     1       1.326 -13.170 -39.613  1.00  0.00     0.037 C 
BRANCH  35  36
ATOM     36  C   UNL     1       1.298 -11.907 -40.522  1.00  0.00     0.059 C 
ATOM     37  C   UNL     1       0.477 -12.240 -41.786  1.00  0.00     0.042 C 
ATOM     38  C   UNL     1       0.648 -10.708 -39.800  1.00  0.00     0.042 C 
BRANCH  36  39
ATOM     39  O   UNL     1       2.610 -11.579 -40.910  1.00  0.00    -0.390 OA
ATOM     40  H   UNL     1       3.231 -12.021 -40.278  1.00  0.00     0.211 HD
ENDBRANCH  36  39
ENDBRANCH  35  36
ENDBRANCH   1  35
TORSDOF 11
ENDMDL
MODEL 6
REMARK VINA RESULT:    -5.958      2.171      4.075
REMARK INTER + INTRA:          -9.372
REMARK INTER:                  -9.022
REMARK INTRA:                  -0.350
REMARK UNBOUND:                -0.628
REMARK SMILES CC(C)(O)CC[C@H](O)[C@](C)(O)[C@@H]1CC[C@]2(O)C3=CC(=O)[C@@H]4C[C@H](O)[C@H](O)C[C@@]4(C)[C@H]3CC[C@]12C
REMARK SMILES IDX 6 1 7 2 9 3 10 4 12 5 34 6 33 7 32 8 15 9 31 10 17 11 14 12
REMARK SMILES IDX 13 13 30 14 18 15 28 16 19 17 21 18 27 19 29 20 20 21 22 22
REMARK SMILES IDX 25 23 23 24 16 25 26 27 24 29 11 31 8 33 5 35 2 36 1 37 3 38
REMARK SMILES IDX 4 39
REMARK H PARENT 16 26 26 28 24 30 11 32 8 34 4 40
REMARK Flexibility Score: inf
ROOT
ATOM      1  C   UNL     1      11.658 -23.544 -38.612  1.00  0.00     0.038 C 
ENDROOT
BRANCH   1   2
ATOM      2  C   UNL     1      11.273 -23.641 -37.115  1.00  0.00     0.146 C 
BRANCH   2   3
ATOM      3  C   UNL     1       9.891 -22.981 -36.744  1.00  0.00     0.091 C 
ATOM      4  C   UNL     1       9.772 -22.826 -35.199  1.00  0.00     0.045 C 
BRANCH   3   5
ATOM      5  C   UNL     1       9.764 -21.598 -37.522  1.00  0.00     0.032 C 
ATOM      6  C   UNL     1       7.480 -21.701 -38.743  1.00  0.00     0.015 C 
ATOM      7  C   UNL     1       8.362 -20.930 -37.720  1.00  0.00     0.006 C 
ATOM      8  C   UNL     1       7.594 -20.788 -36.364  1.00  0.00     0.011 C 
ATOM      9  C   UNL     1       8.763 -19.532 -38.289  1.00  0.00     0.092 C 
ATOM     10  C   UNL     1       6.417 -19.795 -36.407  1.00  0.00     0.009 C 
ATOM     11  C   UNL     1       7.588 -18.544 -38.182  1.00  0.00    -0.031 C 
ATOM     12  C   UNL     1      10.004 -19.137 -37.458  1.00  0.00     0.041 C 
ATOM     13  C   UNL     1      10.681 -20.449 -37.040  1.00  0.00     0.010 C 
ATOM     14  C   UNL     1       6.919 -18.390 -36.814  1.00  0.00     0.025 C 
ATOM     15  C   UNL     1       6.979 -18.080 -39.299  1.00  0.00     0.050 C 
ATOM     16  C   UNL     1       5.867 -17.211 -36.770  1.00  0.00    -0.013 C 
ATOM     17  C   UNL     1       5.686 -17.385 -39.262  1.00  0.00     0.159 C 
ATOM     18  C   UNL     1       4.899 -17.348 -37.982  1.00  0.00     0.070 C 
ATOM     19  C   UNL     1       5.023 -17.231 -35.454  1.00  0.00     0.042 C 
ATOM     20  C   UNL     1       6.684 -15.881 -36.833  1.00  0.00     0.013 C 
ATOM     21  O   UNL     1       5.200 -16.928 -40.335  1.00  0.00    -0.295 OA
ATOM     22  C   UNL     1       3.792 -16.269 -37.986  1.00  0.00     0.047 C 
ATOM     23  C   UNL     1       3.880 -16.193 -35.415  1.00  0.00     0.143 C 
ATOM     24  C   UNL     1       2.985 -16.307 -36.673  1.00  0.00     0.143 C 
BRANCH   9  25
ATOM     25  O   UNL     1       9.175 -19.692 -39.635  1.00  0.00    -0.385 OA
ATOM     26  H   UNL     1       8.435 -19.392 -40.229  1.00  0.00     0.211 HD
ENDBRANCH   9  25
BRANCH  23  27
ATOM     27  O   UNL     1       4.398 -14.899 -35.250  1.00  0.00    -0.390 OA
ATOM     28  H   UNL     1       4.264 -14.418 -36.108  1.00  0.00     0.211 HD
ENDBRANCH  23  27
BRANCH  24  29
ATOM     29  O   UNL     1       1.970 -15.335 -36.668  1.00  0.00    -0.390 OA
ATOM     30  H   UNL     1       2.356 -14.492 -36.315  1.00  0.00     0.211 HD
ENDBRANCH  24  29
ENDBRANCH   3   5
BRANCH   3  31
ATOM     31  O   UNL     1       8.861 -23.825 -37.209  1.00  0.00    -0.387 OA
ATOM     32  H   UNL     1       8.823 -24.645 -36.652  1.00  0.00     0.211 HD
ENDBRANCH   3  31
ENDBRANCH   2   3
BRANCH   2  33
ATOM     33  O   UNL     1      11.270 -24.995 -36.736  1.00  0.00    -0.390 OA
ATOM     34  H   UNL     1      12.127 -25.177 -36.270  1.00  0.00     0.211 HD
ENDBRANCH   2  33
ENDBRANCH   1   2
BRANCH   1  35
ATOM     35  C   UNL     1      12.965 -22.759 -38.874  1.00  0.00     0.037 C 
BRANCH  35  36
ATOM     36  C   UNL     1      14.279 -23.589 -38.961  1.00  0.00     0.059 C 
ATOM     37  C   UNL     1      13.961 -24.924 -39.668  1.00  0.00     0.042 C 
ATOM     38  C   UNL     1      15.367 -22.841 -39.761  1.00  0.00     0.042 C 
BRANCH  36  39
ATOM     39  O   UNL     1      14.745 -23.867 -37.662  1.00  0.00    -0.390 OA
ATOM     40  H   UNL     1      14.918 -24.840 -37.605  1.00  0.00     0.211 HD
ENDBRANCH  36  39
ENDBRANCH  35  36
ENDBRANCH   1  35
TORSDOF 11
ENDMDL
MODEL 7
REMARK VINA RESULT:    -5.940      3.945     10.268
REMARK INTER + INTRA:          -9.345
REMARK INTER:                  -9.231
REMARK INTRA:                  -0.114
REMARK UNBOUND:                -0.628
REMARK SMILES CC(C)(O)CC[C@H](O)[C@](C)(O)[C@@H]1CC[C@]2(O)C3=CC(=O)[C@@H]4C[C@H](O)[C@H](O)C[C@@]4(C)[C@H]3CC[C@]12C
REMARK SMILES IDX 6 1 7 2 9 3 10 4 12 5 34 6 33 7 32 8 15 9 31 10 17 11 14 12
REMARK SMILES IDX 13 13 30 14 18 15 28 16 19 17 21 18 27 19 29 20 20 21 22 22
REMARK SMILES IDX 25 23 23 24 16 25 26 27 24 29 11 31 8 33 5 35 2 36 1 37 3 38
REMARK SMILES IDX 4 39
REMARK H PARENT 16 26 26 28 24 30 11 32 8 34 4 40
REMARK Flexibility Score: inf
ROOT
ATOM      1  C   UNL     1       2.589 -13.152 -39.336  1.00  0.00     0.038 C 
ENDROOT
BRANCH   1   2
ATOM      2  C   UNL     1       3.261 -14.385 -39.987  1.00  0.00     0.146 C 
BRANCH   2   3
ATOM      3  C   UNL     1       3.654 -15.532 -38.981  1.00  0.00     0.091 C 
ATOM      4  C   UNL     1       2.529 -16.609 -38.934  1.00  0.00     0.045 C 
BRANCH   3   5
ATOM      5  C   UNL     1       5.067 -16.125 -39.413  1.00  0.00     0.032 C 
ATOM      6  C   UNL     1       6.601 -15.825 -37.345  1.00  0.00     0.015 C 
ATOM      7  C   UNL     1       5.982 -16.831 -38.357  1.00  0.00     0.006 C 
ATOM      8  C   UNL     1       5.211 -17.951 -37.582  1.00  0.00     0.011 C 
ATOM      9  C   UNL     1       7.093 -17.440 -39.269  1.00  0.00     0.092 C 
ATOM     10  C   UNL     1       6.123 -18.945 -36.838  1.00  0.00     0.009 C 
ATOM     11  C   UNL     1       7.884 -18.523 -38.514  1.00  0.00    -0.031 C 
ATOM     12  C   UNL     1       6.317 -17.962 -40.499  1.00  0.00     0.041 C 
ATOM     13  C   UNL     1       5.073 -17.075 -40.634  1.00  0.00     0.010 C 
ATOM     14  C   UNL     1       7.083 -19.636 -37.835  1.00  0.00     0.025 C 
ATOM     15  C   UNL     1       9.187 -18.326 -38.199  1.00  0.00     0.050 C 
ATOM     16  C   UNL     1       7.995 -20.796 -37.266  1.00  0.00    -0.013 C 
ATOM     17  C   UNL     1       9.903 -19.172 -37.236  1.00  0.00     0.159 C 
ATOM     18  C   UNL     1       9.138 -20.171 -36.413  1.00  0.00     0.070 C 
ATOM     19  C   UNL     1       7.186 -21.786 -36.366  1.00  0.00     0.042 C 
ATOM     20  C   UNL     1       8.556 -21.569 -38.502  1.00  0.00     0.013 C 
ATOM     21  O   UNL     1      11.132 -18.969 -37.030  1.00  0.00    -0.295 OA
ATOM     22  C   UNL     1      10.047 -21.237 -35.761  1.00  0.00     0.047 C 
ATOM     23  C   UNL     1       8.049 -22.857 -35.664  1.00  0.00     0.143 C 
ATOM     24  C   UNL     1       9.220 -22.204 -34.890  1.00  0.00     0.143 C 
BRANCH   9  25
ATOM     25  O   UNL     1       7.945 -16.396 -39.705  1.00  0.00    -0.385 OA
ATOM     26  H   UNL     1       8.245 -15.880 -38.908  1.00  0.00     0.211 HD
ENDBRANCH   9  25
BRANCH  23  27
ATOM     27  O   UNL     1       8.495 -23.813 -36.590  1.00  0.00    -0.390 OA
ATOM     28  H   UNL     1       9.225 -23.393 -37.116  1.00  0.00     0.211 HD
ENDBRANCH  23  27
BRANCH  24  29
ATOM     29  O   UNL     1      10.039 -23.174 -34.286  1.00  0.00    -0.390 OA
ATOM     30  H   UNL     1       9.838 -24.049 -34.708  1.00  0.00     0.211 HD
ENDBRANCH  24  29
ENDBRANCH   3   5
BRANCH   3  31
ATOM     31  O   UNL     1       3.807 -14.962 -37.701  1.00  0.00    -0.387 OA
ATOM     32  H   UNL     1       3.149 -14.229 -37.580  1.00  0.00     0.211 HD
ENDBRANCH   3  31
ENDBRANCH   2   3
BRANCH   2  33
ATOM     33  O   UNL     1       2.405 -14.896 -40.979  1.00  0.00    -0.390 OA
ATOM     34  H   UNL     1       2.716 -15.813 -41.199  1.00  0.00     0.211 HD
ENDBRANCH   2  33
ENDBRANCH   1   2
BRANCH   1  35
ATOM     35  C   UNL     1       2.216 -12.036 -40.341  1.00  0.00     0.037 C 
BRANCH  35  36
ATOM     36  C   UNL     1       0.699 -11.746 -40.540  1.00  0.00     0.059 C 
ATOM     37  C   UNL     1       0.297 -12.229 -41.951  1.00  0.00     0.042 C 
ATOM     38  C   UNL     1      -0.158 -12.486 -39.491  1.00  0.00     0.042 C 
BRANCH  36  39
ATOM     39  O   UNL     1       0.472 -10.361 -40.456  1.00  0.00    -0.390 OA
ATOM     40  H   UNL     1       0.020 -10.181 -39.593  1.00  0.00     0.211 HD
ENDBRANCH  36  39
ENDBRANCH  35  36
ENDBRANCH   1  35
TORSDOF 11
ENDMDL
MODEL 8
REMARK VINA RESULT:    -5.805      2.139      3.202
REMARK INTER + INTRA:          -9.147
REMARK INTER:                  -8.214
REMARK INTRA:                  -0.933
REMARK UNBOUND:                -0.628
REMARK SMILES CC(C)(O)CC[C@H](O)[C@](C)(O)[C@@H]1CC[C@]2(O)C3=CC(=O)[C@@H]4C[C@H](O)[C@H](O)C[C@@]4(C)[C@H]3CC[C@]12C
REMARK SMILES IDX 6 1 7 2 9 3 10 4 12 5 34 6 33 7 32 8 15 9 31 10 17 11 14 12
REMARK SMILES IDX 13 13 30 14 18 15 28 16 19 17 21 18 27 19 29 20 20 21 22 22
REMARK SMILES IDX 25 23 23 24 16 25 26 27 24 29 11 31 8 33 5 35 2 36 1 37 3 38
REMARK SMILES IDX 4 39
REMARK H PARENT 16 26 26 28 24 30 11 32 8 34 4 40
REMARK Flexibility Score: inf
ROOT
ATOM      1  C   UNL     1      12.127 -23.808 -38.494  1.00  0.00     0.038 C 
ENDROOT
BRANCH   1   2
ATOM      2  C   UNL     1      11.246 -24.502 -37.426  1.00  0.00     0.146 C 
BRANCH   2   3
ATOM      3  C   UNL     1       9.765 -23.972 -37.344  1.00  0.00     0.091 C 
ATOM      4  C   UNL     1       8.962 -24.793 -36.291  1.00  0.00     0.045 C 
BRANCH   3   5
ATOM      5  C   UNL     1       9.800 -22.413 -37.026  1.00  0.00     0.032 C 
ATOM      6  C   UNL     1       9.252 -21.238 -39.270  1.00  0.00     0.015 C 
ATOM      7  C   UNL     1       8.843 -21.431 -37.783  1.00  0.00     0.006 C 
ATOM      8  C   UNL     1       7.353 -21.902 -37.702  1.00  0.00     0.011 C 
ATOM      9  C   UNL     1       9.060 -20.109 -36.981  1.00  0.00     0.092 C 
ATOM     10  C   UNL     1       6.326 -20.808 -38.055  1.00  0.00     0.009 C 
ATOM     11  C   UNL     1       7.930 -19.105 -37.271  1.00  0.00    -0.031 C 
ATOM     12  C   UNL     1       9.132 -20.576 -35.510  1.00  0.00     0.041 C 
ATOM     13  C   UNL     1       9.677 -22.009 -35.537  1.00  0.00     0.010 C 
ATOM     14  C   UNL     1       6.491 -19.597 -37.108  1.00  0.00     0.025 C 
ATOM     15  C   UNL     1       8.190 -17.956 -37.940  1.00  0.00     0.050 C 
ATOM     16  C   UNL     1       5.423 -18.438 -37.233  1.00  0.00    -0.013 C 
ATOM     17  C   UNL     1       7.127 -17.113 -38.504  1.00  0.00     0.159 C 
ATOM     18  C   UNL     1       5.712 -17.619 -38.525  1.00  0.00     0.070 C 
ATOM     19  C   UNL     1       3.964 -18.995 -37.312  1.00  0.00     0.042 C 
ATOM     20  C   UNL     1       5.566 -17.559 -35.949  1.00  0.00     0.013 C 
ATOM     21  O   UNL     1       7.435 -16.025 -39.067  1.00  0.00    -0.295 OA
ATOM     22  C   UNL     1       4.675 -16.497 -38.764  1.00  0.00     0.047 C 
ATOM     23  C   UNL     1       2.887 -17.921 -37.581  1.00  0.00     0.143 C 
ATOM     24  C   UNL     1       3.247 -17.076 -38.827  1.00  0.00     0.143 C 
BRANCH   9  25
ATOM     25  O   UNL     1      10.324 -19.570 -37.328  1.00  0.00    -0.385 OA
ATOM     26  H   UNL     1      10.714 -20.126 -38.057  1.00  0.00     0.211 HD
ENDBRANCH   9  25
BRANCH  23  27
ATOM     27  O   UNL     1       2.691 -17.126 -36.441  1.00  0.00    -0.390 OA
ATOM     28  H   UNL     1       3.265 -16.322 -36.542  1.00  0.00     0.211 HD
ENDBRANCH  23  27
BRANCH  24  29
ATOM     29  O   UNL     1       2.296 -16.065 -39.052  1.00  0.00    -0.390 OA
ATOM     30  H   UNL     1       2.264 -15.887 -40.028  1.00  0.00     0.211 HD
ENDBRANCH  24  29
ENDBRANCH   3   5
BRANCH   3  31
ATOM     31  O   UNL     1       9.170 -24.132 -38.612  1.00  0.00    -0.387 OA
ATOM     32  H   UNL     1       9.072 -23.248 -39.051  1.00  0.00     0.211 HD
ENDBRANCH   3  31
ENDBRANCH   2   3
BRANCH   2  33
ATOM     33  O   UNL     1      11.243 -25.886 -37.672  1.00  0.00    -0.390 OA
ATOM     34  H   UNL     1      10.678 -26.046 -38.472  1.00  0.00     0.211 HD
ENDBRANCH   2  33
ENDBRANCH   1   2
BRANCH   1  35
ATOM     35  C   UNL     1      13.404 -23.147 -37.923  1.00  0.00     0.037 C 
BRANCH  35  36
ATOM     36  C   UNL     1      13.542 -21.607 -38.108  1.00  0.00     0.059 C 
ATOM     37  C   UNL     1      15.045 -21.257 -38.135  1.00  0.00     0.042 C 
ATOM     38  C   UNL     1      12.890 -21.138 -39.426  1.00  0.00     0.042 C 
BRANCH  36  39
ATOM     39  O   UNL     1      12.945 -20.949 -37.017  1.00  0.00    -0.390 OA
ATOM     40  H   UNL     1      13.554 -20.221 -36.734  1.00  0.00     0.211 HD
ENDBRANCH  36  39
ENDBRANCH  35  36
ENDBRANCH   1  35
TORSDOF 11
ENDMDL
MODEL 9
REMARK VINA RESULT:    -5.794      8.347     11.050
REMARK INTER + INTRA:          -9.131
REMARK INTER:                  -9.073
REMARK INTRA:                  -0.058
REMARK UNBOUND:                -0.628
REMARK SMILES CC(C)(O)CC[C@H](O)[C@](C)(O)[C@@H]1CC[C@]2(O)C3=CC(=O)[C@@H]4C[C@H](O)[C@H](O)C[C@@]4(C)[C@H]3CC[C@]12C
REMARK SMILES IDX 6 1 7 2 9 3 10 4 12 5 34 6 33 7 32 8 15 9 31 10 17 11 14 12
REMARK SMILES IDX 13 13 30 14 18 15 28 16 19 17 21 18 27 19 29 20 20 21 22 22
REMARK SMILES IDX 25 23 23 24 16 25 26 27 24 29 11 31 8 33 5 35 2 36 1 37 3 38
REMARK SMILES IDX 4 39
REMARK H PARENT 16 26 26 28 24 30 11 32 8 34 4 40
REMARK Flexibility Score: inf
ROOT
ATOM      1  C   UNL     1       9.570 -11.079 -45.162  1.00  0.00     0.038 C 
ENDROOT
BRANCH   1   2
ATOM      2  C   UNL     1       8.351 -11.356 -46.076  1.00  0.00     0.146 C 
BRANCH   2   3
ATOM      3  C   UNL     1       8.248 -12.835 -46.609  1.00  0.00     0.091 C 
ATOM      4  C   UNL     1       9.530 -13.203 -47.413  1.00  0.00     0.045 C 
BRANCH   3   5
ATOM      5  C   UNL     1       7.987 -13.803 -45.372  1.00  0.00     0.032 C 
ATOM      6  C   UNL     1       5.410 -13.962 -45.152  1.00  0.00     0.015 C 
ATOM      7  C   UNL     1       6.737 -14.745 -45.358  1.00  0.00     0.006 C 
ATOM      8  C   UNL     1       6.646 -15.603 -46.663  1.00  0.00     0.011 C 
ATOM      9  C   UNL     1       7.040 -15.641 -44.115  1.00  0.00     0.092 C 
ATOM     10  C   UNL     1       5.707 -16.819 -46.554  1.00  0.00     0.009 C 
ATOM     11  C   UNL     1       6.166 -16.908 -44.132  1.00  0.00    -0.031 C 
ATOM     12  C   UNL     1       8.558 -15.915 -44.218  1.00  0.00     0.041 C 
ATOM     13  C   UNL     1       9.166 -14.709 -44.945  1.00  0.00     0.010 C 
ATOM     14  C   UNL     1       6.170 -17.750 -45.409  1.00  0.00     0.025 C 
ATOM     15  C   UNL     1       5.207 -17.091 -43.193  1.00  0.00     0.050 C 
ATOM     16  C   UNL     1       5.404 -19.124 -45.247  1.00  0.00    -0.013 C 
ATOM     17  C   UNL     1       4.158 -18.111 -43.325  1.00  0.00     0.159 C 
ATOM     18  C   UNL     1       4.004 -18.854 -44.622  1.00  0.00     0.070 C 
ATOM     19  C   UNL     1       5.207 -19.847 -46.619  1.00  0.00     0.042 C 
ATOM     20  C   UNL     1       6.286 -20.019 -44.319  1.00  0.00     0.013 C 
ATOM     21  O   UNL     1       3.327 -18.266 -42.386  1.00  0.00    -0.295 OA
ATOM     22  C   UNL     1       3.156 -20.138 -44.483  1.00  0.00     0.047 C 
ATOM     23  C   UNL     1       4.339 -21.123 -46.546  1.00  0.00     0.143 C 
ATOM     24  C   UNL     1       2.987 -20.834 -45.849  1.00  0.00     0.143 C 
BRANCH   9  25
ATOM     25  O   UNL     1       6.815 -14.880 -42.942  1.00  0.00    -0.385 OA
ATOM     26  H   UNL     1       6.716 -13.924 -43.200  1.00  0.00     0.211 HD
ENDBRANCH   9  25
BRANCH  23  27
ATOM     27  O   UNL     1       5.045 -22.162 -45.920  1.00  0.00    -0.390 OA
ATOM     28  H   UNL     1       4.860 -22.097 -44.946  1.00  0.00     0.211 HD
ENDBRANCH  23  27
BRANCH  24  29
ATOM     29  O   UNL     1       2.209 -22.000 -45.736  1.00  0.00    -0.390 OA
ATOM     30  H   UNL     1       2.827 -22.776 -45.698  1.00  0.00     0.211 HD
ENDBRANCH  24  29
ENDBRANCH   3   5
BRANCH   3  31
ATOM     31  O   UNL     1       7.125 -12.920 -47.457  1.00  0.00    -0.387 OA
ATOM     32  H   UNL     1       6.807 -13.858 -47.499  1.00  0.00     0.211 HD
ENDBRANCH   3  31
ENDBRANCH   2   3
BRANCH   2  33
ATOM     33  O   UNL     1       7.178 -11.018 -45.379  1.00  0.00    -0.390 OA
ATOM     34  H   UNL     1       6.538 -10.639 -46.038  1.00  0.00     0.211 HD
ENDBRANCH   2  33
ENDBRANCH   1   2
BRANCH   1  35
ATOM     35  C   UNL     1       9.661  -9.617 -44.663  1.00  0.00     0.037 C 
BRANCH  35  36
ATOM     36  C   UNL     1      10.855  -9.266 -43.727  1.00  0.00     0.059 C 
ATOM     37  C   UNL     1      12.039  -8.808 -44.606  1.00  0.00     0.042 C 
ATOM     38  C   UNL     1      10.487  -8.133 -42.746  1.00  0.00     0.042 C 
BRANCH  36  39
ATOM     39  O   UNL     1      11.242 -10.414 -43.011  1.00  0.00    -0.390 OA
ATOM     40  H   UNL     1      10.555 -10.583 -42.318  1.00  0.00     0.211 HD
ENDBRANCH  36  39
ENDBRANCH  35  36
ENDBRANCH   1  35
TORSDOF 11
ENDMDL
