MODEL 1
REMARK VINA RESULT:    -7.580      0.000      0.000
REMARK INTER + INTRA:          -8.245
REMARK INTER:                  -8.245
REMARK INTRA:                   0.000
REMARK UNBOUND:                 0.000
REMARK SMILES Cc1cc(O)c2c(c1)C(=O)c1cc(O)cc(O)c1C2=O
REMARK SMILES IDX 1 1 2 2 8 3 7 4 6 5 4 6 3 7 19 8 20 9 18 10 11 11 9 12 10 13
REMARK SMILES IDX 12 14 13 15 15 16 16 17 5 18 17 20 14 22
REMARK H PARENT 5 19 17 21 14 23
REMARK Flexibility Score: inf
ROOT
ATOM      1  C   UNL     1       4.388 -21.062  46.366  1.00  0.00     0.044 C 
ATOM      2  C   UNL     1       3.247 -21.455  47.259  1.00  0.00    -0.047 A 
ATOM      3  C   UNL     1       2.016 -21.825  46.707  1.00  0.00     0.016 A 
ATOM      4  C   UNL     1       0.952 -22.231  47.532  1.00  0.00     0.038 A 
ATOM      5  C   UNL     1       1.127 -22.271  48.932  1.00  0.00     0.076 A 
ATOM      6  C   UNL     1       2.381 -21.922  49.484  1.00  0.00     0.127 A 
ATOM      7  C   UNL     1       3.429 -21.522  48.645  1.00  0.00     0.050 A 
ATOM      8  C   UNL     1      -0.019 -22.662  49.794  1.00  0.00     0.201 C 
ATOM      9  O   UNL     1      -0.006 -22.360  51.016  1.00  0.00    -0.288 OA
ATOM     10  C   UNL     1      -1.225 -23.299  49.193  1.00  0.00     0.076 A 
ATOM     11  C   UNL     1      -1.412 -23.197  47.794  1.00  0.00     0.041 A 
ATOM     12  C   UNL     1      -0.349 -22.614  46.940  1.00  0.00     0.194 C 
ATOM     13  O   UNL     1      -0.547 -22.461  45.704  1.00  0.00    -0.289 OA
ATOM     14  C   UNL     1      -2.605 -23.658  47.212  1.00  0.00     0.059 A 
ATOM     15  C   UNL     1      -3.604 -24.231  47.998  1.00  0.00     0.120 A 
ATOM     16  C   UNL     1      -3.405 -24.379  49.371  1.00  0.00     0.093 A 
ATOM     17  C   UNL     1      -2.216 -23.954  49.973  1.00  0.00     0.131 A 
ENDROOT
BRANCH   6  18
ATOM     18  O   UNL     1       2.594 -21.982  50.862  1.00  0.00    -0.507 OA
ATOM     19  H   UNL     1       1.866 -21.739  51.525  1.00  0.00     0.293 HD
ENDBRANCH   6  18
BRANCH  17  20
ATOM     20  O   UNL     1      -2.053 -24.236  51.331  1.00  0.00    -0.507 OA
ATOM     21  H   UNL     1      -2.564 -23.766  52.066  1.00  0.00     0.293 HD
ENDBRANCH  17  20
BRANCH  15  22
ATOM     22  O   UNL     1      -4.785 -24.665  47.400  1.00  0.00    -0.508 OA
ATOM     23  H   UNL     1      -5.683 -24.547  47.854  1.00  0.00     0.293 HD
ENDBRANCH  15  22
TORSDOF 3
ENDMDL
MODEL 2
REMARK VINA RESULT:    -7.524      4.417      6.445
REMARK INTER + INTRA:          -8.184
REMARK INTER:                  -8.184
REMARK INTRA:                   0.000
REMARK UNBOUND:                 0.000
REMARK SMILES Cc1cc(O)c2c(c1)C(=O)c1cc(O)cc(O)c1C2=O
REMARK SMILES IDX 1 1 2 2 8 3 7 4 6 5 4 6 3 7 19 8 20 9 18 10 11 11 9 12 10 13
REMARK SMILES IDX 12 14 13 15 15 16 16 17 5 18 17 20 14 22
REMARK H PARENT 5 19 17 21 14 23
REMARK Flexibility Score: inf
ROOT
ATOM      1  C   UNL     1      -6.060 -19.758  42.651  1.00  0.00     0.044 C 
ATOM      2  C   UNL     1      -5.911 -20.258  44.058  1.00  0.00    -0.047 A 
ATOM      3  C   UNL     1      -5.134 -21.391  44.324  1.00  0.00     0.016 A 
ATOM      4  C   UNL     1      -4.957 -21.846  45.643  1.00  0.00     0.038 A 
ATOM      5  C   UNL     1      -5.562 -21.152  46.712  1.00  0.00     0.076 A 
ATOM      6  C   UNL     1      -6.324 -19.993  46.441  1.00  0.00     0.127 A 
ATOM      7  C   UNL     1      -6.488 -19.553  45.120  1.00  0.00     0.050 A 
ATOM      8  C   UNL     1      -5.400 -21.669  48.095  1.00  0.00     0.201 C 
ATOM      9  O   UNL     1      -6.203 -21.301  48.993  1.00  0.00    -0.288 OA
ATOM     10  C   UNL     1      -4.370 -22.705  48.392  1.00  0.00     0.076 A 
ATOM     11  C   UNL     1      -3.818 -23.431  47.310  1.00  0.00     0.041 A 
ATOM     12  C   UNL     1      -4.139 -23.050  45.915  1.00  0.00     0.194 C 
ATOM     13  O   UNL     1      -3.701 -23.742  44.955  1.00  0.00    -0.289 OA
ATOM     14  C   UNL     1      -2.953 -24.512  47.561  1.00  0.00     0.059 A 
ATOM     15  C   UNL     1      -2.622 -24.867  48.868  1.00  0.00     0.120 A 
ATOM     16  C   UNL     1      -3.125 -24.124  49.937  1.00  0.00     0.093 A 
ATOM     17  C   UNL     1      -3.965 -23.028  49.715  1.00  0.00     0.131 A 
ENDROOT
BRANCH   6  18
ATOM     18  O   UNL     1      -6.909 -19.267  47.480  1.00  0.00    -0.507 OA
ATOM     19  H   UNL     1      -6.742 -19.499  48.452  1.00  0.00     0.293 HD
ENDBRANCH   6  18
BRANCH  17  20
ATOM     20  O   UNL     1      -4.337 -22.275  50.831  1.00  0.00    -0.507 OA
ATOM     21  H   UNL     1      -3.923 -21.385  51.071  1.00  0.00     0.293 HD
ENDBRANCH  17  20
BRANCH  15  22
ATOM     22  O   UNL     1      -1.777 -25.952  49.091  1.00  0.00    -0.508 OA
ATOM     23  H   UNL     1      -1.896 -26.827  48.594  1.00  0.00     0.293 HD
ENDBRANCH  15  22
TORSDOF 3
ENDMDL
MODEL 3
REMARK VINA RESULT:    -7.356      3.754      6.420
REMARK INTER + INTRA:          -8.001
REMARK INTER:                  -8.001
REMARK INTRA:                   0.000
REMARK UNBOUND:                 0.000
REMARK SMILES Cc1cc(O)c2c(c1)C(=O)c1cc(O)cc(O)c1C2=O
REMARK SMILES IDX 1 1 2 2 8 3 7 4 6 5 4 6 3 7 19 8 20 9 18 10 11 11 9 12 10 13
REMARK SMILES IDX 12 14 13 15 15 16 16 17 5 18 17 20 14 22
REMARK H PARENT 5 19 17 21 14 23
REMARK Flexibility Score: inf
ROOT
ATOM      1  C   UNL     1      -6.383 -20.698  43.199  1.00  0.00     0.044 C 
ATOM      2  C   UNL     1      -6.012 -20.775  44.652  1.00  0.00    -0.047 A 
ATOM      3  C   UNL     1      -4.935 -21.569  45.062  1.00  0.00     0.016 A 
ATOM      4  C   UNL     1      -4.556 -21.619  46.416  1.00  0.00     0.038 A 
ATOM      5  C   UNL     1      -5.262 -20.857  47.370  1.00  0.00     0.076 A 
ATOM      6  C   UNL     1      -6.331 -20.035  46.947  1.00  0.00     0.127 A 
ATOM      7  C   UNL     1      -6.694 -19.997  45.594  1.00  0.00     0.050 A 
ATOM      8  C   UNL     1      -4.875 -20.952  48.802  1.00  0.00     0.201 C 
ATOM      9  O   UNL     1      -5.691 -20.588  49.690  1.00  0.00    -0.288 OA
ATOM     10  C   UNL     1      -3.582 -21.584  49.188  1.00  0.00     0.076 A 
ATOM     11  C   UNL     1      -2.919 -22.393  48.235  1.00  0.00     0.041 A 
ATOM     12  C   UNL     1      -3.420 -22.467  46.842  1.00  0.00     0.194 C 
ATOM     13  O   UNL     1      -2.869 -23.243  46.014  1.00  0.00    -0.289 OA
ATOM     14  C   UNL     1      -1.774 -23.119  48.608  1.00  0.00     0.059 A 
ATOM     15  C   UNL     1      -1.276 -23.040  49.908  1.00  0.00     0.120 A 
ATOM     16  C   UNL     1      -1.896 -22.206  50.839  1.00  0.00     0.093 A 
ATOM     17  C   UNL     1      -3.020 -21.451  50.487  1.00  0.00     0.131 A 
ENDROOT
BRANCH   6  18
ATOM     18  O   UNL     1      -7.028 -19.246  47.863  1.00  0.00    -0.507 OA
ATOM     19  H   UNL     1      -6.720 -19.147  48.824  1.00  0.00     0.293 HD
ENDBRANCH   6  18
BRANCH  17  20
ATOM     20  O   UNL     1      -3.516 -20.563  51.444  1.00  0.00    -0.507 OA
ATOM     21  H   UNL     1      -2.931 -20.044  52.084  1.00  0.00     0.293 HD
ENDBRANCH  17  20
BRANCH  15  22
ATOM     22  O   UNL     1      -0.150 -23.783  50.258  1.00  0.00    -0.508 OA
ATOM     23  H   UNL     1      -0.211 -24.567  50.898  1.00  0.00     0.293 HD
ENDBRANCH  15  22
TORSDOF 3
ENDMDL
MODEL 4
REMARK VINA RESULT:    -7.156      4.474      5.373
REMARK INTER + INTRA:          -7.783
REMARK INTER:                  -7.783
REMARK INTRA:                   0.000
REMARK UNBOUND:                 0.000
REMARK SMILES Cc1cc(O)c2c(c1)C(=O)c1cc(O)cc(O)c1C2=O
REMARK SMILES IDX 1 1 2 2 8 3 7 4 6 5 4 6 3 7 19 8 20 9 18 10 11 11 9 12 10 13
REMARK SMILES IDX 12 14 13 15 15 16 16 17 5 18 17 20 14 22
REMARK H PARENT 5 19 17 21 14 23
REMARK Flexibility Score: inf
ROOT
ATOM      1  C   UNL     1      -2.007 -26.879  43.745  1.00  0.00     0.044 C 
ATOM      2  C   UNL     1      -2.352 -26.013  44.921  1.00  0.00    -0.047 A 
ATOM      3  C   UNL     1      -3.135 -24.866  44.746  1.00  0.00     0.016 A 
ATOM      4  C   UNL     1      -3.495 -24.068  45.846  1.00  0.00     0.038 A 
ATOM      5  C   UNL     1      -3.068 -24.427  47.142  1.00  0.00     0.076 A 
ATOM      6  C   UNL     1      -2.300 -25.600  47.318  1.00  0.00     0.127 A 
ATOM      7  C   UNL     1      -1.952 -26.384  46.210  1.00  0.00     0.050 A 
ATOM      8  C   UNL     1      -3.422 -23.550  48.289  1.00  0.00     0.201 C 
ATOM      9  O   UNL     1      -2.768 -23.640  49.362  1.00  0.00    -0.288 OA
ATOM     10  C   UNL     1      -4.462 -22.495  48.132  1.00  0.00     0.076 A 
ATOM     11  C   UNL     1      -4.833 -22.107  46.823  1.00  0.00     0.041 A 
ATOM     12  C   UNL     1      -4.318 -22.853  45.650  1.00  0.00     0.194 C 
ATOM     13  O   UNL     1      -4.595 -22.463  44.483  1.00  0.00    -0.289 OA
ATOM     14  C   UNL     1      -5.702 -21.018  46.635  1.00  0.00     0.059 A 
ATOM     15  C   UNL     1      -6.215 -20.322  47.728  1.00  0.00     0.120 A 
ATOM     16  C   UNL     1      -5.891 -20.729  49.023  1.00  0.00     0.093 A 
ATOM     17  C   UNL     1      -5.051 -21.827  49.240  1.00  0.00     0.131 A 
ENDROOT
BRANCH   6  18
ATOM     18  O   UNL     1      -1.890 -25.998  48.591  1.00  0.00    -0.507 OA
ATOM     19  H   UNL     1      -1.085 -26.599  48.729  1.00  0.00     0.293 HD
ENDBRANCH   6  18
BRANCH  17  20
ATOM     20  O   UNL     1      -4.863 -22.234  50.563  1.00  0.00    -0.507 OA
ATOM     21  H   UNL     1      -4.550 -21.618  51.300  1.00  0.00     0.293 HD
ENDBRANCH  17  20
BRANCH  15  22
ATOM     22  O   UNL     1      -7.060 -19.235  47.516  1.00  0.00    -0.508 OA
ATOM     23  H   UNL     1      -6.921 -18.354  47.997  1.00  0.00     0.293 HD
ENDBRANCH  15  22
TORSDOF 3
ENDMDL
MODEL 5
REMARK VINA RESULT:    -7.108      3.866      6.291
REMARK INTER + INTRA:          -7.731
REMARK INTER:                  -7.731
REMARK INTRA:                   0.000
REMARK UNBOUND:                 0.000
REMARK SMILES Cc1cc(O)c2c(c1)C(=O)c1cc(O)cc(O)c1C2=O
REMARK SMILES IDX 1 1 2 2 8 3 7 4 6 5 4 6 3 7 19 8 20 9 18 10 11 11 9 12 10 13
REMARK SMILES IDX 12 14 13 15 15 16 16 17 5 18 17 20 14 22
REMARK H PARENT 5 19 17 21 14 23
REMARK Flexibility Score: inf
ROOT
ATOM      1  C   UNL     1      -1.158 -24.870  49.390  1.00  0.00     0.044 C 
ATOM      2  C   UNL     1      -2.229 -23.909  48.962  1.00  0.00    -0.047 A 
ATOM      3  C   UNL     1      -2.018 -23.060  47.870  1.00  0.00     0.016 A 
ATOM      4  C   UNL     1      -3.028 -22.183  47.437  1.00  0.00     0.038 A 
ATOM      5  C   UNL     1      -4.271 -22.160  48.106  1.00  0.00     0.076 A 
ATOM      6  C   UNL     1      -4.489 -23.039  49.192  1.00  0.00     0.127 A 
ATOM      7  C   UNL     1      -3.471 -23.907  49.607  1.00  0.00     0.050 A 
ATOM      8  C   UNL     1      -5.313 -21.198  47.663  1.00  0.00     0.201 C 
ATOM      9  O   UNL     1      -6.258 -20.906  48.443  1.00  0.00    -0.288 OA
ATOM     10  C   UNL     1      -5.179 -20.497  46.355  1.00  0.00     0.076 A 
ATOM     11  C   UNL     1      -3.909 -20.481  45.729  1.00  0.00     0.041 A 
ATOM     12  C   UNL     1      -2.794 -21.283  46.286  1.00  0.00     0.194 C 
ATOM     13  O   UNL     1      -1.646 -21.212  45.766  1.00  0.00    -0.289 OA
ATOM     14  C   UNL     1      -3.710 -19.710  44.571  1.00  0.00     0.059 A 
ATOM     15  C   UNL     1      -4.755 -18.970  44.021  1.00  0.00     0.120 A 
ATOM     16  C   UNL     1      -6.022 -19.020  44.606  1.00  0.00     0.093 A 
ATOM     17  C   UNL     1      -6.255 -19.801  45.742  1.00  0.00     0.131 A 
ENDROOT
BRANCH   6  18
ATOM     18  O   UNL     1      -5.718 -23.062  49.852  1.00  0.00    -0.507 OA
ATOM     19  H   UNL     1      -5.855 -23.591  50.706  1.00  0.00     0.293 HD
ENDBRANCH   6  18
BRANCH  17  20
ATOM     20  O   UNL     1      -7.573 -19.880  46.201  1.00  0.00    -0.507 OA
ATOM     21  H   UNL     1      -7.887 -20.549  46.890  1.00  0.00     0.293 HD
ENDBRANCH  17  20
BRANCH  15  22
ATOM     22  O   UNL     1      -4.528 -18.200  42.883  1.00  0.00    -0.508 OA
ATOM     23  H   UNL     1      -5.276 -17.977  42.236  1.00  0.00     0.293 HD
ENDBRANCH  15  22
TORSDOF 3
ENDMDL
MODEL 6
REMARK VINA RESULT:    -7.091      3.744      5.827
REMARK INTER + INTRA:          -7.713
REMARK INTER:                  -7.713
REMARK INTRA:                   0.000
REMARK UNBOUND:                 0.000
REMARK SMILES Cc1cc(O)c2c(c1)C(=O)c1cc(O)cc(O)c1C2=O
REMARK SMILES IDX 1 1 2 2 8 3 7 4 6 5 4 6 3 7 19 8 20 9 18 10 11 11 9 12 10 13
REMARK SMILES IDX 12 14 13 15 15 16 16 17 5 18 17 20 14 22
REMARK H PARENT 5 19 17 21 14 23
REMARK Flexibility Score: inf
ROOT
ATOM      1  C   UNL     1      -2.526 -19.160  42.496  1.00  0.00     0.044 C 
ATOM      2  C   UNL     1      -3.215 -19.641  43.741  1.00  0.00    -0.047 A 
ATOM      3  C   UNL     1      -2.589 -20.573  44.577  1.00  0.00     0.016 A 
ATOM      4  C   UNL     1      -3.209 -21.002  45.764  1.00  0.00     0.038 A 
ATOM      5  C   UNL     1      -4.472 -20.483  46.122  1.00  0.00     0.076 A 
ATOM      6  C   UNL     1      -5.088 -19.522  45.289  1.00  0.00     0.127 A 
ATOM      7  C   UNL     1      -4.453 -19.106  44.111  1.00  0.00     0.050 A 
ATOM      8  C   UNL     1      -5.132 -20.977  47.359  1.00  0.00     0.201 C 
ATOM      9  O   UNL     1      -6.373 -20.817  47.504  1.00  0.00    -0.288 OA
ATOM     10  C   UNL     1      -4.355 -21.758  48.362  1.00  0.00     0.076 A 
ATOM     11  C   UNL     1      -3.118 -22.319  47.965  1.00  0.00     0.041 A 
ATOM     12  C   UNL     1      -2.544 -21.993  46.638  1.00  0.00     0.194 C 
ATOM     13  O   UNL     1      -1.476 -22.550  46.260  1.00  0.00    -0.289 OA
ATOM     14  C   UNL     1      -2.428 -23.180  48.837  1.00  0.00     0.059 A 
ATOM     15  C   UNL     1      -2.943 -23.476  50.097  1.00  0.00     0.120 A 
ATOM     16  C   UNL     1      -4.138 -22.887  50.514  1.00  0.00     0.093 A 
ATOM     17  C   UNL     1      -4.831 -22.006  49.678  1.00  0.00     0.131 A 
ENDROOT
BRANCH   6  18
ATOM     18  O   UNL     1      -6.321 -18.967  45.633  1.00  0.00    -0.507 OA
ATOM     19  H   UNL     1      -7.113 -18.995  45.001  1.00  0.00     0.293 HD
ENDBRANCH   6  18
BRANCH  17  20
ATOM     20  O   UNL     1      -5.960 -21.378  50.210  1.00  0.00    -0.507 OA
ATOM     21  H   UNL     1      -5.962 -20.877  51.088  1.00  0.00     0.293 HD
ENDBRANCH  17  20
BRANCH  15  22
ATOM     22  O   UNL     1      -2.249 -24.346  50.936  1.00  0.00    -0.508 OA
ATOM     23  H   UNL     1      -1.248 -24.477  50.851  1.00  0.00     0.293 HD
ENDBRANCH  15  22
TORSDOF 3
ENDMDL
MODEL 7
REMARK VINA RESULT:    -6.985      3.666      6.550
REMARK INTER + INTRA:          -7.597
REMARK INTER:                  -7.597
REMARK INTRA:                   0.000
REMARK UNBOUND:                 0.000
REMARK SMILES Cc1cc(O)c2c(c1)C(=O)c1cc(O)cc(O)c1C2=O
REMARK SMILES IDX 1 1 2 2 8 3 7 4 6 5 4 6 3 7 19 8 20 9 18 10 11 11 9 12 10 13
REMARK SMILES IDX 12 14 13 15 15 16 16 17 5 18 17 20 14 22
REMARK H PARENT 5 19 17 21 14 23
REMARK Flexibility Score: inf
ROOT
ATOM      1  C   UNL     1      -7.558 -19.652  44.794  1.00  0.00     0.044 C 
ATOM      2  C   UNL     1      -6.356 -20.501  45.092  1.00  0.00    -0.047 A 
ATOM      3  C   UNL     1      -5.994 -20.768  46.417  1.00  0.00     0.016 A 
ATOM      4  C   UNL     1      -4.892 -21.592  46.708  1.00  0.00     0.038 A 
ATOM      5  C   UNL     1      -4.147 -22.163  45.654  1.00  0.00     0.076 A 
ATOM      6  C   UNL     1      -4.533 -21.913  44.318  1.00  0.00     0.127 A 
ATOM      7  C   UNL     1      -5.634 -21.090  44.048  1.00  0.00     0.050 A 
ATOM      8  C   UNL     1      -2.960 -22.998  45.977  1.00  0.00     0.201 C 
ATOM      9  O   UNL     1      -2.090 -23.207  45.091  1.00  0.00    -0.288 OA
ATOM     10  C   UNL     1      -2.743 -23.485  47.369  1.00  0.00     0.076 A 
ATOM     11  C   UNL     1      -3.458 -22.859  48.418  1.00  0.00     0.041 A 
ATOM     12  C   UNL     1      -4.511 -21.863  48.112  1.00  0.00     0.194 C 
ATOM     13  O   UNL     1      -5.097 -21.256  49.051  1.00  0.00    -0.289 OA
ATOM     14  C   UNL     1      -3.173 -23.192  49.754  1.00  0.00     0.059 A 
ATOM     15  C   UNL     1      -2.202 -24.145  50.057  1.00  0.00     0.120 A 
ATOM     16  C   UNL     1      -1.529 -24.801  49.025  1.00  0.00     0.093 A 
ATOM     17  C   UNL     1      -1.812 -24.510  47.687  1.00  0.00     0.131 A 
ENDROOT
BRANCH   6  18
ATOM     18  O   UNL     1      -3.834 -22.489  43.256  1.00  0.00    -0.507 OA
ATOM     19  H   UNL     1      -3.876 -22.104  42.319  1.00  0.00     0.293 HD
ENDBRANCH   6  18
BRANCH  17  20
ATOM     20  O   UNL     1      -1.171 -25.285  46.717  1.00  0.00    -0.507 OA
ATOM     21  H   UNL     1      -1.232 -25.105  45.725  1.00  0.00     0.293 HD
ENDBRANCH  17  20
BRANCH  15  22
ATOM     22  O   UNL     1      -1.926 -24.445  51.390  1.00  0.00    -0.508 OA
ATOM     23  H   UNL     1      -2.658 -24.726  52.032  1.00  0.00     0.293 HD
ENDBRANCH  15  22
TORSDOF 3
ENDMDL
MODEL 8
REMARK VINA RESULT:    -6.941      1.969      5.564
REMARK INTER + INTRA:          -7.549
REMARK INTER:                  -7.549
REMARK INTRA:                   0.000
REMARK UNBOUND:                 0.000
REMARK SMILES Cc1cc(O)c2c(c1)C(=O)c1cc(O)cc(O)c1C2=O
REMARK SMILES IDX 1 1 2 2 8 3 7 4 6 5 4 6 3 7 19 8 20 9 18 10 11 11 9 12 10 13
REMARK SMILES IDX 12 14 13 15 15 16 16 17 5 18 17 20 14 22
REMARK H PARENT 5 19 17 21 14 23
REMARK Flexibility Score: inf
ROOT
ATOM      1  C   UNL     1      -4.568 -21.906  47.509  1.00  0.00     0.044 C 
ATOM      2  C   UNL     1      -3.148 -21.936  47.994  1.00  0.00    -0.047 A 
ATOM      3  C   UNL     1      -2.091 -21.976  47.077  1.00  0.00     0.016 A 
ATOM      4  C   UNL     1      -0.756 -21.966  47.520  1.00  0.00     0.038 A 
ATOM      5  C   UNL     1      -0.476 -21.911  48.902  1.00  0.00     0.076 A 
ATOM      6  C   UNL     1      -1.546 -21.844  49.823  1.00  0.00     0.127 A 
ATOM      7  C   UNL     1      -2.869 -21.853  49.363  1.00  0.00     0.050 A 
ATOM      8  C   UNL     1       0.939 -21.943  49.356  1.00  0.00     0.201 C 
ATOM      9  O   UNL     1       1.200 -22.258  50.547  1.00  0.00    -0.288 OA
ATOM     10  C   UNL     1       2.044 -21.720  48.380  1.00  0.00     0.076 A 
ATOM     11  C   UNL     1       1.754 -21.839  47.000  1.00  0.00     0.041 A 
ATOM     12  C   UNL     1       0.355 -22.015  46.544  1.00  0.00     0.194 C 
ATOM     13  O   UNL     1       0.109 -22.190  45.319  1.00  0.00    -0.289 OA
ATOM     14  C   UNL     1       2.797 -21.779  46.059  1.00  0.00     0.059 A 
ATOM     15  C   UNL     1       4.115 -21.589  46.471  1.00  0.00     0.120 A 
ATOM     16  C   UNL     1       4.401 -21.423  47.827  1.00  0.00     0.093 A 
ATOM     17  C   UNL     1       3.380 -21.450  48.782  1.00  0.00     0.131 A 
ENDROOT
BRANCH   6  18
ATOM     18  O   UNL     1      -1.300 -21.756  51.194  1.00  0.00    -0.507 OA
ATOM     19  H   UNL     1      -0.789 -22.476  51.691  1.00  0.00     0.293 HD
ENDBRANCH   6  18
BRANCH  17  20
ATOM     20  O   UNL     1       3.736 -21.170  50.103  1.00  0.00    -0.507 OA
ATOM     21  H   UNL     1       4.602 -20.721  50.368  1.00  0.00     0.293 HD
ENDBRANCH  17  20
BRANCH  15  22
ATOM     22  O   UNL     1       5.133 -21.551  45.520  1.00  0.00    -0.508 OA
ATOM     23  H   UNL     1       5.896 -20.887  45.588  1.00  0.00     0.293 HD
ENDBRANCH  15  22
TORSDOF 3
ENDMDL
MODEL 9
REMARK VINA RESULT:    -6.905      2.986      4.411
REMARK INTER + INTRA:          -7.510
REMARK INTER:                  -7.510
REMARK INTRA:                   0.000
REMARK UNBOUND:                 0.000
REMARK SMILES Cc1cc(O)c2c(c1)C(=O)c1cc(O)cc(O)c1C2=O
REMARK SMILES IDX 1 1 2 2 8 3 7 4 6 5 4 6 3 7 19 8 20 9 18 10 11 11 9 12 10 13
REMARK SMILES IDX 12 14 13 15 15 16 16 17 5 18 17 20 14 22
REMARK H PARENT 5 19 17 21 14 23
REMARK Flexibility Score: inf
ROOT
ATOM      1  C   UNL     1       2.105 -21.554  44.198  1.00  0.00     0.044 C 
ATOM      2  C   UNL     1       0.678 -21.472  44.656  1.00  0.00    -0.047 A 
ATOM      3  C   UNL     1       0.186 -22.389  45.593  1.00  0.00     0.016 A 
ATOM      4  C   UNL     1      -1.138 -22.298  46.057  1.00  0.00     0.038 A 
ATOM      5  C   UNL     1      -1.980 -21.271  45.581  1.00  0.00     0.076 A 
ATOM      6  C   UNL     1      -1.471 -20.332  44.655  1.00  0.00     0.127 A 
ATOM      7  C   UNL     1      -0.148 -20.437  44.205  1.00  0.00     0.050 A 
ATOM      8  C   UNL     1      -3.389 -21.213  46.050  1.00  0.00     0.201 C 
ATOM      9  O   UNL     1      -4.236 -20.560  45.386  1.00  0.00    -0.288 OA
ATOM     10  C   UNL     1      -3.820 -22.019  47.228  1.00  0.00     0.076 A 
ATOM     11  C   UNL     1      -2.989 -23.083  47.653  1.00  0.00     0.041 A 
ATOM     12  C   UNL     1      -1.653 -23.276  47.043  1.00  0.00     0.194 C 
ATOM     13  O   UNL     1      -0.944 -24.265  47.375  1.00  0.00    -0.289 OA
ATOM     14  C   UNL     1      -3.430 -23.952  48.666  1.00  0.00     0.059 A 
ATOM     15  C   UNL     1      -4.674 -23.769  49.268  1.00  0.00     0.120 A 
ATOM     16  C   UNL     1      -5.477 -22.693  48.886  1.00  0.00     0.093 A 
ATOM     17  C   UNL     1      -5.051 -21.796  47.901  1.00  0.00     0.131 A 
ENDROOT
BRANCH   6  18
ATOM     18  O   UNL     1      -2.269 -19.286  44.190  1.00  0.00    -0.507 OA
ATOM     19  H   UNL     1      -3.079 -18.964  44.707  1.00  0.00     0.293 HD
ENDBRANCH   6  18
BRANCH  17  20
ATOM     20  O   UNL     1      -5.865 -20.688  47.653  1.00  0.00    -0.507 OA
ATOM     21  H   UNL     1      -5.554 -19.731  47.750  1.00  0.00     0.293 HD
ENDBRANCH  17  20
BRANCH  15  22
ATOM     22  O   UNL     1      -5.096 -24.655  50.257  1.00  0.00    -0.508 OA
ATOM     23  H   UNL     1      -4.859 -25.640  50.223  1.00  0.00     0.293 HD
ENDBRANCH  15  22
TORSDOF 3
ENDMDL
