MODEL 1
REMARK VINA RESULT:    -5.280      0.000      0.000
REMARK INTER + INTRA:          -5.952
REMARK INTER:                  -5.743
REMARK INTRA:                  -0.209
REMARK UNBOUND:                -0.209
REMARK SMILES O=C([O-])c1ccccc1O
REMARK SMILES IDX 4 1 9 2 5 3 8 4 6 5 7 6 2 7 1 8 3 9 10 10
REMARK H PARENT 10 11
REMARK Flexibility Score: inf
ROOT
ATOM      1  C   UNL     1     -17.675  30.635  -0.792  1.00  0.00     0.039 A 
ATOM      2  C   UNL     1     -17.428  31.895  -0.189  1.00  0.00     0.124 A 
ATOM      3  C   UNL     1     -17.025  29.497  -0.280  1.00  0.00     0.014 A 
ATOM      4  C   UNL     1     -16.502  31.993   0.857  1.00  0.00     0.047 A 
ATOM      5  C   UNL     1     -16.120  29.608   0.778  1.00  0.00     0.001 A 
ATOM      6  C   UNL     1     -15.851  30.856   1.339  1.00  0.00     0.004 A 
ENDROOT
BRANCH   1   7
ATOM      7  C   UNL     1     -18.562  30.477  -1.965  1.00  0.00     0.075 C 
ATOM      8  O   UNL     1     -18.303  31.081  -3.040  1.00  0.00    -0.545 OA
ATOM      9  O   UNL     1     -19.724  29.718  -1.882  1.00  0.00    -0.545 OA
ENDBRANCH   1   7
BRANCH   2  10
ATOM     10  O   UNL     1     -18.104  33.056  -0.570  1.00  0.00    -0.507 OA
ATOM     11  H   UNL     1     -18.610  33.643   0.077  1.00  0.00     0.293 HD
ENDBRANCH   2  10
TORSDOF 2
ENDMDL
MODEL 2
REMARK VINA RESULT:    -5.043      1.305      2.216
REMARK INTER + INTRA:          -5.694
REMARK INTER:                  -5.480
REMARK INTRA:                  -0.213
REMARK UNBOUND:                -0.209
REMARK SMILES O=C([O-])c1ccccc1O
REMARK SMILES IDX 4 1 9 2 5 3 8 4 6 5 7 6 2 7 1 8 3 9 10 10
REMARK H PARENT 10 11
REMARK Flexibility Score: inf
ROOT
ATOM      1  C   UNL     1     -17.741  31.216  -1.003  1.00  0.00     0.039 A 
ATOM      2  C   UNL     1     -16.992  30.430  -0.091  1.00  0.00     0.124 A 
ATOM      3  C   UNL     1     -17.687  32.618  -0.897  1.00  0.00     0.014 A 
ATOM      4  C   UNL     1     -16.267  31.057   0.931  1.00  0.00     0.047 A 
ATOM      5  C   UNL     1     -16.942  33.228   0.114  1.00  0.00     0.001 A 
ATOM      6  C   UNL     1     -16.242  32.448   1.034  1.00  0.00     0.004 A 
ENDROOT
BRANCH   1   7
ATOM      7  C   UNL     1     -18.609  30.617  -2.041  1.00  0.00     0.075 C 
ATOM      8  O   UNL     1     -18.492  30.969  -3.244  1.00  0.00    -0.545 OA
ATOM      9  O   UNL     1     -19.607  29.712  -1.698  1.00  0.00    -0.545 OA
ENDBRANCH   1   7
BRANCH   2  10
ATOM     10  O   UNL     1     -16.913  29.039  -0.186  1.00  0.00    -0.507 OA
ATOM     11  H   UNL     1     -17.085  28.529  -1.041  1.00  0.00     0.293 HD
ENDBRANCH   2  10
TORSDOF 2
ENDMDL
MODEL 3
REMARK VINA RESULT:    -5.033      2.536      4.082
REMARK INTER + INTRA:          -5.683
REMARK INTER:                  -5.436
REMARK INTRA:                  -0.247
REMARK UNBOUND:                -0.209
REMARK SMILES O=C([O-])c1ccccc1O
REMARK SMILES IDX 4 1 9 2 5 3 8 4 6 5 7 6 2 7 1 8 3 9 10 10
REMARK H PARENT 10 11
REMARK Flexibility Score: inf
ROOT
ATOM      1  C   UNL     1     -16.419  29.021   0.926  1.00  0.00     0.039 A 
ATOM      2  C   UNL     1     -17.209  28.730  -0.215  1.00  0.00     0.124 A 
ATOM      3  C   UNL     1     -16.121  27.984   1.830  1.00  0.00     0.014 A 
ATOM      4  C   UNL     1     -17.726  27.440  -0.389  1.00  0.00     0.047 A 
ATOM      5  C   UNL     1     -16.627  26.698   1.631  1.00  0.00     0.001 A 
ATOM      6  C   UNL     1     -17.438  26.429   0.528  1.00  0.00     0.004 A 
ENDROOT
BRANCH   1   7
ATOM      7  C   UNL     1     -15.927  30.384   1.224  1.00  0.00     0.075 C 
ATOM      8  O   UNL     1     -14.887  30.543   1.917  1.00  0.00    -0.545 OA
ATOM      9  O   UNL     1     -16.636  31.504   0.806  1.00  0.00    -0.545 OA
ENDBRANCH   1   7
BRANCH   2  10
ATOM     10  O   UNL     1     -17.469  29.675  -1.210  1.00  0.00    -0.507 OA
ATOM     11  H   UNL     1     -17.796  30.610  -1.016  1.00  0.00     0.293 HD
ENDBRANCH   2  10
TORSDOF 2
ENDMDL
MODEL 4
REMARK VINA RESULT:    -4.998      3.210      4.512
REMARK INTER + INTRA:          -5.645
REMARK INTER:                  -5.407
REMARK INTRA:                  -0.238
REMARK UNBOUND:                -0.209
REMARK SMILES O=C([O-])c1ccccc1O
REMARK SMILES IDX 4 1 9 2 5 3 8 4 6 5 7 6 2 7 1 8 3 9 10 10
REMARK H PARENT 10 11
REMARK Flexibility Score: inf
ROOT
ATOM      1  C   UNL     1     -16.215  28.969   1.105  1.00  0.00     0.039 A 
ATOM      2  C   UNL     1     -16.369  28.116   2.227  1.00  0.00     0.124 A 
ATOM      3  C   UNL     1     -16.368  28.429  -0.186  1.00  0.00     0.014 A 
ATOM      4  C   UNL     1     -16.606  26.749   2.031  1.00  0.00     0.047 A 
ATOM      5  C   UNL     1     -16.626  27.068  -0.364  1.00  0.00     0.001 A 
ATOM      6  C   UNL     1     -16.734  26.227   0.744  1.00  0.00     0.004 A 
ENDROOT
BRANCH   1   7
ATOM      7  C   UNL     1     -15.862  30.399   1.237  1.00  0.00     0.075 C 
ATOM      8  O   UNL     1     -14.865  30.744   1.925  1.00  0.00    -0.545 OA
ATOM      9  O   UNL     1     -16.660  31.385   0.666  1.00  0.00    -0.545 OA
ENDBRANCH   1   7
BRANCH   2  10
ATOM     10  O   UNL     1     -16.330  28.588   3.541  1.00  0.00    -0.507 OA
ATOM     11  H   UNL     1     -16.731  28.090   4.323  1.00  0.00     0.293 HD
ENDBRANCH   2  10
TORSDOF 2
ENDMDL
MODEL 5
REMARK VINA RESULT:    -4.996      1.299      2.811
REMARK INTER + INTRA:          -5.643
REMARK INTER:                  -5.402
REMARK INTRA:                  -0.241
REMARK UNBOUND:                -0.209
REMARK SMILES O=C([O-])c1ccccc1O
REMARK SMILES IDX 4 1 9 2 5 3 8 4 6 5 7 6 2 7 1 8 3 9 10 10
REMARK H PARENT 10 11
REMARK Flexibility Score: inf
ROOT
ATOM      1  C   UNL     1     -17.626  29.710  -0.726  1.00  0.00     0.039 A 
ATOM      2  C   UNL     1     -17.407  28.347  -0.401  1.00  0.00     0.124 A 
ATOM      3  C   UNL     1     -16.931  30.701  -0.007  1.00  0.00     0.014 A 
ATOM      4  C   UNL     1     -16.557  28.016   0.663  1.00  0.00     0.047 A 
ATOM      5  C   UNL     1     -16.072  30.354   1.037  1.00  0.00     0.001 A 
ATOM      6  C   UNL     1     -15.893  29.013   1.379  1.00  0.00     0.004 A 
ENDROOT
BRANCH   1   7
ATOM      7  C   UNL     1     -18.587  30.133  -1.768  1.00  0.00     0.075 C 
ATOM      8  O   UNL     1     -19.766  29.689  -1.759  1.00  0.00    -0.545 OA
ATOM      9  O   UNL     1     -18.189  30.968  -2.806  1.00  0.00    -0.545 OA
ENDBRANCH   1   7
BRANCH   2  10
ATOM     10  O   UNL     1     -17.979  27.300  -1.126  1.00  0.00    -0.507 OA
ATOM     11  H   UNL     1     -18.861  27.377  -1.611  1.00  0.00     0.293 HD
ENDBRANCH   2  10
TORSDOF 2
ENDMDL
MODEL 6
REMARK VINA RESULT:    -4.817      3.440      4.848
REMARK INTER + INTRA:          -5.448
REMARK INTER:                  -5.203
REMARK INTRA:                  -0.244
REMARK UNBOUND:                -0.209
REMARK SMILES O=C([O-])c1ccccc1O
REMARK SMILES IDX 4 1 9 2 5 3 8 4 6 5 7 6 2 7 1 8 3 9 10 10
REMARK H PARENT 10 11
REMARK Flexibility Score: inf
ROOT
ATOM      1  C   UNL     1     -16.203  28.862   2.323  1.00  0.00     0.039 A 
ATOM      2  C   UNL     1     -16.208  29.553   1.084  1.00  0.00     0.124 A 
ATOM      3  C   UNL     1     -16.353  27.463   2.322  1.00  0.00     0.014 A 
ATOM      4  C   UNL     1     -16.424  28.843  -0.104  1.00  0.00     0.047 A 
ATOM      5  C   UNL     1     -16.546  26.767   1.127  1.00  0.00     0.001 A 
ATOM      6  C   UNL     1     -16.592  27.458  -0.084  1.00  0.00     0.004 A 
ENDROOT
BRANCH   1   7
ATOM      7  C   UNL     1     -16.083  29.561   3.621  1.00  0.00     0.075 C 
ATOM      8  O   UNL     1     -16.962  29.401   4.509  1.00  0.00    -0.545 OA
ATOM      9  O   UNL     1     -15.043  30.454   3.856  1.00  0.00    -0.545 OA
ENDBRANCH   1   7
BRANCH   2  10
ATOM     10  O   UNL     1     -15.968  30.925   0.988  1.00  0.00    -0.507 OA
ATOM     11  H   UNL     1     -15.486  31.352   0.211  1.00  0.00     0.293 HD
ENDBRANCH   2  10
TORSDOF 2
ENDMDL
MODEL 7
REMARK VINA RESULT:    -4.805      4.233      5.498
REMARK INTER + INTRA:          -5.435
REMARK INTER:                  -5.212
REMARK INTRA:                  -0.223
REMARK UNBOUND:                -0.209
REMARK SMILES O=C([O-])c1ccccc1O
REMARK SMILES IDX 4 1 9 2 5 3 8 4 6 5 7 6 2 7 1 8 3 9 10 10
REMARK H PARENT 10 11
REMARK Flexibility Score: inf
ROOT
ATOM      1  C   UNL     1     -17.736  25.610   0.252  1.00  0.00     0.039 A 
ATOM      2  C   UNL     1     -17.376  26.570  -0.728  1.00  0.00     0.124 A 
ATOM      3  C   UNL     1     -17.369  25.835   1.592  1.00  0.00     0.014 A 
ATOM      4  C   UNL     1     -16.613  27.685  -0.358  1.00  0.00     0.047 A 
ATOM      5  C   UNL     1     -16.626  26.963   1.948  1.00  0.00     0.001 A 
ATOM      6  C   UNL     1     -16.239  27.881   0.971  1.00  0.00     0.004 A 
ENDROOT
BRANCH   1   7
ATOM      7  C   UNL     1     -18.452  24.360  -0.086  1.00  0.00     0.075 C 
ATOM      8  O   UNL     1     -18.936  23.641   0.828  1.00  0.00    -0.545 OA
ATOM      9  O   UNL     1     -18.542  23.926  -1.404  1.00  0.00    -0.545 OA
ENDBRANCH   1   7
BRANCH   2  10
ATOM     10  O   UNL     1     -17.784  26.473  -2.060  1.00  0.00    -0.507 OA
ATOM     11  H   UNL     1     -18.140  27.254  -2.591  1.00  0.00     0.293 HD
ENDBRANCH   2  10
TORSDOF 2
ENDMDL
MODEL 8
REMARK VINA RESULT:    -4.712      1.903      2.836
REMARK INTER + INTRA:          -5.334
REMARK INTER:                  -5.142
REMARK INTRA:                  -0.191
REMARK UNBOUND:                -0.209
REMARK SMILES O=C([O-])c1ccccc1O
REMARK SMILES IDX 4 1 9 2 5 3 8 4 6 5 7 6 2 7 1 8 3 9 10 10
REMARK H PARENT 10 11
REMARK Flexibility Score: inf
ROOT
ATOM      1  C   UNL     1     -17.016  30.439  -0.057  1.00  0.00     0.039 A 
ATOM      2  C   UNL     1     -17.804  31.157  -0.992  1.00  0.00     0.124 A 
ATOM      3  C   UNL     1     -16.249  31.156   0.879  1.00  0.00     0.014 A 
ATOM      4  C   UNL     1     -17.757  32.557  -1.007  1.00  0.00     0.047 A 
ATOM      5  C   UNL     1     -16.229  32.552   0.865  1.00  0.00     0.001 A 
ATOM      6  C   UNL     1     -16.975  33.252  -0.084  1.00  0.00     0.004 A 
ENDROOT
BRANCH   1   7
ATOM      7  C   UNL     1     -16.938  28.961  -0.054  1.00  0.00     0.075 C 
ATOM      8  O   UNL     1     -16.110  28.373   0.691  1.00  0.00    -0.545 OA
ATOM      9  O   UNL     1     -17.725  28.205  -0.916  1.00  0.00    -0.545 OA
ENDBRANCH   1   7
BRANCH   2  10
ATOM     10  O   UNL     1     -18.667  30.525  -1.890  1.00  0.00    -0.507 OA
ATOM     11  H   UNL     1     -18.392  30.237  -2.817  1.00  0.00     0.293 HD
ENDBRANCH   2  10
TORSDOF 2
ENDMDL
MODEL 9
REMARK VINA RESULT:    -4.660      2.269      3.005
REMARK INTER + INTRA:          -5.277
REMARK INTER:                  -5.066
REMARK INTRA:                  -0.211
REMARK UNBOUND:                -0.209
REMARK SMILES O=C([O-])c1ccccc1O
REMARK SMILES IDX 4 1 9 2 5 3 8 4 6 5 7 6 2 7 1 8 3 9 10 10
REMARK H PARENT 10 11
REMARK Flexibility Score: inf
ROOT
ATOM      1  C   UNL     1     -16.991  30.422  -0.152  1.00  0.00     0.039 A 
ATOM      2  C   UNL     1     -16.250  31.183   0.788  1.00  0.00     0.124 A 
ATOM      3  C   UNL     1     -17.801  31.096  -1.085  1.00  0.00     0.014 A 
ATOM      4  C   UNL     1     -16.386  32.577   0.811  1.00  0.00     0.047 A 
ATOM      5  C   UNL     1     -17.909  32.487  -1.062  1.00  0.00     0.001 A 
ATOM      6  C   UNL     1     -17.210  33.227  -0.108  1.00  0.00     0.004 A 
ENDROOT
BRANCH   1   7
ATOM      7  C   UNL     1     -16.974  28.943  -0.166  1.00  0.00     0.075 C 
ATOM      8  O   UNL     1     -16.051  28.315   0.418  1.00  0.00    -0.545 OA
ATOM      9  O   UNL     1     -17.932  28.227  -0.875  1.00  0.00    -0.545 OA
ENDBRANCH   1   7
BRANCH   2  10
ATOM     10  O   UNL     1     -15.349  30.602   1.682  1.00  0.00    -0.507 OA
ATOM     11  H   UNL     1     -14.347  30.683   1.593  1.00  0.00     0.293 HD
ENDBRANCH   2  10
TORSDOF 2
ENDMDL
