MODEL 1
REMARK VINA RESULT:    -0.109      0.000      0.000
REMARK INTER + INTRA:          -1.164
REMARK INTER:                  -0.197
REMARK INTRA:                  -0.967
REMARK UNBOUND:                -0.967
REMARK SMILES CCCCCCCCCCCCCCCC(=O)[O-]
REMARK SMILES IDX 9 1 10 2 11 3 12 4 13 5 14 6 15 7 16 8 17 9 18 10 8 11 7 12
REMARK SMILES IDX 6 13 5 14 4 15 3 16 2 17 1 18
REMARK H PARENT
REMARK Flexibility Score: inf
ROOT
ATOM      1  C   UNL     1      -4.349  35.517  21.330  1.00  0.00     0.000 C 
ENDROOT
BRANCH   1   2
ATOM      2  C   UNL     1      -4.842  34.462  22.336  1.00  0.00     0.000 C 
BRANCH   2   3
ATOM      3  C   UNL     1      -6.120  34.891  23.076  1.00  0.00     0.000 C 
BRANCH   3   4
ATOM      4  C   UNL     1      -5.887  35.107  24.580  1.00  0.00     0.000 C 
BRANCH   4   5
ATOM      5  C   UNL     1      -5.514  36.561  24.918  1.00  0.00     0.000 C 
BRANCH   5   6
ATOM      6  C   UNL     1      -5.916  37.551  23.810  1.00  0.00     0.006 C 
BRANCH   6   7
ATOM      7  C   UNL     1      -5.152  38.884  23.841  1.00  0.00     0.053 C 
BRANCH   7   8
ATOM      8  C   UNL     1      -4.930  39.436  22.465  1.00  0.00     0.041 C 
ATOM      9  O   UNL     1      -4.127  38.871  21.678  1.00  0.00    -0.550 OA
ATOM     10  O   UNL     1      -5.635  40.557  22.045  1.00  0.00    -0.550 OA
ENDBRANCH   7   8
ENDBRANCH   6   7
ENDBRANCH   5   6
ENDBRANCH   4   5
ENDBRANCH   3   4
ENDBRANCH   2   3
ENDBRANCH   1   2
BRANCH   1  11
ATOM     11  C   UNL     1      -5.328  35.844  20.183  1.00  0.00     0.000 C 
BRANCH  11  12
ATOM     12  C   UNL     1      -6.066  34.633  19.586  1.00  0.00    -0.000 C 
BRANCH  12  13
ATOM     13  C   UNL     1      -5.456  34.158  18.255  1.00  0.00    -0.000 C 
BRANCH  13  14
ATOM     14  C   UNL     1      -4.366  35.115  17.728  1.00  0.00    -0.000 C 
BRANCH  14  15
ATOM     15  C   UNL     1      -4.642  35.659  16.314  1.00  0.00    -0.000 C 
BRANCH  15  16
ATOM     16  C   UNL     1      -3.442  35.618  15.350  1.00  0.00    -0.000 C 
BRANCH  16  17
ATOM     17  C   UNL     1      -3.608  36.459  14.071  1.00  0.00    -0.003 C 
ATOM     18  C   UNL     1      -4.062  37.890  14.353  1.00  0.00     0.004 C 
ENDBRANCH  16  17
ENDBRANCH  15  16
ENDBRANCH  14  15
ENDBRANCH  13  14
ENDBRANCH  12  13
ENDBRANCH  11  12
ENDBRANCH   1  11
TORSDOF 14
ENDMDL
MODEL 2
REMARK VINA RESULT:     0.748      2.137      3.221
REMARK INTER + INTRA:           0.394
REMARK INTER:                   1.082
REMARK INTRA:                  -0.688
REMARK UNBOUND:                -0.967
REMARK SMILES CCCCCCCCCCCCCCCC(=O)[O-]
REMARK SMILES IDX 9 1 10 2 11 3 12 4 13 5 14 6 15 7 16 8 17 9 18 10 8 11 7 12
REMARK SMILES IDX 6 13 5 14 4 15 3 16 2 17 1 18
REMARK H PARENT
REMARK Flexibility Score: inf
ROOT
ATOM      1  C   UNL     1      -4.848  37.154  21.003  1.00  0.00     0.000 C 
ENDROOT
BRANCH   1   2
ATOM      2  C   UNL     1      -5.772  38.386  21.015  1.00  0.00     0.000 C 
BRANCH   2   3
ATOM      3  C   UNL     1      -5.201  39.554  21.837  1.00  0.00     0.000 C 
BRANCH   3   4
ATOM      4  C   UNL     1      -4.386  39.078  23.051  1.00  0.00     0.000 C 
BRANCH   4   5
ATOM      5  C   UNL     1      -5.264  38.816  24.287  1.00  0.00     0.000 C 
BRANCH   5   6
ATOM      6  C   UNL     1      -5.254  37.340  24.721  1.00  0.00     0.006 C 
BRANCH   6   7
ATOM      7  C   UNL     1      -6.125  36.416  23.854  1.00  0.00     0.053 C 
BRANCH   7   8
ATOM      8  C   UNL     1      -5.807  34.970  24.082  1.00  0.00     0.041 C 
ATOM      9  O   UNL     1      -6.125  34.414  25.166  1.00  0.00    -0.550 OA
ATOM     10  O   UNL     1      -5.185  34.229  23.085  1.00  0.00    -0.550 OA
ENDBRANCH   7   8
ENDBRANCH   6   7
ENDBRANCH   5   6
ENDBRANCH   4   5
ENDBRANCH   3   4
ENDBRANCH   2   3
ENDBRANCH   1   2
BRANCH   1  11
ATOM     11  C   UNL     1      -4.605  36.526  19.615  1.00  0.00     0.000 C 
BRANCH  11  12
ATOM     12  C   UNL     1      -5.201  35.122  19.418  1.00  0.00    -0.000 C 
BRANCH  12  13
ATOM     13  C   UNL     1      -4.940  34.554  18.011  1.00  0.00    -0.000 C 
BRANCH  13  14
ATOM     14  C   UNL     1      -4.700  35.660  16.961  1.00  0.00    -0.000 C 
BRANCH  14  15
ATOM     15  C   UNL     1      -3.509  35.386  16.024  1.00  0.00    -0.000 C 
BRANCH  15  16
ATOM     16  C   UNL     1      -3.770  35.664  14.532  1.00  0.00    -0.000 C 
BRANCH  16  17
ATOM     17  C   UNL     1      -3.249  37.020  14.025  1.00  0.00    -0.003 C 
ATOM     18  C   UNL     1      -4.249  38.157  14.227  1.00  0.00     0.004 C 
ENDBRANCH  16  17
ENDBRANCH  15  16
ENDBRANCH  14  15
ENDBRANCH  13  14
ENDBRANCH  12  13
ENDBRANCH  11  12
ENDBRANCH   1  11
TORSDOF 14
ENDMDL
MODEL 3
REMARK VINA RESULT:     1.030      2.885      7.033
REMARK INTER + INTRA:           0.905
REMARK INTER:                   1.912
REMARK INTRA:                  -1.006
REMARK UNBOUND:                -0.967
REMARK SMILES CCCCCCCCCCCCCCCC(=O)[O-]
REMARK SMILES IDX 9 1 10 2 11 3 12 4 13 5 14 6 15 7 16 8 17 9 18 10 8 11 7 12
REMARK SMILES IDX 6 13 5 14 4 15 3 16 2 17 1 18
REMARK H PARENT
REMARK Flexibility Score: inf
ROOT
ATOM      1  C   UNL     1      -4.422  34.176  22.512  1.00  0.00     0.000 C 
ENDROOT
BRANCH   1   2
ATOM      2  C   UNL     1      -4.220  35.299  21.478  1.00  0.00     0.000 C 
BRANCH   2   3
ATOM      3  C   UNL     1      -5.283  35.289  20.368  1.00  0.00     0.000 C 
BRANCH   3   4
ATOM      4  C   UNL     1      -4.814  36.014  19.096  1.00  0.00     0.000 C 
BRANCH   4   5
ATOM      5  C   UNL     1      -4.686  35.069  17.889  1.00  0.00     0.000 C 
BRANCH   5   6
ATOM      6  C   UNL     1      -4.648  35.821  16.546  1.00  0.00     0.006 C 
BRANCH   6   7
ATOM      7  C   UNL     1      -3.533  35.363  15.593  1.00  0.00     0.053 C 
BRANCH   7   8
ATOM      8  C   UNL     1      -3.310  36.342  14.480  1.00  0.00     0.041 C 
ATOM      9  O   UNL     1      -4.243  37.100  14.107  1.00  0.00    -0.550 OA
ATOM     10  O   UNL     1      -2.063  36.435  13.876  1.00  0.00    -0.550 OA
ENDBRANCH   7   8
ENDBRANCH   6   7
ENDBRANCH   5   6
ENDBRANCH   4   5
ENDBRANCH   3   4
ENDBRANCH   2   3
ENDBRANCH   1   2
BRANCH   1  11
ATOM     11  C   UNL     1      -5.695  34.294  23.375  1.00  0.00     0.000 C 
BRANCH  11  12
ATOM     12  C   UNL     1      -6.050  35.721  23.828  1.00  0.00    -0.000 C 
BRANCH  12  13
ATOM     13  C   UNL     1      -5.471  36.070  25.211  1.00  0.00    -0.000 C 
BRANCH  13  14
ATOM     14  C   UNL     1      -4.742  37.431  25.221  1.00  0.00    -0.000 C 
BRANCH  14  15
ATOM     15  C   UNL     1      -5.532  38.569  24.547  1.00  0.00    -0.000 C 
BRANCH  15  16
ATOM     16  C   UNL     1      -4.855  39.198  23.316  1.00  0.00    -0.000 C 
BRANCH  16  17
ATOM     17  C   UNL     1      -5.202  38.531  21.973  1.00  0.00    -0.003 C 
ATOM     18  C   UNL     1      -5.790  39.507  20.956  1.00  0.00     0.004 C 
ENDBRANCH  16  17
ENDBRANCH  15  16
ENDBRANCH  14  15
ENDBRANCH  13  14
ENDBRANCH  12  13
ENDBRANCH  11  12
ENDBRANCH   1  11
TORSDOF 14
ENDMDL
MODEL 4
REMARK VINA RESULT:     1.229      2.879      7.373
REMARK INTER + INTRA:           1.267
REMARK INTER:                   0.481
REMARK INTRA:                   0.787
REMARK UNBOUND:                -0.967
REMARK SMILES CCCCCCCCCCCCCCCC(=O)[O-]
REMARK SMILES IDX 9 1 10 2 11 3 12 4 13 5 14 6 15 7 16 8 17 9 18 10 8 11 7 12
REMARK SMILES IDX 6 13 5 14 4 15 3 16 2 17 1 18
REMARK H PARENT
REMARK Flexibility Score: inf
ROOT
ATOM      1  C   UNL     1      -4.730  37.221  19.905  1.00  0.00     0.000 C 
ENDROOT
BRANCH   1   2
ATOM      2  C   UNL     1      -4.614  35.771  20.409  1.00  0.00     0.000 C 
BRANCH   2   3
ATOM      3  C   UNL     1      -5.858  34.925  20.092  1.00  0.00     0.000 C 
BRANCH   3   4
ATOM      4  C   UNL     1      -5.988  34.607  18.594  1.00  0.00     0.000 C 
BRANCH   4   5
ATOM      5  C   UNL     1      -4.629  34.584  17.874  1.00  0.00     0.000 C 
BRANCH   5   6
ATOM      6  C   UNL     1      -4.558  35.581  16.703  1.00  0.00     0.006 C 
BRANCH   6   7
ATOM      7  C   UNL     1      -3.528  35.219  15.622  1.00  0.00     0.053 C 
BRANCH   7   8
ATOM      8  C   UNL     1      -3.462  36.255  14.541  1.00  0.00     0.041 C 
ATOM      9  O   UNL     1      -4.485  36.928  14.245  1.00  0.00    -0.550 OA
ATOM     10  O   UNL     1      -2.264  36.497  13.882  1.00  0.00    -0.550 OA
ENDBRANCH   7   8
ENDBRANCH   6   7
ENDBRANCH   5   6
ENDBRANCH   4   5
ENDBRANCH   3   4
ENDBRANCH   2   3
ENDBRANCH   1   2
BRANCH   1  11
ATOM     11  C   UNL     1      -5.136  38.260  20.971  1.00  0.00     0.000 C 
BRANCH  11  12
ATOM     12  C   UNL     1      -5.249  37.717  22.406  1.00  0.00    -0.000 C 
BRANCH  12  13
ATOM     13  C   UNL     1      -4.627  38.660  23.452  1.00  0.00    -0.000 C 
BRANCH  13  14
ATOM     14  C   UNL     1      -5.112  38.354  24.886  1.00  0.00    -0.000 C 
BRANCH  14  15
ATOM     15  C   UNL     1      -5.652  36.924  25.072  1.00  0.00    -0.000 C 
BRANCH  15  16
ATOM     16  C   UNL     1      -5.399  35.968  23.891  1.00  0.00    -0.000 C 
BRANCH  16  17
ATOM     17  C   UNL     1      -6.125  34.615  23.986  1.00  0.00    -0.003 C 
ATOM     18  C   UNL     1      -5.370  33.483  23.291  1.00  0.00     0.004 C 
ENDBRANCH  16  17
ENDBRANCH  15  16
ENDBRANCH  14  15
ENDBRANCH  13  14
ENDBRANCH  12  13
ENDBRANCH  11  12
ENDBRANCH   1  11
TORSDOF 14
ENDMDL
MODEL 5
REMARK VINA RESULT:     1.292      2.399      6.556
REMARK INTER + INTRA:           1.383
REMARK INTER:                   2.502
REMARK INTRA:                  -1.118
REMARK UNBOUND:                -0.967
REMARK SMILES CCCCCCCCCCCCCCCC(=O)[O-]
REMARK SMILES IDX 9 1 10 2 11 3 12 4 13 5 14 6 15 7 16 8 17 9 18 10 8 11 7 12
REMARK SMILES IDX 6 13 5 14 4 15 3 16 2 17 1 18
REMARK H PARENT
REMARK Flexibility Score: inf
ROOT
ATOM      1  C   UNL     1      -4.303  34.773  22.359  1.00  0.00     0.000 C 
ENDROOT
BRANCH   1   2
ATOM      2  C   UNL     1      -3.988  35.019  20.872  1.00  0.00     0.000 C 
BRANCH   2   3
ATOM      3  C   UNL     1      -5.251  35.093  19.998  1.00  0.00     0.000 C 
BRANCH   3   4
ATOM      4  C   UNL     1      -5.273  36.339  19.099  1.00  0.00     0.000 C 
BRANCH   4   5
ATOM      5  C   UNL     1      -5.716  37.605  19.854  1.00  0.00     0.000 C 
BRANCH   5   6
ATOM      6  C   UNL     1      -4.529  38.408  20.416  1.00  0.00     0.006 C 
BRANCH   6   7
ATOM      7  C   UNL     1      -4.456  38.444  21.951  1.00  0.00     0.053 C 
BRANCH   7   8
ATOM      8  C   UNL     1      -5.248  39.581  22.523  1.00  0.00     0.041 C 
ATOM      9  O   UNL     1      -5.493  39.624  23.757  1.00  0.00    -0.550 OA
ATOM     10  O   UNL     1      -5.689  40.606  21.696  1.00  0.00    -0.550 OA
ENDBRANCH   7   8
ENDBRANCH   6   7
ENDBRANCH   5   6
ENDBRANCH   4   5
ENDBRANCH   3   4
ENDBRANCH   2   3
ENDBRANCH   1   2
BRANCH   1  11
ATOM     11  C   UNL     1      -5.802  34.683  22.711  1.00  0.00     0.000 C 
BRANCH  11  12
ATOM     12  C   UNL     1      -6.125  33.941  24.019  1.00  0.00    -0.000 C 
BRANCH  12  13
ATOM     13  C   UNL     1      -6.083  34.859  25.254  1.00  0.00    -0.000 C 
BRANCH  13  14
ATOM     14  C   UNL     1      -6.124  36.356  24.880  1.00  0.00    -0.000 C 
BRANCH  14  15
ATOM     15  C   UNL     1      -5.702  37.299  26.022  1.00  0.00    -0.000 C 
BRANCH  15  16
ATOM     16  C   UNL     1      -4.278  37.872  25.907  1.00  0.00    -0.000 C 
BRANCH  16  17
ATOM     17  C   UNL     1      -3.154  36.909  26.328  1.00  0.00    -0.003 C 
ATOM     18  C   UNL     1      -2.276  37.468  27.446  1.00  0.00     0.004 C 
ENDBRANCH  16  17
ENDBRANCH  15  16
ENDBRANCH  14  15
ENDBRANCH  13  14
ENDBRANCH  12  13
ENDBRANCH  11  12
ENDBRANCH   1  11
TORSDOF 14
ENDMDL
MODEL 6
REMARK VINA RESULT:     1.359      2.808      7.552
REMARK INTER + INTRA:           1.504
REMARK INTER:                   1.719
REMARK INTRA:                  -0.216
REMARK UNBOUND:                -0.967
REMARK SMILES CCCCCCCCCCCCCCCC(=O)[O-]
REMARK SMILES IDX 9 1 10 2 11 3 12 4 13 5 14 6 15 7 16 8 17 9 18 10 8 11 7 12
REMARK SMILES IDX 6 13 5 14 4 15 3 16 2 17 1 18
REMARK H PARENT
REMARK Flexibility Score: inf
ROOT
ATOM      1  C   UNL     1      -4.714  36.528  21.472  1.00  0.00     0.000 C 
ENDROOT
BRANCH   1   2
ATOM      2  C   UNL     1      -4.372  35.486  20.391  1.00  0.00     0.000 C 
BRANCH   2   3
ATOM      3  C   UNL     1      -5.588  35.088  19.538  1.00  0.00     0.000 C 
BRANCH   3   4
ATOM      4  C   UNL     1      -5.197  34.683  18.107  1.00  0.00     0.000 C 
BRANCH   4   5
ATOM      5  C   UNL     1      -4.632  35.860  17.294  1.00  0.00     0.000 C 
BRANCH   5   6
ATOM      6  C   UNL     1      -3.943  35.407  15.993  1.00  0.00     0.006 C 
BRANCH   6   7
ATOM      7  C   UNL     1      -4.532  36.022  14.714  1.00  0.00     0.053 C 
BRANCH   7   8
ATOM      8  C   UNL     1      -3.709  37.168  14.212  1.00  0.00     0.041 C 
ATOM      9  O   UNL     1      -2.509  36.987  13.875  1.00  0.00    -0.550 OA
ATOM     10  O   UNL     1      -4.276  38.430  14.088  1.00  0.00    -0.550 OA
ENDBRANCH   7   8
ENDBRANCH   6   7
ENDBRANCH   5   6
ENDBRANCH   4   5
ENDBRANCH   3   4
ENDBRANCH   2   3
ENDBRANCH   1   2
BRANCH   1  11
ATOM     11  C   UNL     1      -4.504  38.000  21.061  1.00  0.00     0.000 C 
BRANCH  11  12
ATOM     12  C   UNL     1      -4.879  39.039  22.130  1.00  0.00    -0.000 C 
BRANCH  12  13
ATOM     13  C   UNL     1      -5.760  38.454  23.249  1.00  0.00    -0.000 C 
BRANCH  13  14
ATOM     14  C   UNL     1      -4.932  37.768  24.357  1.00  0.00    -0.000 C 
BRANCH  14  15
ATOM     15  C   UNL     1      -5.784  37.109  25.457  1.00  0.00    -0.000 C 
BRANCH  15  16
ATOM     16  C   UNL     1      -6.054  35.605  25.265  1.00  0.00    -0.000 C 
BRANCH  16  17
ATOM     17  C   UNL     1      -5.698  35.055  23.872  1.00  0.00    -0.003 C 
ATOM     18  C   UNL     1      -6.071  33.584  23.698  1.00  0.00     0.004 C 
ENDBRANCH  16  17
ENDBRANCH  15  16
ENDBRANCH  14  15
ENDBRANCH  13  14
ENDBRANCH  12  13
ENDBRANCH  11  12
ENDBRANCH   1  11
TORSDOF 14
ENDMDL
MODEL 7
REMARK VINA RESULT:     1.409      2.023      4.046
REMARK INTER + INTRA:           1.595
REMARK INTER:                   1.065
REMARK INTRA:                   0.529
REMARK UNBOUND:                -0.967
REMARK SMILES CCCCCCCCCCCCCCCC(=O)[O-]
REMARK SMILES IDX 9 1 10 2 11 3 12 4 13 5 14 6 15 7 16 8 17 9 18 10 8 11 7 12
REMARK SMILES IDX 6 13 5 14 4 15 3 16 2 17 1 18
REMARK H PARENT
REMARK Flexibility Score: inf
ROOT
ATOM      1  C   UNL     1      -5.579  35.924  25.616  1.00  0.00     0.000 C 
ENDROOT
BRANCH   1   2
ATOM      2  C   UNL     1      -5.274  37.360  26.080  1.00  0.00     0.000 C 
BRANCH   2   3
ATOM      3  C   UNL     1      -4.406  38.140  25.079  1.00  0.00     0.000 C 
BRANCH   3   4
ATOM      4  C   UNL     1      -5.160  39.316  24.436  1.00  0.00     0.000 C 
BRANCH   4   5
ATOM      5  C   UNL     1      -4.887  39.438  22.927  1.00  0.00     0.000 C 
BRANCH   5   6
ATOM      6  C   UNL     1      -6.089  40.003  22.149  1.00  0.00     0.006 C 
BRANCH   6   7
ATOM      7  C   UNL     1      -6.063  39.713  20.640  1.00  0.00     0.053 C 
BRANCH   7   8
ATOM      8  C   UNL     1      -5.591  38.322  20.345  1.00  0.00     0.041 C 
ATOM      9  O   UNL     1      -5.637  37.434  21.237  1.00  0.00    -0.550 OA
ATOM     10  O   UNL     1      -5.129  37.999  19.075  1.00  0.00    -0.550 OA
ENDBRANCH   7   8
ENDBRANCH   6   7
ENDBRANCH   5   6
ENDBRANCH   4   5
ENDBRANCH   3   4
ENDBRANCH   2   3
ENDBRANCH   1   2
BRANCH   1  11
ATOM     11  C   UNL     1      -6.121  35.796  24.177  1.00  0.00     0.000 C 
BRANCH  11  12
ATOM     12  C   UNL     1      -5.629  34.564  23.399  1.00  0.00    -0.000 C 
BRANCH  12  13
ATOM     13  C   UNL     1      -4.288  34.806  22.682  1.00  0.00    -0.000 C 
BRANCH  13  14
ATOM     14  C   UNL     1      -4.257  34.196  21.264  1.00  0.00    -0.000 C 
BRANCH  14  15
ATOM     15  C   UNL     1      -4.934  35.070  20.192  1.00  0.00    -0.000 C 
BRANCH  15  16
ATOM     16  C   UNL     1      -6.122  34.413  19.465  1.00  0.00    -0.000 C 
BRANCH  16  17
ATOM     17  C   UNL     1      -5.800  33.858  18.066  1.00  0.00    -0.003 C 
ATOM     18  C   UNL     1      -4.504  34.420  17.486  1.00  0.00     0.004 C 
ENDBRANCH  16  17
ENDBRANCH  15  16
ENDBRANCH  14  15
ENDBRANCH  13  14
ENDBRANCH  12  13
ENDBRANCH  11  12
ENDBRANCH   1  11
TORSDOF 14
ENDMDL
MODEL 8
REMARK VINA RESULT:     1.668      2.961      7.601
REMARK INTER + INTRA:           2.067
REMARK INTER:                   2.143
REMARK INTRA:                  -0.075
REMARK UNBOUND:                -0.967
REMARK SMILES CCCCCCCCCCCCCCCC(=O)[O-]
REMARK SMILES IDX 9 1 10 2 11 3 12 4 13 5 14 6 15 7 16 8 17 9 18 10 8 11 7 12
REMARK SMILES IDX 6 13 5 14 4 15 3 16 2 17 1 18
REMARK H PARENT
REMARK Flexibility Score: inf
ROOT
ATOM      1  C   UNL     1      -4.410  37.968  21.321  1.00  0.00     0.000 C 
ENDROOT
BRANCH   1   2
ATOM      2  C   UNL     1      -5.081  37.643  19.974  1.00  0.00     0.000 C 
BRANCH   2   3
ATOM      3  C   UNL     1      -4.282  36.631  19.136  1.00  0.00     0.000 C 
BRANCH   3   4
ATOM      4  C   UNL     1      -4.949  35.247  19.091  1.00  0.00     0.000 C 
BRANCH   4   5
ATOM      5  C   UNL     1      -4.801  34.564  17.720  1.00  0.00     0.000 C 
BRANCH   5   6
ATOM      6  C   UNL     1      -4.520  35.564  16.584  1.00  0.00     0.006 C 
BRANCH   6   7
ATOM      7  C   UNL     1      -3.423  35.120  15.603  1.00  0.00     0.053 C 
BRANCH   7   8
ATOM      8  C   UNL     1      -3.135  36.168  14.572  1.00  0.00     0.041 C 
ATOM      9  O   UNL     1      -2.016  36.200  13.995  1.00  0.00    -0.550 OA
ATOM     10  O   UNL     1      -4.114  37.092  14.227  1.00  0.00    -0.550 OA
ENDBRANCH   7   8
ENDBRANCH   6   7
ENDBRANCH   5   6
ENDBRANCH   4   5
ENDBRANCH   3   4
ENDBRANCH   2   3
ENDBRANCH   1   2
BRANCH   1  11
ATOM     11  C   UNL     1      -5.280  37.715  22.570  1.00  0.00     0.000 C 
BRANCH  11  12
ATOM     12  C   UNL     1      -6.117  36.424  22.535  1.00  0.00    -0.000 C 
BRANCH  12  13
ATOM     13  C   UNL     1      -5.263  35.153  22.692  1.00  0.00    -0.000 C 
BRANCH  13  14
ATOM     14  C   UNL     1      -5.941  34.091  23.583  1.00  0.00    -0.000 C 
BRANCH  14  15
ATOM     15  C   UNL     1      -6.124  34.528  25.049  1.00  0.00    -0.000 C 
BRANCH  15  16
ATOM     16  C   UNL     1      -6.045  36.046  25.295  1.00  0.00    -0.000 C 
BRANCH  16  17
ATOM     17  C   UNL     1      -4.718  36.536  25.903  1.00  0.00    -0.003 C 
ATOM     18  C   UNL     1      -4.652  38.055  26.043  1.00  0.00     0.004 C 
ENDBRANCH  16  17
ENDBRANCH  15  16
ENDBRANCH  14  15
ENDBRANCH  13  14
ENDBRANCH  12  13
ENDBRANCH  11  12
ENDBRANCH   1  11
TORSDOF 14
ENDMDL
MODEL 9
REMARK VINA RESULT:     2.037      1.883      3.032
REMARK INTER + INTRA:           2.738
REMARK INTER:                   1.128
REMARK INTRA:                   1.611
REMARK UNBOUND:                -0.967
REMARK SMILES CCCCCCCCCCCCCCCC(=O)[O-]
REMARK SMILES IDX 9 1 10 2 11 3 12 4 13 5 14 6 15 7 16 8 17 9 18 10 8 11 7 12
REMARK SMILES IDX 6 13 5 14 4 15 3 16 2 17 1 18
REMARK H PARENT
REMARK Flexibility Score: inf
ROOT
ATOM      1  C   UNL     1      -5.980  33.840  23.833  1.00  0.00     0.000 C 
ENDROOT
BRANCH   1   2
ATOM      2  C   UNL     1      -5.839  34.550  25.191  1.00  0.00     0.000 C 
BRANCH   2   3
ATOM      3  C   UNL     1      -6.124  36.059  25.111  1.00  0.00     0.000 C 
BRANCH   3   4
ATOM      4  C   UNL     1      -4.860  36.883  24.818  1.00  0.00     0.000 C 
BRANCH   4   5
ATOM      5  C   UNL     1      -5.131  38.397  24.805  1.00  0.00     0.000 C 
BRANCH   5   6
ATOM      6  C   UNL     1      -4.360  39.130  23.692  1.00  0.00     0.006 C 
BRANCH   6   7
ATOM      7  C   UNL     1      -4.619  38.588  22.277  1.00  0.00     0.053 C 
BRANCH   7   8
ATOM      8  C   UNL     1      -5.487  39.509  21.474  1.00  0.00     0.041 C 
ATOM      9  O   UNL     1      -6.031  40.504  22.020  1.00  0.00    -0.550 OA
ATOM     10  O   UNL     1      -5.670  39.282  20.116  1.00  0.00    -0.550 OA
ENDBRANCH   7   8
ENDBRANCH   6   7
ENDBRANCH   5   6
ENDBRANCH   4   5
ENDBRANCH   3   4
ENDBRANCH   2   3
ENDBRANCH   1   2
BRANCH   1  11
ATOM     11  C   UNL     1      -6.074  34.772  22.607  1.00  0.00     0.000 C 
BRANCH  11  12
ATOM     12  C   UNL     1      -4.921  34.645  21.597  1.00  0.00    -0.000 C 
BRANCH  12  13
ATOM     13  C   UNL     1      -4.188  35.977  21.355  1.00  0.00    -0.000 C 
BRANCH  13  14
ATOM     14  C   UNL     1      -4.857  36.829  20.255  1.00  0.00    -0.000 C 
BRANCH  14  15
ATOM     15  C   UNL     1      -5.500  36.001  19.127  1.00  0.00    -0.000 C 
BRANCH  15  16
ATOM     16  C   UNL     1      -4.533  35.535  18.023  1.00  0.00    -0.000 C 
BRANCH  16  17
ATOM     17  C   UNL     1      -4.810  34.126  17.471  1.00  0.00    -0.003 C 
ATOM     18  C   UNL     1      -5.998  33.444  18.146  1.00  0.00     0.004 C 
ENDBRANCH  16  17
ENDBRANCH  15  16
ENDBRANCH  14  15
ENDBRANCH  13  14
ENDBRANCH  12  13
ENDBRANCH  11  12
ENDBRANCH   1  11
TORSDOF 14
ENDMDL
