MODEL 1
REMARK VINA RESULT:    -5.349      0.000      0.000
REMARK INTER + INTRA:          -6.744
REMARK INTER:                  -6.600
REMARK INTRA:                  -0.145
REMARK UNBOUND:                -0.145
REMARK SMILES Oc1cc(O)c2cc(O)c(-c3cc(O)c(O)c(O)c3)[o+]c2c1
REMARK SMILES IDX 10 1 20 2 21 3 22 4 2 5 3 6 4 7 6 8 7 9 8 10 11 11 12 12
REMARK SMILES IDX 13 13 19 14 15 15 17 16 14 17 16 19 18 21 9 23 1 25 5 27
REMARK H PARENT 14 18 16 20 18 22 9 24 1 26 5 28
REMARK Flexibility Score: inf
ROOT
ATOM      1  C   UNL     1     -13.409 -33.140  32.309  1.00  0.00     0.402 A 
ATOM      2  O   UNL     1     -12.372 -33.137  33.143  1.00  0.00    -0.202 OA
ATOM      3  C   UNL     1     -12.268 -32.306  34.174  1.00  0.00     0.368 A 
ATOM      4  C   UNL     1     -11.141 -32.382  34.998  1.00  0.00     0.162 A 
ATOM      5  C   UNL     1     -11.006 -31.524  36.089  1.00  0.00     0.128 A 
ATOM      6  C   UNL     1     -12.004 -30.583  36.363  1.00  0.00     0.093 A 
ATOM      7  C   UNL     1     -13.143 -30.486  35.554  1.00  0.00     0.136 A 
ATOM      8  C   UNL     1     -13.283 -31.355  34.441  1.00  0.00     0.125 A 
ATOM      9  C   UNL     1     -14.382 -31.323  33.568  1.00  0.00     0.078 A 
ATOM     10  C   UNL     1     -14.448 -32.209  32.489  1.00  0.00     0.223 A 
ENDROOT
BRANCH   1  11
ATOM     11  C   UNL     1     -13.415 -34.124  31.202  1.00  0.00     0.091 A 
ATOM     12  C   UNL     1     -13.339 -35.504  31.449  1.00  0.00     0.068 A 
ATOM     13  C   UNL     1     -13.323 -36.418  30.386  1.00  0.00     0.162 A 
ATOM     14  C   UNL     1     -13.440 -33.668  29.874  1.00  0.00     0.068 A 
ATOM     15  C   UNL     1     -13.372 -35.954  29.060  1.00  0.00     0.200 A 
ATOM     16  C   UNL     1     -13.427 -34.572  28.808  1.00  0.00     0.162 A 
BRANCH  13  17
ATOM     17  O   UNL     1     -13.254 -37.787  30.643  1.00  0.00    -0.504 OA
ATOM     18  H   UNL     1     -12.981 -38.449  29.928  1.00  0.00     0.293 HD
ENDBRANCH  13  17
BRANCH  15  19
ATOM     19  O   UNL     1     -13.362 -36.850  27.991  1.00  0.00    -0.502 OA
ATOM     20  H   UNL     1     -13.849 -37.737  28.026  1.00  0.00     0.293 HD
ENDBRANCH  15  19
BRANCH  16  21
ATOM     21  O   UNL     1     -13.467 -34.079  27.505  1.00  0.00    -0.504 OA
ATOM     22  H   UNL     1     -13.840 -33.163  27.286  1.00  0.00     0.293 HD
ENDBRANCH  16  21
ENDBRANCH   1  11
BRANCH  10  23
ATOM     23  O   UNL     1     -15.516 -32.143  31.593  1.00  0.00    -0.500 OA
ATOM     24  H   UNL     1     -16.142 -31.346  31.568  1.00  0.00     0.294 HD
ENDBRANCH  10  23
BRANCH   5  25
ATOM     25  O   UNL     1      -9.875 -31.615  36.898  1.00  0.00    -0.507 OA
ATOM     26  H   UNL     1      -9.601 -32.492  37.328  1.00  0.00     0.293 HD
ENDBRANCH   5  25
BRANCH   7  27
ATOM     27  O   UNL     1     -14.096 -29.523  35.896  1.00  0.00    -0.507 OA
ATOM     28  H   UNL     1     -14.320 -29.253  36.843  1.00  0.00     0.293 HD
ENDBRANCH   7  27
TORSDOF 7
ENDMDL
MODEL 2
REMARK VINA RESULT:    -5.340      0.069      1.795
REMARK INTER + INTRA:          -6.733
REMARK INTER:                  -6.590
REMARK INTRA:                  -0.144
REMARK UNBOUND:                -0.145
REMARK SMILES Oc1cc(O)c2cc(O)c(-c3cc(O)c(O)c(O)c3)[o+]c2c1
REMARK SMILES IDX 10 1 20 2 21 3 22 4 2 5 3 6 4 7 6 8 7 9 8 10 11 11 12 12
REMARK SMILES IDX 13 13 19 14 15 15 17 16 14 17 16 19 18 21 9 23 1 25 5 27
REMARK H PARENT 14 18 16 20 18 22 9 24 1 26 5 28
REMARK Flexibility Score: inf
ROOT
ATOM      1  C   UNL     1     -13.381 -33.140  32.249  1.00  0.00     0.402 A 
ATOM      2  O   UNL     1     -12.345 -33.129  33.084  1.00  0.00    -0.202 OA
ATOM      3  C   UNL     1     -12.255 -32.310  34.126  1.00  0.00     0.368 A 
ATOM      4  C   UNL     1     -11.127 -32.378  34.948  1.00  0.00     0.162 A 
ATOM      5  C   UNL     1     -11.007 -31.531  36.051  1.00  0.00     0.128 A 
ATOM      6  C   UNL     1     -12.021 -30.611  36.336  1.00  0.00     0.093 A 
ATOM      7  C   UNL     1     -13.162 -30.524  35.528  1.00  0.00     0.136 A 
ATOM      8  C   UNL     1     -13.286 -31.380  34.404  1.00  0.00     0.125 A 
ATOM      9  C   UNL     1     -14.386 -31.356  33.531  1.00  0.00     0.078 A 
ATOM     10  C   UNL     1     -14.436 -32.228  32.440  1.00  0.00     0.223 A 
ENDROOT
BRANCH   1  11
ATOM     11  C   UNL     1     -13.370 -34.109  31.129  1.00  0.00     0.091 A 
ATOM     12  C   UNL     1     -13.464 -33.684  29.793  1.00  0.00     0.068 A 
ATOM     13  C   UNL     1     -13.475 -34.619  28.749  1.00  0.00     0.162 A 
ATOM     14  C   UNL     1     -13.321 -35.484  31.407  1.00  0.00     0.068 A 
ATOM     15  C   UNL     1     -13.403 -35.993  29.035  1.00  0.00     0.200 A 
ATOM     16  C   UNL     1     -13.330 -36.423  30.371  1.00  0.00     0.162 A 
BRANCH  13  17
ATOM     17  O   UNL     1     -13.561 -34.186  27.426  1.00  0.00    -0.504 OA
ATOM     18  H   UNL     1     -13.453 -33.210  27.178  1.00  0.00     0.293 HD
ENDBRANCH  13  17
BRANCH  15  19
ATOM     19  O   UNL     1     -13.407 -36.936  28.007  1.00  0.00    -0.502 OA
ATOM     20  H   UNL     1     -13.775 -37.871  28.134  1.00  0.00     0.293 HD
ENDBRANCH  15  19
BRANCH  16  21
ATOM     21  O   UNL     1     -13.266 -37.779  30.689  1.00  0.00    -0.504 OA
ATOM     22  H   UNL     1     -12.463 -38.351  30.455  1.00  0.00     0.293 HD
ENDBRANCH  16  21
ENDBRANCH   1  11
BRANCH  10  23
ATOM     23  O   UNL     1     -15.505 -32.169  31.546  1.00  0.00    -0.500 OA
ATOM     24  H   UNL     1     -16.246 -32.861  31.554  1.00  0.00     0.294 HD
ENDBRANCH  10  23
BRANCH   5  25
ATOM     25  O   UNL     1      -9.875 -31.613  36.858  1.00  0.00    -0.507 OA
ATOM     26  H   UNL     1      -9.555 -32.499  37.234  1.00  0.00     0.293 HD
ENDBRANCH   5  25
BRANCH   7  27
ATOM     27  O   UNL     1     -14.131 -29.581  35.882  1.00  0.00    -0.507 OA
ATOM     28  H   UNL     1     -14.847 -29.733  36.578  1.00  0.00     0.293 HD
ENDBRANCH   7  27
TORSDOF 7
ENDMDL
MODEL 3
REMARK VINA RESULT:    -4.366      1.181      2.621
REMARK INTER + INTRA:          -5.532
REMARK INTER:                  -5.425
REMARK INTRA:                  -0.107
REMARK UNBOUND:                -0.145
REMARK SMILES Oc1cc(O)c2cc(O)c(-c3cc(O)c(O)c(O)c3)[o+]c2c1
REMARK SMILES IDX 10 1 20 2 21 3 22 4 2 5 3 6 4 7 6 8 7 9 8 10 11 11 12 12
REMARK SMILES IDX 13 13 19 14 15 15 17 16 14 17 16 19 18 21 9 23 1 25 5 27
REMARK H PARENT 14 18 16 20 18 22 9 24 1 26 5 28
REMARK Flexibility Score: inf
ROOT
ATOM      1  C   UNL     1     -12.228 -33.849  32.107  1.00  0.00     0.402 A 
ATOM      2  O   UNL     1     -13.090 -33.017  32.686  1.00  0.00    -0.202 OA
ATOM      3  C   UNL     1     -12.769 -32.224  33.703  1.00  0.00     0.368 A 
ATOM      4  C   UNL     1     -13.744 -31.381  34.242  1.00  0.00     0.162 A 
ATOM      5  C   UNL     1     -13.434 -30.536  35.308  1.00  0.00     0.128 A 
ATOM      6  C   UNL     1     -12.139 -30.531  35.839  1.00  0.00     0.093 A 
ATOM      7  C   UNL     1     -11.143 -31.365  35.316  1.00  0.00     0.136 A 
ATOM      8  C   UNL     1     -11.456 -32.228  34.234  1.00  0.00     0.125 A 
ATOM      9  C   UNL     1     -10.527 -33.108  33.654  1.00  0.00     0.078 A 
ATOM     10  C   UNL     1     -10.910 -33.933  32.593  1.00  0.00     0.223 A 
ENDROOT
BRANCH   1  11
ATOM     11  C   UNL     1     -12.705 -34.675  30.973  1.00  0.00     0.091 A 
ATOM     12  C   UNL     1     -12.576 -36.074  30.983  1.00  0.00     0.068 A 
ATOM     13  C   UNL     1     -13.013 -36.836  29.890  1.00  0.00     0.162 A 
ATOM     14  C   UNL     1     -13.246 -34.046  29.841  1.00  0.00     0.068 A 
ATOM     15  C   UNL     1     -13.574 -36.200  28.770  1.00  0.00     0.200 A 
ATOM     16  C   UNL     1     -13.686 -34.799  28.748  1.00  0.00     0.162 A 
BRANCH  13  17
ATOM     17  O   UNL     1     -12.886 -38.225  29.913  1.00  0.00    -0.504 OA
ATOM     18  H   UNL     1     -13.434 -38.819  29.304  1.00  0.00     0.293 HD
ENDBRANCH  13  17
BRANCH  15  19
ATOM     19  O   UNL     1     -14.018 -36.944  27.676  1.00  0.00    -0.502 OA
ATOM     20  H   UNL     1     -13.477 -37.706  27.287  1.00  0.00     0.293 HD
ENDBRANCH  15  19
BRANCH  16  21
ATOM     21  O   UNL     1     -14.229 -34.137  27.648  1.00  0.00    -0.504 OA
ATOM     22  H   UNL     1     -14.308 -34.577  26.738  1.00  0.00     0.293 HD
ENDBRANCH  16  21
ENDBRANCH   1  11
BRANCH  10  23
ATOM     23  O   UNL     1     -10.002 -34.842  32.050  1.00  0.00    -0.500 OA
ATOM     24  H   UNL     1      -9.002 -34.674  32.071  1.00  0.00     0.294 HD
ENDBRANCH  10  23
BRANCH   5  25
ATOM     25  O   UNL     1     -14.420 -29.703  35.832  1.00  0.00    -0.507 OA
ATOM     26  H   UNL     1     -14.646 -29.707  36.821  1.00  0.00     0.293 HD
ENDBRANCH   5  25
BRANCH   7  27
ATOM     27  O   UNL     1      -9.875 -31.298  35.899  1.00  0.00    -0.507 OA
ATOM     28  H   UNL     1      -9.119 -30.724  35.555  1.00  0.00     0.293 HD
ENDBRANCH   7  27
TORSDOF 7
ENDMDL
MODEL 4
REMARK VINA RESULT:    -4.211      1.497      7.065
REMARK INTER + INTRA:          -5.341
REMARK INTER:                  -5.276
REMARK INTRA:                  -0.065
REMARK UNBOUND:                -0.145
REMARK SMILES Oc1cc(O)c2cc(O)c(-c3cc(O)c(O)c(O)c3)[o+]c2c1
REMARK SMILES IDX 10 1 20 2 21 3 22 4 2 5 3 6 4 7 6 8 7 9 8 10 11 11 12 12
REMARK SMILES IDX 13 13 19 14 15 15 17 16 14 17 16 19 18 21 9 23 1 25 5 27
REMARK H PARENT 14 18 16 20 18 22 9 24 1 26 5 28
REMARK Flexibility Score: inf
ROOT
ATOM      1  C   UNL     1     -12.918 -33.125  32.511  1.00  0.00     0.402 A 
ATOM      2  O   UNL     1     -11.964 -33.221  31.589  1.00  0.00    -0.202 OA
ATOM      3  C   UNL     1     -12.115 -33.884  30.447  1.00  0.00     0.368 A 
ATOM      4  C   UNL     1     -11.054 -33.924  29.539  1.00  0.00     0.162 A 
ATOM      5  C   UNL     1     -11.186 -34.610  28.331  1.00  0.00     0.128 A 
ATOM      6  C   UNL     1     -12.387 -35.259  28.026  1.00  0.00     0.093 A 
ATOM      7  C   UNL     1     -13.466 -35.233  28.919  1.00  0.00     0.136 A 
ATOM      8  C   UNL     1     -13.334 -34.539  30.150  1.00  0.00     0.125 A 
ATOM      9  C   UNL     1     -14.356 -34.470  31.111  1.00  0.00     0.078 A 
ATOM     10  C   UNL     1     -14.151 -33.771  32.304  1.00  0.00     0.223 A 
ENDROOT
BRANCH   1  11
ATOM     11  C   UNL     1     -12.631 -32.349  33.739  1.00  0.00     0.091 A 
ATOM     12  C   UNL     1     -13.538 -31.395  34.230  1.00  0.00     0.068 A 
ATOM     13  C   UNL     1     -13.238 -30.655  35.383  1.00  0.00     0.162 A 
ATOM     14  C   UNL     1     -11.405 -32.529  34.398  1.00  0.00     0.068 A 
ATOM     15  C   UNL     1     -12.017 -30.857  36.048  1.00  0.00     0.200 A 
ATOM     16  C   UNL     1     -11.098 -31.796  35.549  1.00  0.00     0.162 A 
BRANCH  13  17
ATOM     17  O   UNL     1     -14.148 -29.715  35.864  1.00  0.00    -0.504 OA
ATOM     18  H   UNL     1     -15.145 -29.819  35.722  1.00  0.00     0.293 HD
ENDBRANCH  13  17
BRANCH  15  19
ATOM     19  O   UNL     1     -11.705 -30.133  37.199  1.00  0.00    -0.502 OA
ATOM     20  H   UNL     1     -12.419 -29.749  37.806  1.00  0.00     0.293 HD
ENDBRANCH  15  19
BRANCH  16  21
ATOM     21  O   UNL     1      -9.875 -32.014  36.181  1.00  0.00    -0.504 OA
ATOM     22  H   UNL     1      -9.810 -32.239  37.167  1.00  0.00     0.293 HD
ENDBRANCH  16  21
ENDBRANCH   1  11
BRANCH  10  23
ATOM     23  O   UNL     1     -15.148 -33.744  33.279  1.00  0.00    -0.500 OA
ATOM     24  H   UNL     1     -16.035 -33.278  33.123  1.00  0.00     0.294 HD
ENDBRANCH  10  23
BRANCH   5  25
ATOM     25  O   UNL     1     -10.117 -34.639  27.439  1.00  0.00    -0.507 OA
ATOM     26  H   UNL     1      -9.871 -33.829  26.879  1.00  0.00     0.293 HD
ENDBRANCH   5  25
BRANCH   7  27
ATOM     27  O   UNL     1     -14.632 -35.903  28.539  1.00  0.00    -0.507 OA
ATOM     28  H   UNL     1     -14.854 -36.853  28.799  1.00  0.00     0.293 HD
ENDBRANCH   7  27
TORSDOF 7
ENDMDL
MODEL 5
REMARK VINA RESULT:    -4.065      1.150      7.008
REMARK INTER + INTRA:          -5.160
REMARK INTER:                  -5.230
REMARK INTRA:                   0.069
REMARK UNBOUND:                -0.145
REMARK SMILES Oc1cc(O)c2cc(O)c(-c3cc(O)c(O)c(O)c3)[o+]c2c1
REMARK SMILES IDX 10 1 20 2 21 3 22 4 2 5 3 6 4 7 6 8 7 9 8 10 11 11 12 12
REMARK SMILES IDX 13 13 19 14 15 15 17 16 14 17 16 19 18 21 9 23 1 25 5 27
REMARK H PARENT 14 18 16 20 18 22 9 24 1 26 5 28
REMARK Flexibility Score: inf
ROOT
ATOM      1  C   UNL     1     -13.187 -33.239  32.536  1.00  0.00     0.402 A 
ATOM      2  O   UNL     1     -12.819 -34.517  32.571  1.00  0.00    -0.202 OA
ATOM      3  C   UNL     1     -13.078 -35.378  31.593  1.00  0.00     0.368 A 
ATOM      4  C   UNL     1     -12.647 -36.701  31.720  1.00  0.00     0.162 A 
ATOM      5  C   UNL     1     -12.903 -37.626  30.707  1.00  0.00     0.128 A 
ATOM      6  C   UNL     1     -13.593 -37.228  29.558  1.00  0.00     0.093 A 
ATOM      7  C   UNL     1     -14.036 -35.907  29.406  1.00  0.00     0.136 A 
ATOM      8  C   UNL     1     -13.780 -34.965  30.435  1.00  0.00     0.125 A 
ATOM      9  C   UNL     1     -14.196 -33.624  30.376  1.00  0.00     0.078 A 
ATOM     10  C   UNL     1     -13.912 -32.754  31.432  1.00  0.00     0.223 A 
ENDROOT
BRANCH   1  11
ATOM     11  C   UNL     1     -12.829 -32.375  33.685  1.00  0.00     0.091 A 
ATOM     12  C   UNL     1     -13.738 -31.439  34.207  1.00  0.00     0.068 A 
ATOM     13  C   UNL     1     -13.372 -30.615  35.281  1.00  0.00     0.162 A 
ATOM     14  C   UNL     1     -11.538 -32.450  34.229  1.00  0.00     0.068 A 
ATOM     15  C   UNL     1     -12.085 -30.713  35.834  1.00  0.00     0.200 A 
ATOM     16  C   UNL     1     -11.166 -31.633  35.301  1.00  0.00     0.162 A 
BRANCH  13  17
ATOM     17  O   UNL     1     -14.285 -29.695  35.796  1.00  0.00    -0.504 OA
ATOM     18  H   UNL     1     -14.328 -28.742  35.455  1.00  0.00     0.293 HD
ENDBRANCH  13  17
BRANCH  15  19
ATOM     19  O   UNL     1     -11.706 -29.904  36.906  1.00  0.00    -0.502 OA
ATOM     20  H   UNL     1     -11.218 -29.026  36.774  1.00  0.00     0.293 HD
ENDBRANCH  15  19
BRANCH  16  21
ATOM     21  O   UNL     1      -9.878 -31.749  35.822  1.00  0.00    -0.504 OA
ATOM     22  H   UNL     1      -9.613 -32.502  36.446  1.00  0.00     0.293 HD
ENDBRANCH  16  21
ENDBRANCH   1  11
BRANCH  10  23
ATOM     23  O   UNL     1     -14.368 -31.437  31.395  1.00  0.00    -0.500 OA
ATOM     24  H   UNL     1     -14.997 -31.070  32.100  1.00  0.00     0.294 HD
ENDBRANCH  10  23
BRANCH   5  25
ATOM     25  O   UNL     1     -12.465 -38.941  30.853  1.00  0.00    -0.507 OA
ATOM     26  H   UNL     1     -12.333 -39.357  31.768  1.00  0.00     0.293 HD
ENDBRANCH   5  25
BRANCH   7  27
ATOM     27  O   UNL     1     -14.715 -35.588  28.227  1.00  0.00    -0.507 OA
ATOM     28  H   UNL     1     -15.710 -35.424  28.169  1.00  0.00     0.293 HD
ENDBRANCH   7  27
TORSDOF 7
ENDMDL
MODEL 6
REMARK VINA RESULT:    -4.005      1.596      7.342
REMARK INTER + INTRA:          -5.086
REMARK INTER:                  -5.002
REMARK INTRA:                  -0.085
REMARK UNBOUND:                -0.145
REMARK SMILES Oc1cc(O)c2cc(O)c(-c3cc(O)c(O)c(O)c3)[o+]c2c1
REMARK SMILES IDX 10 1 20 2 21 3 22 4 2 5 3 6 4 7 6 8 7 9 8 10 11 11 12 12
REMARK SMILES IDX 13 13 19 14 15 15 17 16 14 17 16 19 18 21 9 23 1 25 5 27
REMARK H PARENT 14 18 16 20 18 22 9 24 1 26 5 28
REMARK Flexibility Score: inf
ROOT
ATOM      1  C   UNL     1     -13.016 -33.491  31.628  1.00  0.00     0.402 A 
ATOM      2  O   UNL     1     -13.427 -32.750  30.603  1.00  0.00    -0.202 OA
ATOM      3  C   UNL     1     -13.728 -33.253  29.411  1.00  0.00     0.368 A 
ATOM      4  C   UNL     1     -14.155 -32.392  28.397  1.00  0.00     0.162 A 
ATOM      5  C   UNL     1     -14.481 -32.894  27.136  1.00  0.00     0.128 A 
ATOM      6  C   UNL     1     -14.380 -34.267  26.886  1.00  0.00     0.093 A 
ATOM      7  C   UNL     1     -13.955 -35.151  27.886  1.00  0.00     0.136 A 
ATOM      8  C   UNL     1     -13.620 -34.644  29.168  1.00  0.00     0.125 A 
ATOM      9  C   UNL     1     -13.173 -35.452  30.226  1.00  0.00     0.078 A 
ATOM     10  C   UNL     1     -12.857 -34.880  31.461  1.00  0.00     0.223 A 
ENDROOT
BRANCH   1  11
ATOM     11  C   UNL     1     -12.721 -32.813  32.911  1.00  0.00     0.091 A 
ATOM     12  C   UNL     1     -13.664 -31.975  33.529  1.00  0.00     0.068 A 
ATOM     13  C   UNL     1     -13.357 -31.324  34.733  1.00  0.00     0.162 A 
ATOM     14  C   UNL     1     -11.454 -32.965  33.496  1.00  0.00     0.068 A 
ATOM     15  C   UNL     1     -12.094 -31.499  35.323  1.00  0.00     0.200 A 
ATOM     16  C   UNL     1     -11.140 -32.321  34.697  1.00  0.00     0.162 A 
BRANCH  13  17
ATOM     17  O   UNL     1     -14.303 -30.499  35.340  1.00  0.00    -0.504 OA
ATOM     18  H   UNL     1     -15.122 -30.878  35.798  1.00  0.00     0.293 HD
ENDBRANCH  13  17
BRANCH  15  19
ATOM     19  O   UNL     1     -11.774 -30.863  36.523  1.00  0.00    -0.502 OA
ATOM     20  H   UNL     1     -11.435 -29.909  36.554  1.00  0.00     0.293 HD
ENDBRANCH  15  19
BRANCH  16  21
ATOM     21  O   UNL     1      -9.875 -32.508  35.252  1.00  0.00    -0.504 OA
ATOM     22  H   UNL     1      -9.729 -32.568  36.253  1.00  0.00     0.293 HD
ENDBRANCH  16  21
ENDBRANCH   1  11
BRANCH  10  23
ATOM     23  O   UNL     1     -12.366 -35.675  32.496  1.00  0.00    -0.500 OA
ATOM     24  H   UNL     1     -12.571 -36.667  32.550  1.00  0.00     0.294 HD
ENDBRANCH  10  23
BRANCH   5  25
ATOM     25  O   UNL     1     -14.904 -32.019  26.139  1.00  0.00    -0.507 OA
ATOM     26  H   UNL     1     -15.878 -31.963  25.861  1.00  0.00     0.293 HD
ENDBRANCH   5  25
BRANCH   7  27
ATOM     27  O   UNL     1     -13.884 -36.508  27.557  1.00  0.00    -0.507 OA
ATOM     28  H   UNL     1     -14.649 -37.041  27.168  1.00  0.00     0.293 HD
ENDBRANCH   7  27
TORSDOF 7
ENDMDL
MODEL 7
REMARK VINA RESULT:    -3.806      1.608      7.263
REMARK INTER + INTRA:          -4.840
REMARK INTER:                  -4.734
REMARK INTRA:                  -0.107
REMARK UNBOUND:                -0.145
REMARK SMILES Oc1cc(O)c2cc(O)c(-c3cc(O)c(O)c(O)c3)[o+]c2c1
REMARK SMILES IDX 10 1 20 2 21 3 22 4 2 5 3 6 4 7 6 8 7 9 8 10 11 11 12 12
REMARK SMILES IDX 13 13 19 14 15 15 17 16 14 17 16 19 18 21 9 23 1 25 5 27
REMARK H PARENT 14 18 16 20 18 22 9 24 1 26 5 28
REMARK Flexibility Score: inf
ROOT
ATOM      1  C   UNL     1     -12.940 -33.473  31.605  1.00  0.00     0.402 A 
ATOM      2  O   UNL     1     -13.328 -32.727  30.574  1.00  0.00    -0.202 OA
ATOM      3  C   UNL     1     -13.643 -33.231  29.386  1.00  0.00     0.368 A 
ATOM      4  C   UNL     1     -14.045 -32.365  28.365  1.00  0.00     0.162 A 
ATOM      5  C   UNL     1     -14.384 -32.866  27.108  1.00  0.00     0.128 A 
ATOM      6  C   UNL     1     -14.324 -34.243  26.868  1.00  0.00     0.093 A 
ATOM      7  C   UNL     1     -13.926 -35.132  27.874  1.00  0.00     0.136 A 
ATOM      8  C   UNL     1     -13.577 -34.626  29.153  1.00  0.00     0.125 A 
ATOM      9  C   UNL     1     -13.154 -35.439  30.217  1.00  0.00     0.078 A 
ATOM     10  C   UNL     1     -12.822 -34.867  31.448  1.00  0.00     0.223 A 
ENDROOT
BRANCH   1  11
ATOM     11  C   UNL     1     -12.626 -32.795  32.883  1.00  0.00     0.091 A 
ATOM     12  C   UNL     1     -11.384 -32.966  33.516  1.00  0.00     0.068 A 
ATOM     13  C   UNL     1     -11.114 -32.333  34.738  1.00  0.00     0.162 A 
ATOM     14  C   UNL     1     -13.607 -32.008  33.506  1.00  0.00     0.068 A 
ATOM     15  C   UNL     1     -12.095 -31.529  35.343  1.00  0.00     0.200 A 
ATOM     16  C   UNL     1     -13.346 -31.371  34.723  1.00  0.00     0.162 A 
BRANCH  13  17
ATOM     17  O   UNL     1      -9.875 -32.505  35.354  1.00  0.00    -0.504 OA
ATOM     18  H   UNL     1      -9.623 -33.375  35.807  1.00  0.00     0.293 HD
ENDBRANCH  13  17
BRANCH  15  19
ATOM     19  O   UNL     1     -11.841 -30.887  36.556  1.00  0.00    -0.502 OA
ATOM     20  H   UNL     1     -11.736 -31.397  37.425  1.00  0.00     0.293 HD
ENDBRANCH  15  19
BRANCH  16  21
ATOM     21  O   UNL     1     -14.343 -30.587  35.302  1.00  0.00    -0.504 OA
ATOM     22  H   UNL     1     -15.042 -30.107  34.747  1.00  0.00     0.293 HD
ENDBRANCH  16  21
ENDBRANCH   1  11
BRANCH  10  23
ATOM     23  O   UNL     1     -12.355 -35.669  32.489  1.00  0.00    -0.500 OA
ATOM     24  H   UNL     1     -11.923 -36.570  32.316  1.00  0.00     0.294 HD
ENDBRANCH  10  23
BRANCH   5  25
ATOM     25  O   UNL     1     -14.781 -31.986  26.103  1.00  0.00    -0.507 OA
ATOM     26  H   UNL     1     -14.507 -31.010  26.115  1.00  0.00     0.293 HD
ENDBRANCH   5  25
BRANCH   7  27
ATOM     27  O   UNL     1     -13.895 -36.493  27.555  1.00  0.00    -0.507 OA
ATOM     28  H   UNL     1     -14.604 -37.159  27.829  1.00  0.00     0.293 HD
ENDBRANCH   7  27
TORSDOF 7
ENDMDL
MODEL 8
REMARK VINA RESULT:    -3.462      1.588      6.982
REMARK INTER + INTRA:          -4.416
REMARK INTER:                  -4.848
REMARK INTRA:                   0.432
REMARK UNBOUND:                -0.145
REMARK SMILES Oc1cc(O)c2cc(O)c(-c3cc(O)c(O)c(O)c3)[o+]c2c1
REMARK SMILES IDX 10 1 20 2 21 3 22 4 2 5 3 6 4 7 6 8 7 9 8 10 11 11 12 12
REMARK SMILES IDX 13 13 19 14 15 15 17 16 14 17 16 19 18 21 9 23 1 25 5 27
REMARK H PARENT 14 18 16 20 18 22 9 24 1 26 5 28
REMARK Flexibility Score: inf
ROOT
ATOM      1  C   UNL     1     -12.678 -32.548  33.404  1.00  0.00     0.402 A 
ATOM      2  O   UNL     1     -11.730 -33.353  32.934  1.00  0.00    -0.202 OA
ATOM      3  C   UNL     1     -11.878 -34.097  31.842  1.00  0.00     0.368 A 
ATOM      4  C   UNL     1     -10.820 -34.909  31.425  1.00  0.00     0.162 A 
ATOM      5  C   UNL     1     -10.947 -35.698  30.281  1.00  0.00     0.128 A 
ATOM      6  C   UNL     1     -12.137 -35.674  29.547  1.00  0.00     0.093 A 
ATOM      7  C   UNL     1     -13.212 -34.868  29.943  1.00  0.00     0.136 A 
ATOM      8  C   UNL     1     -13.088 -34.067  31.108  1.00  0.00     0.125 A 
ATOM      9  C   UNL     1     -14.115 -33.238  31.588  1.00  0.00     0.078 A 
ATOM     10  C   UNL     1     -13.921 -32.480  32.747  1.00  0.00     0.223 A 
ENDROOT
BRANCH   1  11
ATOM     11  C   UNL     1     -12.389 -31.761  34.625  1.00  0.00     0.091 A 
ATOM     12  C   UNL     1     -11.254 -32.021  35.411  1.00  0.00     0.068 A 
ATOM     13  C   UNL     1     -11.010 -31.280  36.576  1.00  0.00     0.162 A 
ATOM     14  C   UNL     1     -13.295 -30.771  35.039  1.00  0.00     0.068 A 
ATOM     15  C   UNL     1     -11.911 -30.276  36.971  1.00  0.00     0.200 A 
ATOM     16  C   UNL     1     -13.058 -30.026  36.198  1.00  0.00     0.162 A 
BRANCH  13  17
ATOM     17  O   UNL     1      -9.877 -31.543  37.345  1.00  0.00    -0.504 OA
ATOM     18  H   UNL     1      -9.175 -32.208  37.046  1.00  0.00     0.293 HD
ENDBRANCH  13  17
BRANCH  15  19
ATOM     19  O   UNL     1     -11.680 -29.526  38.124  1.00  0.00    -0.502 OA
ATOM     20  H   UNL     1     -12.434 -29.207  38.720  1.00  0.00     0.293 HD
ENDBRANCH  15  19
BRANCH  16  21
ATOM     21  O   UNL     1     -13.975 -29.043  36.567  1.00  0.00    -0.504 OA
ATOM     22  H   UNL     1     -14.886 -28.965  36.131  1.00  0.00     0.293 HD
ENDBRANCH  16  21
ENDBRANCH   1  11
BRANCH  10  23
ATOM     23  O   UNL     1     -14.958 -31.696  33.251  1.00  0.00    -0.500 OA
ATOM     24  H   UNL     1     -15.079 -31.547  34.247  1.00  0.00     0.294 HD
ENDBRANCH  10  23
BRANCH   5  25
ATOM     25  O   UNL     1      -9.882 -36.502  29.881  1.00  0.00    -0.507 OA
ATOM     26  H   UNL     1      -9.124 -36.732  30.515  1.00  0.00     0.293 HD
ENDBRANCH   5  25
BRANCH   7  27
ATOM     27  O   UNL     1     -14.365 -34.898  29.155  1.00  0.00    -0.507 OA
ATOM     28  H   UNL     1     -15.302 -34.768  29.509  1.00  0.00     0.293 HD
ENDBRANCH   7  27
TORSDOF 7
ENDMDL
