MODEL 1
REMARK VINA RESULT:    -3.546      0.000      0.000
REMARK INTER + INTRA:          -8.445
REMARK INTER:                  -6.448
REMARK INTRA:                  -1.996
REMARK UNBOUND:                -1.996
REMARK SMILES CCCCCCCCCCCCCCCC(=O)[O-]
REMARK SMILES IDX 9 1 10 2 11 3 12 4 13 5 14 6 15 7 16 8 17 9 18 10 8 11 7 12
REMARK SMILES IDX 6 13 5 14 4 15 3 16 2 17 1 18
REMARK H PARENT
REMARK Flexibility Score: inf
ROOT
ATOM      1  C   UNL     1       4.887  66.981   1.102  1.00  0.00     0.000 C 
ENDROOT
BRANCH   1   2
ATOM      2  C   UNL     1       5.536  66.321  -0.123  1.00  0.00     0.000 C 
BRANCH   2   3
ATOM      3  C   UNL     1       4.503  65.701  -1.076  1.00  0.00     0.000 C 
BRANCH   3   4
ATOM      4  C   UNL     1       3.079  66.229  -0.829  1.00  0.00     0.000 C 
BRANCH   4   5
ATOM      5  C   UNL     1       2.040  65.102  -0.685  1.00  0.00     0.000 C 
BRANCH   5   6
ATOM      6  C   UNL     1       2.621  63.736  -0.272  1.00  0.00     0.006 C 
BRANCH   6   7
ATOM      7  C   UNL     1       1.929  63.142   0.962  1.00  0.00     0.053 C 
BRANCH   7   8
ATOM      8  C   UNL     1       1.196  61.890   0.595  1.00  0.00     0.041 C 
ATOM      9  O   UNL     1       0.933  61.639  -0.611  1.00  0.00    -0.550 OA
ATOM     10  O   UNL     1       0.844  60.977   1.581  1.00  0.00    -0.550 OA
ENDBRANCH   7   8
ENDBRANCH   6   7
ENDBRANCH   5   6
ENDBRANCH   4   5
ENDBRANCH   3   4
ENDBRANCH   2   3
ENDBRANCH   1   2
BRANCH   1  11
ATOM     11  C   UNL     1       5.077  66.120   2.356  1.00  0.00     0.000 C 
BRANCH  11  12
ATOM     12  C   UNL     1       6.068  64.979   2.097  1.00  0.00    -0.000 C 
BRANCH  12  13
ATOM     13  C   UNL     1       5.377  63.614   2.202  1.00  0.00    -0.000 C 
BRANCH  13  14
ATOM     14  C   UNL     1       5.900  62.649   1.131  1.00  0.00    -0.000 C 
BRANCH  14  15
ATOM     15  C   UNL     1       7.436  62.627   1.114  1.00  0.00    -0.000 C 
BRANCH  15  16
ATOM     16  C   UNL     1       8.023  61.546   2.037  1.00  0.00    -0.000 C 
BRANCH  16  17
ATOM     17  C   UNL     1       8.398  62.094   3.422  1.00  0.00    -0.003 C 
ATOM     18  C   UNL     1       7.594  61.404   4.521  1.00  0.00     0.004 C 
ENDBRANCH  16  17
ENDBRANCH  15  16
ENDBRANCH  14  15
ENDBRANCH  13  14
ENDBRANCH  12  13
ENDBRANCH  11  12
ENDBRANCH   1  11
TORSDOF 14
ENDMDL
MODEL 2
REMARK VINA RESULT:    -3.516      0.893      1.802
REMARK INTER + INTRA:          -8.389
REMARK INTER:                  -6.698
REMARK INTRA:                  -1.691
REMARK UNBOUND:                -1.996
REMARK SMILES CCCCCCCCCCCCCCCC(=O)[O-]
REMARK SMILES IDX 9 1 10 2 11 3 12 4 13 5 14 6 15 7 16 8 17 9 18 10 8 11 7 12
REMARK SMILES IDX 6 13 5 14 4 15 3 16 2 17 1 18
REMARK H PARENT
REMARK Flexibility Score: inf
ROOT
ATOM      1  C   UNL     1       4.950  64.567   2.221  1.00  0.00     0.000 C 
ENDROOT
BRANCH   1   2
ATOM      2  C   UNL     1       5.543  65.614   1.268  1.00  0.00     0.000 C 
BRANCH   2   3
ATOM      3  C   UNL     1       4.463  66.403   0.512  1.00  0.00     0.000 C 
BRANCH   3   4
ATOM      4  C   UNL     1       3.886  65.620  -0.682  1.00  0.00     0.000 C 
BRANCH   4   5
ATOM      5  C   UNL     1       2.434  65.163  -0.451  1.00  0.00     0.000 C 
BRANCH   5   6
ATOM      6  C   UNL     1       2.239  63.636  -0.383  1.00  0.00     0.006 C 
BRANCH   6   7
ATOM      7  C   UNL     1       1.678  63.166   0.965  1.00  0.00     0.053 C 
BRANCH   7   8
ATOM      8  C   UNL     1       0.759  62.002   0.769  1.00  0.00     0.041 C 
ATOM      9  O   UNL     1      -0.076  62.005  -0.174  1.00  0.00    -0.550 OA
ATOM     10  O   UNL     1       0.855  60.893   1.600  1.00  0.00    -0.550 OA
ENDBRANCH   7   8
ENDBRANCH   6   7
ENDBRANCH   5   6
ENDBRANCH   4   5
ENDBRANCH   3   4
ENDBRANCH   2   3
ENDBRANCH   1   2
BRANCH   1  11
ATOM     11  C   UNL     1       5.723  63.245   2.136  1.00  0.00     0.000 C 
BRANCH  11  12
ATOM     12  C   UNL     1       5.678  62.671   0.715  1.00  0.00    -0.000 C 
BRANCH  12  13
ATOM     13  C   UNL     1       6.978  61.932   0.378  1.00  0.00    -0.000 C 
BRANCH  13  14
ATOM     14  C   UNL     1       7.964  61.990   1.550  1.00  0.00    -0.000 C 
BRANCH  14  15
ATOM     15  C   UNL     1       8.540  60.599   1.854  1.00  0.00    -0.000 C 
BRANCH  15  16
ATOM     16  C   UNL     1       8.711  60.345   3.361  1.00  0.00    -0.000 C 
BRANCH  16  17
ATOM     17  C   UNL     1       7.774  61.209   4.215  1.00  0.00    -0.003 C 
ATOM     18  C   UNL     1       8.481  61.707   5.473  1.00  0.00     0.004 C 
ENDBRANCH  16  17
ENDBRANCH  15  16
ENDBRANCH  14  15
ENDBRANCH  13  14
ENDBRANCH  12  13
ENDBRANCH  11  12
ENDBRANCH   1  11
TORSDOF 14
ENDMDL
MODEL 3
REMARK VINA RESULT:    -3.411     13.246     14.987
REMARK INTER + INTRA:          -8.199
REMARK INTER:                  -5.690
REMARK INTRA:                  -2.509
REMARK UNBOUND:                -1.996
REMARK SMILES CCCCCCCCCCCCCCCC(=O)[O-]
REMARK SMILES IDX 9 1 10 2 11 3 12 4 13 5 14 6 15 7 16 8 17 9 18 10 8 11 7 12
REMARK SMILES IDX 6 13 5 14 4 15 3 16 2 17 1 18
REMARK H PARENT
REMARK Flexibility Score: inf
ROOT
ATOM      1  C   UNL     1       8.626  51.886   5.648  1.00  0.00     0.000 C 
ENDROOT
BRANCH   1   2
ATOM      2  C   UNL     1      10.100  51.546   5.386  1.00  0.00     0.000 C 
BRANCH   2   3
ATOM      3  C   UNL     1      10.291  50.118   4.852  1.00  0.00     0.000 C 
BRANCH   3   4
ATOM      4  C   UNL     1       9.005  49.277   4.941  1.00  0.00     0.000 C 
BRANCH   4   5
ATOM      5  C   UNL     1       8.815  48.347   3.729  1.00  0.00     0.000 C 
BRANCH   5   6
ATOM      6  C   UNL     1       7.505  48.564   2.946  1.00  0.00     0.006 C 
BRANCH   6   7
ATOM      7  C   UNL     1       7.102  50.041   2.856  1.00  0.00     0.053 C 
BRANCH   7   8
ATOM      8  C   UNL     1       7.895  50.733   1.793  1.00  0.00     0.041 C 
ATOM      9  O   UNL     1       7.860  50.319   0.604  1.00  0.00    -0.550 OA
ATOM     10  O   UNL     1       8.636  51.866   2.105  1.00  0.00    -0.550 OA
ENDBRANCH   7   8
ENDBRANCH   6   7
ENDBRANCH   5   6
ENDBRANCH   4   5
ENDBRANCH   3   4
ENDBRANCH   2   3
ENDBRANCH   1   2
BRANCH   1  11
ATOM     11  C   UNL     1       8.488  52.886   6.802  1.00  0.00     0.000 C 
BRANCH  11  12
ATOM     12  C   UNL     1       7.262  52.568   7.664  1.00  0.00    -0.000 C 
BRANCH  12  13
ATOM     13  C   UNL     1       7.101  51.056   7.858  1.00  0.00    -0.000 C 
BRANCH  13  14
ATOM     14  C   UNL     1       7.008  50.698   9.347  1.00  0.00    -0.000 C 
BRANCH  14  15
ATOM     15  C   UNL     1       8.288  49.998   9.825  1.00  0.00    -0.000 C 
BRANCH  15  16
ATOM     16  C   UNL     1       9.136  49.455   8.663  1.00  0.00    -0.000 C 
BRANCH  16  17
ATOM     17  C   UNL     1      10.578  49.982   8.690  1.00  0.00    -0.003 C 
ATOM     18  C   UNL     1      10.660  51.319   9.421  1.00  0.00     0.004 C 
ENDBRANCH  16  17
ENDBRANCH  15  16
ENDBRANCH  14  15
ENDBRANCH  13  14
ENDBRANCH  12  13
ENDBRANCH  11  12
ENDBRANCH   1  11
TORSDOF 14
ENDMDL
MODEL 4
REMARK VINA RESULT:    -3.337     13.318     16.099
REMARK INTER + INTRA:          -8.065
REMARK INTER:                  -6.766
REMARK INTRA:                  -1.298
REMARK UNBOUND:                -1.996
REMARK SMILES CCCCCCCCCCCCCCCC(=O)[O-]
REMARK SMILES IDX 9 1 10 2 11 3 12 4 13 5 14 6 15 7 16 8 17 9 18 10 8 11 7 12
REMARK SMILES IDX 6 13 5 14 4 15 3 16 2 17 1 18
REMARK H PARENT
REMARK Flexibility Score: inf
ROOT
ATOM      1  C   UNL     1      11.013  48.136   7.350  1.00  0.00     0.000 C 
ENDROOT
BRANCH   1   2
ATOM      2  C   UNL     1      10.389  48.887   6.165  1.00  0.00     0.000 C 
BRANCH   2   3
ATOM      3  C   UNL     1      10.267  48.012   4.909  1.00  0.00     0.000 C 
BRANCH   3   4
ATOM      4  C   UNL     1       8.977  48.291   4.117  1.00  0.00     0.000 C 
BRANCH   4   5
ATOM      5  C   UNL     1       8.520  47.086   3.274  1.00  0.00     0.000 C 
BRANCH   5   6
ATOM      6  C   UNL     1       7.150  47.256   2.590  1.00  0.00     0.006 C 
BRANCH   6   7
ATOM      7  C   UNL     1       6.759  48.726   2.395  1.00  0.00     0.053 C 
BRANCH   7   8
ATOM      8  C   UNL     1       6.845  49.101   0.949  1.00  0.00     0.041 C 
ATOM      9  O   UNL     1       7.506  48.389   0.148  1.00  0.00    -0.550 OA
ATOM     10  O   UNL     1       6.154  50.209   0.476  1.00  0.00    -0.550 OA
ENDBRANCH   7   8
ENDBRANCH   6   7
ENDBRANCH   5   6
ENDBRANCH   4   5
ENDBRANCH   3   4
ENDBRANCH   2   3
ENDBRANCH   1   2
BRANCH   1  11
ATOM     11  C   UNL     1      10.382  48.577   8.676  1.00  0.00     0.000 C 
BRANCH  11  12
ATOM     12  C   UNL     1       9.223  49.552   8.437  1.00  0.00    -0.000 C 
BRANCH  12  13
ATOM     13  C   UNL     1       8.524  49.910   9.754  1.00  0.00    -0.000 C 
BRANCH  13  14
ATOM     14  C   UNL     1       7.206  50.650   9.494  1.00  0.00    -0.000 C 
BRANCH  14  15
ATOM     15  C   UNL     1       7.068  51.021   8.010  1.00  0.00    -0.000 C 
BRANCH  15  16
ATOM     16  C   UNL     1       7.410  52.494   7.732  1.00  0.00    -0.000 C 
BRANCH  16  17
ATOM     17  C   UNL     1       8.409  52.659   6.578  1.00  0.00    -0.003 C 
ATOM     18  C   UNL     1       8.178  51.606   5.497  1.00  0.00     0.004 C 
ENDBRANCH  16  17
ENDBRANCH  15  16
ENDBRANCH  14  15
ENDBRANCH  13  14
ENDBRANCH  12  13
ENDBRANCH  11  12
ENDBRANCH   1  11
TORSDOF 14
ENDMDL
MODEL 5
REMARK VINA RESULT:    -3.327     12.470     15.396
REMARK INTER + INTRA:          -8.046
REMARK INTER:                  -5.522
REMARK INTRA:                  -2.524
REMARK UNBOUND:                -1.996
REMARK SMILES CCCCCCCCCCCCCCCC(=O)[O-]
REMARK SMILES IDX 9 1 10 2 11 3 12 4 13 5 14 6 15 7 16 8 17 9 18 10 8 11 7 12
REMARK SMILES IDX 6 13 5 14 4 15 3 16 2 17 1 18
REMARK H PARENT
REMARK Flexibility Score: inf
ROOT
ATOM      1  C   UNL     1       8.221  47.136   3.384  1.00  0.00     0.000 C 
ENDROOT
BRANCH   1   2
ATOM      2  C   UNL     1       9.735  47.106   3.129  1.00  0.00     0.000 C 
BRANCH   2   3
ATOM      3  C   UNL     1      10.469  48.283   3.789  1.00  0.00     0.000 C 
BRANCH   3   4
ATOM      4  C   UNL     1       9.845  48.686   5.138  1.00  0.00     0.000 C 
BRANCH   4   5
ATOM      5  C   UNL     1       9.684  50.210   5.290  1.00  0.00     0.000 C 
BRANCH   5   6
ATOM      6  C   UNL     1       8.300  50.667   5.788  1.00  0.00     0.006 C 
BRANCH   6   7
ATOM      7  C   UNL     1       8.278  52.139   6.221  1.00  0.00     0.053 C 
BRANCH   7   8
ATOM      8  C   UNL     1       7.416  52.312   7.432  1.00  0.00     0.041 C 
ATOM      9  O   UNL     1       7.086  53.465   7.816  1.00  0.00    -0.550 OA
ATOM     10  O   UNL     1       6.937  51.197   8.110  1.00  0.00    -0.550 OA
ENDBRANCH   7   8
ENDBRANCH   6   7
ENDBRANCH   5   6
ENDBRANCH   4   5
ENDBRANCH   3   4
ENDBRANCH   2   3
ENDBRANCH   1   2
BRANCH   1  11
ATOM     11  C   UNL     1       7.439  46.954   2.078  1.00  0.00     0.000 C 
BRANCH  11  12
ATOM     12  C   UNL     1       6.697  48.240   1.696  1.00  0.00    -0.000 C 
BRANCH  12  13
ATOM     13  C   UNL     1       6.747  49.264   2.836  1.00  0.00    -0.000 C 
BRANCH  13  14
ATOM     14  C   UNL     1       7.248  50.623   2.332  1.00  0.00    -0.000 C 
BRANCH  14  15
ATOM     15  C   UNL     1       8.378  50.447   1.307  1.00  0.00    -0.000 C 
BRANCH  15  16
ATOM     16  C   UNL     1       9.633  51.261   1.662  1.00  0.00    -0.000 C 
BRANCH  16  17
ATOM     17  C   UNL     1       9.308  52.714   2.033  1.00  0.00    -0.003 C 
ATOM     18  C   UNL     1      10.171  53.189   3.199  1.00  0.00     0.004 C 
ENDBRANCH  16  17
ENDBRANCH  15  16
ENDBRANCH  14  15
ENDBRANCH  13  14
ENDBRANCH  12  13
ENDBRANCH  11  12
ENDBRANCH   1  11
TORSDOF 14
ENDMDL
MODEL 6
REMARK VINA RESULT:    -3.294     13.466     15.454
REMARK INTER + INTRA:          -7.986
REMARK INTER:                  -5.606
REMARK INTRA:                  -2.380
REMARK UNBOUND:                -1.996
REMARK SMILES CCCCCCCCCCCCCCCC(=O)[O-]
REMARK SMILES IDX 9 1 10 2 11 3 12 4 13 5 14 6 15 7 16 8 17 9 18 10 8 11 7 12
REMARK SMILES IDX 6 13 5 14 4 15 3 16 2 17 1 18
REMARK H PARENT
REMARK Flexibility Score: inf
ROOT
ATOM      1  C   UNL     1      10.740  49.922   8.182  1.00  0.00     0.000 C 
ENDROOT
BRANCH   1   2
ATOM      2  C   UNL     1       9.246  49.566   8.148  1.00  0.00     0.000 C 
BRANCH   2   3
ATOM      3  C   UNL     1       8.517  49.953   9.444  1.00  0.00     0.000 C 
BRANCH   3   4
ATOM      4  C   UNL     1       7.210  50.722   9.179  1.00  0.00     0.000 C 
BRANCH   4   5
ATOM      5  C   UNL     1       7.106  51.246   7.735  1.00  0.00     0.000 C 
BRANCH   5   6
ATOM      6  C   UNL     1       7.346  52.759   7.577  1.00  0.00     0.006 C 
BRANCH   6   7
ATOM      7  C   UNL     1       8.021  53.388   8.802  1.00  0.00     0.053 C 
BRANCH   7   8
ATOM      8  C   UNL     1       9.495  53.516   8.577  1.00  0.00     0.041 C 
ATOM      9  O   UNL     1       9.931  54.057   7.526  1.00  0.00    -0.550 OA
ATOM     10  O   UNL     1      10.387  53.082   9.549  1.00  0.00    -0.550 OA
ENDBRANCH   7   8
ENDBRANCH   6   7
ENDBRANCH   5   6
ENDBRANCH   4   5
ENDBRANCH   3   4
ENDBRANCH   2   3
ENDBRANCH   1   2
BRANCH   1  11
ATOM     11  C   UNL     1      11.159  50.658   6.904  1.00  0.00     0.000 C 
BRANCH  11  12
ATOM     12  C   UNL     1      10.137  50.441   5.782  1.00  0.00    -0.000 C 
BRANCH  12  13
ATOM     13  C   UNL     1       9.958  51.714   4.946  1.00  0.00    -0.000 C 
BRANCH  13  14
ATOM     14  C   UNL     1       8.615  51.702   4.206  1.00  0.00    -0.000 C 
BRANCH  14  15
ATOM     15  C   UNL     1       7.932  50.331   4.329  1.00  0.00    -0.000 C 
BRANCH  15  16
ATOM     16  C   UNL     1       7.317  49.854   3.003  1.00  0.00    -0.000 C 
BRANCH  16  17
ATOM     17  C   UNL     1       7.974  48.570   2.477  1.00  0.00    -0.003 C 
ATOM     18  C   UNL     1       8.577  47.755   3.618  1.00  0.00     0.004 C 
ENDBRANCH  16  17
ENDBRANCH  15  16
ENDBRANCH  14  15
ENDBRANCH  13  14
ENDBRANCH  12  13
ENDBRANCH  11  12
ENDBRANCH   1  11
TORSDOF 14
ENDMDL
MODEL 7
REMARK VINA RESULT:    -3.271     13.121     15.797
REMARK INTER + INTRA:          -7.944
REMARK INTER:                  -5.762
REMARK INTRA:                  -2.182
REMARK UNBOUND:                -1.996
REMARK SMILES CCCCCCCCCCCCCCCC(=O)[O-]
REMARK SMILES IDX 9 1 10 2 11 3 12 4 13 5 14 6 15 7 16 8 17 9 18 10 8 11 7 12
REMARK SMILES IDX 6 13 5 14 4 15 3 16 2 17 1 18
REMARK H PARENT
REMARK Flexibility Score: inf
ROOT
ATOM      1  C   UNL     1      10.071  49.298   9.355  1.00  0.00     0.000 C 
ENDROOT
BRANCH   1   2
ATOM      2  C   UNL     1      10.141  48.780   7.912  1.00  0.00     0.000 C 
BRANCH   2   3
ATOM      3  C   UNL     1      11.280  49.424   7.107  1.00  0.00     0.000 C 
BRANCH   3   4
ATOM      4  C   UNL     1      11.099  49.256   5.588  1.00  0.00     0.000 C 
BRANCH   4   5
ATOM      5  C   UNL     1       9.765  48.584   5.216  1.00  0.00     0.000 C 
BRANCH   5   6
ATOM      6  C   UNL     1       9.433  48.593   3.711  1.00  0.00     0.006 C 
BRANCH   6   7
ATOM      7  C   UNL     1       8.354  47.572   3.331  1.00  0.00     0.053 C 
BRANCH   7   8
ATOM      8  C   UNL     1       7.170  48.263   2.730  1.00  0.00     0.041 C 
ATOM      9  O   UNL     1       6.974  49.488   2.947  1.00  0.00    -0.550 OA
ATOM     10  O   UNL     1       6.310  47.566   1.891  1.00  0.00    -0.550 OA
ENDBRANCH   7   8
ENDBRANCH   6   7
ENDBRANCH   5   6
ENDBRANCH   4   5
ENDBRANCH   3   4
ENDBRANCH   2   3
ENDBRANCH   1   2
BRANCH   1  11
ATOM     11  C   UNL     1       8.714  49.952   9.640  1.00  0.00     0.000 C 
BRANCH  11  12
ATOM     12  C   UNL     1       7.995  50.321   8.338  1.00  0.00    -0.000 C 
BRANCH  12  13
ATOM     13  C   UNL     1       7.174  51.605   8.506  1.00  0.00    -0.000 C 
BRANCH  13  14
ATOM     14  C   UNL     1       7.541  52.638   7.434  1.00  0.00    -0.000 C 
BRANCH  14  15
ATOM     15  C   UNL     1       9.054  52.905   7.423  1.00  0.00    -0.000 C 
BRANCH  15  16
ATOM     16  C   UNL     1       9.685  52.682   6.039  1.00  0.00    -0.000 C 
BRANCH  16  17
ATOM     17  C   UNL     1       8.700  52.071   5.033  1.00  0.00    -0.003 C 
ATOM     18  C   UNL     1       9.163  52.310   3.598  1.00  0.00     0.004 C 
ENDBRANCH  16  17
ENDBRANCH  15  16
ENDBRANCH  14  15
ENDBRANCH  13  14
ENDBRANCH  12  13
ENDBRANCH  11  12
ENDBRANCH   1  11
TORSDOF 14
ENDMDL
MODEL 8
REMARK VINA RESULT:    -3.186     12.738     14.735
REMARK INTER + INTRA:          -7.791
REMARK INTER:                  -5.451
REMARK INTRA:                  -2.339
REMARK UNBOUND:                -1.996
REMARK SMILES CCCCCCCCCCCCCCCC(=O)[O-]
REMARK SMILES IDX 9 1 10 2 11 3 12 4 13 5 14 6 15 7 16 8 17 9 18 10 8 11 7 12
REMARK SMILES IDX 6 13 5 14 4 15 3 16 2 17 1 18
REMARK H PARENT
REMARK Flexibility Score: inf
ROOT
ATOM      1  C   UNL     1      10.015  49.922   7.969  1.00  0.00     0.000 C 
ENDROOT
BRANCH   1   2
ATOM      2  C   UNL     1      10.235  48.762   6.987  1.00  0.00     0.000 C 
BRANCH   2   3
ATOM      3  C   UNL     1       9.804  49.110   5.554  1.00  0.00     0.000 C 
BRANCH   3   4
ATOM      4  C   UNL     1       9.682  50.627   5.327  1.00  0.00     0.000 C 
BRANCH   4   5
ATOM      5  C   UNL     1       8.328  51.032   4.714  1.00  0.00     0.000 C 
BRANCH   5   6
ATOM      6  C   UNL     1       7.741  50.017   3.715  1.00  0.00     0.006 C 
BRANCH   6   7
ATOM      7  C   UNL     1       8.132  50.316   2.262  1.00  0.00     0.053 C 
BRANCH   7   8
ATOM      8  C   UNL     1       7.279  51.413   1.708  1.00  0.00     0.041 C 
ATOM      9  O   UNL     1       6.026  51.364   1.826  1.00  0.00    -0.550 OA
ATOM     10  O   UNL     1       7.870  52.514   1.101  1.00  0.00    -0.550 OA
ENDBRANCH   7   8
ENDBRANCH   6   7
ENDBRANCH   5   6
ENDBRANCH   4   5
ENDBRANCH   3   4
ENDBRANCH   2   3
ENDBRANCH   1   2
BRANCH   1  11
ATOM     11  C   UNL     1       9.011  49.536   9.061  1.00  0.00     0.000 C 
BRANCH  11  12
ATOM     12  C   UNL     1       8.029  50.680   9.336  1.00  0.00    -0.000 C 
BRANCH  12  13
ATOM     13  C   UNL     1       7.180  50.988   8.097  1.00  0.00    -0.000 C 
BRANCH  13  14
ATOM     14  C   UNL     1       7.145  52.494   7.813  1.00  0.00    -0.000 C 
BRANCH  14  15
ATOM     15  C   UNL     1       8.356  53.199   8.440  1.00  0.00    -0.000 C 
BRANCH  15  16
ATOM     16  C   UNL     1       9.417  53.595   7.400  1.00  0.00    -0.000 C 
BRANCH  16  17
ATOM     17  C   UNL     1      10.847  53.503   7.951  1.00  0.00    -0.003 C 
ATOM     18  C   UNL     1      10.839  53.220   9.451  1.00  0.00     0.004 C 
ENDBRANCH  16  17
ENDBRANCH  15  16
ENDBRANCH  14  15
ENDBRANCH  13  14
ENDBRANCH  12  13
ENDBRANCH  11  12
ENDBRANCH   1  11
TORSDOF 14
ENDMDL
MODEL 9
REMARK VINA RESULT:    -3.166     13.316     15.405
REMARK INTER + INTRA:          -7.753
REMARK INTER:                  -5.304
REMARK INTRA:                  -2.450
REMARK UNBOUND:                -1.996
REMARK SMILES CCCCCCCCCCCCCCCC(=O)[O-]
REMARK SMILES IDX 9 1 10 2 11 3 12 4 13 5 14 6 15 7 16 8 17 9 18 10 8 11 7 12
REMARK SMILES IDX 6 13 5 14 4 15 3 16 2 17 1 18
REMARK H PARENT
REMARK Flexibility Score: inf
ROOT
ATOM      1  C   UNL     1      11.011  51.431   6.977  1.00  0.00     0.000 C 
ENDROOT
BRANCH   1   2
ATOM      2  C   UNL     1      10.684  50.337   8.004  1.00  0.00     0.000 C 
BRANCH   2   3
ATOM      3  C   UNL     1      10.135  49.059   7.352  1.00  0.00     0.000 C 
BRANCH   3   4
ATOM      4  C   UNL     1      10.695  48.831   5.936  1.00  0.00     0.000 C 
BRANCH   4   5
ATOM      5  C   UNL     1       9.593  48.565   4.893  1.00  0.00     0.000 C 
BRANCH   5   6
ATOM      6  C   UNL     1       9.335  49.727   3.915  1.00  0.00     0.006 C 
BRANCH   6   7
ATOM      7  C   UNL     1       7.956  50.372   4.105  1.00  0.00     0.053 C 
BRANCH   7   8
ATOM      8  C   UNL     1       7.064  50.042   2.949  1.00  0.00     0.041 C 
ATOM      9  O   UNL     1       6.555  50.964   2.258  1.00  0.00    -0.550 OA
ATOM     10  O   UNL     1       6.833  48.716   2.605  1.00  0.00    -0.550 OA
ENDBRANCH   7   8
ENDBRANCH   6   7
ENDBRANCH   5   6
ENDBRANCH   4   5
ENDBRANCH   3   4
ENDBRANCH   2   3
ENDBRANCH   1   2
BRANCH   1  11
ATOM     11  C   UNL     1      10.276  52.735   7.309  1.00  0.00     0.000 C 
BRANCH  11  12
ATOM     12  C   UNL     1       8.911  52.791   6.614  1.00  0.00    -0.000 C 
BRANCH  12  13
ATOM     13  C   UNL     1       7.769  52.693   7.632  1.00  0.00    -0.000 C 
BRANCH  13  14
ATOM     14  C   UNL     1       7.128  51.300   7.607  1.00  0.00    -0.000 C 
BRANCH  14  15
ATOM     15  C   UNL     1       7.143  50.663   9.004  1.00  0.00    -0.000 C 
BRANCH  15  16
ATOM     16  C   UNL     1       7.634  51.632  10.092  1.00  0.00    -0.000 C 
BRANCH  16  17
ATOM     17  C   UNL     1       8.519  50.943  11.140  1.00  0.00    -0.003 C 
ATOM     18  C   UNL     1       8.548  49.431  10.925  1.00  0.00     0.004 C 
ENDBRANCH  16  17
ENDBRANCH  15  16
ENDBRANCH  14  15
ENDBRANCH  13  14
ENDBRANCH  12  13
ENDBRANCH  11  12
ENDBRANCH   1  11
TORSDOF 14
ENDMDL
