MODEL 1
REMARK VINA RESULT:    -4.675      0.000      0.000
REMARK INTER + INTRA:          -6.725
REMARK INTER:                  -6.315
REMARK INTRA:                  -0.410
REMARK UNBOUND:                -0.410
REMARK SMILES CCCCCCCC(=O)[O-]
REMARK SMILES IDX 5 1 6 2 7 3 8 4 9 5 10 6 4 7 3 8 2 9 1 10
REMARK H PARENT
REMARK Flexibility Score: inf
ROOT
ATOM      1  C   UNL     1      15.150   1.711  12.876  1.00  0.00     0.000 C 
ENDROOT
BRANCH   1   2
ATOM      2  C   UNL     1      14.471   1.049  14.085  1.00  0.00     0.006 C 
BRANCH   2   3
ATOM      3  C   UNL     1      15.486   0.427  15.053  1.00  0.00     0.053 C 
BRANCH   3   4
ATOM      4  C   UNL     1      15.498   1.132  16.375  1.00  0.00     0.041 C 
ATOM      5  O   UNL     1      14.616   1.990  16.642  1.00  0.00    -0.550 OA
ATOM      6  O   UNL     1      16.462   0.817  17.323  1.00  0.00    -0.550 OA
ENDBRANCH   3   4
ENDBRANCH   2   3
ENDBRANCH   1   2
BRANCH   1   7
ATOM      7  C   UNL     1      15.386   0.697  11.753  1.00  0.00     0.000 C 
BRANCH   7   8
ATOM      8  C   UNL     1      16.857   0.684  11.320  1.00  0.00    -0.000 C 
BRANCH   8   9
ATOM      9  C   UNL     1      17.404  -0.747  11.272  1.00  0.00    -0.003 C 
ATOM     10  C   UNL     1      17.829  -1.221  12.659  1.00  0.00     0.004 C 
ENDBRANCH   8   9
ENDBRANCH   7   8
ENDBRANCH   1   7
TORSDOF 6
ENDMDL
MODEL 2
REMARK VINA RESULT:    -4.654      1.884      2.535
REMARK INTER + INTRA:          -6.696
REMARK INTER:                  -6.532
REMARK INTRA:                  -0.164
REMARK UNBOUND:                -0.410
REMARK SMILES CCCCCCCC(=O)[O-]
REMARK SMILES IDX 5 1 6 2 7 3 8 4 9 5 10 6 4 7 3 8 2 9 1 10
REMARK H PARENT
REMARK Flexibility Score: inf
ROOT
ATOM      1  C   UNL     1      14.742   1.280  15.035  1.00  0.00     0.000 C 
ENDROOT
BRANCH   1   2
ATOM      2  C   UNL     1      13.237   1.288  15.344  1.00  0.00     0.006 C 
BRANCH   2   3
ATOM      3  C   UNL     1      12.889   2.210  16.519  1.00  0.00     0.053 C 
BRANCH   3   4
ATOM      4  C   UNL     1      13.210   1.576  17.838  1.00  0.00     0.041 C 
ATOM      5  O   UNL     1      13.528   2.292  18.823  1.00  0.00    -0.550 OA
ATOM      6  O   UNL     1      13.125   0.198  17.986  1.00  0.00    -0.550 OA
ENDBRANCH   3   4
ENDBRANCH   2   3
ENDBRANCH   1   2
BRANCH   1   7
ATOM      7  C   UNL     1      15.010   1.703  13.587  1.00  0.00     0.000 C 
BRANCH   7   8
ATOM      8  C   UNL     1      15.174   0.480  12.676  1.00  0.00    -0.000 C 
BRANCH   8   9
ATOM      9  C   UNL     1      15.900   0.854  11.380  1.00  0.00    -0.003 C 
ATOM     10  C   UNL     1      17.007  -0.146  11.060  1.00  0.00     0.004 C 
ENDBRANCH   8   9
ENDBRANCH   7   8
ENDBRANCH   1   7
TORSDOF 6
ENDMDL
MODEL 3
REMARK VINA RESULT:    -4.622      2.162      3.504
REMARK INTER + INTRA:          -6.653
REMARK INTER:                  -6.381
REMARK INTRA:                  -0.272
REMARK UNBOUND:                -0.410
REMARK SMILES CCCCCCCC(=O)[O-]
REMARK SMILES IDX 5 1 6 2 7 3 8 4 9 5 10 6 4 7 3 8 2 9 1 10
REMARK H PARENT
REMARK Flexibility Score: inf
ROOT
ATOM      1  C   UNL     1      14.819   1.645  16.186  1.00  0.00     0.000 C 
ENDROOT
BRANCH   1   2
ATOM      2  C   UNL     1      14.212   2.417  17.367  1.00  0.00     0.006 C 
BRANCH   2   3
ATOM      3  C   UNL     1      13.100   1.626  18.068  1.00  0.00     0.053 C 
BRANCH   3   4
ATOM      4  C   UNL     1      13.618   0.357  18.674  1.00  0.00     0.041 C 
ATOM      5  O   UNL     1      13.216  -0.757  18.250  1.00  0.00    -0.550 OA
ATOM      6  O   UNL     1      14.570   0.406  19.685  1.00  0.00    -0.550 OA
ENDBRANCH   3   4
ENDBRANCH   2   3
ENDBRANCH   1   2
BRANCH   1   7
ATOM      7  C   UNL     1      13.766   1.370  15.107  1.00  0.00     0.000 C 
BRANCH   7   8
ATOM      8  C   UNL     1      14.386   0.657  13.900  1.00  0.00    -0.000 C 
BRANCH   8   9
ATOM      9  C   UNL     1      15.150   1.643  13.010  1.00  0.00    -0.003 C 
ATOM     10  C   UNL     1      15.557   0.995  11.690  1.00  0.00     0.004 C 
ENDBRANCH   8   9
ENDBRANCH   7   8
ENDBRANCH   1   7
TORSDOF 6
ENDMDL
MODEL 4
REMARK VINA RESULT:    -4.602      1.387      1.825
REMARK INTER + INTRA:          -6.626
REMARK INTER:                  -6.406
REMARK INTRA:                  -0.221
REMARK UNBOUND:                -0.410
REMARK SMILES CCCCCCCC(=O)[O-]
REMARK SMILES IDX 5 1 6 2 7 3 8 4 9 5 10 6 4 7 3 8 2 9 1 10
REMARK H PARENT
REMARK Flexibility Score: inf
ROOT
ATOM      1  C   UNL     1      15.124   1.765  13.378  1.00  0.00     0.000 C 
ENDROOT
BRANCH   1   2
ATOM      2  C   UNL     1      14.850   1.244  14.797  1.00  0.00     0.006 C 
BRANCH   2   3
ATOM      3  C   UNL     1      13.386   1.437  15.214  1.00  0.00     0.053 C 
BRANCH   3   4
ATOM      4  C   UNL     1      13.230   1.448  16.705  1.00  0.00     0.041 C 
ATOM      5  O   UNL     1      13.447   0.403  17.372  1.00  0.00    -0.550 OA
ATOM      6  O   UNL     1      12.876   2.622  17.359  1.00  0.00    -0.550 OA
ENDBRANCH   3   4
ENDBRANCH   2   3
ENDBRANCH   1   2
BRANCH   1   7
ATOM      7  C   UNL     1      15.178   0.613  12.369  1.00  0.00     0.000 C 
BRANCH   7   8
ATOM      8  C   UNL     1      16.328   0.806  11.373  1.00  0.00    -0.000 C 
BRANCH   8   9
ATOM      9  C   UNL     1      17.094  -0.503  11.157  1.00  0.00    -0.003 C 
ATOM     10  C   UNL     1      17.782  -0.957  12.441  1.00  0.00     0.004 C 
ENDBRANCH   8   9
ENDBRANCH   7   8
ENDBRANCH   1   7
TORSDOF 6
ENDMDL
MODEL 5
REMARK VINA RESULT:    -4.588      1.907      2.628
REMARK INTER + INTRA:          -6.608
REMARK INTER:                  -6.218
REMARK INTRA:                  -0.389
REMARK UNBOUND:                -0.410
REMARK SMILES CCCCCCCC(=O)[O-]
REMARK SMILES IDX 5 1 6 2 7 3 8 4 9 5 10 6 4 7 3 8 2 9 1 10
REMARK H PARENT
REMARK Flexibility Score: inf
ROOT
ATOM      1  C   UNL     1      14.396   0.532  13.712  1.00  0.00     0.000 C 
ENDROOT
BRANCH   1   2
ATOM      2  C   UNL     1      15.293   0.046  14.861  1.00  0.00     0.006 C 
BRANCH   2   3
ATOM      3  C   UNL     1      15.966  -1.296  14.545  1.00  0.00     0.053 C 
BRANCH   3   4
ATOM      4  C   UNL     1      16.355  -2.030  15.792  1.00  0.00     0.041 C 
ATOM      5  O   UNL     1      17.490  -2.566  15.883  1.00  0.00    -0.550 OA
ATOM      6  O   UNL     1      15.476  -2.093  16.866  1.00  0.00    -0.550 OA
ENDBRANCH   3   4
ENDBRANCH   2   3
ENDBRANCH   1   2
BRANCH   1   7
ATOM      7  C   UNL     1      15.144   1.516  12.807  1.00  0.00     0.000 C 
BRANCH   7   8
ATOM      8  C   UNL     1      15.502   0.867  11.464  1.00  0.00    -0.000 C 
BRANCH   8   9
ATOM      9  C   UNL     1      17.011   0.633  11.351  1.00  0.00    -0.003 C 
ATOM     10  C   UNL     1      17.313  -0.694  10.660  1.00  0.00     0.004 C 
ENDBRANCH   8   9
ENDBRANCH   7   8
ENDBRANCH   1   7
TORSDOF 6
ENDMDL
MODEL 6
REMARK VINA RESULT:    -4.573     13.939     15.988
REMARK INTER + INTRA:          -6.586
REMARK INTER:                  -6.110
REMARK INTRA:                  -0.476
REMARK UNBOUND:                -0.410
REMARK SMILES CCCCCCCC(=O)[O-]
REMARK SMILES IDX 5 1 6 2 7 3 8 4 9 5 10 6 4 7 3 8 2 9 1 10
REMARK H PARENT
REMARK Flexibility Score: inf
ROOT
ATOM      1  C   UNL     1      29.355  -4.797   6.144  1.00  0.00     0.000 C 
ENDROOT
BRANCH   1   2
ATOM      2  C   UNL     1      30.352  -4.324   7.213  1.00  0.00     0.006 C 
BRANCH   2   3
ATOM      3  C   UNL     1      30.809  -2.878   6.983  1.00  0.00     0.053 C 
BRANCH   3   4
ATOM      4  C   UNL     1      31.495  -2.313   8.190  1.00  0.00     0.041 C 
ATOM      5  O   UNL     1      30.819  -1.930   9.180  1.00  0.00    -0.550 OA
ATOM      6  O   UNL     1      32.881  -2.240   8.232  1.00  0.00    -0.550 OA
ENDBRANCH   3   4
ENDBRANCH   2   3
ENDBRANCH   1   2
BRANCH   1   7
ATOM      7  C   UNL     1      28.437  -3.652   5.704  1.00  0.00     0.000 C 
BRANCH   7   8
ATOM      8  C   UNL     1      27.150  -3.624   6.538  1.00  0.00    -0.000 C 
BRANCH   8   9
ATOM      9  C   UNL     1      26.717  -2.184   6.832  1.00  0.00    -0.003 C 
ATOM     10  C   UNL     1      27.520  -1.591   7.986  1.00  0.00     0.004 C 
ENDBRANCH   8   9
ENDBRANCH   7   8
ENDBRANCH   1   7
TORSDOF 6
ENDMDL
MODEL 7
REMARK VINA RESULT:    -4.548      1.111      1.451
REMARK INTER + INTRA:          -6.553
REMARK INTER:                  -6.080
REMARK INTRA:                  -0.472
REMARK UNBOUND:                -0.410
REMARK SMILES CCCCCCCC(=O)[O-]
REMARK SMILES IDX 5 1 6 2 7 3 8 4 9 5 10 6 4 7 3 8 2 9 1 10
REMARK H PARENT
REMARK Flexibility Score: inf
ROOT
ATOM      1  C   UNL     1      14.735   1.305  13.979  1.00  0.00     0.000 C 
ENDROOT
BRANCH   1   2
ATOM      2  C   UNL     1      15.022  -0.178  14.260  1.00  0.00     0.006 C 
BRANCH   2   3
ATOM      3  C   UNL     1      16.237  -0.371  15.176  1.00  0.00     0.053 C 
BRANCH   3   4
ATOM      4  C   UNL     1      15.884  -0.167  16.618  1.00  0.00     0.041 C 
ATOM      5  O   UNL     1      14.798  -0.611  17.073  1.00  0.00    -0.550 OA
ATOM      6  O   UNL     1      16.771   0.485  17.466  1.00  0.00    -0.550 OA
ENDBRANCH   3   4
ENDBRANCH   2   3
ENDBRANCH   1   2
BRANCH   1   7
ATOM      7  C   UNL     1      15.275   1.719  12.606  1.00  0.00     0.000 C 
BRANCH   7   8
ATOM      8  C   UNL     1      15.401   0.508  11.674  1.00  0.00    -0.000 C 
BRANCH   8   9
ATOM      9  C   UNL     1      16.788   0.456  11.024  1.00  0.00    -0.003 C 
ATOM     10  C   UNL     1      17.651  -0.632  11.656  1.00  0.00     0.004 C 
ENDBRANCH   8   9
ENDBRANCH   7   8
ENDBRANCH   1   7
TORSDOF 6
ENDMDL
MODEL 8
REMARK VINA RESULT:    -4.525      5.297      6.669
REMARK INTER + INTRA:          -6.522
REMARK INTER:                  -6.155
REMARK INTRA:                  -0.367
REMARK UNBOUND:                -0.410
REMARK SMILES CCCCCCCC(=O)[O-]
REMARK SMILES IDX 5 1 6 2 7 3 8 4 9 5 10 6 4 7 3 8 2 9 1 10
REMARK H PARENT
REMARK Flexibility Score: inf
ROOT
ATOM      1  C   UNL     1      15.107  -0.747  20.140  1.00  0.00     0.000 C 
ENDROOT
BRANCH   1   2
ATOM      2  C   UNL     1      16.194  -1.171  19.141  1.00  0.00     0.006 C 
BRANCH   2   3
ATOM      3  C   UNL     1      16.210  -2.687  18.908  1.00  0.00     0.053 C 
BRANCH   3   4
ATOM      4  C   UNL     1      15.322  -3.084  17.769  1.00  0.00     0.041 C 
ATOM      5  O   UNL     1      15.799  -3.224  16.612  1.00  0.00    -0.550 OA
ATOM      6  O   UNL     1      13.973  -3.331  17.992  1.00  0.00    -0.550 OA
ENDBRANCH   3   4
ENDBRANCH   2   3
ENDBRANCH   1   2
BRANCH   1   7
ATOM      7  C   UNL     1      14.356   0.493  19.644  1.00  0.00     0.000 C 
BRANCH   7   8
ATOM      8  C   UNL     1      13.396   0.137  18.502  1.00  0.00    -0.000 C 
BRANCH   8   9
ATOM      9  C   UNL     1      13.254   1.304  17.519  1.00  0.00    -0.003 C 
ATOM     10  C   UNL     1      13.205   2.640  18.254  1.00  0.00     0.004 C 
ENDBRANCH   8   9
ENDBRANCH   7   8
ENDBRANCH   1   7
TORSDOF 6
ENDMDL
MODEL 9
REMARK VINA RESULT:    -4.507      3.146      4.620
REMARK INTER + INTRA:          -6.498
REMARK INTER:                  -6.117
REMARK INTRA:                  -0.381
REMARK UNBOUND:                -0.410
REMARK SMILES CCCCCCCC(=O)[O-]
REMARK SMILES IDX 5 1 6 2 7 3 8 4 9 5 10 6 4 7 3 8 2 9 1 10
REMARK H PARENT
REMARK Flexibility Score: inf
ROOT
ATOM      1  C   UNL     1      15.135   1.622  12.999  1.00  0.00     0.000 C 
ENDROOT
BRANCH   1   2
ATOM      2  C   UNL     1      15.384   0.883  11.676  1.00  0.00     0.006 C 
BRANCH   2   3
ATOM      3  C   UNL     1      16.874   0.818  11.317  1.00  0.00     0.053 C 
BRANCH   3   4
ATOM      4  C   UNL     1      17.322  -0.588  11.055  1.00  0.00     0.041 C 
ATOM      5  O   UNL     1      17.578  -0.962   9.881  1.00  0.00    -0.550 OA
ATOM      6  O   UNL     1      17.489  -1.474  12.112  1.00  0.00    -0.550 OA
ENDBRANCH   3   4
ENDBRANCH   2   3
ENDBRANCH   1   2
BRANCH   1   7
ATOM      7  C   UNL     1      14.516   0.687  14.044  1.00  0.00     0.000 C 
BRANCH   7   8
ATOM      8  C   UNL     1      15.067   0.983  15.444  1.00  0.00    -0.000 C 
BRANCH   8   9
ATOM      9  C   UNL     1      16.189   0.006  15.811  1.00  0.00    -0.003 C 
ATOM     10  C   UNL     1      15.907  -1.389  15.262  1.00  0.00     0.004 C 
ENDBRANCH   8   9
ENDBRANCH   7   8
ENDBRANCH   1   7
TORSDOF 6
ENDMDL
