MODEL 1
REMARK VINA RESULT:    20.580      0.000      0.000
REMARK INTER + INTRA:          32.261
REMARK INTER:                  30.205
REMARK INTRA:                   2.056
REMARK UNBOUND:                 2.056
REMARK SMILES O=c1c(O[C@@H]2O[C@@H](CO)[C@@H](O)[C@@H](O)[C@@H]2O)c(-c2ccc(O)c(O)c2)oc2cc(O)cc(O)c12
REMARK SMILES IDX 4 1 3 2 16 3 25 4 2 5 26 6 1 7 33 8 27 9 31 10 28 11 30 12
REMARK SMILES IDX 17 13 18 14 19 15 20 16 24 17 22 18 21 19 23 21 32 23 29 25
REMARK SMILES IDX 5 27 14 28 6 29 12 30 7 31 10 32 15 33 13 35 8 37 9 38 11 40
REMARK H PARENT 21 20 23 22 32 24 29 26 15 34 13 36 9 39 11 41
REMARK Flexibility Score: inf
ROOT
ATOM      1  O   UNL     1       3.848  10.413  13.535  1.00  0.00    -0.454 OA
ENDROOT
BRANCH   1   2
ATOM      2  C   UNL     1       3.826   9.948  14.859  1.00  0.00     0.214 A 
ATOM      3  C   UNL     1       4.572   8.826  15.287  1.00  0.00     0.180 A 
ATOM      4  O   UNL     1       4.424   8.367  16.525  1.00  0.00    -0.452 OA
ATOM      5  C   UNL     1       3.028  10.618  15.794  1.00  0.00     0.239 A 
ATOM      6  C   UNL     1       3.637   8.943  17.427  1.00  0.00     0.146 A 
ATOM      7  O   UNL     1       2.410  11.658  15.439  1.00  0.00    -0.285 OA
ATOM      8  C   UNL     1       2.913  10.114  17.106  1.00  0.00     0.111 A 
ATOM      9  C   UNL     1       3.545   8.387  18.706  1.00  0.00     0.094 A 
ATOM     10  C   UNL     1       2.101  10.717  18.097  1.00  0.00     0.134 A 
ATOM     11  C   UNL     1       2.740   8.985  19.681  1.00  0.00     0.123 A 
ATOM     12  C   UNL     1       2.025  10.145  19.376  1.00  0.00     0.093 A 
BRANCH   3  13
ATOM     13  C   UNL     1       5.555   8.150  14.417  1.00  0.00     0.025 A 
ATOM     14  C   UNL     1       5.126   7.169  13.512  1.00  0.00     0.016 A 
ATOM     15  C   UNL     1       6.050   6.508  12.700  1.00  0.00     0.051 A 
ATOM     16  C   UNL     1       7.417   6.804  12.797  1.00  0.00     0.157 A 
ATOM     17  C   UNL     1       6.927   8.429  14.531  1.00  0.00     0.062 A 
ATOM     18  C   UNL     1       7.856   7.766  13.722  1.00  0.00     0.158 A 
BRANCH  16  19
ATOM     19  O   UNL     1       8.336   6.143  11.984  1.00  0.00    -0.504 OA
ATOM     20  H   UNL     1       9.303   6.441  11.925  1.00  0.00     0.293 HD
ENDBRANCH  16  19
BRANCH  18  21
ATOM     21  O   UNL     1       9.210   8.072  13.854  1.00  0.00    -0.504 OA
ATOM     22  H   UNL     1       9.530   9.003  14.095  1.00  0.00     0.293 HD
ENDBRANCH  18  21
ENDBRANCH   3  13
BRANCH  10  23
ATOM     23  O   UNL     1       1.372  11.875  17.822  1.00  0.00    -0.507 OA
ATOM     24  H   UNL     1       1.593  12.469  17.032  1.00  0.00     0.293 HD
ENDBRANCH  10  23
BRANCH  11  25
ATOM     25  O   UNL     1       2.645   8.435  20.957  1.00  0.00    -0.508 OA
ATOM     26  H   UNL     1       3.110   8.858  21.752  1.00  0.00     0.293 HD
ENDBRANCH  11  25
ENDBRANCH   1   2
BRANCH   1  27
ATOM     27  C   UNL     1       3.304   9.691  12.421  1.00  0.00     0.339 C 
ATOM     28  C   UNL     1       2.185   8.728  12.874  1.00  0.00     0.214 C 
ATOM     29  O   UNL     1       2.830  10.586  11.426  1.00  0.00    -0.332 OA
ATOM     30  C   UNL     1       0.947   9.514  13.356  1.00  0.00     0.180 C 
ATOM     31  C   UNL     1       1.776  11.402  11.919  1.00  0.00     0.179 C 
ATOM     32  C   UNL     1       0.542  10.547  12.292  1.00  0.00     0.177 C 
BRANCH  28  33
ATOM     33  O   UNL     1       2.651   7.836  13.856  1.00  0.00    -0.384 OA
ATOM     34  H   UNL     1       2.461   8.235  14.744  1.00  0.00     0.211 HD
ENDBRANCH  28  33
BRANCH  30  35
ATOM     35  O   UNL     1      -0.125   8.639  13.593  1.00  0.00    -0.387 OA
ATOM     36  H   UNL     1      -0.874   8.938  13.014  1.00  0.00     0.211 HD
ENDBRANCH  30  35
BRANCH  31  37
ATOM     37  C   UNL     1       1.440  12.475  10.876  1.00  0.00     0.191 C 
BRANCH  37  38
ATOM     38  O   UNL     1       0.071  12.781  10.902  1.00  0.00    -0.394 OA
ATOM     39  H   UNL     1      -0.080  13.432  10.170  1.00  0.00     0.210 HD
ENDBRANCH  37  38
ENDBRANCH  31  37
BRANCH  32  40
ATOM     40  O   UNL     1       0.039   9.881  11.159  1.00  0.00    -0.387 OA
ATOM     41  H   UNL     1       0.637   9.107  10.984  1.00  0.00     0.211 HD
ENDBRANCH  32  40
ENDBRANCH   1  27
TORSDOF 12
ENDMDL
MODEL 2
REMARK VINA RESULT:    21.967      1.367      5.788
REMARK INTER + INTRA:          34.296
REMARK INTER:                  33.618
REMARK INTRA:                   0.678
REMARK UNBOUND:                 2.056
REMARK SMILES O=c1c(O[C@@H]2O[C@@H](CO)[C@@H](O)[C@@H](O)[C@@H]2O)c(-c2ccc(O)c(O)c2)oc2cc(O)cc(O)c12
REMARK SMILES IDX 4 1 3 2 16 3 25 4 2 5 26 6 1 7 33 8 27 9 31 10 28 11 30 12
REMARK SMILES IDX 17 13 18 14 19 15 20 16 24 17 22 18 21 19 23 21 32 23 29 25
REMARK SMILES IDX 5 27 14 28 6 29 12 30 7 31 10 32 15 33 13 35 8 37 9 38 11 40
REMARK H PARENT 21 20 23 22 32 24 29 26 15 34 13 36 9 39 11 41
REMARK Flexibility Score: inf
ROOT
ATOM      1  O   UNL     1       2.685   8.023  13.900  1.00  0.00    -0.454 OA
ENDROOT
BRANCH   1   2
ATOM      2  C   UNL     1       4.050   8.135  14.205  1.00  0.00     0.214 A 
ATOM      3  C   UNL     1       4.529   8.897  15.294  1.00  0.00     0.180 A 
ATOM      4  O   UNL     1       5.838   9.056  15.466  1.00  0.00    -0.452 OA
ATOM      5  C   UNL     1       4.977   7.469  13.395  1.00  0.00     0.239 A 
ATOM      6  C   UNL     1       6.750   8.483  14.688  1.00  0.00     0.146 A 
ATOM      7  O   UNL     1       4.558   6.733  12.460  1.00  0.00    -0.285 OA
ATOM      8  C   UNL     1       6.358   7.642  13.620  1.00  0.00     0.111 A 
ATOM      9  C   UNL     1       8.104   8.709  14.946  1.00  0.00     0.094 A 
ATOM     10  C   UNL     1       7.355   7.029  12.824  1.00  0.00     0.134 A 
ATOM     11  C   UNL     1       9.085   8.102  14.155  1.00  0.00     0.123 A 
ATOM     12  C   UNL     1       8.710   7.265  13.101  1.00  0.00     0.093 A 
BRANCH   3  13
ATOM     13  C   UNL     1       3.627   9.507  16.291  1.00  0.00     0.025 A 
ATOM     14  C   UNL     1       2.880  10.644  15.951  1.00  0.00     0.016 A 
ATOM     15  C   UNL     1       2.040  11.242  16.893  1.00  0.00     0.051 A 
ATOM     16  C   UNL     1       1.953  10.725  18.194  1.00  0.00     0.157 A 
ATOM     17  C   UNL     1       3.559   9.004  17.601  1.00  0.00     0.062 A 
ATOM     18  C   UNL     1       2.721   9.604  18.549  1.00  0.00     0.158 A 
BRANCH  16  19
ATOM     19  O   UNL     1       1.113  11.323  19.131  1.00  0.00    -0.504 OA
ATOM     20  H   UNL     1       0.299  10.843  19.497  1.00  0.00     0.293 HD
ENDBRANCH  16  19
BRANCH  18  21
ATOM     21  O   UNL     1       2.670   9.074  19.838  1.00  0.00    -0.504 OA
ATOM     22  H   UNL     1       2.777   9.654  20.663  1.00  0.00     0.293 HD
ENDBRANCH  18  21
ENDBRANCH   3  13
BRANCH  10  23
ATOM     23  O   UNL     1       7.012   6.190  11.763  1.00  0.00    -0.507 OA
ATOM     24  H   UNL     1       7.663   5.509  11.389  1.00  0.00     0.293 HD
ENDBRANCH  10  23
BRANCH  11  25
ATOM     25  O   UNL     1      10.437   8.323  14.408  1.00  0.00    -0.508 OA
ATOM     26  H   UNL     1      10.909   7.881  15.188  1.00  0.00     0.293 HD
ENDBRANCH  11  25
ENDBRANCH   1   2
BRANCH   1  27
ATOM     27  C   UNL     1       2.136   8.225  12.590  1.00  0.00     0.339 C 
ATOM     28  C   UNL     1       0.808   9.010  12.656  1.00  0.00     0.214 C 
ATOM     29  O   UNL     1       3.072   8.882  11.749  1.00  0.00    -0.332 OA
ATOM     30  C   UNL     1       1.055  10.466  13.105  1.00  0.00     0.180 C 
ATOM     31  C   UNL     1       3.397  10.174  12.243  1.00  0.00     0.179 C 
ATOM     32  C   UNL     1       2.155  11.097  12.238  1.00  0.00     0.177 C 
BRANCH  28  33
ATOM     33  O   UNL     1      -0.125   8.360  13.483  1.00  0.00    -0.384 OA
ATOM     34  H   UNL     1      -0.351   8.975  14.228  1.00  0.00     0.211 HD
ENDBRANCH  28  33
BRANCH  30  35
ATOM     35  O   UNL     1      -0.124  11.219  12.989  1.00  0.00    -0.387 OA
ATOM     36  H   UNL     1      -0.117  11.628  12.085  1.00  0.00     0.211 HD
ENDBRANCH  30  35
BRANCH  31  37
ATOM     37  C   UNL     1       4.550  10.755  11.414  1.00  0.00     0.191 C 
BRANCH  37  38
ATOM     38  O   UNL     1       4.223  12.032  10.937  1.00  0.00    -0.394 OA
ATOM     39  H   UNL     1       4.589  12.084  10.017  1.00  0.00     0.210 HD
ENDBRANCH  37  38
ENDBRANCH  31  37
BRANCH  32  40
ATOM     40  O   UNL     1       1.676  11.275  10.927  1.00  0.00    -0.387 OA
ATOM     41  H   UNL     1       2.457  11.213  10.318  1.00  0.00     0.211 HD
ENDBRANCH  32  40
ENDBRANCH   1  27
TORSDOF 12
ENDMDL
MODEL 3
REMARK VINA RESULT:    22.390      1.643      6.708
REMARK INTER + INTRA:          34.917
REMARK INTER:                  29.593
REMARK INTRA:                   5.323
REMARK UNBOUND:                 2.056
REMARK SMILES O=c1c(O[C@@H]2O[C@@H](CO)[C@@H](O)[C@@H](O)[C@@H]2O)c(-c2ccc(O)c(O)c2)oc2cc(O)cc(O)c12
REMARK SMILES IDX 4 1 3 2 16 3 25 4 2 5 26 6 1 7 33 8 27 9 31 10 28 11 30 12
REMARK SMILES IDX 17 13 18 14 19 15 20 16 24 17 22 18 21 19 23 21 32 23 29 25
REMARK SMILES IDX 5 27 14 28 6 29 12 30 7 31 10 32 15 33 13 35 8 37 9 38 11 40
REMARK H PARENT 21 20 23 22 32 24 29 26 15 34 13 36 9 39 11 41
REMARK Flexibility Score: inf
ROOT
ATOM      1  O   UNL     1       5.866   8.216  15.412  1.00  0.00    -0.454 OA
ENDROOT
BRANCH   1   2
ATOM      2  C   UNL     1       4.712   8.861  14.943  1.00  0.00     0.214 A 
ATOM      3  C   UNL     1       3.571   9.070  15.751  1.00  0.00     0.180 A 
ATOM      4  O   UNL     1       2.469   9.587  15.219  1.00  0.00    -0.452 OA
ATOM      5  C   UNL     1       4.685   9.313  13.618  1.00  0.00     0.239 A 
ATOM      6  C   UNL     1       2.386   9.980  13.953  1.00  0.00     0.146 A 
ATOM      7  O   UNL     1       5.719   9.191  12.907  1.00  0.00    -0.285 OA
ATOM      8  C   UNL     1       3.504   9.877  13.093  1.00  0.00     0.111 A 
ATOM      9  C   UNL     1       1.182  10.512  13.482  1.00  0.00     0.094 A 
ATOM     10  C   UNL     1       3.389  10.326  11.755  1.00  0.00     0.134 A 
ATOM     11  C   UNL     1       1.073  10.952  12.159  1.00  0.00     0.123 A 
ATOM     12  C   UNL     1       2.173  10.860  11.303  1.00  0.00     0.093 A 
BRANCH   3  13
ATOM     13  C   UNL     1       3.560   8.768  17.196  1.00  0.00     0.025 A 
ATOM     14  C   UNL     1       4.666   9.109  17.988  1.00  0.00     0.016 A 
ATOM     15  C   UNL     1       4.675   8.809  19.352  1.00  0.00     0.051 A 
ATOM     16  C   UNL     1       3.587   8.146  19.938  1.00  0.00     0.157 A 
ATOM     17  C   UNL     1       2.481   8.083  17.779  1.00  0.00     0.062 A 
ATOM     18  C   UNL     1       2.488   7.778  19.145  1.00  0.00     0.158 A 
BRANCH  16  19
ATOM     19  O   UNL     1       3.598   7.850  21.300  1.00  0.00    -0.504 OA
ATOM     20  H   UNL     1       2.775   7.977  21.877  1.00  0.00     0.293 HD
ENDBRANCH  16  19
BRANCH  18  21
ATOM     21  O   UNL     1       1.397   7.104  19.693  1.00  0.00    -0.504 OA
ATOM     22  H   UNL     1       0.670   7.586  20.208  1.00  0.00     0.293 HD
ENDBRANCH  18  21
ENDBRANCH   3  13
BRANCH  10  23
ATOM     23  O   UNL     1       4.469  10.245  10.875  1.00  0.00    -0.507 OA
ATOM     24  H   UNL     1       4.374   9.843   9.950  1.00  0.00     0.293 HD
ENDBRANCH  10  23
BRANCH  11  25
ATOM     25  O   UNL     1      -0.123  11.484  11.684  1.00  0.00    -0.508 OA
ATOM     26  H   UNL     1      -0.198  12.455  11.408  1.00  0.00     0.293 HD
ENDBRANCH  11  25
ENDBRANCH   1   2
BRANCH   1  27
ATOM     27  C   UNL     1       6.239   6.877  15.054  1.00  0.00     0.339 C 
ATOM     28  C   UNL     1       5.409   6.368  13.856  1.00  0.00     0.214 C 
ATOM     29  O   UNL     1       7.629   6.800  14.777  1.00  0.00    -0.332 OA
ATOM     30  C   UNL     1       5.778   7.136  12.568  1.00  0.00     0.180 C 
ATOM     31  C   UNL     1       7.985   7.616  13.670  1.00  0.00     0.179 C 
ATOM     32  C   UNL     1       7.302   7.119  12.373  1.00  0.00     0.177 C 
BRANCH  28  33
ATOM     33  O   UNL     1       4.031   6.438  14.127  1.00  0.00    -0.384 OA
ATOM     34  H   UNL     1       3.546   6.332  13.268  1.00  0.00     0.211 HD
ENDBRANCH  28  33
BRANCH  30  35
ATOM     35  O   UNL     1       5.156   6.550  11.455  1.00  0.00    -0.387 OA
ATOM     36  H   UNL     1       5.664   5.724  11.242  1.00  0.00     0.211 HD
ENDBRANCH  30  35
BRANCH  31  37
ATOM     37  C   UNL     1       9.514   7.650  13.540  1.00  0.00     0.191 C 
BRANCH  37  38
ATOM     38  O   UNL     1      10.065   8.599  14.413  1.00  0.00    -0.394 OA
ATOM     39  H   UNL     1       9.789   9.485  14.066  1.00  0.00     0.210 HD
ENDBRANCH  37  38
ENDBRANCH  31  37
BRANCH  32  40
ATOM     40  O   UNL     1       7.722   5.813  12.062  1.00  0.00    -0.387 OA
ATOM     41  H   UNL     1       7.375   5.216  12.776  1.00  0.00     0.211 HD
ENDBRANCH  32  40
ENDBRANCH   1  27
TORSDOF 12
ENDMDL
