MODEL 1
REMARK VINA RESULT:    -4.890      0.000      0.000
REMARK INTER + INTRA:          -9.419
REMARK INTER:                  -8.464
REMARK INTRA:                  -0.955
REMARK UNBOUND:                -0.955
REMARK SMILES CCCCCCCCCCCCCCO
REMARK SMILES IDX 8 1 7 2 6 3 5 4 4 5 3 6 2 7 1 8 9 9 10 10 11 11 12 12 13 13
REMARK SMILES IDX 14 14 15 15
REMARK H PARENT 15 16
REMARK Flexibility Score: inf
ROOT
ATOM      1  C   UNL     1     -12.924  -7.235  38.234  1.00  0.00     0.000 C 
ENDROOT
BRANCH   1   2
ATOM      2  C   UNL     1     -13.670  -6.914  36.926  1.00  0.00    -0.000 C 
BRANCH   2   3
ATOM      3  C   UNL     1     -14.781  -5.852  37.090  1.00  0.00    -0.000 C 
BRANCH   3   4
ATOM      4  C   UNL     1     -15.885  -6.290  38.068  1.00  0.00    -0.000 C 
BRANCH   4   5
ATOM      5  C   UNL     1     -15.951  -5.404  39.322  1.00  0.00    -0.000 C 
BRANCH   5   6
ATOM      6  C   UNL     1     -14.824  -4.361  39.370  1.00  0.00    -0.000 C 
BRANCH   6   7
ATOM      7  C   UNL     1     -13.916  -4.593  40.582  1.00  0.00    -0.003 C 
ATOM      8  C   UNL     1     -14.393  -5.785  41.408  1.00  0.00     0.004 C 
ENDBRANCH   6   7
ENDBRANCH   5   6
ENDBRANCH   4   5
ENDBRANCH   3   4
ENDBRANCH   2   3
ENDBRANCH   1   2
BRANCH   1   9
ATOM      9  C   UNL     1     -11.772  -8.243  38.082  1.00  0.00     0.000 C 
BRANCH   9  10
ATOM     10  C   UNL     1     -11.001  -8.506  39.397  1.00  0.00     0.000 C 
BRANCH  10  11
ATOM     11  C   UNL     1      -9.934  -9.603  39.245  1.00  0.00     0.000 C 
BRANCH  11  12
ATOM     12  C   UNL     1      -9.925 -10.232  37.843  1.00  0.00     0.002 C 
BRANCH  12  13
ATOM     13  C   UNL     1      -8.609  -9.981  37.088  1.00  0.00     0.028 C 
BRANCH  13  14
ATOM     14  C   UNL     1      -8.852  -9.434  35.679  1.00  0.00     0.156 C 
BRANCH  14  15
ATOM     15  O   UNL     1      -8.410 -10.348  34.709  1.00  0.00    -0.396 OA
ATOM     16  H   UNL     1      -8.776 -10.044  33.837  1.00  0.00     0.210 HD
ENDBRANCH  14  15
ENDBRANCH  13  14
ENDBRANCH  12  13
ENDBRANCH  11  12
ENDBRANCH  10  11
ENDBRANCH   9  10
ENDBRANCH   1   9
TORSDOF 13
ENDMDL
MODEL 2
REMARK VINA RESULT:    -4.862      4.011      7.681
REMARK INTER + INTRA:          -9.370
REMARK INTER:                  -8.754
REMARK INTRA:                  -0.616
REMARK UNBOUND:                -0.955
REMARK SMILES CCCCCCCCCCCCCCO
REMARK SMILES IDX 8 1 7 2 6 3 5 4 4 5 3 6 2 7 1 8 9 9 10 10 11 11 12 12 13 13
REMARK SMILES IDX 14 14 15 15
REMARK H PARENT 15 16
REMARK Flexibility Score: inf
ROOT
ATOM      1  C   UNL     1     -14.762  -5.816  37.763  1.00  0.00     0.000 C 
ENDROOT
BRANCH   1   2
ATOM      2  C   UNL     1     -14.027  -6.488  36.589  1.00  0.00    -0.000 C 
BRANCH   2   3
ATOM      3  C   UNL     1     -13.051  -7.604  37.025  1.00  0.00    -0.000 C 
BRANCH   3   4
ATOM      4  C   UNL     1     -12.455  -7.363  38.422  1.00  0.00    -0.000 C 
BRANCH   4   5
ATOM      5  C   UNL     1     -11.411  -8.421  38.812  1.00  0.00    -0.000 C 
BRANCH   5   6
ATOM      6  C   UNL     1     -11.259  -9.521  37.751  1.00  0.00    -0.000 C 
BRANCH   6   7
ATOM      7  C   UNL     1      -9.783  -9.869  37.530  1.00  0.00    -0.003 C 
ATOM      8  C   UNL     1      -9.290  -9.347  36.183  1.00  0.00     0.004 C 
ENDBRANCH   6   7
ENDBRANCH   5   6
ENDBRANCH   4   5
ENDBRANCH   3   4
ENDBRANCH   2   3
ENDBRANCH   1   2
BRANCH   1   9
ATOM      9  C   UNL     1     -16.090  -6.490  38.155  1.00  0.00     0.000 C 
BRANCH   9  10
ATOM     10  C   UNL     1     -16.720  -5.913  39.444  1.00  0.00     0.000 C 
BRANCH  10  11
ATOM     11  C   UNL     1     -17.786  -6.844  40.046  1.00  0.00     0.000 C 
BRANCH  11  12
ATOM     12  C   UNL     1     -18.125  -6.493  41.504  1.00  0.00     0.002 C 
BRANCH  12  13
ATOM     13  C   UNL     1     -16.894  -6.531  42.425  1.00  0.00     0.028 C 
BRANCH  13  14
ATOM     14  C   UNL     1     -17.157  -7.341  43.698  1.00  0.00     0.156 C 
BRANCH  14  15
ATOM     15  O   UNL     1     -17.267  -6.493  44.811  1.00  0.00    -0.396 OA
ATOM     16  H   UNL     1     -17.247  -7.071  45.619  1.00  0.00     0.210 HD
ENDBRANCH  14  15
ENDBRANCH  13  14
ENDBRANCH  12  13
ENDBRANCH  11  12
ENDBRANCH  10  11
ENDBRANCH   9  10
ENDBRANCH   1   9
TORSDOF 13
ENDMDL
MODEL 3
REMARK VINA RESULT:    -4.797      4.270      6.752
REMARK INTER + INTRA:          -9.258
REMARK INTER:                  -8.693
REMARK INTRA:                  -0.565
REMARK UNBOUND:                -0.955
REMARK SMILES CCCCCCCCCCCCCCO
REMARK SMILES IDX 8 1 7 2 6 3 5 4 4 5 3 6 2 7 1 8 9 9 10 10 11 11 12 12 13 13
REMARK SMILES IDX 14 14 15 15
REMARK H PARENT 15 16
REMARK Flexibility Score: inf
ROOT
ATOM      1  C   UNL     1     -17.807  -6.382  41.112  1.00  0.00     0.000 C 
ENDROOT
BRANCH   1   2
ATOM      2  C   UNL     1     -18.034  -7.012  42.497  1.00  0.00    -0.000 C 
BRANCH   2   3
ATOM      3  C   UNL     1     -17.869  -8.549  42.515  1.00  0.00    -0.000 C 
BRANCH   3   4
ATOM      4  C   UNL     1     -18.061  -9.153  43.916  1.00  0.00    -0.000 C 
BRANCH   4   5
ATOM      5  C   UNL     1     -16.756  -9.198  44.727  1.00  0.00    -0.000 C 
BRANCH   5   6
ATOM      6  C   UNL     1     -16.201 -10.623  44.876  1.00  0.00    -0.000 C 
BRANCH   6   7
ATOM      7  C   UNL     1     -14.984 -10.640  45.807  1.00  0.00    -0.003 C 
ATOM      8  C   UNL     1     -13.876  -9.730  45.284  1.00  0.00     0.004 C 
ENDBRANCH   6   7
ENDBRANCH   5   6
ENDBRANCH   4   5
ENDBRANCH   3   4
ENDBRANCH   2   3
ENDBRANCH   1   2
BRANCH   1   9
ATOM      9  C   UNL     1     -17.904  -7.370  39.936  1.00  0.00     0.000 C 
BRANCH   9  10
ATOM     10  C   UNL     1     -17.231  -6.859  38.640  1.00  0.00     0.000 C 
BRANCH  10  11
ATOM     11  C   UNL     1     -16.206  -5.745  38.909  1.00  0.00     0.000 C 
BRANCH  11  12
ATOM     12  C   UNL     1     -15.099  -5.688  37.844  1.00  0.00     0.002 C 
BRANCH  12  13
ATOM     13  C   UNL     1     -13.860  -6.512  38.233  1.00  0.00     0.028 C 
BRANCH  13  14
ATOM     14  C   UNL     1     -13.194  -7.155  37.013  1.00  0.00     0.156 C 
BRANCH  14  15
ATOM     15  O   UNL     1     -13.794  -6.705  35.826  1.00  0.00    -0.396 OA
ATOM     16  H   UNL     1     -13.308  -7.136  35.075  1.00  0.00     0.210 HD
ENDBRANCH  14  15
ENDBRANCH  13  14
ENDBRANCH  12  13
ENDBRANCH  11  12
ENDBRANCH  10  11
ENDBRANCH   9  10
ENDBRANCH   1   9
TORSDOF 13
ENDMDL
MODEL 4
REMARK VINA RESULT:    -4.786      6.264      8.561
REMARK INTER + INTRA:          -9.239
REMARK INTER:                  -8.597
REMARK INTRA:                  -0.642
REMARK UNBOUND:                -0.955
REMARK SMILES CCCCCCCCCCCCCCO
REMARK SMILES IDX 8 1 7 2 6 3 5 4 4 5 3 6 2 7 1 8 9 9 10 10 11 11 12 12 13 13
REMARK SMILES IDX 14 14 15 15
REMARK H PARENT 15 16
REMARK Flexibility Score: inf
ROOT
ATOM      1  C   UNL     1     -17.019  -8.095  44.284  1.00  0.00     0.000 C 
ENDROOT
BRANCH   1   2
ATOM      2  C   UNL     1     -17.029  -7.116  43.097  1.00  0.00    -0.000 C 
BRANCH   2   3
ATOM      3  C   UNL     1     -17.799  -7.641  41.864  1.00  0.00    -0.000 C 
BRANCH   3   4
ATOM      4  C   UNL     1     -17.982  -6.571  40.775  1.00  0.00    -0.000 C 
BRANCH   4   5
ATOM      5  C   UNL     1     -17.661  -7.097  39.367  1.00  0.00    -0.000 C 
BRANCH   5   6
ATOM      6  C   UNL     1     -16.947  -6.053  38.494  1.00  0.00    -0.000 C 
BRANCH   6   7
ATOM      7  C   UNL     1     -15.439  -6.049  38.769  1.00  0.00    -0.003 C 
ATOM      8  C   UNL     1     -14.642  -6.051  37.467  1.00  0.00     0.004 C 
ENDBRANCH   6   7
ENDBRANCH   5   6
ENDBRANCH   4   5
ENDBRANCH   3   4
ENDBRANCH   2   3
ENDBRANCH   1   2
BRANCH   1   9
ATOM      9  C   UNL     1     -17.430  -9.535  43.928  1.00  0.00     0.000 C 
BRANCH   9  10
ATOM     10  C   UNL     1     -16.426 -10.605  44.419  1.00  0.00     0.000 C 
BRANCH  10  11
ATOM     11  C   UNL     1     -15.254  -9.995  45.205  1.00  0.00     0.000 C 
BRANCH  11  12
ATOM     12  C   UNL     1     -15.019 -10.691  46.555  1.00  0.00     0.002 C 
BRANCH  12  13
ATOM     13  C   UNL     1     -15.560  -9.878  47.743  1.00  0.00     0.028 C 
BRANCH  13  14
ATOM     14  C   UNL     1     -15.147 -10.485  49.087  1.00  0.00     0.156 C 
BRANCH  14  15
ATOM     15  O   UNL     1     -14.210 -11.514  48.900  1.00  0.00    -0.396 OA
ATOM     16  H   UNL     1     -14.008 -11.888  49.797  1.00  0.00     0.210 HD
ENDBRANCH  14  15
ENDBRANCH  13  14
ENDBRANCH  12  13
ENDBRANCH  11  12
ENDBRANCH  10  11
ENDBRANCH   9  10
ENDBRANCH   1   9
TORSDOF 13
ENDMDL
MODEL 5
REMARK VINA RESULT:    -4.708      4.458      7.561
REMARK INTER + INTRA:          -9.103
REMARK INTER:                  -8.575
REMARK INTRA:                  -0.527
REMARK UNBOUND:                -0.955
REMARK SMILES CCCCCCCCCCCCCCO
REMARK SMILES IDX 8 1 7 2 6 3 5 4 4 5 3 6 2 7 1 8 9 9 10 10 11 11 12 12 13 13
REMARK SMILES IDX 14 14 15 15
REMARK H PARENT 15 16
REMARK Flexibility Score: inf
ROOT
ATOM      1  C   UNL     1     -16.992  -6.003  38.781  1.00  0.00     0.000 C 
ENDROOT
BRANCH   1   2
ATOM      2  C   UNL     1     -15.475  -5.747  38.843  1.00  0.00    -0.000 C 
BRANCH   2   3
ATOM      3  C   UNL     1     -14.804  -5.655  37.453  1.00  0.00    -0.000 C 
BRANCH   3   4
ATOM      4  C   UNL     1     -13.772  -6.770  37.215  1.00  0.00    -0.000 C 
BRANCH   4   5
ATOM      5  C   UNL     1     -13.020  -7.165  38.496  1.00  0.00    -0.000 C 
BRANCH   5   6
ATOM      6  C   UNL     1     -11.779  -8.025  38.212  1.00  0.00    -0.000 C 
BRANCH   6   7
ATOM      7  C   UNL     1     -10.687  -7.770  39.256  1.00  0.00    -0.003 C 
ATOM      8  C   UNL     1     -10.689  -8.853  40.332  1.00  0.00     0.004 C 
ENDBRANCH   6   7
ENDBRANCH   5   6
ENDBRANCH   4   5
ENDBRANCH   3   4
ENDBRANCH   2   3
ENDBRANCH   1   2
BRANCH   1   9
ATOM      9  C   UNL     1     -17.602  -6.547  40.085  1.00  0.00     0.000 C 
BRANCH   9  10
ATOM     10  C   UNL     1     -16.658  -6.433  41.305  1.00  0.00     0.000 C 
BRANCH  10  11
ATOM     11  C   UNL     1     -17.414  -6.497  42.643  1.00  0.00     0.000 C 
BRANCH  11  12
ATOM     12  C   UNL     1     -16.523  -6.961  43.806  1.00  0.00     0.002 C 
BRANCH  12  13
ATOM     13  C   UNL     1     -16.698  -8.455  44.127  1.00  0.00     0.028 C 
BRANCH  13  14
ATOM     14  C   UNL     1     -17.773  -8.690  45.191  1.00  0.00     0.156 C 
BRANCH  14  15
ATOM     15  O   UNL     1     -17.751 -10.022  45.634  1.00  0.00    -0.396 OA
ATOM     16  H   UNL     1     -17.710  -9.997  46.626  1.00  0.00     0.210 HD
ENDBRANCH  14  15
ENDBRANCH  13  14
ENDBRANCH  12  13
ENDBRANCH  11  12
ENDBRANCH  10  11
ENDBRANCH   9  10
ENDBRANCH   1   9
TORSDOF 13
ENDMDL
MODEL 6
REMARK VINA RESULT:    -4.707      3.287      5.136
REMARK INTER + INTRA:          -9.102
REMARK INTER:                  -8.530
REMARK INTRA:                  -0.573
REMARK UNBOUND:                -0.955
REMARK SMILES CCCCCCCCCCCCCCO
REMARK SMILES IDX 8 1 7 2 6 3 5 4 4 5 3 6 2 7 1 8 9 9 10 10 11 11 12 12 13 13
REMARK SMILES IDX 14 14 15 15
REMARK H PARENT 15 16
REMARK Flexibility Score: inf
ROOT
ATOM      1  C   UNL     1     -17.161  -6.436  38.859  1.00  0.00     0.000 C 
ENDROOT
BRANCH   1   2
ATOM      2  C   UNL     1     -17.731  -6.909  40.208  1.00  0.00    -0.000 C 
BRANCH   2   3
ATOM      3  C   UNL     1     -16.871  -6.497  41.424  1.00  0.00    -0.000 C 
BRANCH   3   4
ATOM      4  C   UNL     1     -17.683  -6.415  42.729  1.00  0.00    -0.000 C 
BRANCH   4   5
ATOM      5  C   UNL     1     -17.939  -7.795  43.355  1.00  0.00    -0.000 C 
BRANCH   5   6
ATOM      6  C   UNL     1     -16.715  -8.341  44.106  1.00  0.00    -0.000 C 
BRANCH   6   7
ATOM      7  C   UNL     1     -16.857  -9.845  44.363  1.00  0.00    -0.003 C 
ATOM      8  C   UNL     1     -16.999 -10.138  45.855  1.00  0.00     0.004 C 
ENDBRANCH   6   7
ENDBRANCH   5   6
ENDBRANCH   4   5
ENDBRANCH   3   4
ENDBRANCH   2   3
ENDBRANCH   1   2
BRANCH   1   9
ATOM      9  C   UNL     1     -15.654  -6.126  38.876  1.00  0.00     0.000 C 
BRANCH   9  10
ATOM     10  C   UNL     1     -15.021  -6.052  37.466  1.00  0.00     0.000 C 
BRANCH  10  11
ATOM     11  C   UNL     1     -13.677  -6.795  37.384  1.00  0.00     0.000 C 
BRANCH  11  12
ATOM     12  C   UNL     1     -12.986  -6.925  38.751  1.00  0.00     0.002 C 
BRANCH  12  13
ATOM     13  C   UNL     1     -11.909  -8.023  38.769  1.00  0.00     0.028 C 
BRANCH  13  14
ATOM     14  C   UNL     1     -11.754  -8.695  37.402  1.00  0.00     0.156 C 
BRANCH  14  15
ATOM     15  O   UNL     1     -11.039  -9.897  37.518  1.00  0.00    -0.396 OA
ATOM     16  H   UNL     1     -10.156  -9.672  37.914  1.00  0.00     0.210 HD
ENDBRANCH  14  15
ENDBRANCH  13  14
ENDBRANCH  12  13
ENDBRANCH  11  12
ENDBRANCH  10  11
ENDBRANCH   9  10
ENDBRANCH   1   9
TORSDOF 13
ENDMDL
MODEL 7
REMARK VINA RESULT:    -4.646      3.695      6.915
REMARK INTER + INTRA:          -8.997
REMARK INTER:                  -8.251
REMARK INTRA:                  -0.746
REMARK UNBOUND:                -0.955
REMARK SMILES CCCCCCCCCCCCCCO
REMARK SMILES IDX 8 1 7 2 6 3 5 4 4 5 3 6 2 7 1 8 9 9 10 10 11 11 12 12 13 13
REMARK SMILES IDX 14 14 15 15
REMARK H PARENT 15 16
REMARK Flexibility Score: inf
ROOT
ATOM      1  C   UNL     1     -17.244  -6.216  40.019  1.00  0.00     0.000 C 
ENDROOT
BRANCH   1   2
ATOM      2  C   UNL     1     -16.601  -6.316  38.624  1.00  0.00    -0.000 C 
BRANCH   2   3
ATOM      3  C   UNL     1     -15.297  -5.499  38.481  1.00  0.00    -0.000 C 
BRANCH   3   4
ATOM      4  C   UNL     1     -14.035  -6.378  38.523  1.00  0.00    -0.000 C 
BRANCH   4   5
ATOM      5  C   UNL     1     -13.665  -6.949  37.145  1.00  0.00    -0.000 C 
BRANCH   5   6
ATOM      6  C   UNL     1     -12.435  -7.868  37.196  1.00  0.00    -0.000 C 
BRANCH   6   7
ATOM      7  C   UNL     1     -11.882  -7.963  38.622  1.00  0.00    -0.003 C 
ATOM      8  C   UNL     1     -10.871  -9.101  38.746  1.00  0.00     0.004 C 
ENDBRANCH   6   7
ENDBRANCH   5   6
ENDBRANCH   4   5
ENDBRANCH   3   4
ENDBRANCH   2   3
ENDBRANCH   1   2
BRANCH   1   9
ATOM      9  C   UNL     1     -18.125  -7.419  40.404  1.00  0.00     0.000 C 
BRANCH   9  10
ATOM     10  C   UNL     1     -18.104  -7.742  41.916  1.00  0.00     0.000 C 
BRANCH  10  11
ATOM     11  C   UNL     1     -17.300  -6.712  42.728  1.00  0.00     0.000 C 
BRANCH  11  12
ATOM     12  C   UNL     1     -16.368  -7.368  43.760  1.00  0.00     0.002 C 
BRANCH  12  13
ATOM     13  C   UNL     1     -14.946  -6.782  43.731  1.00  0.00     0.028 C 
BRANCH  13  14
ATOM     14  C   UNL     1     -14.773  -5.755  42.610  1.00  0.00     0.156 C 
BRANCH  14  15
ATOM     15  O   UNL     1     -14.195  -4.574  43.103  1.00  0.00    -0.396 OA
ATOM     16  H   UNL     1     -14.934  -4.024  43.475  1.00  0.00     0.210 HD
ENDBRANCH  14  15
ENDBRANCH  13  14
ENDBRANCH  12  13
ENDBRANCH  11  12
ENDBRANCH  10  11
ENDBRANCH   9  10
ENDBRANCH   1   9
TORSDOF 13
ENDMDL
MODEL 8
REMARK VINA RESULT:    -4.608      7.217      9.868
REMARK INTER + INTRA:          -8.931
REMARK INTER:                  -7.163
REMARK INTRA:                  -1.768
REMARK UNBOUND:                -0.955
REMARK SMILES CCCCCCCCCCCCCCO
REMARK SMILES IDX 8 1 7 2 6 3 5 4 4 5 3 6 2 7 1 8 9 9 10 10 11 11 12 12 13 13
REMARK SMILES IDX 14 14 15 15
REMARK H PARENT 15 16
REMARK Flexibility Score: inf
ROOT
ATOM      1  C   UNL     1     -13.339  -9.821  45.407  1.00  0.00     0.000 C 
ENDROOT
BRANCH   1   2
ATOM      2  C   UNL     1     -13.145  -9.914  46.931  1.00  0.00    -0.000 C 
BRANCH   2   3
ATOM      3  C   UNL     1     -13.372 -11.333  47.500  1.00  0.00    -0.000 C 
BRANCH   3   4
ATOM      4  C   UNL     1     -14.722 -11.477  48.223  1.00  0.00    -0.000 C 
BRANCH   4   5
ATOM      5  C   UNL     1     -15.298 -10.126  48.676  1.00  0.00    -0.000 C 
BRANCH   5   6
ATOM      6  C   UNL     1     -16.764  -9.936  48.255  1.00  0.00    -0.000 C 
BRANCH   6   7
ATOM      7  C   UNL     1     -16.986  -8.542  47.660  1.00  0.00    -0.003 C 
ATOM      8  C   UNL     1     -15.870  -7.584  48.070  1.00  0.00     0.004 C 
ENDBRANCH   6   7
ENDBRANCH   5   6
ENDBRANCH   4   5
ENDBRANCH   3   4
ENDBRANCH   2   3
ENDBRANCH   1   2
BRANCH   1   9
ATOM      9  C   UNL     1     -14.761  -9.429  44.967  1.00  0.00     0.000 C 
BRANCH   9  10
ATOM     10  C   UNL     1     -15.712 -10.638  44.799  1.00  0.00     0.000 C 
BRANCH  10  11
ATOM     11  C   UNL     1     -16.975 -10.287  43.996  1.00  0.00     0.000 C 
BRANCH  11  12
ATOM     12  C   UNL     1     -17.320  -8.790  44.056  1.00  0.00     0.002 C 
BRANCH  12  13
ATOM     13  C   UNL     1     -17.963  -8.276  42.756  1.00  0.00     0.028 C 
BRANCH  13  14
ATOM     14  C   UNL     1     -17.592  -6.818  42.472  1.00  0.00     0.156 C 
BRANCH  14  15
ATOM     15  O   UNL     1     -16.221  -6.603  42.690  1.00  0.00    -0.396 OA
ATOM     16  H   UNL     1     -15.831  -6.322  41.821  1.00  0.00     0.210 HD
ENDBRANCH  14  15
ENDBRANCH  13  14
ENDBRANCH  12  13
ENDBRANCH  11  12
ENDBRANCH  10  11
ENDBRANCH   9  10
ENDBRANCH   1   9
TORSDOF 13
ENDMDL
MODEL 9
REMARK VINA RESULT:    -4.603      7.447     10.408
REMARK INTER + INTRA:          -8.923
REMARK INTER:                  -6.988
REMARK INTRA:                  -1.934
REMARK UNBOUND:                -0.955
REMARK SMILES CCCCCCCCCCCCCCO
REMARK SMILES IDX 8 1 7 2 6 3 5 4 4 5 3 6 2 7 1 8 9 9 10 10 11 11 12 12 13 13
REMARK SMILES IDX 14 14 15 15
REMARK H PARENT 15 16
REMARK Flexibility Score: inf
ROOT
ATOM      1  C   UNL     1     -16.148  -7.866  47.603  1.00  0.00     0.000 C 
ENDROOT
BRANCH   1   2
ATOM      2  C   UNL     1     -15.937  -8.608  48.935  1.00  0.00    -0.000 C 
BRANCH   2   3
ATOM      3  C   UNL     1     -14.613  -9.402  49.000  1.00  0.00    -0.000 C 
BRANCH   3   4
ATOM      4  C   UNL     1     -14.804 -10.904  48.726  1.00  0.00    -0.000 C 
BRANCH   4   5
ATOM      5  C   UNL     1     -14.217 -11.339  47.374  1.00  0.00    -0.000 C 
BRANCH   5   6
ATOM      6  C   UNL     1     -13.251 -10.299  46.786  1.00  0.00    -0.000 C 
BRANCH   6   7
ATOM      7  C   UNL     1     -13.634  -9.952  45.343  1.00  0.00    -0.003 C 
ATOM      8  C   UNL     1     -13.560  -8.446  45.101  1.00  0.00     0.004 C 
ENDBRANCH   6   7
ENDBRANCH   5   6
ENDBRANCH   4   5
ENDBRANCH   3   4
ENDBRANCH   2   3
ENDBRANCH   1   2
BRANCH   1   9
ATOM      9  C   UNL     1     -17.417  -8.280  46.835  1.00  0.00     0.000 C 
BRANCH   9  10
ATOM     10  C   UNL     1     -17.296  -9.652  46.133  1.00  0.00     0.000 C 
BRANCH  10  11
ATOM     11  C   UNL     1     -17.182  -9.523  44.605  1.00  0.00     0.000 C 
BRANCH  11  12
ATOM     12  C   UNL     1     -18.119  -8.450  44.028  1.00  0.00     0.002 C 
BRANCH  12  13
ATOM     13  C   UNL     1     -17.462  -7.630  42.905  1.00  0.00     0.028 C 
BRANCH  13  14
ATOM     14  C   UNL     1     -16.410  -6.658  43.447  1.00  0.00     0.156 C 
BRANCH  14  15
ATOM     15  O   UNL     1     -16.997  -5.730  44.323  1.00  0.00    -0.396 OA
ATOM     16  H   UNL     1     -16.549  -4.859  44.164  1.00  0.00     0.210 HD
ENDBRANCH  14  15
ENDBRANCH  13  14
ENDBRANCH  12  13
ENDBRANCH  11  12
ENDBRANCH  10  11
ENDBRANCH   9  10
ENDBRANCH   1   9
TORSDOF 13
ENDMDL
