MODEL 1
REMARK VINA RESULT:    -3.703      0.000      0.000
REMARK INTER + INTRA:         -12.182
REMARK INTER:                  -9.655
REMARK INTRA:                  -2.527
REMARK UNBOUND:                -2.527
REMARK SMILES CCCCCCCCCCCCCCCCCCCCCCCCCCCCCO
REMARK SMILES IDX 16 1 15 2 14 3 13 4 12 5 11 6 10 7 9 8 8 9 7 10 6 11 5 12
REMARK SMILES IDX 4 13 3 14 2 15 1 16 17 17 18 18 19 19 20 20 21 21 22 22
REMARK SMILES IDX 23 23 24 24 25 25 26 26 27 27 28 28 29 29 30 30
REMARK H PARENT 30 31
REMARK Flexibility Score: inf
ROOT
ATOM      1  C   UNL     1     -17.744  -5.369  16.988  1.00  0.00     0.000 C 
ENDROOT
BRANCH   1   2
ATOM      2  C   UNL     1     -16.382  -5.929  17.447  1.00  0.00     0.000 C 
BRANCH   2   3
ATOM      3  C   UNL     1     -15.411  -4.867  17.999  1.00  0.00     0.000 C 
BRANCH   3   4
ATOM      4  C   UNL     1     -14.304  -5.397  18.927  1.00  0.00     0.000 C 
BRANCH   4   5
ATOM      5  C   UNL     1     -12.883  -5.401  18.328  1.00  0.00     0.000 C 
BRANCH   5   6
ATOM      6  C   UNL     1     -11.929  -6.431  18.969  1.00  0.00     0.000 C 
BRANCH   6   7
ATOM      7  C   UNL     1     -10.569  -6.501  18.258  1.00  0.00     0.000 C 
BRANCH   7   8
ATOM      8  C   UNL     1     -10.564  -5.654  16.977  1.00  0.00    -0.000 C 
BRANCH   8   9
ATOM      9  C   UNL     1      -9.405  -6.010  16.029  1.00  0.00    -0.000 C 
BRANCH   9  10
ATOM     10  C   UNL     1      -9.885  -6.390  14.617  1.00  0.00    -0.000 C 
BRANCH  10  11
ATOM     11  C   UNL     1      -9.449  -7.809  14.198  1.00  0.00    -0.000 C 
BRANCH  11  12
ATOM     12  C   UNL     1      -9.618  -8.888  15.282  1.00  0.00    -0.000 C 
BRANCH  12  13
ATOM     13  C   UNL     1     -10.964  -9.628  15.184  1.00  0.00    -0.000 C 
BRANCH  13  14
ATOM     14  C   UNL     1     -11.944  -9.239  16.306  1.00  0.00    -0.000 C 
BRANCH  14  15
ATOM     15  C   UNL     1     -13.043  -8.243  15.886  1.00  0.00    -0.003 C 
ATOM     16  C   UNL     1     -14.453  -8.726  16.229  1.00  0.00     0.004 C 
ENDBRANCH  14  15
ENDBRANCH  13  14
ENDBRANCH  12  13
ENDBRANCH  11  12
ENDBRANCH  10  11
ENDBRANCH   9  10
ENDBRANCH   8   9
ENDBRANCH   7   8
ENDBRANCH   6   7
ENDBRANCH   5   6
ENDBRANCH   4   5
ENDBRANCH   3   4
ENDBRANCH   2   3
ENDBRANCH   1   2
BRANCH   1  17
ATOM     17  C   UNL     1     -18.769  -5.270  18.133  1.00  0.00     0.000 C 
BRANCH  17  18
ATOM     18  C   UNL     1     -20.204  -5.082  17.612  1.00  0.00     0.000 C 
BRANCH  18  19
ATOM     19  C   UNL     1     -21.211  -5.969  18.365  1.00  0.00     0.000 C 
BRANCH  19  20
ATOM     20  C   UNL     1     -21.760  -7.115  17.498  1.00  0.00     0.000 C 
BRANCH  20  21
ATOM     21  C   UNL     1     -23.252  -6.989  17.126  1.00  0.00     0.000 C 
BRANCH  21  22
ATOM     22  C   UNL     1     -24.123  -8.214  17.472  1.00  0.00     0.000 C 
BRANCH  22  23
ATOM     23  C   UNL     1     -25.248  -7.949  18.490  1.00  0.00     0.000 C 
BRANCH  23  24
ATOM     24  C   UNL     1     -25.709  -6.481  18.496  1.00  0.00     0.000 C 
BRANCH  24  25
ATOM     25  C   UNL     1     -26.932  -6.235  17.596  1.00  0.00     0.000 C 
BRANCH  25  26
ATOM     26  C   UNL     1     -27.983  -5.262  18.165  1.00  0.00     0.000 C 
BRANCH  26  27
ATOM     27  C   UNL     1     -28.887  -4.617  17.093  1.00  0.00     0.002 C 
BRANCH  27  28
ATOM     28  C   UNL     1     -28.264  -3.351  16.484  1.00  0.00     0.028 C 
BRANCH  28  29
ATOM     29  C   UNL     1     -28.661  -2.103  17.276  1.00  0.00     0.156 C 
BRANCH  29  30
ATOM     30  O   UNL     1     -28.574  -0.964  16.463  1.00  0.00    -0.396 OA
ATOM     31  H   UNL     1     -29.506  -0.669  16.289  1.00  0.00     0.210 HD
ENDBRANCH  29  30
ENDBRANCH  28  29
ENDBRANCH  27  28
ENDBRANCH  26  27
ENDBRANCH  25  26
ENDBRANCH  24  25
ENDBRANCH  23  24
ENDBRANCH  22  23
ENDBRANCH  21  22
ENDBRANCH  20  21
ENDBRANCH  19  20
ENDBRANCH  18  19
ENDBRANCH  17  18
ENDBRANCH   1  17
TORSDOF 28
ENDMDL
MODEL 2
REMARK VINA RESULT:    -3.597      3.970     13.957
REMARK INTER + INTRA:         -11.906
REMARK INTER:                  -9.725
REMARK INTRA:                  -2.181
REMARK UNBOUND:                -2.527
REMARK SMILES CCCCCCCCCCCCCCCCCCCCCCCCCCCCCO
REMARK SMILES IDX 16 1 15 2 14 3 13 4 12 5 11 6 10 7 9 8 8 9 7 10 6 11 5 12
REMARK SMILES IDX 4 13 3 14 2 15 1 16 17 17 18 18 19 19 20 20 21 21 22 22
REMARK SMILES IDX 23 23 24 24 25 25 26 26 27 27 28 28 29 29 30 30
REMARK H PARENT 30 31
REMARK Flexibility Score: inf
ROOT
ATOM      1  C   UNL     1     -18.120  -4.817  17.232  1.00  0.00     0.000 C 
ENDROOT
BRANCH   1   2
ATOM      2  C   UNL     1     -19.107  -5.684  16.423  1.00  0.00     0.000 C 
BRANCH   2   3
ATOM      3  C   UNL     1     -20.342  -6.151  17.219  1.00  0.00     0.000 C 
BRANCH   3   4
ATOM      4  C   UNL     1     -20.613  -7.665  17.197  1.00  0.00     0.000 C 
BRANCH   4   5
ATOM      5  C   UNL     1     -22.082  -8.079  17.416  1.00  0.00     0.000 C 
BRANCH   5   6
ATOM      6  C   UNL     1     -23.111  -7.088  16.832  1.00  0.00     0.000 C 
BRANCH   6   7
ATOM      7  C   UNL     1     -24.539  -7.349  17.339  1.00  0.00     0.000 C 
BRANCH   7   8
ATOM      8  C   UNL     1     -24.644  -8.718  18.027  1.00  0.00    -0.000 C 
BRANCH   8   9
ATOM      9  C   UNL     1     -25.989  -8.922  18.746  1.00  0.00    -0.000 C 
BRANCH   9  10
ATOM     10  C   UNL     1     -26.830  -7.635  18.815  1.00  0.00    -0.000 C 
BRANCH  10  11
ATOM     11  C   UNL     1     -28.254  -7.820  18.253  1.00  0.00    -0.000 C 
BRANCH  11  12
ATOM     12  C   UNL     1     -28.777  -6.645  17.407  1.00  0.00    -0.000 C 
BRANCH  12  13
ATOM     13  C   UNL     1     -27.910  -5.380  17.542  1.00  0.00    -0.000 C 
BRANCH  13  14
ATOM     14  C   UNL     1     -28.564  -4.138  16.910  1.00  0.00    -0.000 C 
BRANCH  14  15
ATOM     15  C   UNL     1     -27.594  -2.979  16.610  1.00  0.00    -0.003 C 
ATOM     16  C   UNL     1     -28.239  -1.601  16.762  1.00  0.00     0.004 C 
ENDBRANCH  14  15
ENDBRANCH  13  14
ENDBRANCH  12  13
ENDBRANCH  11  12
ENDBRANCH  10  11
ENDBRANCH   9  10
ENDBRANCH   8   9
ENDBRANCH   7   8
ENDBRANCH   6   7
ENDBRANCH   5   6
ENDBRANCH   4   5
ENDBRANCH   3   4
ENDBRANCH   2   3
ENDBRANCH   1   2
BRANCH   1  17
ATOM     17  C   UNL     1     -17.863  -5.363  18.649  1.00  0.00     0.000 C 
BRANCH  17  18
ATOM     18  C   UNL     1     -16.531  -6.126  18.743  1.00  0.00     0.000 C 
BRANCH  18  19
ATOM     19  C   UNL     1     -16.699  -7.620  18.414  1.00  0.00     0.000 C 
BRANCH  19  20
ATOM     20  C   UNL     1     -15.958  -8.034  17.130  1.00  0.00     0.000 C 
BRANCH  20  21
ATOM     21  C   UNL     1     -14.993  -9.225  17.295  1.00  0.00     0.000 C 
BRANCH  21  22
ATOM     22  C   UNL     1     -13.506  -8.851  17.461  1.00  0.00     0.000 C 
BRANCH  22  23
ATOM     23  C   UNL     1     -13.113  -7.471  16.901  1.00  0.00     0.000 C 
BRANCH  23  24
ATOM     24  C   UNL     1     -12.863  -6.431  18.007  1.00  0.00     0.000 C 
BRANCH  24  25
ATOM     25  C   UNL     1     -11.375  -6.069  18.160  1.00  0.00     0.000 C 
BRANCH  25  26
ATOM     26  C   UNL     1     -10.684  -5.573  16.875  1.00  0.00     0.000 C 
BRANCH  26  27
ATOM     27  C   UNL     1      -9.219  -6.038  16.730  1.00  0.00     0.002 C 
BRANCH  27  28
ATOM     28  C   UNL     1      -8.966  -6.774  15.405  1.00  0.00     0.028 C 
BRANCH  28  29
ATOM     29  C   UNL     1      -9.775  -6.154  14.264  1.00  0.00     0.156 C 
BRANCH  29  30
ATOM     30  O   UNL     1      -9.177  -6.445  13.029  1.00  0.00    -0.396 OA
ATOM     31  H   UNL     1      -8.871  -5.579  12.652  1.00  0.00     0.210 HD
ENDBRANCH  29  30
ENDBRANCH  28  29
ENDBRANCH  27  28
ENDBRANCH  26  27
ENDBRANCH  25  26
ENDBRANCH  24  25
ENDBRANCH  23  24
ENDBRANCH  22  23
ENDBRANCH  21  22
ENDBRANCH  20  21
ENDBRANCH  19  20
ENDBRANCH  18  19
ENDBRANCH  17  18
ENDBRANCH   1  17
TORSDOF 28
ENDMDL
MODEL 3
REMARK VINA RESULT:    -3.486      1.389      2.831
REMARK INTER + INTRA:         -11.616
REMARK INTER:                  -9.114
REMARK INTRA:                  -2.503
REMARK UNBOUND:                -2.527
REMARK SMILES CCCCCCCCCCCCCCCCCCCCCCCCCCCCCO
REMARK SMILES IDX 16 1 15 2 14 3 13 4 12 5 11 6 10 7 9 8 8 9 7 10 6 11 5 12
REMARK SMILES IDX 4 13 3 14 2 15 1 16 17 17 18 18 19 19 20 20 21 21 22 22
REMARK SMILES IDX 23 23 24 24 25 25 26 26 27 27 28 28 29 29 30 30
REMARK H PARENT 30 31
REMARK Flexibility Score: inf
ROOT
ATOM      1  C   UNL     1     -18.468  -4.717  16.660  1.00  0.00     0.000 C 
ENDROOT
BRANCH   1   2
ATOM      2  C   UNL     1     -17.868  -4.915  18.068  1.00  0.00     0.000 C 
BRANCH   2   3
ATOM      3  C   UNL     1     -16.362  -5.241  18.076  1.00  0.00     0.000 C 
BRANCH   3   4
ATOM      4  C   UNL     1     -15.911  -6.327  17.082  1.00  0.00     0.000 C 
BRANCH   4   5
ATOM      5  C   UNL     1     -16.444  -7.745  17.364  1.00  0.00     0.000 C 
BRANCH   5   6
ATOM      6  C   UNL     1     -15.837  -8.413  18.616  1.00  0.00     0.000 C 
BRANCH   6   7
ATOM      7  C   UNL     1     -14.337  -8.116  18.777  1.00  0.00     0.000 C 
BRANCH   7   8
ATOM      8  C   UNL     1     -13.483  -9.325  18.368  1.00  0.00    -0.000 C 
BRANCH   8   9
ATOM      9  C   UNL     1     -13.245  -9.401  16.850  1.00  0.00    -0.000 C 
BRANCH   9  10
ATOM     10  C   UNL     1     -11.852  -9.949  16.491  1.00  0.00    -0.000 C 
BRANCH  10  11
ATOM     11  C   UNL     1     -10.985  -8.928  15.729  1.00  0.00    -0.000 C 
BRANCH  11  12
ATOM     12  C   UNL     1     -11.529  -7.488  15.724  1.00  0.00    -0.000 C 
BRANCH  12  13
ATOM     13  C   UNL     1     -10.414  -6.429  15.656  1.00  0.00    -0.000 C 
BRANCH  13  14
ATOM     14  C   UNL     1     -10.314  -5.584  16.939  1.00  0.00    -0.000 C 
BRANCH  14  15
ATOM     15  C   UNL     1     -11.255  -6.025  18.077  1.00  0.00    -0.003 C 
ATOM     16  C   UNL     1     -12.506  -5.153  18.194  1.00  0.00     0.004 C 
ENDBRANCH  14  15
ENDBRANCH  13  14
ENDBRANCH  12  13
ENDBRANCH  11  12
ENDBRANCH  10  11
ENDBRANCH   9  10
ENDBRANCH   8   9
ENDBRANCH   7   8
ENDBRANCH   6   7
ENDBRANCH   5   6
ENDBRANCH   4   5
ENDBRANCH   3   4
ENDBRANCH   2   3
ENDBRANCH   1   2
BRANCH   1  17
ATOM     17  C   UNL     1     -19.380  -5.880  16.227  1.00  0.00     0.000 C 
BRANCH  17  18
ATOM     18  C   UNL     1     -20.321  -6.331  17.357  1.00  0.00     0.000 C 
BRANCH  18  19
ATOM     19  C   UNL     1     -20.056  -7.785  17.781  1.00  0.00     0.000 C 
BRANCH  19  20
ATOM     20  C   UNL     1     -21.246  -8.717  17.493  1.00  0.00     0.000 C 
BRANCH  20  21
ATOM     21  C   UNL     1     -22.446  -8.550  18.449  1.00  0.00     0.000 C 
BRANCH  21  22
ATOM     22  C   UNL     1     -23.630  -9.504  18.193  1.00  0.00     0.000 C 
BRANCH  22  23
ATOM     23  C   UNL     1     -25.016  -8.832  18.164  1.00  0.00     0.000 C 
BRANCH  23  24
ATOM     24  C   UNL     1     -24.930  -7.297  18.128  1.00  0.00     0.000 C 
BRANCH  24  25
ATOM     25  C   UNL     1     -26.260  -6.635  17.726  1.00  0.00     0.000 C 
BRANCH  25  26
ATOM     26  C   UNL     1     -26.307  -5.102  17.888  1.00  0.00     0.000 C 
BRANCH  26  27
ATOM     27  C   UNL     1     -27.719  -4.499  17.740  1.00  0.00     0.002 C 
BRANCH  27  28
ATOM     28  C   UNL     1     -27.762  -3.349  16.720  1.00  0.00     0.028 C 
BRANCH  28  29
ATOM     29  C   UNL     1     -28.567  -2.163  17.256  1.00  0.00     0.156 C 
BRANCH  29  30
ATOM     30  O   UNL     1     -28.489  -1.081  16.368  1.00  0.00    -0.396 OA
ATOM     31  H   UNL     1     -29.263  -0.493  16.569  1.00  0.00     0.210 HD
ENDBRANCH  29  30
ENDBRANCH  28  29
ENDBRANCH  27  28
ENDBRANCH  26  27
ENDBRANCH  25  26
ENDBRANCH  24  25
ENDBRANCH  23  24
ENDBRANCH  22  23
ENDBRANCH  21  22
ENDBRANCH  20  21
ENDBRANCH  19  20
ENDBRANCH  18  19
ENDBRANCH  17  18
ENDBRANCH   1  17
TORSDOF 28
ENDMDL
MODEL 4
REMARK VINA RESULT:    -3.430      1.134      2.884
REMARK INTER + INTRA:         -11.471
REMARK INTER:                  -9.300
REMARK INTRA:                  -2.171
REMARK UNBOUND:                -2.527
REMARK SMILES CCCCCCCCCCCCCCCCCCCCCCCCCCCCCO
REMARK SMILES IDX 16 1 15 2 14 3 13 4 12 5 11 6 10 7 9 8 8 9 7 10 6 11 5 12
REMARK SMILES IDX 4 13 3 14 2 15 1 16 17 17 18 18 19 19 20 20 21 21 22 22
REMARK SMILES IDX 23 23 24 24 25 25 26 26 27 27 28 28 29 29 30 30
REMARK H PARENT 30 31
REMARK Flexibility Score: inf
ROOT
ATOM      1  C   UNL     1     -18.218  -4.800  17.174  1.00  0.00     0.000 C 
ENDROOT
BRANCH   1   2
ATOM      2  C   UNL     1     -17.041  -5.013  18.148  1.00  0.00     0.000 C 
BRANCH   2   3
ATOM      3  C   UNL     1     -15.953  -5.974  17.628  1.00  0.00     0.000 C 
BRANCH   3   4
ATOM      4  C   UNL     1     -16.223  -7.471  17.859  1.00  0.00     0.000 C 
BRANCH   4   5
ATOM      5  C   UNL     1     -15.809  -8.404  16.703  1.00  0.00     0.000 C 
BRANCH   5   6
ATOM      6  C   UNL     1     -15.172  -9.733  17.160  1.00  0.00     0.000 C 
BRANCH   6   7
ATOM      7  C   UNL     1     -13.716  -9.884  16.692  1.00  0.00     0.000 C 
BRANCH   7   8
ATOM      8  C   UNL     1     -13.126  -8.534  16.259  1.00  0.00    -0.000 C 
BRANCH   8   9
ATOM      9  C   UNL     1     -12.069  -8.001  17.243  1.00  0.00    -0.000 C 
BRANCH   9  10
ATOM     10  C   UNL     1     -12.276  -6.517  17.594  1.00  0.00    -0.000 C 
BRANCH  10  11
ATOM     11  C   UNL     1     -11.027  -5.657  17.317  1.00  0.00    -0.000 C 
BRANCH  11  12
ATOM     12  C   UNL     1      -9.972  -6.314  16.409  1.00  0.00    -0.000 C 
BRANCH  12  13
ATOM     13  C   UNL     1     -10.351  -6.262  14.918  1.00  0.00    -0.000 C 
BRANCH  13  14
ATOM     14  C   UNL     1      -9.252  -6.831  14.003  1.00  0.00    -0.000 C 
BRANCH  14  15
ATOM     15  C   UNL     1      -8.875  -8.299  14.282  1.00  0.00    -0.003 C 
ATOM     16  C   UNL     1     -10.063  -9.256  14.171  1.00  0.00     0.004 C 
ENDBRANCH  14  15
ENDBRANCH  13  14
ENDBRANCH  12  13
ENDBRANCH  11  12
ENDBRANCH  10  11
ENDBRANCH   9  10
ENDBRANCH   8   9
ENDBRANCH   7   8
ENDBRANCH   6   7
ENDBRANCH   5   6
ENDBRANCH   4   5
ENDBRANCH   3   4
ENDBRANCH   2   3
ENDBRANCH   1   2
BRANCH   1  17
ATOM     17  C   UNL     1     -19.573  -5.229  17.767  1.00  0.00     0.000 C 
BRANCH  17  18
ATOM     18  C   UNL     1     -20.274  -6.292  16.903  1.00  0.00     0.000 C 
BRANCH  18  19
ATOM     19  C   UNL     1     -20.133  -7.702  17.501  1.00  0.00     0.000 C 
BRANCH  19  20
ATOM     20  C   UNL     1     -21.313  -8.622  17.142  1.00  0.00     0.000 C 
BRANCH  20  21
ATOM     21  C   UNL     1     -22.093  -9.177  18.350  1.00  0.00     0.000 C 
BRANCH  21  22
ATOM     22  C   UNL     1     -23.629  -9.154  18.210  1.00  0.00     0.000 C 
BRANCH  22  23
ATOM     23  C   UNL     1     -24.211  -7.860  17.613  1.00  0.00     0.000 C 
BRANCH  23  24
ATOM     24  C   UNL     1     -25.609  -7.530  18.163  1.00  0.00     0.000 C 
BRANCH  24  25
ATOM     25  C   UNL     1     -26.055  -6.093  17.837  1.00  0.00     0.000 C 
BRANCH  25  26
ATOM     26  C   UNL     1     -27.558  -5.922  17.542  1.00  0.00     0.000 C 
BRANCH  26  27
ATOM     27  C   UNL     1     -28.129  -4.552  17.965  1.00  0.00     0.002 C 
BRANCH  27  28
ATOM     28  C   UNL     1     -28.389  -3.629  16.764  1.00  0.00     0.028 C 
BRANCH  28  29
ATOM     29  C   UNL     1     -28.495  -2.166  17.202  1.00  0.00     0.156 C 
BRANCH  29  30
ATOM     30  O   UNL     1     -28.073  -1.318  16.168  1.00  0.00    -0.396 OA
ATOM     31  H   UNL     1     -28.850  -0.743  15.939  1.00  0.00     0.210 HD
ENDBRANCH  29  30
ENDBRANCH  28  29
ENDBRANCH  27  28
ENDBRANCH  26  27
ENDBRANCH  25  26
ENDBRANCH  24  25
ENDBRANCH  23  24
ENDBRANCH  22  23
ENDBRANCH  21  22
ENDBRANCH  20  21
ENDBRANCH  19  20
ENDBRANCH  18  19
ENDBRANCH  17  18
ENDBRANCH   1  17
TORSDOF 28
ENDMDL
MODEL 5
REMARK VINA RESULT:    -3.282      1.830      5.429
REMARK INTER + INTRA:         -11.085
REMARK INTER:                  -8.331
REMARK INTRA:                  -2.754
REMARK UNBOUND:                -2.527
REMARK SMILES CCCCCCCCCCCCCCCCCCCCCCCCCCCCCO
REMARK SMILES IDX 16 1 15 2 14 3 13 4 12 5 11 6 10 7 9 8 8 9 7 10 6 11 5 12
REMARK SMILES IDX 4 13 3 14 2 15 1 16 17 17 18 18 19 19 20 20 21 21 22 22
REMARK SMILES IDX 23 23 24 24 25 25 26 26 27 27 28 28 29 29 30 30
REMARK H PARENT 30 31
REMARK Flexibility Score: inf
ROOT
ATOM      1  C   UNL     1     -12.987  -8.741  15.753  1.00  0.00     0.000 C 
ENDROOT
BRANCH   1   2
ATOM      2  C   UNL     1     -11.763  -9.665  15.918  1.00  0.00     0.000 C 
BRANCH   2   3
ATOM      3  C   UNL     1     -10.754  -9.596  14.755  1.00  0.00     0.000 C 
BRANCH   3   4
ATOM      4  C   UNL     1      -9.307  -9.249  15.150  1.00  0.00     0.000 C 
BRANCH   4   5
ATOM      5  C   UNL     1      -8.876  -7.795  14.874  1.00  0.00     0.000 C 
BRANCH   5   6
ATOM      6  C   UNL     1     -10.045  -6.836  14.566  1.00  0.00     0.000 C 
BRANCH   6   7
ATOM      7  C   UNL     1     -10.465  -6.002  15.787  1.00  0.00     0.000 C 
BRANCH   7   8
ATOM      8  C   UNL     1      -9.554  -6.279  16.992  1.00  0.00    -0.000 C 
BRANCH   8   9
ATOM      9  C   UNL     1     -10.238  -7.136  18.072  1.00  0.00    -0.000 C 
BRANCH   9  10
ATOM     10  C   UNL     1     -11.252  -6.340  18.912  1.00  0.00    -0.000 C 
BRANCH  10  11
ATOM     11  C   UNL     1     -12.260  -5.556  18.048  1.00  0.00    -0.000 C 
BRANCH  11  12
ATOM     12  C   UNL     1     -13.308  -4.752  18.839  1.00  0.00    -0.000 C 
BRANCH  12  13
ATOM     13  C   UNL     1     -14.684  -5.440  18.877  1.00  0.00    -0.000 C 
BRANCH  13  14
ATOM     14  C   UNL     1     -15.666  -4.868  17.838  1.00  0.00    -0.000 C 
BRANCH  14  15
ATOM     15  C   UNL     1     -17.155  -5.054  18.187  1.00  0.00    -0.003 C 
ATOM     16  C   UNL     1     -18.075  -4.945  16.971  1.00  0.00     0.004 C 
ENDBRANCH  14  15
ENDBRANCH  13  14
ENDBRANCH  12  13
ENDBRANCH  11  12
ENDBRANCH  10  11
ENDBRANCH   9  10
ENDBRANCH   8   9
ENDBRANCH   7   8
ENDBRANCH   6   7
ENDBRANCH   5   6
ENDBRANCH   4   5
ENDBRANCH   3   4
ENDBRANCH   2   3
ENDBRANCH   1   2
BRANCH   1  17
ATOM     17  C   UNL     1     -13.832  -8.629  17.036  1.00  0.00     0.000 C 
BRANCH  17  18
ATOM     18  C   UNL     1     -15.324  -8.416  16.731  1.00  0.00     0.000 C 
BRANCH  18  19
ATOM     19  C   UNL     1     -16.184  -9.596  17.216  1.00  0.00     0.000 C 
BRANCH  19  20
ATOM     20  C   UNL     1     -16.963  -9.275  18.504  1.00  0.00     0.000 C 
BRANCH  20  21
ATOM     21  C   UNL     1     -18.256  -8.461  18.294  1.00  0.00     0.000 C 
BRANCH  21  22
ATOM     22  C   UNL     1     -19.410  -9.221  17.611  1.00  0.00     0.000 C 
BRANCH  22  23
ATOM     23  C   UNL     1     -20.811  -8.621  17.834  1.00  0.00     0.000 C 
BRANCH  23  24
ATOM     24  C   UNL     1     -20.949  -7.204  17.253  1.00  0.00     0.000 C 
BRANCH  24  25
ATOM     25  C   UNL     1     -21.610  -6.219  18.233  1.00  0.00     0.000 C 
BRANCH  25  26
ATOM     26  C   UNL     1     -23.112  -5.965  17.997  1.00  0.00     0.000 C 
BRANCH  26  27
ATOM     27  C   UNL     1     -23.785  -7.000  17.071  1.00  0.00     0.002 C 
BRANCH  27  28
ATOM     28  C   UNL     1     -25.249  -7.266  17.456  1.00  0.00     0.028 C 
BRANCH  28  29
ATOM     29  C   UNL     1     -26.053  -5.964  17.509  1.00  0.00     0.156 C 
BRANCH  29  30
ATOM     30  O   UNL     1     -27.405  -6.216  17.234  1.00  0.00    -0.396 OA
ATOM     31  H   UNL     1     -27.665  -6.998  17.789  1.00  0.00     0.210 HD
ENDBRANCH  29  30
ENDBRANCH  28  29
ENDBRANCH  27  28
ENDBRANCH  26  27
ENDBRANCH  25  26
ENDBRANCH  24  25
ENDBRANCH  23  24
ENDBRANCH  22  23
ENDBRANCH  21  22
ENDBRANCH  20  21
ENDBRANCH  19  20
ENDBRANCH  18  19
ENDBRANCH  17  18
ENDBRANCH   1  17
TORSDOF 28
ENDMDL
MODEL 6
REMARK VINA RESULT:    -3.183      3.952     13.324
REMARK INTER + INTRA:         -10.827
REMARK INTER:                  -8.245
REMARK INTRA:                  -2.582
REMARK UNBOUND:                -2.527
REMARK SMILES CCCCCCCCCCCCCCCCCCCCCCCCCCCCCO
REMARK SMILES IDX 16 1 15 2 14 3 13 4 12 5 11 6 10 7 9 8 8 9 7 10 6 11 5 12
REMARK SMILES IDX 4 13 3 14 2 15 1 16 17 17 18 18 19 19 20 20 21 21 22 22
REMARK SMILES IDX 23 23 24 24 25 25 26 26 27 27 28 28 29 29 30 30
REMARK H PARENT 30 31
REMARK Flexibility Score: inf
ROOT
ATOM      1  C   UNL     1     -17.020  -7.464  18.278  1.00  0.00     0.000 C 
ENDROOT
BRANCH   1   2
ATOM      2  C   UNL     1     -17.061  -6.370  17.191  1.00  0.00     0.000 C 
BRANCH   2   3
ATOM      3  C   UNL     1     -17.515  -4.987  17.699  1.00  0.00     0.000 C 
BRANCH   3   4
ATOM      4  C   UNL     1     -18.848  -4.965  18.467  1.00  0.00     0.000 C 
BRANCH   4   5
ATOM      5  C   UNL     1     -20.094  -5.340  17.641  1.00  0.00     0.000 C 
BRANCH   5   6
ATOM      6  C   UNL     1     -20.975  -6.432  18.285  1.00  0.00     0.000 C 
BRANCH   6   7
ATOM      7  C   UNL     1     -21.823  -7.194  17.254  1.00  0.00     0.000 C 
BRANCH   7   8
ATOM      8  C   UNL     1     -21.972  -8.673  17.637  1.00  0.00    -0.000 C 
BRANCH   8   9
ATOM      9  C   UNL     1     -23.429  -9.071  17.932  1.00  0.00    -0.000 C 
BRANCH   9  10
ATOM     10  C   UNL     1     -24.149  -8.063  18.845  1.00  0.00    -0.000 C 
BRANCH  10  11
ATOM     11  C   UNL     1     -25.494  -7.583  18.265  1.00  0.00    -0.000 C 
BRANCH  11  12
ATOM     12  C   UNL     1     -25.514  -6.117  17.797  1.00  0.00    -0.000 C 
BRANCH  12  13
ATOM     13  C   UNL     1     -26.797  -5.375  18.211  1.00  0.00    -0.000 C 
BRANCH  13  14
ATOM     14  C   UNL     1     -27.640  -4.920  17.006  1.00  0.00    -0.000 C 
BRANCH  14  15
ATOM     15  C   UNL     1     -28.918  -5.746  16.763  1.00  0.00    -0.003 C 
ATOM     16  C   UNL     1     -29.125  -6.851  17.799  1.00  0.00     0.004 C 
ENDBRANCH  14  15
ENDBRANCH  13  14
ENDBRANCH  12  13
ENDBRANCH  11  12
ENDBRANCH  10  11
ENDBRANCH   9  10
ENDBRANCH   8   9
ENDBRANCH   7   8
ENDBRANCH   6   7
ENDBRANCH   5   6
ENDBRANCH   4   5
ENDBRANCH   3   4
ENDBRANCH   2   3
ENDBRANCH   1   2
BRANCH   1  17
ATOM     17  C   UNL     1     -18.042  -8.590  18.035  1.00  0.00     0.000 C 
BRANCH  17  18
ATOM     18  C   UNL     1     -17.437  -9.762  17.245  1.00  0.00     0.000 C 
BRANCH  18  19
ATOM     19  C   UNL     1     -15.912  -9.852  17.427  1.00  0.00     0.000 C 
BRANCH  19  20
ATOM     20  C   UNL     1     -15.139  -9.601  16.120  1.00  0.00     0.000 C 
BRANCH  20  21
ATOM     21  C   UNL     1     -13.686 -10.119  16.117  1.00  0.00     0.000 C 
BRANCH  21  22
ATOM     22  C   UNL     1     -12.601  -9.036  15.950  1.00  0.00     0.000 C 
BRANCH  22  23
ATOM     23  C   UNL     1     -12.921  -7.683  16.612  1.00  0.00     0.000 C 
BRANCH  23  24
ATOM     24  C   UNL     1     -12.194  -7.492  17.955  1.00  0.00     0.000 C 
BRANCH  24  25
ATOM     25  C   UNL     1     -10.795  -6.872  17.792  1.00  0.00     0.000 C 
BRANCH  25  26
ATOM     26  C   UNL     1     -10.610  -5.984  16.546  1.00  0.00     0.000 C 
BRANCH  26  27
ATOM     27  C   UNL     1      -9.257  -6.181  15.830  1.00  0.00     0.002 C 
BRANCH  27  28
ATOM     28  C   UNL     1      -9.014  -7.644  15.428  1.00  0.00     0.028 C 
BRANCH  28  29
ATOM     29  C   UNL     1      -9.292  -7.863  13.938  1.00  0.00     0.156 C 
BRANCH  29  30
ATOM     30  O   UNL     1      -9.329  -6.633  13.266  1.00  0.00    -0.396 OA
ATOM     31  H   UNL     1      -8.386  -6.353  13.136  1.00  0.00     0.210 HD
ENDBRANCH  29  30
ENDBRANCH  28  29
ENDBRANCH  27  28
ENDBRANCH  26  27
ENDBRANCH  25  26
ENDBRANCH  24  25
ENDBRANCH  23  24
ENDBRANCH  22  23
ENDBRANCH  21  22
ENDBRANCH  20  21
ENDBRANCH  19  20
ENDBRANCH  18  19
ENDBRANCH  17  18
ENDBRANCH   1  17
TORSDOF 28
ENDMDL
MODEL 7
REMARK VINA RESULT:    -3.169      1.178      2.429
REMARK INTER + INTRA:         -10.791
REMARK INTER:                  -8.795
REMARK INTRA:                  -1.996
REMARK UNBOUND:                -2.527
REMARK SMILES CCCCCCCCCCCCCCCCCCCCCCCCCCCCCO
REMARK SMILES IDX 16 1 15 2 14 3 13 4 12 5 11 6 10 7 9 8 8 9 7 10 6 11 5 12
REMARK SMILES IDX 4 13 3 14 2 15 1 16 17 17 18 18 19 19 20 20 21 21 22 22
REMARK SMILES IDX 23 23 24 24 25 25 26 26 27 27 28 28 29 29 30 30
REMARK H PARENT 30 31
REMARK Flexibility Score: inf
ROOT
ATOM      1  C   UNL     1     -18.272  -5.109  16.636  1.00  0.00     0.000 C 
ENDROOT
BRANCH   1   2
ATOM      2  C   UNL     1     -17.424  -5.385  17.895  1.00  0.00     0.000 C 
BRANCH   2   3
ATOM      3  C   UNL     1     -17.068  -6.869  18.108  1.00  0.00     0.000 C 
BRANCH   3   4
ATOM      4  C   UNL     1     -15.799  -7.358  17.387  1.00  0.00     0.000 C 
BRANCH   4   5
ATOM      5  C   UNL     1     -14.867  -8.258  18.223  1.00  0.00     0.000 C 
BRANCH   5   6
ATOM      6  C   UNL     1     -13.653  -8.808  17.445  1.00  0.00     0.000 C 
BRANCH   6   7
ATOM      7  C   UNL     1     -12.400  -7.933  17.606  1.00  0.00     0.000 C 
BRANCH   7   8
ATOM      8  C   UNL     1     -12.726  -6.619  18.331  1.00  0.00    -0.000 C 
BRANCH   8   9
ATOM      9  C   UNL     1     -11.774  -5.473  17.947  1.00  0.00    -0.000 C 
BRANCH   9  10
ATOM     10  C   UNL     1     -10.295  -5.815  18.205  1.00  0.00    -0.000 C 
BRANCH  10  11
ATOM     11  C   UNL     1      -9.357  -5.284  17.103  1.00  0.00    -0.000 C 
BRANCH  11  12
ATOM     12  C   UNL     1      -8.896  -6.336  16.079  1.00  0.00    -0.000 C 
BRANCH  12  13
ATOM     13  C   UNL     1      -9.840  -6.443  14.867  1.00  0.00    -0.000 C 
BRANCH  13  14
ATOM     14  C   UNL     1      -9.804  -7.832  14.203  1.00  0.00    -0.000 C 
BRANCH  14  15
ATOM     15  C   UNL     1      -9.726  -9.016  15.187  1.00  0.00    -0.003 C 
ATOM     16  C   UNL     1     -10.805 -10.071  14.942  1.00  0.00     0.004 C 
ENDBRANCH  14  15
ENDBRANCH  13  14
ENDBRANCH  12  13
ENDBRANCH  11  12
ENDBRANCH  10  11
ENDBRANCH   9  10
ENDBRANCH   8   9
ENDBRANCH   7   8
ENDBRANCH   6   7
ENDBRANCH   5   6
ENDBRANCH   4   5
ENDBRANCH   3   4
ENDBRANCH   2   3
ENDBRANCH   1   2
BRANCH   1  17
ATOM     17  C   UNL     1     -19.567  -5.942  16.589  1.00  0.00     0.000 C 
BRANCH  17  18
ATOM     18  C   UNL     1     -20.625  -5.424  17.579  1.00  0.00     0.000 C 
BRANCH  18  19
ATOM     19  C   UNL     1     -21.573  -6.542  18.043  1.00  0.00     0.000 C 
BRANCH  19  20
ATOM     20  C   UNL     1     -22.567  -6.972  16.950  1.00  0.00     0.000 C 
BRANCH  20  21
ATOM     21  C   UNL     1     -24.037  -6.593  17.225  1.00  0.00     0.000 C 
BRANCH  21  22
ATOM     22  C   UNL     1     -24.832  -7.605  18.074  1.00  0.00     0.000 C 
BRANCH  22  23
ATOM     23  C   UNL     1     -25.971  -7.001  18.916  1.00  0.00     0.000 C 
BRANCH  23  24
ATOM     24  C   UNL     1     -27.287  -7.787  18.783  1.00  0.00     0.000 C 
BRANCH  24  25
ATOM     25  C   UNL     1     -28.506  -6.874  18.556  1.00  0.00     0.000 C 
BRANCH  25  26
ATOM     26  C   UNL     1     -28.788  -6.507  17.085  1.00  0.00     0.000 C 
BRANCH  26  27
ATOM     27  C   UNL     1     -28.886  -4.989  16.826  1.00  0.00     0.002 C 
BRANCH  27  28
ATOM     28  C   UNL     1     -27.623  -4.235  17.269  1.00  0.00     0.028 C 
BRANCH  28  29
ATOM     29  C   UNL     1     -27.583  -2.824  16.676  1.00  0.00     0.156 C 
BRANCH  29  30
ATOM     30  O   UNL     1     -28.208  -1.916  17.542  1.00  0.00    -0.396 OA
ATOM     31  H   UNL     1     -28.445  -1.121  16.996  1.00  0.00     0.210 HD
ENDBRANCH  29  30
ENDBRANCH  28  29
ENDBRANCH  27  28
ENDBRANCH  26  27
ENDBRANCH  25  26
ENDBRANCH  24  25
ENDBRANCH  23  24
ENDBRANCH  22  23
ENDBRANCH  21  22
ENDBRANCH  20  21
ENDBRANCH  19  20
ENDBRANCH  18  19
ENDBRANCH  17  18
ENDBRANCH   1  17
TORSDOF 28
ENDMDL
MODEL 8
REMARK VINA RESULT:    -2.894      3.150     13.225
REMARK INTER + INTRA:         -10.073
REMARK INTER:                  -7.604
REMARK INTRA:                  -2.469
REMARK UNBOUND:                -2.527
REMARK SMILES CCCCCCCCCCCCCCCCCCCCCCCCCCCCCO
REMARK SMILES IDX 16 1 15 2 14 3 13 4 12 5 11 6 10 7 9 8 8 9 7 10 6 11 5 12
REMARK SMILES IDX 4 13 3 14 2 15 1 16 17 17 18 18 19 19 20 20 21 21 22 22
REMARK SMILES IDX 23 23 24 24 25 25 26 26 27 27 28 28 29 29 30 30
REMARK H PARENT 30 31
REMARK Flexibility Score: inf
ROOT
ATOM      1  C   UNL     1     -18.854  -5.249  17.085  1.00  0.00     0.000 C 
ENDROOT
BRANCH   1   2
ATOM      2  C   UNL     1     -19.969  -6.155  16.525  1.00  0.00     0.000 C 
BRANCH   2   3
ATOM      3  C   UNL     1     -21.175  -6.336  17.468  1.00  0.00     0.000 C 
BRANCH   3   4
ATOM      4  C   UNL     1     -21.223  -7.667  18.239  1.00  0.00     0.000 C 
BRANCH   4   5
ATOM      5  C   UNL     1     -22.583  -8.014  18.876  1.00  0.00     0.000 C 
BRANCH   5   6
ATOM      6  C   UNL     1     -23.804  -7.605  18.025  1.00  0.00     0.000 C 
BRANCH   6   7
ATOM      7  C   UNL     1     -25.115  -7.617  18.826  1.00  0.00     0.000 C 
BRANCH   7   8
ATOM      8  C   UNL     1     -25.866  -8.944  18.647  1.00  0.00    -0.000 C 
BRANCH   8   9
ATOM      9  C   UNL     1     -27.390  -8.792  18.793  1.00  0.00    -0.000 C 
BRANCH   9  10
ATOM     10  C   UNL     1     -27.822  -7.340  19.062  1.00  0.00    -0.000 C 
BRANCH  10  11
ATOM     11  C   UNL     1     -28.898  -6.842  18.076  1.00  0.00    -0.000 C 
BRANCH  11  12
ATOM     12  C   UNL     1     -28.441  -5.721  17.127  1.00  0.00    -0.000 C 
BRANCH  12  13
ATOM     13  C   UNL     1     -27.222  -4.947  17.660  1.00  0.00    -0.000 C 
BRANCH  13  14
ATOM     14  C   UNL     1     -27.610  -3.642  18.377  1.00  0.00    -0.000 C 
BRANCH  14  15
ATOM     15  C   UNL     1     -28.440  -2.660  17.528  1.00  0.00    -0.003 C 
ATOM     16  C   UNL     1     -27.727  -2.222  16.247  1.00  0.00     0.004 C 
ENDBRANCH  14  15
ENDBRANCH  13  14
ENDBRANCH  12  13
ENDBRANCH  11  12
ENDBRANCH  10  11
ENDBRANCH   9  10
ENDBRANCH   8   9
ENDBRANCH   7   8
ENDBRANCH   6   7
ENDBRANCH   5   6
ENDBRANCH   4   5
ENDBRANCH   3   4
ENDBRANCH   2   3
ENDBRANCH   1   2
BRANCH   1  17
ATOM     17  C   UNL     1     -17.863  -6.006  17.990  1.00  0.00     0.000 C 
BRANCH  17  18
ATOM     18  C   UNL     1     -17.381  -7.319  17.350  1.00  0.00     0.000 C 
BRANCH  18  19
ATOM     19  C   UNL     1     -17.729  -8.542  18.215  1.00  0.00     0.000 C 
BRANCH  19  20
ATOM     20  C   UNL     1     -16.980  -9.814  17.778  1.00  0.00     0.000 C 
BRANCH  20  21
ATOM     21  C   UNL     1     -15.470  -9.816  18.091  1.00  0.00     0.000 C 
BRANCH  21  22
ATOM     22  C   UNL     1     -14.548 -10.086  16.885  1.00  0.00     0.000 C 
BRANCH  22  23
ATOM     23  C   UNL     1     -14.508  -8.965  15.829  1.00  0.00     0.000 C 
BRANCH  23  24
ATOM     24  C   UNL     1     -13.735  -7.725  16.308  1.00  0.00     0.000 C 
BRANCH  24  25
ATOM     25  C   UNL     1     -12.532  -8.080  17.200  1.00  0.00     0.000 C 
BRANCH  25  26
ATOM     26  C   UNL     1     -11.546  -6.926  17.465  1.00  0.00     0.000 C 
BRANCH  26  27
ATOM     27  C   UNL     1     -12.226  -5.559  17.690  1.00  0.00     0.002 C 
BRANCH  27  28
ATOM     28  C   UNL     1     -13.020  -5.507  19.005  1.00  0.00     0.028 C 
BRANCH  28  29
ATOM     29  C   UNL     1     -14.447  -5.004  18.772  1.00  0.00     0.156 C 
BRANCH  29  30
ATOM     30  O   UNL     1     -14.474  -4.101  17.699  1.00  0.00    -0.396 OA
ATOM     31  H   UNL     1     -14.137  -3.235  18.050  1.00  0.00     0.210 HD
ENDBRANCH  29  30
ENDBRANCH  28  29
ENDBRANCH  27  28
ENDBRANCH  26  27
ENDBRANCH  25  26
ENDBRANCH  24  25
ENDBRANCH  23  24
ENDBRANCH  22  23
ENDBRANCH  21  22
ENDBRANCH  20  21
ENDBRANCH  19  20
ENDBRANCH  18  19
ENDBRANCH  17  18
ENDBRANCH   1  17
TORSDOF 28
ENDMDL
MODEL 9
REMARK VINA RESULT:    -2.875      4.118     14.088
REMARK INTER + INTRA:         -10.023
REMARK INTER:                  -8.200
REMARK INTRA:                  -1.822
REMARK UNBOUND:                -2.527
REMARK SMILES CCCCCCCCCCCCCCCCCCCCCCCCCCCCCO
REMARK SMILES IDX 16 1 15 2 14 3 13 4 12 5 11 6 10 7 9 8 8 9 7 10 6 11 5 12
REMARK SMILES IDX 4 13 3 14 2 15 1 16 17 17 18 18 19 19 20 20 21 21 22 22
REMARK SMILES IDX 23 23 24 24 25 25 26 26 27 27 28 28 29 29 30 30
REMARK H PARENT 30 31
REMARK Flexibility Score: inf
ROOT
ATOM      1  C   UNL     1     -17.126  -6.272  18.769  1.00  0.00     0.000 C 
ENDROOT
BRANCH   1   2
ATOM      2  C   UNL     1     -17.116  -5.541  17.410  1.00  0.00     0.000 C 
BRANCH   2   3
ATOM      3  C   UNL     1     -18.355  -4.661  17.153  1.00  0.00     0.000 C 
BRANCH   3   4
ATOM      4  C   UNL     1     -19.698  -5.252  17.620  1.00  0.00     0.000 C 
BRANCH   4   5
ATOM      5  C   UNL     1     -20.228  -6.433  16.783  1.00  0.00     0.000 C 
BRANCH   5   6
ATOM      6  C   UNL     1     -20.977  -7.504  17.605  1.00  0.00     0.000 C 
BRANCH   6   7
ATOM      7  C   UNL     1     -22.024  -6.899  18.554  1.00  0.00     0.000 C 
BRANCH   7   8
ATOM      8  C   UNL     1     -23.378  -7.609  18.417  1.00  0.00    -0.000 C 
BRANCH   8   9
ATOM      9  C   UNL     1     -24.572  -6.677  18.690  1.00  0.00    -0.000 C 
BRANCH   9  10
ATOM     10  C   UNL     1     -25.629  -6.719  17.572  1.00  0.00    -0.000 C 
BRANCH  10  11
ATOM     11  C   UNL     1     -27.050  -6.992  18.102  1.00  0.00    -0.000 C 
BRANCH  11  12
ATOM     12  C   UNL     1     -28.150  -6.093  17.510  1.00  0.00    -0.000 C 
BRANCH  12  13
ATOM     13  C   UNL     1     -28.574  -4.961  18.463  1.00  0.00    -0.000 C 
BRANCH  13  14
ATOM     14  C   UNL     1     -27.795  -3.655  18.224  1.00  0.00    -0.000 C 
BRANCH  14  15
ATOM     15  C   UNL     1     -27.555  -3.310  16.741  1.00  0.00    -0.003 C 
ATOM     16  C   UNL     1     -27.939  -1.872  16.390  1.00  0.00     0.004 C 
ENDBRANCH  14  15
ENDBRANCH  13  14
ENDBRANCH  12  13
ENDBRANCH  11  12
ENDBRANCH  10  11
ENDBRANCH   9  10
ENDBRANCH   8   9
ENDBRANCH   7   8
ENDBRANCH   6   7
ENDBRANCH   5   6
ENDBRANCH   4   5
ENDBRANCH   3   4
ENDBRANCH   2   3
ENDBRANCH   1   2
BRANCH   1  17
ATOM     17  C   UNL     1     -17.158  -7.805  18.625  1.00  0.00     0.000 C 
BRANCH  17  18
ATOM     18  C   UNL     1     -15.806  -8.448  18.979  1.00  0.00     0.000 C 
BRANCH  18  19
ATOM     19  C   UNL     1     -15.260  -9.309  17.826  1.00  0.00     0.000 C 
BRANCH  19  20
ATOM     20  C   UNL     1     -13.730  -9.463  17.870  1.00  0.00     0.000 C 
BRANCH  20  21
ATOM     21  C   UNL     1     -12.940  -8.176  17.554  1.00  0.00     0.000 C 
BRANCH  21  22
ATOM     22  C   UNL     1     -11.649  -7.977  18.373  1.00  0.00     0.000 C 
BRANCH  22  23
ATOM     23  C   UNL     1     -11.222  -6.511  18.575  1.00  0.00     0.000 C 
BRANCH  23  24
ATOM     24  C   UNL     1      -9.730  -6.282  18.280  1.00  0.00     0.000 C 
BRANCH  24  25
ATOM     25  C   UNL     1      -9.495  -5.357  17.073  1.00  0.00     0.000 C 
BRANCH  25  26
ATOM     26  C   UNL     1      -8.987  -6.057  15.797  1.00  0.00     0.000 C 
BRANCH  26  27
ATOM     27  C   UNL     1      -9.581  -7.464  15.575  1.00  0.00     0.002 C 
BRANCH  27  28
ATOM     28  C   UNL     1      -9.331  -7.988  14.152  1.00  0.00     0.028 C 
BRANCH  28  29
ATOM     29  C   UNL     1      -9.734  -9.459  14.024  1.00  0.00     0.156 C 
BRANCH  29  30
ATOM     30  O   UNL     1      -9.583  -9.891  12.699  1.00  0.00    -0.396 OA
ATOM     31  H   UNL     1      -9.542 -10.882  12.727  1.00  0.00     0.210 HD
ENDBRANCH  29  30
ENDBRANCH  28  29
ENDBRANCH  27  28
ENDBRANCH  26  27
ENDBRANCH  25  26
ENDBRANCH  24  25
ENDBRANCH  23  24
ENDBRANCH  22  23
ENDBRANCH  21  22
ENDBRANCH  20  21
ENDBRANCH  19  20
ENDBRANCH  18  19
ENDBRANCH  17  18
ENDBRANCH   1  17
TORSDOF 28
ENDMDL
