MODEL 1
REMARK VINA RESULT:    -5.497      0.000      0.000
REMARK INTER + INTRA:          -7.480
REMARK INTER:                  -7.104
REMARK INTRA:                  -0.376
REMARK UNBOUND:                -0.376
REMARK SMILES CCO[C@H]1O[C@@H](CO)[C@H](O)[C@@H](O)[C@H]1O
REMARK SMILES IDX 4 1 13 2 11 3 9 4 6 5 5 6 3 7 2 8 1 9 14 10 12 12 7 14 8 15
REMARK SMILES IDX 10 17
REMARK H PARENT 14 11 12 13 8 16 10 18
REMARK Flexibility Score: inf
ROOT
ATOM      1  C   UNL     1      21.862  19.851  85.901  1.00  0.00     0.281 C 
ATOM      2  C   UNL     1      21.500  21.069  86.808  1.00  0.00     0.202 C 
ATOM      3  C   UNL     1      22.630  22.122  86.830  1.00  0.00     0.179 C 
ATOM      4  C   UNL     1      24.014  21.459  87.035  1.00  0.00     0.177 C 
ATOM      5  C   UNL     1      24.152  20.124  86.240  1.00  0.00     0.178 C 
ATOM      6  O   UNL     1      23.128  19.993  85.269  1.00  0.00    -0.341 OA
ENDROOT
BRANCH   1   7
ATOM      7  O   UNL     1      20.839  19.562  84.955  1.00  0.00    -0.350 OA
BRANCH   7   8
ATOM      8  C   UNL     1      21.232  19.807  83.615  1.00  0.00     0.160 C 
ATOM      9  C   UNL     1      20.072  19.515  82.671  1.00  0.00     0.035 C 
ENDBRANCH   7   8
ENDBRANCH   1   7
BRANCH   2  10
ATOM     10  O   UNL     1      20.292  21.662  86.402  1.00  0.00    -0.385 OA
ATOM     11  H   UNL     1      20.403  22.643  86.505  1.00  0.00     0.211 HD
ENDBRANCH   2  10
BRANCH   3  12
ATOM     12  O   UNL     1      22.622  22.842  85.622  1.00  0.00    -0.387 OA
ATOM     13  H   UNL     1      23.028  23.729  85.810  1.00  0.00     0.211 HD
ENDBRANCH   3  12
BRANCH   5  14
ATOM     14  C   UNL     1      25.510  20.025  85.537  1.00  0.00     0.191 C 
BRANCH  14  15
ATOM     15  O   UNL     1      26.549  20.255  86.450  1.00  0.00    -0.394 OA
ATOM     16  H   UNL     1      26.342  21.120  86.889  1.00  0.00     0.210 HD
ENDBRANCH  14  15
ENDBRANCH   5  14
BRANCH   4  17
ATOM     17  O   UNL     1      24.271  21.250  88.402  1.00  0.00    -0.387 OA
ATOM     18  H   UNL     1      23.998  20.323  88.625  1.00  0.00     0.211 HD
ENDBRANCH   4  17
TORSDOF 7
ENDMDL
MODEL 2
REMARK VINA RESULT:    -5.402      1.080      1.087
REMARK INTER + INTRA:          -7.358
REMARK INTER:                  -6.988
REMARK INTRA:                  -0.370
REMARK UNBOUND:                -0.376
REMARK SMILES CCO[C@H]1O[C@@H](CO)[C@H](O)[C@@H](O)[C@H]1O
REMARK SMILES IDX 4 1 13 2 11 3 9 4 6 5 5 6 3 7 2 8 1 9 14 10 12 12 7 14 8 15
REMARK SMILES IDX 10 17
REMARK H PARENT 14 11 12 13 8 16 10 18
REMARK Flexibility Score: inf
ROOT
ATOM      1  C   UNL     1      21.708  19.923  85.500  1.00  0.00     0.281 C 
ATOM      2  C   UNL     1      21.842  21.044  86.579  1.00  0.00     0.202 C 
ATOM      3  C   UNL     1      23.060  21.955  86.310  1.00  0.00     0.179 C 
ATOM      4  C   UNL     1      24.323  21.123  85.977  1.00  0.00     0.177 C 
ATOM      5  C   UNL     1      23.999  19.897  85.069  1.00  0.00     0.178 C 
ATOM      6  O   UNL     1      22.709  20.008  84.493  1.00  0.00    -0.341 OA
ENDROOT
BRANCH   1   7
ATOM      7  O   UNL     1      20.405  19.875  84.933  1.00  0.00    -0.350 OA
BRANCH   7   8
ATOM      8  C   UNL     1      20.413  19.812  83.516  1.00  0.00     0.160 C 
ATOM      9  C   UNL     1      18.988  19.893  82.983  1.00  0.00     0.035 C 
ENDBRANCH   7   8
ENDBRANCH   1   7
BRANCH   2  10
ATOM     10  O   UNL     1      20.668  21.814  86.657  1.00  0.00    -0.385 OA
ATOM     11  H   UNL     1      19.984  21.355  86.104  1.00  0.00     0.211 HD
ENDBRANCH   2  10
BRANCH   3  12
ATOM     12  O   UNL     1      22.769  22.823  85.244  1.00  0.00    -0.387 OA
ATOM     13  H   UNL     1      22.006  23.391  85.531  1.00  0.00     0.211 HD
ENDBRANCH   3  12
BRANCH   5  14
ATOM     14  C   UNL     1      25.028  19.743  83.944  1.00  0.00     0.191 C 
BRANCH  14  15
ATOM     15  O   UNL     1      26.328  19.873  84.451  1.00  0.00    -0.394 OA
ATOM     16  H   UNL     1      26.792  19.021  84.241  1.00  0.00     0.210 HD
ENDBRANCH  14  15
ENDBRANCH   5  14
BRANCH   4  17
ATOM     17  O   UNL     1      24.973  20.709  87.154  1.00  0.00    -0.387 OA
ATOM     18  H   UNL     1      25.447  21.494  87.533  1.00  0.00     0.211 HD
ENDBRANCH   4  17
TORSDOF 7
ENDMDL
MODEL 3
REMARK VINA RESULT:    -5.181      1.744      4.189
REMARK INTER + INTRA:          -7.071
REMARK INTER:                  -6.757
REMARK INTRA:                  -0.314
REMARK UNBOUND:                -0.376
REMARK SMILES CCO[C@H]1O[C@@H](CO)[C@H](O)[C@@H](O)[C@H]1O
REMARK SMILES IDX 4 1 13 2 11 3 9 4 6 5 5 6 3 7 2 8 1 9 14 10 12 12 7 14 8 15
REMARK SMILES IDX 10 17
REMARK H PARENT 14 11 12 13 8 16 10 18
REMARK Flexibility Score: inf
ROOT
ATOM      1  C   UNL     1      24.647  20.556  84.959  1.00  0.00     0.281 C 
ATOM      2  C   UNL     1      25.404  20.931  86.273  1.00  0.00     0.202 C 
ATOM      3  C   UNL     1      24.508  20.755  87.519  1.00  0.00     0.179 C 
ATOM      4  C   UNL     1      23.105  21.371  87.296  1.00  0.00     0.177 C 
ATOM      5  C   UNL     1      22.568  21.108  85.856  1.00  0.00     0.178 C 
ATOM      6  O   UNL     1      23.321  20.103  85.200  1.00  0.00    -0.341 OA
ENDROOT
BRANCH   1   7
ATOM      7  O   UNL     1      25.376  19.628  84.165  1.00  0.00    -0.350 OA
BRANCH   7   8
ATOM      8  C   UNL     1      25.360  19.941  82.782  1.00  0.00     0.160 C 
ATOM      9  C   UNL     1      26.758  19.786  82.197  1.00  0.00     0.035 C 
ENDBRANCH   7   8
ENDBRANCH   1   7
BRANCH   2  10
ATOM     10  O   UNL     1      26.582  20.178  86.412  1.00  0.00    -0.385 OA
ATOM     11  H   UNL     1      26.451  19.338  85.898  1.00  0.00     0.211 HD
ENDBRANCH   2  10
BRANCH   3  12
ATOM     12  O   UNL     1      24.384  19.387  87.817  1.00  0.00    -0.387 OA
ATOM     13  H   UNL     1      25.065  18.909  87.275  1.00  0.00     0.211 HD
ENDBRANCH   3  12
BRANCH   5  14
ATOM     14  C   UNL     1      21.095  20.685  85.873  1.00  0.00     0.191 C 
BRANCH  14  15
ATOM     15  O   UNL     1      20.327  21.623  86.577  1.00  0.00    -0.394 OA
ATOM     16  H   UNL     1      20.833  21.827  87.406  1.00  0.00     0.210 HD
ENDBRANCH  14  15
ENDBRANCH   5  14
BRANCH   4  17
ATOM     17  O   UNL     1      23.114  22.750  87.577  1.00  0.00    -0.387 OA
ATOM     18  H   UNL     1      23.822  23.169  87.023  1.00  0.00     0.211 HD
ENDBRANCH   4  17
TORSDOF 7
ENDMDL
MODEL 4
REMARK VINA RESULT:    -5.157      2.004      3.500
REMARK INTER + INTRA:          -7.041
REMARK INTER:                  -6.682
REMARK INTRA:                  -0.359
REMARK UNBOUND:                -0.376
REMARK SMILES CCO[C@H]1O[C@@H](CO)[C@H](O)[C@@H](O)[C@H]1O
REMARK SMILES IDX 4 1 13 2 11 3 9 4 6 5 5 6 3 7 2 8 1 9 14 10 12 12 7 14 8 15
REMARK SMILES IDX 10 17
REMARK H PARENT 14 11 12 13 8 16 10 18
REMARK Flexibility Score: inf
ROOT
ATOM      1  C   UNL     1      23.008  19.008  85.658  1.00  0.00     0.281 C 
ATOM      2  C   UNL     1      24.170  19.274  84.649  1.00  0.00     0.202 C 
ATOM      3  C   UNL     1      25.289  20.133  85.278  1.00  0.00     0.179 C 
ATOM      4  C   UNL     1      24.705  21.349  86.040  1.00  0.00     0.177 C 
ATOM      5  C   UNL     1      23.409  20.984  86.828  1.00  0.00     0.178 C 
ATOM      6  O   UNL     1      23.250  19.580  86.937  1.00  0.00    -0.341 OA
ENDROOT
BRANCH   1   7
ATOM      7  O   UNL     1      22.691  17.625  85.760  1.00  0.00    -0.350 OA
BRANCH   7   8
ATOM      8  C   UNL     1      21.325  17.385  86.055  1.00  0.00     0.160 C 
ATOM      9  C   UNL     1      20.440  18.247  85.163  1.00  0.00     0.035 C 
ENDBRANCH   7   8
ENDBRANCH   1   7
BRANCH   2  10
ATOM     10  O   UNL     1      24.702  18.069  84.159  1.00  0.00    -0.385 OA
ATOM     11  H   UNL     1      24.221  17.862  83.315  1.00  0.00     0.211 HD
ENDBRANCH   2  10
BRANCH   3  12
ATOM     12  O   UNL     1      26.048  19.342  86.158  1.00  0.00    -0.387 OA
ATOM     13  H   UNL     1      27.005  19.536  85.972  1.00  0.00     0.211 HD
ENDBRANCH   3  12
BRANCH   5  14
ATOM     14  C   UNL     1      23.418  21.588  88.236  1.00  0.00     0.191 C 
BRANCH  14  15
ATOM     15  O   UNL     1      23.520  22.984  88.166  1.00  0.00    -0.394 OA
ATOM     16  H   UNL     1      23.910  23.276  89.031  1.00  0.00     0.210 HD
ENDBRANCH  14  15
ENDBRANCH   5  14
BRANCH   4  17
ATOM     17  O   UNL     1      24.465  22.421  85.161  1.00  0.00    -0.387 OA
ATOM     18  H   UNL     1      25.178  22.416  84.472  1.00  0.00     0.211 HD
ENDBRANCH   4  17
TORSDOF 7
ENDMDL
MODEL 5
REMARK VINA RESULT:    -4.963      1.707      2.641
REMARK INTER + INTRA:          -6.790
REMARK INTER:                  -6.567
REMARK INTRA:                  -0.223
REMARK UNBOUND:                -0.376
REMARK SMILES CCO[C@H]1O[C@@H](CO)[C@H](O)[C@@H](O)[C@H]1O
REMARK SMILES IDX 4 1 13 2 11 3 9 4 6 5 5 6 3 7 2 8 1 9 14 10 12 12 7 14 8 15
REMARK SMILES IDX 10 17
REMARK H PARENT 14 11 12 13 8 16 10 18
REMARK Flexibility Score: inf
ROOT
ATOM      1  C   UNL     1      22.986  19.269  85.782  1.00  0.00     0.281 C 
ATOM      2  C   UNL     1      23.731  19.035  87.135  1.00  0.00     0.202 C 
ATOM      3  C   UNL     1      24.490  20.298  87.597  1.00  0.00     0.179 C 
ATOM      4  C   UNL     1      25.293  20.930  86.433  1.00  0.00     0.177 C 
ATOM      5  C   UNL     1      24.508  20.890  85.086  1.00  0.00     0.178 C 
ATOM      6  O   UNL     1      23.138  20.596  85.294  1.00  0.00    -0.341 OA
ENDROOT
BRANCH   1   7
ATOM      7  O   UNL     1      21.615  18.896  85.851  1.00  0.00    -0.350 OA
BRANCH   7   8
ATOM      8  C   UNL     1      20.745  19.853  85.271  1.00  0.00     0.160 C 
ATOM      9  C   UNL     1      19.518  19.159  84.694  1.00  0.00     0.035 C 
ENDBRANCH   7   8
ENDBRANCH   1   7
BRANCH   2  10
ATOM     10  O   UNL     1      22.841  18.610  88.136  1.00  0.00    -0.385 OA
ATOM     11  H   UNL     1      22.066  18.192  87.676  1.00  0.00     0.211 HD
ENDBRANCH   2  10
BRANCH   3  12
ATOM     12  O   UNL     1      23.573  21.235  88.104  1.00  0.00    -0.387 OA
ATOM     13  H   UNL     1      23.943  21.566  88.965  1.00  0.00     0.211 HD
ENDBRANCH   3  12
BRANCH   5  14
ATOM     14  C   UNL     1      24.615  22.222  84.333  1.00  0.00     0.191 C 
BRANCH  14  15
ATOM     15  O   UNL     1      23.653  23.126  84.803  1.00  0.00    -0.394 OA
ATOM     16  H   UNL     1      24.127  23.987  84.940  1.00  0.00     0.210 HD
ENDBRANCH  14  15
ENDBRANCH   5  14
BRANCH   4  17
ATOM     17  O   UNL     1      26.547  20.306  86.295  1.00  0.00    -0.387 OA
ATOM     18  H   UNL     1      26.426  19.503  85.725  1.00  0.00     0.211 HD
ENDBRANCH   4  17
TORSDOF 7
ENDMDL
MODEL 6
REMARK VINA RESULT:    -4.934      1.825      2.769
REMARK INTER + INTRA:          -6.753
REMARK INTER:                  -6.541
REMARK INTRA:                  -0.212
REMARK UNBOUND:                -0.376
REMARK SMILES CCO[C@H]1O[C@@H](CO)[C@H](O)[C@@H](O)[C@H]1O
REMARK SMILES IDX 4 1 13 2 11 3 9 4 6 5 5 6 3 7 2 8 1 9 14 10 12 12 7 14 8 15
REMARK SMILES IDX 10 17
REMARK H PARENT 14 11 12 13 8 16 10 18
REMARK Flexibility Score: inf
ROOT
ATOM      1  C   UNL     1      22.874  19.947  85.236  1.00  0.00     0.281 C 
ATOM      2  C   UNL     1      23.676  21.241  84.892  1.00  0.00     0.202 C 
ATOM      3  C   UNL     1      24.731  21.565  85.973  1.00  0.00     0.179 C 
ATOM      4  C   UNL     1      24.135  21.445  87.397  1.00  0.00     0.177 C 
ATOM      5  C   UNL     1      23.170  20.227  87.531  1.00  0.00     0.178 C 
ATOM      6  O   UNL     1      23.313  19.332  86.441  1.00  0.00    -0.341 OA
ENDROOT
BRANCH   1   7
ATOM      7  O   UNL     1      22.861  19.020  84.157  1.00  0.00    -0.350 OA
BRANCH   7   8
ATOM      8  C   UNL     1      21.558  18.758  83.660  1.00  0.00     0.160 C 
ATOM      9  C   UNL     1      21.362  19.455  82.320  1.00  0.00     0.035 C 
ENDBRANCH   7   8
ENDBRANCH   1   7
BRANCH   2  10
ATOM     10  O   UNL     1      24.288  21.139  83.632  1.00  0.00    -0.385 OA
ATOM     11  H   UNL     1      24.890  20.350  83.666  1.00  0.00     0.211 HD
ENDBRANCH   2  10
BRANCH   3  12
ATOM     12  O   UNL     1      25.822  20.688  85.839  1.00  0.00    -0.387 OA
ATOM     13  H   UNL     1      26.489  21.139  85.258  1.00  0.00     0.211 HD
ENDBRANCH   3  12
BRANCH   5  14
ATOM     14  C   UNL     1      23.413  19.456  88.834  1.00  0.00     0.191 C 
BRANCH  14  15
ATOM     15  O   UNL     1      23.032  18.116  88.686  1.00  0.00    -0.394 OA
ATOM     16  H   UNL     1      22.122  18.130  88.289  1.00  0.00     0.210 HD
ENDBRANCH  14  15
ENDBRANCH   5  14
BRANCH   4  17
ATOM     17  O   UNL     1      23.484  22.636  87.768  1.00  0.00    -0.387 OA
ATOM     18  H   UNL     1      22.763  22.402  88.408  1.00  0.00     0.211 HD
ENDBRANCH   4  17
TORSDOF 7
ENDMDL
MODEL 7
REMARK VINA RESULT:    -4.913      2.239      4.023
REMARK INTER + INTRA:          -6.726
REMARK INTER:                  -6.244
REMARK INTRA:                  -0.482
REMARK UNBOUND:                -0.376
REMARK SMILES CCO[C@H]1O[C@@H](CO)[C@H](O)[C@@H](O)[C@H]1O
REMARK SMILES IDX 4 1 13 2 11 3 9 4 6 5 5 6 3 7 2 8 1 9 14 10 12 12 7 14 8 15
REMARK SMILES IDX 10 17
REMARK H PARENT 14 11 12 13 8 16 10 18
REMARK Flexibility Score: inf
ROOT
ATOM      1  C   UNL     1      22.693  20.517  85.470  1.00  0.00     0.281 C 
ATOM      2  C   UNL     1      23.293  19.083  85.326  1.00  0.00     0.202 C 
ATOM      3  C   UNL     1      24.811  19.123  85.047  1.00  0.00     0.179 C 
ATOM      4  C   UNL     1      25.156  20.160  83.951  1.00  0.00     0.177 C 
ATOM      5  C   UNL     1      24.312  21.465  84.088  1.00  0.00     0.178 C 
ATOM      6  O   UNL     1      23.676  21.538  85.352  1.00  0.00    -0.341 OA
ENDROOT
BRANCH   1   7
ATOM      7  O   UNL     1      21.934  20.665  86.665  1.00  0.00    -0.350 OA
BRANCH   7   8
ATOM      8  C   UNL     1      22.489  21.607  87.567  1.00  0.00     0.160 C 
ATOM      9  C   UNL     1      23.065  20.889  88.781  1.00  0.00     0.035 C 
ENDBRANCH   7   8
ENDBRANCH   1   7
BRANCH   2  10
ATOM     10  O   UNL     1      23.029  18.306  86.467  1.00  0.00    -0.385 OA
ATOM     11  H   UNL     1      22.706  17.423  86.148  1.00  0.00     0.211 HD
ENDBRANCH   2  10
BRANCH   3  12
ATOM     12  O   UNL     1      25.497  19.440  86.233  1.00  0.00    -0.387 OA
ATOM     13  H   UNL     1      25.281  18.729  86.892  1.00  0.00     0.211 HD
ENDBRANCH   3  12
BRANCH   5  14
ATOM     14  C   UNL     1      25.176  22.717  83.900  1.00  0.00     0.191 C 
BRANCH  14  15
ATOM     15  O   UNL     1      26.092  22.524  82.856  1.00  0.00    -0.394 OA
ATOM     16  H   UNL     1      26.780  21.900  83.204  1.00  0.00     0.210 HD
ENDBRANCH  14  15
ENDBRANCH   5  14
BRANCH   4  17
ATOM     17  O   UNL     1      25.001  19.602  82.668  1.00  0.00    -0.387 OA
ATOM     18  H   UNL     1      25.170  20.317  82.002  1.00  0.00     0.211 HD
ENDBRANCH   4  17
TORSDOF 7
ENDMDL
MODEL 8
REMARK VINA RESULT:    -4.907      1.883      4.342
REMARK INTER + INTRA:          -6.717
REMARK INTER:                  -6.408
REMARK INTRA:                  -0.309
REMARK UNBOUND:                -0.376
REMARK SMILES CCO[C@H]1O[C@@H](CO)[C@H](O)[C@@H](O)[C@H]1O
REMARK SMILES IDX 4 1 13 2 11 3 9 4 6 5 5 6 3 7 2 8 1 9 14 10 12 12 7 14 8 15
REMARK SMILES IDX 10 17
REMARK H PARENT 14 11 12 13 8 16 10 18
REMARK Flexibility Score: inf
ROOT
ATOM      1  C   UNL     1      24.126  19.932  85.854  1.00  0.00     0.281 C 
ATOM      2  C   UNL     1      23.492  20.918  84.822  1.00  0.00     0.202 C 
ATOM      3  C   UNL     1      21.990  20.632  84.605  1.00  0.00     0.179 C 
ATOM      4  C   UNL     1      21.726  19.118  84.410  1.00  0.00     0.177 C 
ATOM      5  C   UNL     1      22.601  18.241  85.359  1.00  0.00     0.178 C 
ATOM      6  O   UNL     1      23.179  19.018  86.393  1.00  0.00    -0.341 OA
ENDROOT
BRANCH   1   7
ATOM      7  O   UNL     1      24.832  20.613  86.884  1.00  0.00    -0.350 OA
BRANCH   7   8
ATOM      8  C   UNL     1      24.280  20.405  88.173  1.00  0.00     0.160 C 
ATOM      9  C   UNL     1      23.537  21.655  88.630  1.00  0.00     0.035 C 
ENDBRANCH   7   8
ENDBRANCH   1   7
BRANCH   2  10
ATOM     10  O   UNL     1      23.680  22.254  85.215  1.00  0.00    -0.385 OA
ATOM     11  H   UNL     1      23.176  22.380  86.062  1.00  0.00     0.211 HD
ENDBRANCH   2  10
BRANCH   3  12
ATOM     12  O   UNL     1      21.259  21.102  85.711  1.00  0.00    -0.387 OA
ATOM     13  H   UNL     1      20.344  20.722  85.637  1.00  0.00     0.211 HD
ENDBRANCH   3  12
BRANCH   5  14
ATOM     14  C   UNL     1      21.782  17.110  85.993  1.00  0.00     0.191 C 
BRANCH  14  15
ATOM     15  O   UNL     1      21.836  17.195  87.391  1.00  0.00    -0.394 OA
ATOM     16  H   UNL     1      22.533  16.552  87.680  1.00  0.00     0.210 HD
ENDBRANCH  14  15
ENDBRANCH   5  14
BRANCH   4  17
ATOM     17  O   UNL     1      21.925  18.745  83.068  1.00  0.00    -0.387 OA
ATOM     18  H   UNL     1      22.523  17.955  83.057  1.00  0.00     0.211 HD
ENDBRANCH   4  17
TORSDOF 7
ENDMDL
MODEL 9
REMARK VINA RESULT:    -4.808      1.670      4.570
REMARK INTER + INTRA:          -6.590
REMARK INTER:                  -6.188
REMARK INTRA:                  -0.402
REMARK UNBOUND:                -0.376
REMARK SMILES CCO[C@H]1O[C@@H](CO)[C@H](O)[C@@H](O)[C@H]1O
REMARK SMILES IDX 4 1 13 2 11 3 9 4 6 5 5 6 3 7 2 8 1 9 14 10 12 12 7 14 8 15
REMARK SMILES IDX 10 17
REMARK H PARENT 14 11 12 13 8 16 10 18
REMARK Flexibility Score: inf
ROOT
ATOM      1  C   UNL     1      23.883  19.655  86.409  1.00  0.00     0.281 C 
ATOM      2  C   UNL     1      24.812  20.343  85.359  1.00  0.00     0.202 C 
ATOM      3  C   UNL     1      24.008  21.205  84.361  1.00  0.00     0.179 C 
ATOM      4  C   UNL     1      22.765  20.446  83.834  1.00  0.00     0.177 C 
ATOM      5  C   UNL     1      22.063  19.617  84.953  1.00  0.00     0.178 C 
ATOM      6  O   UNL     1      22.514  20.001  86.241  1.00  0.00    -0.341 OA
ENDROOT
BRANCH   1   7
ATOM      7  O   UNL     1      24.316  19.888  87.744  1.00  0.00    -0.350 OA
BRANCH   7   8
ATOM      8  C   UNL     1      23.341  20.535  88.543  1.00  0.00     0.160 C 
ATOM      9  C   UNL     1      23.593  22.038  88.557  1.00  0.00     0.035 C 
ENDBRANCH   7   8
ENDBRANCH   1   7
BRANCH   2  10
ATOM     10  O   UNL     1      25.799  21.121  85.987  1.00  0.00    -0.385 OA
ATOM     11  H   UNL     1      26.069  21.823  85.340  1.00  0.00     0.211 HD
ENDBRANCH   2  10
BRANCH   3  12
ATOM     12  O   UNL     1      23.606  22.396  84.990  1.00  0.00    -0.387 OA
ATOM     13  H   UNL     1      23.200  22.972  84.289  1.00  0.00     0.211 HD
ENDBRANCH   3  12
BRANCH   5  14
ATOM     14  C   UNL     1      20.539  19.775  84.899  1.00  0.00     0.191 C 
BRANCH  14  15
ATOM     15  O   UNL     1      20.140  20.213  83.629  1.00  0.00    -0.394 OA
ATOM     16  H   UNL     1      19.356  20.804  83.775  1.00  0.00     0.210 HD
ENDBRANCH  14  15
ENDBRANCH   5  14
BRANCH   4  17
ATOM     17  O   UNL     1      23.107  19.622  82.747  1.00  0.00    -0.387 OA
ATOM     18  H   UNL     1      23.728  20.128  82.163  1.00  0.00     0.211 HD
ENDBRANCH   4  17
TORSDOF 7
ENDMDL
