MODEL 1
REMARK VINA RESULT:    -5.085      0.000      0.000
REMARK INTER + INTRA:          -8.884
REMARK INTER:                  -8.058
REMARK INTRA:                  -0.826
REMARK UNBOUND:                -0.826
REMARK SMILES CCCCCCCCCCCC(=O)[O-]
REMARK SMILES IDX 7 1 8 2 9 3 10 4 11 5 12 6 13 7 14 8 6 9 5 10 4 11 3 12 2 13
REMARK SMILES IDX 1 14
REMARK H PARENT
REMARK Flexibility Score: inf
ROOT
ATOM      1  C   UNL     1      20.841   8.359  11.713  1.00  0.00     0.000 C 
ENDROOT
BRANCH   1   2
ATOM      2  C   UNL     1      21.742   7.147  11.991  1.00  0.00     0.000 C 
BRANCH   2   3
ATOM      3  C   UNL     1      23.108   7.589  12.527  1.00  0.00     0.000 C 
BRANCH   3   4
ATOM      4  C   UNL     1      23.307   9.102  12.348  1.00  0.00     0.006 C 
BRANCH   4   5
ATOM      5  C   UNL     1      24.456   9.428  11.385  1.00  0.00     0.053 C 
BRANCH   5   6
ATOM      6  C   UNL     1      24.149   8.992   9.985  1.00  0.00     0.041 C 
ATOM      7  O   UNL     1      23.236   9.562   9.331  1.00  0.00    -0.550 OA
ATOM      8  O   UNL     1      24.893   7.980   9.391  1.00  0.00    -0.550 OA
ENDBRANCH   5   6
ENDBRANCH   4   5
ENDBRANCH   3   4
ENDBRANCH   2   3
ENDBRANCH   1   2
BRANCH   1   9
ATOM      9  C   UNL     1      19.497   7.974  11.067  1.00  0.00     0.000 C 
BRANCH   9  10
ATOM     10  C   UNL     1      19.209   6.463  11.006  1.00  0.00    -0.000 C 
BRANCH  10  11
ATOM     11  C   UNL     1      19.332   5.885   9.586  1.00  0.00    -0.000 C 
BRANCH  11  12
ATOM     12  C   UNL     1      20.114   6.809   8.639  1.00  0.00    -0.000 C 
BRANCH  12  13
ATOM     13  C   UNL     1      19.306   7.201   7.393  1.00  0.00    -0.003 C 
ATOM     14  C   UNL     1      19.769   8.545   6.839  1.00  0.00     0.004 C 
ENDBRANCH  12  13
ENDBRANCH  11  12
ENDBRANCH  10  11
ENDBRANCH   9  10
ENDBRANCH   1   9
TORSDOF 10
ENDMDL
MODEL 2
REMARK VINA RESULT:    -5.066      1.160      1.346
REMARK INTER + INTRA:          -8.854
REMARK INTER:                  -7.892
REMARK INTRA:                  -0.962
REMARK UNBOUND:                -0.826
REMARK SMILES CCCCCCCCCCCC(=O)[O-]
REMARK SMILES IDX 7 1 8 2 9 3 10 4 11 5 12 6 13 7 14 8 6 9 5 10 4 11 3 12 2 13
REMARK SMILES IDX 1 14
REMARK H PARENT
REMARK Flexibility Score: inf
ROOT
ATOM      1  C   UNL     1      20.516   8.337  11.582  1.00  0.00     0.000 C 
ENDROOT
BRANCH   1   2
ATOM      2  C   UNL     1      21.510   7.233  11.974  1.00  0.00     0.000 C 
BRANCH   2   3
ATOM      3  C   UNL     1      22.949   7.647  11.648  1.00  0.00     0.000 C 
BRANCH   3   4
ATOM      4  C   UNL     1      23.078   8.078  10.178  1.00  0.00     0.006 C 
BRANCH   4   5
ATOM      5  C   UNL     1      23.582   9.520  10.038  1.00  0.00     0.053 C 
BRANCH   5   6
ATOM      6  C   UNL     1      24.804   9.766  10.870  1.00  0.00     0.041 C 
ATOM      7  O   UNL     1      24.771  10.603  11.811  1.00  0.00    -0.550 OA
ATOM      8  O   UNL     1      25.968   9.046  10.629  1.00  0.00    -0.550 OA
ENDBRANCH   5   6
ENDBRANCH   4   5
ENDBRANCH   3   4
ENDBRANCH   2   3
ENDBRANCH   1   2
BRANCH   1   9
ATOM      9  C   UNL     1      19.165   7.785  11.091  1.00  0.00     0.000 C 
BRANCH   9  10
ATOM     10  C   UNL     1      19.096   6.253  10.953  1.00  0.00    -0.000 C 
BRANCH  10  11
ATOM     11  C   UNL     1      19.089   5.781   9.489  1.00  0.00    -0.000 C 
BRANCH  11  12
ATOM     12  C   UNL     1      20.006   6.628   8.593  1.00  0.00    -0.000 C 
BRANCH  12  13
ATOM     13  C   UNL     1      19.329   7.049   7.281  1.00  0.00    -0.003 C 
ATOM     14  C   UNL     1      19.238   8.568   7.173  1.00  0.00     0.004 C 
ENDBRANCH  12  13
ENDBRANCH  11  12
ENDBRANCH  10  11
ENDBRANCH   9  10
ENDBRANCH   1   9
TORSDOF 10
ENDMDL
MODEL 3
REMARK VINA RESULT:    -4.792      1.523      1.915
REMARK INTER + INTRA:          -8.420
REMARK INTER:                  -7.434
REMARK INTRA:                  -0.986
REMARK UNBOUND:                -0.826
REMARK SMILES CCCCCCCCCCCC(=O)[O-]
REMARK SMILES IDX 7 1 8 2 9 3 10 4 11 5 12 6 13 7 14 8 6 9 5 10 4 11 3 12 2 13
REMARK SMILES IDX 1 14
REMARK H PARENT
REMARK Flexibility Score: inf
ROOT
ATOM      1  C   UNL     1      21.401   8.565  11.206  1.00  0.00     0.000 C 
ENDROOT
BRANCH   1   2
ATOM      2  C   UNL     1      21.629   9.492  10.002  1.00  0.00     0.000 C 
BRANCH   2   3
ATOM      3  C   UNL     1      23.073   9.391   9.498  1.00  0.00     0.000 C 
BRANCH   3   4
ATOM      4  C   UNL     1      24.072   9.501  10.660  1.00  0.00     0.006 C 
BRANCH   4   5
ATOM      5  C   UNL     1      25.342   8.676  10.414  1.00  0.00     0.053 C 
BRANCH   5   6
ATOM      6  C   UNL     1      25.088   7.207  10.558  1.00  0.00     0.041 C 
ATOM      7  O   UNL     1      24.498   6.763  11.579  1.00  0.00    -0.550 OA
ATOM      8  O   UNL     1      25.472   6.331   9.550  1.00  0.00    -0.550 OA
ENDBRANCH   5   6
ENDBRANCH   4   5
ENDBRANCH   3   4
ENDBRANCH   2   3
ENDBRANCH   1   2
BRANCH   1   9
ATOM      9  C   UNL     1      19.988   7.954  11.236  1.00  0.00     0.000 C 
BRANCH   9  10
ATOM     10  C   UNL     1      19.935   6.422  11.096  1.00  0.00    -0.000 C 
BRANCH  10  11
ATOM     11  C   UNL     1      19.364   5.962   9.744  1.00  0.00    -0.000 C 
BRANCH  11  12
ATOM     12  C   UNL     1      20.111   6.576   8.549  1.00  0.00    -0.000 C 
BRANCH  12  13
ATOM     13  C   UNL     1      19.167   7.256   7.546  1.00  0.00    -0.003 C 
ATOM     14  C   UNL     1      19.846   8.445   6.873  1.00  0.00     0.004 C 
ENDBRANCH  12  13
ENDBRANCH  11  12
ENDBRANCH  10  11
ENDBRANCH   9  10
ENDBRANCH   1   9
TORSDOF 10
ENDMDL
MODEL 4
REMARK VINA RESULT:    -4.770      1.099      1.869
REMARK INTER + INTRA:          -8.385
REMARK INTER:                  -7.371
REMARK INTRA:                  -1.014
REMARK UNBOUND:                -0.826
REMARK SMILES CCCCCCCCCCCC(=O)[O-]
REMARK SMILES IDX 7 1 8 2 9 3 10 4 11 5 12 6 13 7 14 8 6 9 5 10 4 11 3 12 2 13
REMARK SMILES IDX 1 14
REMARK H PARENT
REMARK Flexibility Score: inf
ROOT
ATOM      1  C   UNL     1      22.258   6.932  12.120  1.00  0.00     0.000 C 
ENDROOT
BRANCH   1   2
ATOM      2  C   UNL     1      23.498   7.202  12.985  1.00  0.00     0.000 C 
BRANCH   2   3
ATOM      3  C   UNL     1      24.778   7.148  12.143  1.00  0.00     0.000 C 
BRANCH   3   4
ATOM      4  C   UNL     1      24.449   7.039  10.647  1.00  0.00     0.006 C 
BRANCH   4   5
ATOM      5  C   UNL     1      24.886   8.284   9.863  1.00  0.00     0.053 C 
BRANCH   5   6
ATOM      6  C   UNL     1      23.897   9.402   9.999  1.00  0.00     0.041 C 
ATOM      7  O   UNL     1      24.025  10.253  10.919  1.00  0.00    -0.550 OA
ATOM      8  O   UNL     1      22.855   9.524   9.088  1.00  0.00    -0.550 OA
ENDBRANCH   5   6
ENDBRANCH   4   5
ENDBRANCH   3   4
ENDBRANCH   2   3
ENDBRANCH   1   2
BRANCH   1   9
ATOM      9  C   UNL     1      21.249   8.095  12.134  1.00  0.00     0.000 C 
BRANCH   9  10
ATOM     10  C   UNL     1      20.175   8.042  11.032  1.00  0.00    -0.000 C 
BRANCH  10  11
ATOM     11  C   UNL     1      19.531   6.653  10.889  1.00  0.00    -0.000 C 
BRANCH  11  12
ATOM     12  C   UNL     1      19.401   6.212   9.422  1.00  0.00    -0.000 C 
BRANCH  12  13
ATOM     13  C   UNL     1      20.244   7.070   8.468  1.00  0.00    -0.003 C 
ATOM     14  C   UNL     1      19.399   7.598   7.313  1.00  0.00     0.004 C 
ENDBRANCH  12  13
ENDBRANCH  11  12
ENDBRANCH  10  11
ENDBRANCH   9  10
ENDBRANCH   1   9
TORSDOF 10
ENDMDL
MODEL 5
REMARK VINA RESULT:    -4.758      1.617      2.023
REMARK INTER + INTRA:          -8.366
REMARK INTER:                  -7.131
REMARK INTRA:                  -1.235
REMARK UNBOUND:                -0.826
REMARK SMILES CCCCCCCCCCCC(=O)[O-]
REMARK SMILES IDX 7 1 8 2 9 3 10 4 11 5 12 6 13 7 14 8 6 9 5 10 4 11 3 12 2 13
REMARK SMILES IDX 1 14
REMARK H PARENT
REMARK Flexibility Score: inf
ROOT
ATOM      1  C   UNL     1      20.395   8.474  11.216  1.00  0.00     0.000 C 
ENDROOT
BRANCH   1   2
ATOM      2  C   UNL     1      21.368   9.175  10.257  1.00  0.00     0.000 C 
BRANCH   2   3
ATOM      3  C   UNL     1      22.489   8.225   9.821  1.00  0.00     0.000 C 
BRANCH   3   4
ATOM      4  C   UNL     1      23.838   8.959   9.754  1.00  0.00     0.006 C 
BRANCH   4   5
ATOM      5  C   UNL     1      24.066   9.867  10.969  1.00  0.00     0.053 C 
BRANCH   5   6
ATOM      6  C   UNL     1      24.349   9.076  12.209  1.00  0.00     0.041 C 
ATOM      7  O   UNL     1      23.628   9.222  13.232  1.00  0.00    -0.550 OA
ATOM      8  O   UNL     1      25.387   8.152  12.225  1.00  0.00    -0.550 OA
ENDBRANCH   5   6
ENDBRANCH   4   5
ENDBRANCH   3   4
ENDBRANCH   2   3
ENDBRANCH   1   2
BRANCH   1   9
ATOM      9  C   UNL     1      20.638   6.957  11.318  1.00  0.00     0.000 C 
BRANCH   9  10
ATOM     10  C   UNL     1      19.438   6.075  10.927  1.00  0.00    -0.000 C 
BRANCH  10  11
ATOM     11  C   UNL     1      19.525   5.550   9.484  1.00  0.00    -0.000 C 
BRANCH  11  12
ATOM     12  C   UNL     1      18.852   6.491   8.473  1.00  0.00    -0.000 C 
BRANCH  12  13
ATOM     13  C   UNL     1      19.861   7.185   7.547  1.00  0.00    -0.003 C 
ATOM     14  C   UNL     1      19.232   8.391   6.856  1.00  0.00     0.004 C 
ENDBRANCH  12  13
ENDBRANCH  11  12
ENDBRANCH  10  11
ENDBRANCH   9  10
ENDBRANCH   1   9
TORSDOF 10
ENDMDL
MODEL 6
REMARK VINA RESULT:    -4.588      1.488      2.412
REMARK INTER + INTRA:          -8.096
REMARK INTER:                  -6.918
REMARK INTRA:                  -1.178
REMARK UNBOUND:                -0.826
REMARK SMILES CCCCCCCCCCCC(=O)[O-]
REMARK SMILES IDX 7 1 8 2 9 3 10 4 11 5 12 6 13 7 14 8 6 9 5 10 4 11 3 12 2 13
REMARK SMILES IDX 1 14
REMARK H PARENT
REMARK Flexibility Score: inf
ROOT
ATOM      1  C   UNL     1      21.427   8.400  11.953  1.00  0.00     0.000 C 
ENDROOT
BRANCH   1   2
ATOM      2  C   UNL     1      22.173   7.059  12.033  1.00  0.00     0.000 C 
BRANCH   2   3
ATOM      3  C   UNL     1      23.384   7.159  12.967  1.00  0.00     0.000 C 
BRANCH   3   4
ATOM      4  C   UNL     1      23.556   8.592  13.495  1.00  0.00     0.006 C 
BRANCH   4   5
ATOM      5  C   UNL     1      24.943   9.165  13.179  1.00  0.00     0.053 C 
BRANCH   5   6
ATOM      6  C   UNL     1      24.945   9.942  11.897  1.00  0.00     0.041 C 
ATOM      7  O   UNL     1      25.028  11.198  11.918  1.00  0.00    -0.550 OA
ATOM      8  O   UNL     1      24.890   9.275  10.679  1.00  0.00    -0.550 OA
ENDBRANCH   5   6
ENDBRANCH   4   5
ENDBRANCH   3   4
ENDBRANCH   2   3
ENDBRANCH   1   2
BRANCH   1   9
ATOM      9  C   UNL     1      21.332   8.951  10.519  1.00  0.00     0.000 C 
BRANCH   9  10
ATOM     10  C   UNL     1      21.274   7.884   9.410  1.00  0.00    -0.000 C 
BRANCH  10  11
ATOM     11  C   UNL     1      19.967   7.931   8.601  1.00  0.00    -0.000 C 
BRANCH  11  12
ATOM     12  C   UNL     1      19.196   6.602   8.649  1.00  0.00    -0.000 C 
BRANCH  12  13
ATOM     13  C   UNL     1      19.680   5.677   9.775  1.00  0.00    -0.003 C 
ATOM     14  C   UNL     1      18.731   5.722  10.968  1.00  0.00     0.004 C 
ENDBRANCH  12  13
ENDBRANCH  11  12
ENDBRANCH  10  11
ENDBRANCH   9  10
ENDBRANCH   1   9
TORSDOF 10
ENDMDL
MODEL 7
REMARK VINA RESULT:    -4.579      2.828      3.613
REMARK INTER + INTRA:          -8.081
REMARK INTER:                  -7.366
REMARK INTRA:                  -0.716
REMARK UNBOUND:                -0.826
REMARK SMILES CCCCCCCCCCCC(=O)[O-]
REMARK SMILES IDX 7 1 8 2 9 3 10 4 11 5 12 6 13 7 14 8 6 9 5 10 4 11 3 12 2 13
REMARK SMILES IDX 1 14
REMARK H PARENT
REMARK Flexibility Score: inf
ROOT
ATOM      1  C   UNL     1      21.961   8.653  10.988  1.00  0.00     0.000 C 
ENDROOT
BRANCH   1   2
ATOM      2  C   UNL     1      23.054   7.616  11.287  1.00  0.00     0.000 C 
BRANCH   2   3
ATOM      3  C   UNL     1      22.750   6.857  12.584  1.00  0.00     0.000 C 
BRANCH   3   4
ATOM      4  C   UNL     1      24.016   6.186  13.139  1.00  0.00     0.006 C 
BRANCH   4   5
ATOM      5  C   UNL     1      23.740   4.775  13.674  1.00  0.00     0.053 C 
BRANCH   5   6
ATOM      6  C   UNL     1      24.819   3.811  13.286  1.00  0.00     0.041 C 
ATOM      7  O   UNL     1      25.691   4.144  12.441  1.00  0.00    -0.550 OA
ATOM      8  O   UNL     1      24.882   2.558  13.884  1.00  0.00    -0.550 OA
ENDBRANCH   5   6
ENDBRANCH   4   5
ENDBRANCH   3   4
ENDBRANCH   2   3
ENDBRANCH   1   2
BRANCH   1   9
ATOM      9  C   UNL     1      20.657   8.396  11.764  1.00  0.00     0.000 C 
BRANCH   9  10
ATOM     10  C   UNL     1      19.445   8.010  10.896  1.00  0.00    -0.000 C 
BRANCH  10  11
ATOM     11  C   UNL     1      19.553   6.593  10.309  1.00  0.00    -0.000 C 
BRANCH  11  12
ATOM     12  C   UNL     1      19.773   6.600   8.788  1.00  0.00    -0.000 C 
BRANCH  12  13
ATOM     13  C   UNL     1      19.927   8.018   8.218  1.00  0.00    -0.003 C 
ATOM     14  C   UNL     1      19.155   8.170   6.911  1.00  0.00     0.004 C 
ENDBRANCH  12  13
ENDBRANCH  11  12
ENDBRANCH  10  11
ENDBRANCH   9  10
ENDBRANCH   1   9
TORSDOF 10
ENDMDL
MODEL 8
REMARK VINA RESULT:    -4.544      2.341      4.924
REMARK INTER + INTRA:          -8.026
REMARK INTER:                  -6.610
REMARK INTRA:                  -1.416
REMARK UNBOUND:                -0.826
REMARK SMILES CCCCCCCCCCCC(=O)[O-]
REMARK SMILES IDX 7 1 8 2 9 3 10 4 11 5 12 6 13 7 14 8 6 9 5 10 4 11 3 12 2 13
REMARK SMILES IDX 1 14
REMARK H PARENT
REMARK Flexibility Score: inf
ROOT
ATOM      1  C   UNL     1      22.935   7.241  12.885  1.00  0.00     0.000 C 
ENDROOT
BRANCH   1   2
ATOM      2  C   UNL     1      21.780   7.077  11.886  1.00  0.00     0.000 C 
BRANCH   2   3
ATOM      3  C   UNL     1      20.906   8.335  11.844  1.00  0.00     0.000 C 
BRANCH   3   4
ATOM      4  C   UNL     1      19.716   8.148  10.890  1.00  0.00     0.006 C 
BRANCH   4   5
ATOM      5  C   UNL     1      20.147   8.154   9.417  1.00  0.00     0.053 C 
BRANCH   5   6
ATOM      6  C   UNL     1      19.534   7.019   8.654  1.00  0.00     0.041 C 
ATOM      7  O   UNL     1      19.308   7.135   7.420  1.00  0.00    -0.550 OA
ATOM      8  O   UNL     1      19.243   5.823   9.298  1.00  0.00    -0.550 OA
ENDBRANCH   5   6
ENDBRANCH   4   5
ENDBRANCH   3   4
ENDBRANCH   2   3
ENDBRANCH   1   2
BRANCH   1   9
ATOM      9  C   UNL     1      22.977   8.638  13.531  1.00  0.00     0.000 C 
BRANCH   9  10
ATOM     10  C   UNL     1      24.292   9.413  13.328  1.00  0.00    -0.000 C 
BRANCH  10  11
ATOM     11  C   UNL     1      24.898   9.210  11.929  1.00  0.00    -0.000 C 
BRANCH  11  12
ATOM     12  C   UNL     1      24.131   9.974  10.838  1.00  0.00    -0.000 C 
BRANCH  12  13
ATOM     13  C   UNL     1      23.814   9.102   9.615  1.00  0.00    -0.003 C 
ATOM     14  C   UNL     1      24.663   7.834   9.610  1.00  0.00     0.004 C 
ENDBRANCH  12  13
ENDBRANCH  11  12
ENDBRANCH  10  11
ENDBRANCH   9  10
ENDBRANCH   1   9
TORSDOF 10
ENDMDL
MODEL 9
REMARK VINA RESULT:    -4.384      2.217      3.060
REMARK INTER + INTRA:          -7.773
REMARK INTER:                  -6.704
REMARK INTRA:                  -1.069
REMARK UNBOUND:                -0.826
REMARK SMILES CCCCCCCCCCCC(=O)[O-]
REMARK SMILES IDX 7 1 8 2 9 3 10 4 11 5 12 6 13 7 14 8 6 9 5 10 4 11 3 12 2 13
REMARK SMILES IDX 1 14
REMARK H PARENT
REMARK Flexibility Score: inf
ROOT
ATOM      1  C   UNL     1      23.479   9.075   9.745  1.00  0.00     0.000 C 
ENDROOT
BRANCH   1   2
ATOM      2  C   UNL     1      23.904   7.611   9.933  1.00  0.00     0.000 C 
BRANCH   2   3
ATOM      3  C   UNL     1      25.150   7.510  10.820  1.00  0.00     0.000 C 
BRANCH   3   4
ATOM      4  C   UNL     1      24.926   6.521  11.974  1.00  0.00     0.006 C 
BRANCH   4   5
ATOM      5  C   UNL     1      23.591   6.758  12.691  1.00  0.00     0.053 C 
BRANCH   5   6
ATOM      6  C   UNL     1      23.679   7.884  13.675  1.00  0.00     0.041 C 
ATOM      7  O   UNL     1      22.833   8.816  13.649  1.00  0.00    -0.550 OA
ATOM      8  O   UNL     1      24.677   7.887  14.643  1.00  0.00    -0.550 OA
ENDBRANCH   5   6
ENDBRANCH   4   5
ENDBRANCH   3   4
ENDBRANCH   2   3
ENDBRANCH   1   2
BRANCH   1   9
ATOM      9  C   UNL     1      21.955   9.248   9.608  1.00  0.00     0.000 C 
BRANCH   9  10
ATOM     10  C   UNL     1      21.121   8.607  10.733  1.00  0.00    -0.000 C 
BRANCH  10  11
ATOM     11  C   UNL     1      20.145   7.535  10.220  1.00  0.00    -0.000 C 
BRANCH  11  12
ATOM     12  C   UNL     1      20.496   7.046   8.806  1.00  0.00    -0.000 C 
BRANCH  12  13
ATOM     13  C   UNL     1      19.318   7.163   7.828  1.00  0.00    -0.003 C 
ATOM     14  C   UNL     1      19.537   8.304   6.839  1.00  0.00     0.004 C 
ENDBRANCH  12  13
ENDBRANCH  11  12
ENDBRANCH  10  11
ENDBRANCH   9  10
ENDBRANCH   1   9
TORSDOF 10
ENDMDL
