MODEL 1
REMARK VINA RESULT:    -5.581      0.000      0.000
REMARK INTER + INTRA:         -15.444
REMARK INTER:                 -12.759
REMARK INTRA:                  -2.685
REMARK UNBOUND:                -2.685
REMARK SMILES CCCCCCCCCCCCCCCCCCCCCCCC(=O)[O-]
REMARK SMILES IDX 13 1 14 2 15 3 16 4 17 5 18 6 19 7 20 8 21 9 22 10 23 11
REMARK SMILES IDX 24 12 25 13 26 14 12 15 11 16 10 17 9 18 8 19 7 20 6 21 5 22
REMARK SMILES IDX 4 23 3 24 2 25 1 26
REMARK H PARENT
REMARK Flexibility Score: inf
ROOT
ATOM      1  C   UNL     1       4.336  -0.053  37.619  1.00  0.00     0.000 C 
ENDROOT
BRANCH   1   2
ATOM      2  C   UNL     1       2.812   0.162  37.513  1.00  0.00     0.000 C 
BRANCH   2   3
ATOM      3  C   UNL     1       1.974  -0.879  38.286  1.00  0.00     0.000 C 
BRANCH   3   4
ATOM      4  C   UNL     1       2.522  -1.138  39.701  1.00  0.00     0.000 C 
BRANCH   4   5
ATOM      5  C   UNL     1       2.455  -2.621  40.097  1.00  0.00     0.000 C 
BRANCH   5   6
ATOM      6  C   UNL     1       2.105  -3.534  38.912  1.00  0.00     0.000 C 
BRANCH   6   7
ATOM      7  C   UNL     1       2.901  -4.845  38.982  1.00  0.00     0.000 C 
BRANCH   7   8
ATOM      8  C   UNL     1       3.800  -5.059  37.754  1.00  0.00     0.000 C 
BRANCH   8   9
ATOM      9  C   UNL     1       4.615  -3.808  37.391  1.00  0.00     0.000 C 
BRANCH   9  10
ATOM     10  C   UNL     1       4.339  -3.375  35.946  1.00  0.00     0.006 C 
BRANCH  10  11
ATOM     11  C   UNL     1       4.472  -4.556  34.981  1.00  0.00     0.053 C 
BRANCH  11  12
ATOM     12  C   UNL     1       5.903  -4.762  34.598  1.00  0.00     0.041 C 
ATOM     13  O   UNL     1       6.439  -5.894  34.733  1.00  0.00    -0.550 OA
ATOM     14  O   UNL     1       6.628  -3.721  34.028  1.00  0.00    -0.550 OA
ENDBRANCH  11  12
ENDBRANCH  10  11
ENDBRANCH   9  10
ENDBRANCH   8   9
ENDBRANCH   7   8
ENDBRANCH   6   7
ENDBRANCH   5   6
ENDBRANCH   4   5
ENDBRANCH   3   4
ENDBRANCH   2   3
ENDBRANCH   1   2
BRANCH   1  15
ATOM     15  C   UNL     1       5.138   0.328  36.363  1.00  0.00     0.000 C 
BRANCH  15  16
ATOM     16  C   UNL     1       6.295  -0.642  36.073  1.00  0.00     0.000 C 
BRANCH  16  17
ATOM     17  C   UNL     1       7.459   0.089  35.391  1.00  0.00     0.000 C 
BRANCH  17  18
ATOM     18  C   UNL     1       8.199   1.044  36.343  1.00  0.00    -0.000 C 
BRANCH  18  19
ATOM     19  C   UNL     1       9.410   1.719  35.670  1.00  0.00    -0.000 C 
BRANCH  19  20
ATOM     20  C   UNL     1       9.282   1.769  34.138  1.00  0.00    -0.000 C 
BRANCH  20  21
ATOM     21  C   UNL     1      10.426   1.035  33.423  1.00  0.00    -0.000 C 
BRANCH  21  22
ATOM     22  C   UNL     1      11.340   0.326  34.435  1.00  0.00    -0.000 C 
BRANCH  22  23
ATOM     23  C   UNL     1      12.747   0.941  34.497  1.00  0.00    -0.000 C 
BRANCH  23  24
ATOM     24  C   UNL     1      13.079   1.519  35.884  1.00  0.00    -0.000 C 
BRANCH  24  25
ATOM     25  C   UNL     1      13.498   2.997  35.818  1.00  0.00    -0.003 C 
ATOM     26  C   UNL     1      12.320   3.933  35.551  1.00  0.00     0.004 C 
ENDBRANCH  24  25
ENDBRANCH  23  24
ENDBRANCH  22  23
ENDBRANCH  21  22
ENDBRANCH  20  21
ENDBRANCH  19  20
ENDBRANCH  18  19
ENDBRANCH  17  18
ENDBRANCH  16  17
ENDBRANCH  15  16
ENDBRANCH   1  15
TORSDOF 22
ENDMDL
MODEL 2
REMARK VINA RESULT:    -5.523      3.118      8.585
REMARK INTER + INTRA:         -15.312
REMARK INTER:                 -12.765
REMARK INTRA:                  -2.547
REMARK UNBOUND:                -2.685
REMARK SMILES CCCCCCCCCCCCCCCCCCCCCCCC(=O)[O-]
REMARK SMILES IDX 13 1 14 2 15 3 16 4 17 5 18 6 19 7 20 8 21 9 22 10 23 11
REMARK SMILES IDX 24 12 25 13 26 14 12 15 11 16 10 17 9 18 8 19 7 20 6 21 5 22
REMARK SMILES IDX 4 23 3 24 2 25 1 26
REMARK H PARENT
REMARK Flexibility Score: inf
ROOT
ATOM      1  C   UNL     1       3.390   0.267  37.407  1.00  0.00     0.000 C 
ENDROOT
BRANCH   1   2
ATOM      2  C   UNL     1       4.785   0.183  36.755  1.00  0.00     0.000 C 
BRANCH   2   3
ATOM      3  C   UNL     1       5.237  -1.254  36.416  1.00  0.00     0.000 C 
BRANCH   3   4
ATOM      4  C   UNL     1       6.730  -1.327  36.052  1.00  0.00     0.000 C 
BRANCH   4   5
ATOM      5  C   UNL     1       7.308   0.040  35.652  1.00  0.00     0.000 C 
BRANCH   5   6
ATOM      6  C   UNL     1       8.827  -0.004  35.426  1.00  0.00     0.000 C 
BRANCH   6   7
ATOM      7  C   UNL     1       9.150  -0.119  33.929  1.00  0.00     0.000 C 
BRANCH   7   8
ATOM      8  C   UNL     1      10.638   0.117  33.625  1.00  0.00     0.000 C 
BRANCH   8   9
ATOM      9  C   UNL     1      11.403   0.698  34.824  1.00  0.00     0.000 C 
BRANCH   9  10
ATOM     10  C   UNL     1      12.918   0.607  34.603  1.00  0.00     0.006 C 
BRANCH  10  11
ATOM     11  C   UNL     1      13.464   1.898  33.986  1.00  0.00     0.053 C 
BRANCH  11  12
ATOM     12  C   UNL     1      13.055   3.083  34.802  1.00  0.00     0.041 C 
ATOM     13  O   UNL     1      13.516   3.243  35.963  1.00  0.00    -0.550 OA
ATOM     14  O   UNL     1      12.216   4.048  34.256  1.00  0.00    -0.550 OA
ENDBRANCH  11  12
ENDBRANCH  10  11
ENDBRANCH   9  10
ENDBRANCH   8   9
ENDBRANCH   7   8
ENDBRANCH   6   7
ENDBRANCH   5   6
ENDBRANCH   4   5
ENDBRANCH   3   4
ENDBRANCH   2   3
ENDBRANCH   1   2
BRANCH   1  15
ATOM     15  C   UNL     1       3.368   0.071  38.932  1.00  0.00     0.000 C 
BRANCH  15  16
ATOM     16  C   UNL     1       2.648  -1.217  39.361  1.00  0.00     0.000 C 
BRANCH  16  17
ATOM     17  C   UNL     1       1.981  -1.894  38.156  1.00  0.00     0.000 C 
BRANCH  17  18
ATOM     18  C   UNL     1       2.144  -3.424  38.170  1.00  0.00    -0.000 C 
BRANCH  18  19
ATOM     19  C   UNL     1       3.589  -3.855  38.486  1.00  0.00    -0.000 C 
BRANCH  19  20
ATOM     20  C   UNL     1       4.256  -4.589  37.310  1.00  0.00    -0.000 C 
BRANCH  20  21
ATOM     21  C   UNL     1       3.398  -4.572  36.036  1.00  0.00    -0.000 C 
BRANCH  21  22
ATOM     22  C   UNL     1       4.280  -4.458  34.783  1.00  0.00    -0.000 C 
BRANCH  22  23
ATOM     23  C   UNL     1       5.774  -4.651  35.089  1.00  0.00    -0.000 C 
BRANCH  23  24
ATOM     24  C   UNL     1       6.369  -5.877  34.374  1.00  0.00    -0.000 C 
BRANCH  24  25
ATOM     25  C   UNL     1       7.019  -6.869  35.353  1.00  0.00    -0.003 C 
ATOM     26  C   UNL     1       5.992  -7.622  36.199  1.00  0.00     0.004 C 
ENDBRANCH  24  25
ENDBRANCH  23  24
ENDBRANCH  22  23
ENDBRANCH  21  22
ENDBRANCH  20  21
ENDBRANCH  19  20
ENDBRANCH  18  19
ENDBRANCH  17  18
ENDBRANCH  16  17
ENDBRANCH  15  16
ENDBRANCH   1  15
TORSDOF 22
ENDMDL
MODEL 3
REMARK VINA RESULT:    -5.392      3.203      9.617
REMARK INTER + INTRA:         -15.011
REMARK INTER:                 -12.525
REMARK INTRA:                  -2.487
REMARK UNBOUND:                -2.685
REMARK SMILES CCCCCCCCCCCCCCCCCCCCCCCC(=O)[O-]
REMARK SMILES IDX 13 1 14 2 15 3 16 4 17 5 18 6 19 7 20 8 21 9 22 10 23 11
REMARK SMILES IDX 24 12 25 13 26 14 12 15 11 16 10 17 9 18 8 19 7 20 6 21 5 22
REMARK SMILES IDX 4 23 3 24 2 25 1 26
REMARK H PARENT
REMARK Flexibility Score: inf
ROOT
ATOM      1  C   UNL     1       3.607   0.015  37.768  1.00  0.00     0.000 C 
ENDROOT
BRANCH   1   2
ATOM      2  C   UNL     1       4.779   0.001  36.766  1.00  0.00     0.000 C 
BRANCH   2   3
ATOM      3  C   UNL     1       5.279  -1.413  36.401  1.00  0.00     0.000 C 
BRANCH   3   4
ATOM      4  C   UNL     1       6.743  -1.412  35.925  1.00  0.00     0.000 C 
BRANCH   4   5
ATOM      5  C   UNL     1       7.270   0.004  35.644  1.00  0.00     0.000 C 
BRANCH   5   6
ATOM      6  C   UNL     1       8.739   0.009  35.194  1.00  0.00     0.000 C 
BRANCH   6   7
ATOM      7  C   UNL     1       8.985   1.107  34.149  1.00  0.00     0.000 C 
BRANCH   7   8
ATOM      8  C   UNL     1      10.402   1.054  33.556  1.00  0.00     0.000 C 
BRANCH   8   9
ATOM      9  C   UNL     1      11.309   0.046  34.279  1.00  0.00     0.000 C 
BRANCH   9  10
ATOM     10  C   UNL     1      12.753   0.560  34.346  1.00  0.00     0.006 C 
BRANCH  10  11
ATOM     11  C   UNL     1      12.973   1.424  35.590  1.00  0.00     0.053 C 
BRANCH  11  12
ATOM     12  C   UNL     1      13.141   2.861  35.208  1.00  0.00     0.041 C 
ATOM     13  O   UNL     1      12.966   3.768  36.063  1.00  0.00    -0.550 OA
ATOM     14  O   UNL     1      13.558   3.195  33.925  1.00  0.00    -0.550 OA
ENDBRANCH  11  12
ENDBRANCH  10  11
ENDBRANCH   9  10
ENDBRANCH   8   9
ENDBRANCH   7   8
ENDBRANCH   6   7
ENDBRANCH   5   6
ENDBRANCH   4   5
ENDBRANCH   3   4
ENDBRANCH   2   3
ENDBRANCH   1   2
BRANCH   1  15
ATOM     15  C   UNL     1       2.821  -1.303  37.874  1.00  0.00     0.000 C 
BRANCH  15  16
ATOM     16  C   UNL     1       1.852  -1.329  39.066  1.00  0.00     0.000 C 
BRANCH  16  17
ATOM     17  C   UNL     1       2.622  -1.389  40.393  1.00  0.00     0.000 C 
BRANCH  17  18
ATOM     18  C   UNL     1       1.882  -2.196  41.473  1.00  0.00    -0.000 C 
BRANCH  18  19
ATOM     19  C   UNL     1       0.364  -2.262  41.216  1.00  0.00    -0.000 C 
BRANCH  19  20
ATOM     20  C   UNL     1      -0.171  -3.704  41.208  1.00  0.00    -0.000 C 
BRANCH  20  21
ATOM     21  C   UNL     1       0.895  -4.731  40.800  1.00  0.00    -0.000 C 
BRANCH  21  22
ATOM     22  C   UNL     1       0.935  -4.903  39.274  1.00  0.00    -0.000 C 
BRANCH  22  23
ATOM     23  C   UNL     1       2.178  -5.670  38.795  1.00  0.00    -0.000 C 
BRANCH  23  24
ATOM     24  C   UNL     1       3.425  -4.775  38.703  1.00  0.00    -0.000 C 
BRANCH  24  25
ATOM     25  C   UNL     1       4.061  -4.797  37.303  1.00  0.00    -0.003 C 
ATOM     26  C   UNL     1       3.045  -4.544  36.190  1.00  0.00     0.004 C 
ENDBRANCH  24  25
ENDBRANCH  23  24
ENDBRANCH  22  23
ENDBRANCH  21  22
ENDBRANCH  20  21
ENDBRANCH  19  20
ENDBRANCH  18  19
ENDBRANCH  17  18
ENDBRANCH  16  17
ENDBRANCH  15  16
ENDBRANCH   1  15
TORSDOF 22
ENDMDL
MODEL 4
REMARK VINA RESULT:    -5.365      2.754      8.956
REMARK INTER + INTRA:         -14.949
REMARK INTER:                 -12.218
REMARK INTRA:                  -2.731
REMARK UNBOUND:                -2.685
REMARK SMILES CCCCCCCCCCCCCCCCCCCCCCCC(=O)[O-]
REMARK SMILES IDX 13 1 14 2 15 3 16 4 17 5 18 6 19 7 20 8 21 9 22 10 23 11
REMARK SMILES IDX 24 12 25 13 26 14 12 15 11 16 10 17 9 18 8 19 7 20 6 21 5 22
REMARK SMILES IDX 4 23 3 24 2 25 1 26
REMARK H PARENT
REMARK Flexibility Score: inf
ROOT
ATOM      1  C   UNL     1       4.063  -4.129  37.995  1.00  0.00     0.000 C 
ENDROOT
BRANCH   1   2
ATOM      2  C   UNL     1       4.322  -3.164  36.819  1.00  0.00     0.000 C 
BRANCH   2   3
ATOM      3  C   UNL     1       4.910  -3.844  35.564  1.00  0.00     0.000 C 
BRANCH   3   4
ATOM      4  C   UNL     1       6.353  -3.395  35.276  1.00  0.00     0.000 C 
BRANCH   4   5
ATOM      5  C   UNL     1       6.707  -2.068  35.967  1.00  0.00     0.000 C 
BRANCH   5   6
ATOM      6  C   UNL     1       7.481  -1.111  35.047  1.00  0.00     0.000 C 
BRANCH   6   7
ATOM      7  C   UNL     1       7.850   0.180  35.793  1.00  0.00     0.000 C 
BRANCH   7   8
ATOM      8  C   UNL     1       8.953   0.980  35.081  1.00  0.00     0.000 C 
BRANCH   8   9
ATOM      9  C   UNL     1       9.610   0.193  33.937  1.00  0.00     0.000 C 
BRANCH   9  10
ATOM     10  C   UNL     1      11.131   0.123  34.123  1.00  0.00     0.006 C 
BRANCH  10  11
ATOM     11  C   UNL     1      11.767   1.510  33.994  1.00  0.00     0.053 C 
BRANCH  11  12
ATOM     12  C   UNL     1      12.546   1.846  35.226  1.00  0.00     0.041 C 
ATOM     13  O   UNL     1      12.440   1.132  36.258  1.00  0.00    -0.550 OA
ATOM     14  O   UNL     1      13.442   2.908  35.214  1.00  0.00    -0.550 OA
ENDBRANCH  11  12
ENDBRANCH  10  11
ENDBRANCH   9  10
ENDBRANCH   8   9
ENDBRANCH   7   8
ENDBRANCH   6   7
ENDBRANCH   5   6
ENDBRANCH   4   5
ENDBRANCH   3   4
ENDBRANCH   2   3
ENDBRANCH   1   2
BRANCH   1  15
ATOM     15  C   UNL     1       2.633  -4.689  38.078  1.00  0.00     0.000 C 
BRANCH  15  16
ATOM     16  C   UNL     1       2.491  -5.821  39.107  1.00  0.00     0.000 C 
BRANCH  16  17
ATOM     17  C   UNL     1       1.019  -6.027  39.489  1.00  0.00     0.000 C 
BRANCH  17  18
ATOM     18  C   UNL     1       0.303  -4.707  39.823  1.00  0.00    -0.000 C 
BRANCH  18  19
ATOM     19  C   UNL     1       0.609  -4.221  41.253  1.00  0.00    -0.000 C 
BRANCH  19  20
ATOM     20  C   UNL     1       0.827  -2.700  41.326  1.00  0.00    -0.000 C 
BRANCH  20  21
ATOM     21  C   UNL     1       2.312  -2.311  41.291  1.00  0.00    -0.000 C 
BRANCH  21  22
ATOM     22  C   UNL     1       2.572  -1.236  40.224  1.00  0.00    -0.000 C 
BRANCH  22  23
ATOM     23  C   UNL     1       1.662  -1.388  38.994  1.00  0.00    -0.000 C 
BRANCH  23  24
ATOM     24  C   UNL     1       1.981  -0.362  37.893  1.00  0.00    -0.000 C 
BRANCH  24  25
ATOM     25  C   UNL     1       3.386   0.243  38.045  1.00  0.00    -0.003 C 
ATOM     26  C   UNL     1       4.146   0.311  36.721  1.00  0.00     0.004 C 
ENDBRANCH  24  25
ENDBRANCH  23  24
ENDBRANCH  22  23
ENDBRANCH  21  22
ENDBRANCH  20  21
ENDBRANCH  19  20
ENDBRANCH  18  19
ENDBRANCH  17  18
ENDBRANCH  16  17
ENDBRANCH  15  16
ENDBRANCH   1  15
TORSDOF 22
ENDMDL
MODEL 5
REMARK VINA RESULT:    -5.359      1.425      2.354
REMARK INTER + INTRA:         -14.937
REMARK INTER:                 -12.958
REMARK INTRA:                  -1.979
REMARK UNBOUND:                -2.685
REMARK SMILES CCCCCCCCCCCCCCCCCCCCCCCC(=O)[O-]
REMARK SMILES IDX 13 1 14 2 15 3 16 4 17 5 18 6 19 7 20 8 21 9 22 10 23 11
REMARK SMILES IDX 24 12 25 13 26 14 12 15 11 16 10 17 9 18 8 19 7 20 6 21 5 22
REMARK SMILES IDX 4 23 3 24 2 25 1 26
REMARK H PARENT
REMARK Flexibility Score: inf
ROOT
ATOM      1  C   UNL     1       5.735   0.383  36.373  1.00  0.00     0.000 C 
ENDROOT
BRANCH   1   2
ATOM      2  C   UNL     1       4.509  -0.466  36.766  1.00  0.00     0.000 C 
BRANCH   2   3
ATOM      3  C   UNL     1       3.384   0.333  37.459  1.00  0.00     0.000 C 
BRANCH   3   4
ATOM      4  C   UNL     1       3.366   0.118  38.982  1.00  0.00     0.000 C 
BRANCH   4   5
ATOM      5  C   UNL     1       2.686  -1.200  39.385  1.00  0.00     0.000 C 
BRANCH   5   6
ATOM      6  C   UNL     1       1.720  -1.719  38.308  1.00  0.00     0.000 C 
BRANCH   6   7
ATOM      7  C   UNL     1       2.120  -3.129  37.851  1.00  0.00     0.000 C 
BRANCH   7   8
ATOM      8  C   UNL     1       3.519  -3.535  38.341  1.00  0.00     0.000 C 
BRANCH   8   9
ATOM      9  C   UNL     1       4.251  -4.451  37.348  1.00  0.00     0.000 C 
BRANCH   9  10
ATOM     10  C   UNL     1       4.681  -3.671  36.099  1.00  0.00     0.006 C 
BRANCH  10  11
ATOM     11  C   UNL     1       6.086  -4.081  35.649  1.00  0.00     0.053 C 
BRANCH  11  12
ATOM     12  C   UNL     1       6.078  -5.476  35.109  1.00  0.00     0.041 C 
ATOM     13  O   UNL     1       6.809  -6.361  35.627  1.00  0.00    -0.550 OA
ATOM     14  O   UNL     1       5.213  -5.817  34.075  1.00  0.00    -0.550 OA
ENDBRANCH  11  12
ENDBRANCH  10  11
ENDBRANCH   9  10
ENDBRANCH   8   9
ENDBRANCH   7   8
ENDBRANCH   6   7
ENDBRANCH   5   6
ENDBRANCH   4   5
ENDBRANCH   3   4
ENDBRANCH   2   3
ENDBRANCH   1   2
BRANCH   1  15
ATOM     15  C   UNL     1       6.941  -0.413  35.848  1.00  0.00     0.000 C 
BRANCH  15  16
ATOM     16  C   UNL     1       8.033   0.482  35.241  1.00  0.00     0.000 C 
BRANCH  16  17
ATOM     17  C   UNL     1       8.759   1.273  36.338  1.00  0.00     0.000 C 
BRANCH  17  18
ATOM     18  C   UNL     1      10.289   1.142  36.250  1.00  0.00    -0.000 C 
BRANCH  18  19
ATOM     19  C   UNL     1      10.773   0.900  34.807  1.00  0.00    -0.000 C 
BRANCH  19  20
ATOM     20  C   UNL     1      12.305   0.798  34.707  1.00  0.00    -0.000 C 
BRANCH  20  21
ATOM     21  C   UNL     1      13.027   1.713  35.708  1.00  0.00    -0.000 C 
BRANCH  21  22
ATOM     22  C   UNL     1      13.474   3.019  35.032  1.00  0.00    -0.000 C 
BRANCH  22  23
ATOM     23  C   UNL     1      13.659   2.868  33.513  1.00  0.00    -0.000 C 
BRANCH  23  24
ATOM     24  C   UNL     1      13.132   4.083  32.731  1.00  0.00    -0.000 C 
BRANCH  24  25
ATOM     25  C   UNL     1      11.780   4.583  33.267  1.00  0.00    -0.003 C 
ATOM     26  C   UNL     1      11.313   5.867  32.582  1.00  0.00     0.004 C 
ENDBRANCH  24  25
ENDBRANCH  23  24
ENDBRANCH  22  23
ENDBRANCH  21  22
ENDBRANCH  20  21
ENDBRANCH  19  20
ENDBRANCH  18  19
ENDBRANCH  17  18
ENDBRANCH  16  17
ENDBRANCH  15  16
ENDBRANCH   1  15
TORSDOF 22
ENDMDL
MODEL 6
REMARK VINA RESULT:    -5.354      2.795      8.017
REMARK INTER + INTRA:         -14.926
REMARK INTER:                 -12.201
REMARK INTRA:                  -2.725
REMARK UNBOUND:                -2.685
REMARK SMILES CCCCCCCCCCCCCCCCCCCCCCCC(=O)[O-]
REMARK SMILES IDX 13 1 14 2 15 3 16 4 17 5 18 6 19 7 20 8 21 9 22 10 23 11
REMARK SMILES IDX 24 12 25 13 26 14 12 15 11 16 10 17 9 18 8 19 7 20 6 21 5 22
REMARK SMILES IDX 4 23 3 24 2 25 1 26
REMARK H PARENT
REMARK Flexibility Score: inf
ROOT
ATOM      1  C   UNL     1       1.565  -1.815  38.423  1.00  0.00     0.000 C 
ENDROOT
BRANCH   1   2
ATOM      2  C   UNL     1       1.904  -0.385  37.958  1.00  0.00     0.000 C 
BRANCH   2   3
ATOM      3  C   UNL     1       3.386   0.007  38.150  1.00  0.00     0.000 C 
BRANCH   3   4
ATOM      4  C   UNL     1       4.048   0.453  36.835  1.00  0.00     0.000 C 
BRANCH   4   5
ATOM      5  C   UNL     1       5.250  -0.426  36.451  1.00  0.00     0.000 C 
BRANCH   5   6
ATOM      6  C   UNL     1       6.525   0.394  36.201  1.00  0.00     0.000 C 
BRANCH   6   7
ATOM      7  C   UNL     1       7.635  -0.492  35.618  1.00  0.00     0.000 C 
BRANCH   7   8
ATOM      8  C   UNL     1       8.971   0.254  35.470  1.00  0.00     0.000 C 
BRANCH   8   9
ATOM      9  C   UNL     1       8.918   1.358  34.403  1.00  0.00     0.000 C 
BRANCH   9  10
ATOM     10  C   UNL     1      10.260   2.093  34.308  1.00  0.00     0.006 C 
BRANCH  10  11
ATOM     11  C   UNL     1      11.398   1.123  33.976  1.00  0.00     0.053 C 
BRANCH  11  12
ATOM     12  C   UNL     1      12.636   1.489  34.731  1.00  0.00     0.041 C 
ATOM     13  O   UNL     1      13.524   2.198  34.187  1.00  0.00    -0.550 OA
ATOM     14  O   UNL     1      12.782   1.103  36.058  1.00  0.00    -0.550 OA
ENDBRANCH  11  12
ENDBRANCH  10  11
ENDBRANCH   9  10
ENDBRANCH   8   9
ENDBRANCH   7   8
ENDBRANCH   6   7
ENDBRANCH   5   6
ENDBRANCH   4   5
ENDBRANCH   3   4
ENDBRANCH   2   3
ENDBRANCH   1   2
BRANCH   1  15
ATOM     15  C   UNL     1       2.674  -2.524  39.218  1.00  0.00     0.000 C 
BRANCH  15  16
ATOM     16  C   UNL     1       3.127  -3.843  38.572  1.00  0.00     0.000 C 
BRANCH  16  17
ATOM     17  C   UNL     1       4.503  -3.680  37.911  1.00  0.00     0.000 C 
BRANCH  17  18
ATOM     18  C   UNL     1       4.486  -4.026  36.413  1.00  0.00    -0.000 C 
BRANCH  18  19
ATOM     19  C   UNL     1       5.903  -4.097  35.813  1.00  0.00    -0.000 C 
BRANCH  19  20
ATOM     20  C   UNL     1       5.891  -4.179  34.277  1.00  0.00    -0.000 C 
BRANCH  20  21
ATOM     21  C   UNL     1       6.105  -5.608  33.757  1.00  0.00    -0.000 C 
BRANCH  21  22
ATOM     22  C   UNL     1       7.098  -6.372  34.647  1.00  0.00    -0.000 C 
BRANCH  22  23
ATOM     23  C   UNL     1       6.580  -7.759  35.059  1.00  0.00    -0.000 C 
BRANCH  23  24
ATOM     24  C   UNL     1       5.143  -7.713  35.607  1.00  0.00    -0.000 C 
BRANCH  24  25
ATOM     25  C   UNL     1       5.102  -7.637  37.142  1.00  0.00    -0.003 C 
ATOM     26  C   UNL     1       3.688  -7.440  37.686  1.00  0.00     0.004 C 
ENDBRANCH  24  25
ENDBRANCH  23  24
ENDBRANCH  22  23
ENDBRANCH  21  22
ENDBRANCH  20  21
ENDBRANCH  19  20
ENDBRANCH  18  19
ENDBRANCH  17  18
ENDBRANCH  16  17
ENDBRANCH  15  16
ENDBRANCH   1  15
TORSDOF 22
ENDMDL
MODEL 7
REMARK VINA RESULT:    -5.322      2.715      4.345
REMARK INTER + INTRA:         -14.851
REMARK INTER:                 -12.252
REMARK INTRA:                  -2.599
REMARK UNBOUND:                -2.685
REMARK SMILES CCCCCCCCCCCCCCCCCCCCCCCC(=O)[O-]
REMARK SMILES IDX 13 1 14 2 15 3 16 4 17 5 18 6 19 7 20 8 21 9 22 10 23 11
REMARK SMILES IDX 24 12 25 13 26 14 12 15 11 16 10 17 9 18 8 19 7 20 6 21 5 22
REMARK SMILES IDX 4 23 3 24 2 25 1 26
REMARK H PARENT
REMARK Flexibility Score: inf
ROOT
ATOM      1  C   UNL     1       6.604  -2.516  36.223  1.00  0.00     0.000 C 
ENDROOT
BRANCH   1   2
ATOM      2  C   UNL     1       6.278  -3.924  35.688  1.00  0.00     0.000 C 
BRANCH   2   3
ATOM      3  C   UNL     1       6.207  -4.013  34.148  1.00  0.00     0.000 C 
BRANCH   3   4
ATOM      4  C   UNL     1       4.961  -4.773  33.662  1.00  0.00     0.000 C 
BRANCH   4   5
ATOM      5  C   UNL     1       3.709  -4.445  34.491  1.00  0.00     0.000 C 
BRANCH   5   6
ATOM      6  C   UNL     1       3.308  -5.590  35.434  1.00  0.00     0.000 C 
BRANCH   6   7
ATOM      7  C   UNL     1       2.675  -5.040  36.720  1.00  0.00     0.000 C 
BRANCH   7   8
ATOM      8  C   UNL     1       3.630  -5.100  37.922  1.00  0.00     0.000 C 
BRANCH   8   9
ATOM      9  C   UNL     1       3.517  -3.865  38.830  1.00  0.00     0.000 C 
BRANCH   9  10
ATOM     10  C   UNL     1       2.565  -2.826  38.225  1.00  0.00     0.006 C 
BRANCH  10  11
ATOM     11  C   UNL     1       2.741  -1.460  38.894  1.00  0.00     0.053 C 
BRANCH  11  12
ATOM     12  C   UNL     1       2.076  -1.442  40.234  1.00  0.00     0.041 C 
ATOM     13  O   UNL     1       0.934  -1.951  40.381  1.00  0.00    -0.550 OA
ATOM     14  O   UNL     1       2.745  -0.923  41.336  1.00  0.00    -0.550 OA
ENDBRANCH  11  12
ENDBRANCH  10  11
ENDBRANCH   9  10
ENDBRANCH   8   9
ENDBRANCH   7   8
ENDBRANCH   6   7
ENDBRANCH   5   6
ENDBRANCH   4   5
ENDBRANCH   3   4
ENDBRANCH   2   3
ENDBRANCH   1   2
BRANCH   1  15
ATOM     15  C   UNL     1       5.403  -1.562  36.332  1.00  0.00     0.000 C 
BRANCH  15  16
ATOM     16  C   UNL     1       5.807  -0.080  36.289  1.00  0.00     0.000 C 
BRANCH  16  17
ATOM     17  C   UNL     1       7.132   0.100  35.537  1.00  0.00     0.000 C 
BRANCH  17  18
ATOM     18  C   UNL     1       8.101   1.049  36.262  1.00  0.00    -0.000 C 
BRANCH  18  19
ATOM     19  C   UNL     1       9.238   1.538  35.343  1.00  0.00    -0.000 C 
BRANCH  19  20
ATOM     20  C   UNL     1       9.876   0.395  34.535  1.00  0.00    -0.000 C 
BRANCH  20  21
ATOM     21  C   UNL     1      11.406   0.511  34.450  1.00  0.00    -0.000 C 
BRANCH  21  22
ATOM     22  C   UNL     1      11.979   1.149  35.724  1.00  0.00    -0.000 C 
BRANCH  22  23
ATOM     23  C   UNL     1      13.080   2.180  35.429  1.00  0.00    -0.000 C 
BRANCH  23  24
ATOM     24  C   UNL     1      12.960   2.785  34.019  1.00  0.00    -0.000 C 
BRANCH  24  25
ATOM     25  C   UNL     1      12.270   4.159  34.028  1.00  0.00    -0.003 C 
ATOM     26  C   UNL     1      11.481   4.431  32.748  1.00  0.00     0.004 C 
ENDBRANCH  24  25
ENDBRANCH  23  24
ENDBRANCH  22  23
ENDBRANCH  21  22
ENDBRANCH  20  21
ENDBRANCH  19  20
ENDBRANCH  18  19
ENDBRANCH  17  18
ENDBRANCH  16  17
ENDBRANCH  15  16
ENDBRANCH   1  15
TORSDOF 22
ENDMDL
MODEL 8
REMARK VINA RESULT:    -5.320      2.817      8.441
REMARK INTER + INTRA:         -14.847
REMARK INTER:                 -12.324
REMARK INTRA:                  -2.523
REMARK UNBOUND:                -2.685
REMARK SMILES CCCCCCCCCCCCCCCCCCCCCCCC(=O)[O-]
REMARK SMILES IDX 13 1 14 2 15 3 16 4 17 5 18 6 19 7 20 8 21 9 22 10 23 11
REMARK SMILES IDX 24 12 25 13 26 14 12 15 11 16 10 17 9 18 8 19 7 20 6 21 5 22
REMARK SMILES IDX 4 23 3 24 2 25 1 26
REMARK H PARENT
REMARK Flexibility Score: inf
ROOT
ATOM      1  C   UNL     1       3.349   0.285  37.818  1.00  0.00     0.000 C 
ENDROOT
BRANCH   1   2
ATOM      2  C   UNL     1       4.509  -0.020  36.849  1.00  0.00     0.000 C 
BRANCH   2   3
ATOM      3  C   UNL     1       4.878  -1.517  36.759  1.00  0.00     0.000 C 
BRANCH   3   4
ATOM      4  C   UNL     1       6.256  -1.742  36.113  1.00  0.00     0.000 C 
BRANCH   4   5
ATOM      5  C   UNL     1       6.900  -0.434  35.625  1.00  0.00     0.000 C 
BRANCH   5   6
ATOM      6  C   UNL     1       8.143  -0.677  34.755  1.00  0.00     0.000 C 
BRANCH   6   7
ATOM      7  C   UNL     1       8.907   0.634  34.521  1.00  0.00     0.000 C 
BRANCH   7   8
ATOM      8  C   UNL     1       8.955   1.524  35.773  1.00  0.00     0.000 C 
BRANCH   8   9
ATOM      9  C   UNL     1      10.118   1.164  36.711  1.00  0.00     0.000 C 
BRANCH   9  10
ATOM     10  C   UNL     1      11.460   1.237  35.972  1.00  0.00     0.006 C 
BRANCH  10  11
ATOM     11  C   UNL     1      11.793   2.678  35.575  1.00  0.00     0.053 C 
BRANCH  11  12
ATOM     12  C   UNL     1      12.177   2.749  34.131  1.00  0.00     0.041 C 
ATOM     13  O   UNL     1      11.321   3.065  33.262  1.00  0.00    -0.550 OA
ATOM     14  O   UNL     1      13.496   2.533  33.750  1.00  0.00    -0.550 OA
ENDBRANCH  11  12
ENDBRANCH  10  11
ENDBRANCH   9  10
ENDBRANCH   8   9
ENDBRANCH   7   8
ENDBRANCH   6   7
ENDBRANCH   5   6
ENDBRANCH   4   5
ENDBRANCH   3   4
ENDBRANCH   2   3
ENDBRANCH   1   2
BRANCH   1  15
ATOM     15  C   UNL     1       2.565  -0.943  38.307  1.00  0.00     0.000 C 
BRANCH  15  16
ATOM     16  C   UNL     1       2.643  -1.138  39.829  1.00  0.00     0.000 C 
BRANCH  16  17
ATOM     17  C   UNL     1       2.735  -2.629  40.183  1.00  0.00     0.000 C 
BRANCH  17  18
ATOM     18  C   UNL     1       2.222  -3.539  39.054  1.00  0.00    -0.000 C 
BRANCH  18  19
ATOM     19  C   UNL     1       2.997  -4.869  38.977  1.00  0.00    -0.000 C 
BRANCH  19  20
ATOM     20  C   UNL     1       3.918  -4.946  37.747  1.00  0.00    -0.000 C 
BRANCH  20  21
ATOM     21  C   UNL     1       4.496  -6.351  37.525  1.00  0.00    -0.000 C 
BRANCH  21  22
ATOM     22  C   UNL     1       4.964  -6.528  36.072  1.00  0.00    -0.000 C 
BRANCH  22  23
ATOM     23  C   UNL     1       6.055  -5.521  35.673  1.00  0.00    -0.000 C 
BRANCH  23  24
ATOM     24  C   UNL     1       5.770  -4.849  34.319  1.00  0.00    -0.000 C 
BRANCH  24  25
ATOM     25  C   UNL     1       4.326  -4.332  34.213  1.00  0.00    -0.003 C 
ATOM     26  C   UNL     1       3.588  -4.889  32.996  1.00  0.00     0.004 C 
ENDBRANCH  24  25
ENDBRANCH  23  24
ENDBRANCH  22  23
ENDBRANCH  21  22
ENDBRANCH  20  21
ENDBRANCH  19  20
ENDBRANCH  18  19
ENDBRANCH  17  18
ENDBRANCH  16  17
ENDBRANCH  15  16
ENDBRANCH   1  15
TORSDOF 22
ENDMDL
MODEL 9
REMARK VINA RESULT:    -5.286      3.261      9.501
REMARK INTER + INTRA:         -14.769
REMARK INTER:                 -12.376
REMARK INTRA:                  -2.393
REMARK UNBOUND:                -2.685
REMARK SMILES CCCCCCCCCCCCCCCCCCCCCCCC(=O)[O-]
REMARK SMILES IDX 13 1 14 2 15 3 16 4 17 5 18 6 19 7 20 8 21 9 22 10 23 11
REMARK SMILES IDX 24 12 25 13 26 14 12 15 11 16 10 17 9 18 8 19 7 20 6 21 5 22
REMARK SMILES IDX 4 23 3 24 2 25 1 26
REMARK H PARENT
REMARK Flexibility Score: inf
ROOT
ATOM      1  C   UNL     1       6.366  -2.654  35.974  1.00  0.00     0.000 C 
ENDROOT
BRANCH   1   2
ATOM      2  C   UNL     1       5.508  -1.459  36.437  1.00  0.00     0.000 C 
BRANCH   2   3
ATOM      3  C   UNL     1       6.094  -0.080  36.062  1.00  0.00     0.000 C 
BRANCH   3   4
ATOM      4  C   UNL     1       7.579  -0.162  35.668  1.00  0.00     0.000 C 
BRANCH   4   5
ATOM      5  C   UNL     1       8.363   1.101  36.055  1.00  0.00     0.000 C 
BRANCH   5   6
ATOM      6  C   UNL     1       9.263   1.609  34.918  1.00  0.00     0.000 C 
BRANCH   6   7
ATOM      7  C   UNL     1      10.015   0.444  34.258  1.00  0.00     0.000 C 
BRANCH   7   8
ATOM      8  C   UNL     1      11.541   0.581  34.379  1.00  0.00     0.000 C 
BRANCH   8   9
ATOM      9  C   UNL     1      11.987   1.026  35.780  1.00  0.00     0.000 C 
BRANCH   9  10
ATOM     10  C   UNL     1      13.216   1.941  35.699  1.00  0.00     0.006 C 
BRANCH  10  11
ATOM     11  C   UNL     1      13.170   2.816  34.443  1.00  0.00     0.053 C 
BRANCH  11  12
ATOM     12  C   UNL     1      12.517   4.128  34.742  1.00  0.00     0.041 C 
ATOM     13  O   UNL     1      12.468   4.557  35.926  1.00  0.00    -0.550 OA
ATOM     14  O   UNL     1      12.023   4.912  33.706  1.00  0.00    -0.550 OA
ENDBRANCH  11  12
ENDBRANCH  10  11
ENDBRANCH   9  10
ENDBRANCH   8   9
ENDBRANCH   7   8
ENDBRANCH   6   7
ENDBRANCH   5   6
ENDBRANCH   4   5
ENDBRANCH   3   4
ENDBRANCH   2   3
ENDBRANCH   1   2
BRANCH   1  15
ATOM     15  C   UNL     1       5.576  -3.847  35.411  1.00  0.00     0.000 C 
BRANCH  15  16
ATOM     16  C   UNL     1       5.104  -4.823  36.501  1.00  0.00     0.000 C 
BRANCH  16  17
ATOM     17  C   UNL     1       3.607  -5.126  36.348  1.00  0.00     0.000 C 
BRANCH  17  18
ATOM     18  C   UNL     1       2.726  -4.226  37.231  1.00  0.00    -0.000 C 
BRANCH  18  19
ATOM     19  C   UNL     1       2.895  -4.533  38.731  1.00  0.00    -0.000 C 
BRANCH  19  20
ATOM     20  C   UNL     1       1.574  -4.418  39.511  1.00  0.00    -0.000 C 
BRANCH  20  21
ATOM     21  C   UNL     1       1.683  -3.488  40.729  1.00  0.00    -0.000 C 
BRANCH  21  22
ATOM     22  C   UNL     1       2.918  -2.580  40.616  1.00  0.00    -0.000 C 
BRANCH  22  23
ATOM     23  C   UNL     1       2.560  -1.139  40.218  1.00  0.00    -0.000 C 
BRANCH  23  24
ATOM     24  C   UNL     1       2.986  -0.801  38.779  1.00  0.00    -0.000 C 
BRANCH  24  25
ATOM     25  C   UNL     1       1.809  -0.313  37.919  1.00  0.00    -0.003 C 
ATOM     26  C   UNL     1       0.614  -1.265  37.959  1.00  0.00     0.004 C 
ENDBRANCH  24  25
ENDBRANCH  23  24
ENDBRANCH  22  23
ENDBRANCH  21  22
ENDBRANCH  20  21
ENDBRANCH  19  20
ENDBRANCH  18  19
ENDBRANCH  17  18
ENDBRANCH  16  17
ENDBRANCH  15  16
ENDBRANCH   1  15
TORSDOF 22
ENDMDL
