MODEL 1
REMARK VINA RESULT:    -2.787      0.000      0.000
REMARK INTER + INTRA:          -4.583
REMARK INTER:                  -4.090
REMARK INTRA:                  -0.493
REMARK UNBOUND:                -0.493
REMARK SMILES O=C([O-])CCCCCCCC(=O)[O-]
REMARK SMILES IDX 7 1 6 2 5 3 4 4 2 5 1 6 3 7 8 8 9 9 10 10 11 11 12 12 13 13
REMARK H PARENT
REMARK Flexibility Score: inf
ROOT
ATOM      1  C   UNL     1      22.660  28.960  48.650  1.00  0.00     0.000 C 
ENDROOT
BRANCH   1   2
ATOM      2  C   UNL     1      22.757  29.232  50.162  1.00  0.00     0.000 C 
BRANCH   2   3
ATOM      3  C   UNL     1      21.452  29.784  50.754  1.00  0.00     0.006 C 
BRANCH   3   4
ATOM      4  C   UNL     1      21.531  31.303  50.932  1.00  0.00     0.053 C 
BRANCH   4   5
ATOM      5  C   UNL     1      20.758  31.998  49.856  1.00  0.00     0.041 C 
ATOM      6  O   UNL     1      20.039  31.334  49.063  1.00  0.00    -0.550 OA
ATOM      7  O   UNL     1      20.793  33.383  49.759  1.00  0.00    -0.550 OA
ENDBRANCH   4   5
ENDBRANCH   3   4
ENDBRANCH   2   3
ENDBRANCH   1   2
BRANCH   1   8
ATOM      8  C   UNL     1      23.765  29.616  47.797  1.00  0.00     0.000 C 
BRANCH   8   9
ATOM      9  C   UNL     1      23.344  30.899  47.053  1.00  0.00     0.006 C 
BRANCH   9  10
ATOM     10  C   UNL     1      24.517  31.768  46.574  1.00  0.00     0.053 C 
BRANCH  10  11
ATOM     11  C   UNL     1      24.621  31.793  45.079  1.00  0.00     0.041 C 
ATOM     12  O   UNL     1      23.642  32.166  44.382  1.00  0.00    -0.550 OA
ATOM     13  O   UNL     1      25.812  31.436  44.459  1.00  0.00    -0.550 OA
ENDBRANCH  10  11
ENDBRANCH   9  10
ENDBRANCH   8   9
ENDBRANCH   1   8
TORSDOF 8
ENDMDL
MODEL 2
REMARK VINA RESULT:    -2.770      1.773      5.885
REMARK INTER + INTRA:          -4.558
REMARK INTER:                  -4.053
REMARK INTRA:                  -0.504
REMARK UNBOUND:                -0.493
REMARK SMILES O=C([O-])CCCCCCCC(=O)[O-]
REMARK SMILES IDX 7 1 6 2 5 3 4 4 2 5 1 6 3 7 8 8 9 9 10 10 11 11 12 12 13 13
REMARK H PARENT
REMARK Flexibility Score: inf
ROOT
ATOM      1  C   UNL     1      22.632  30.727  47.350  1.00  0.00     0.000 C 
ENDROOT
BRANCH   1   2
ATOM      2  C   UNL     1      24.069  30.420  46.886  1.00  0.00     0.000 C 
BRANCH   2   3
ATOM      3  C   UNL     1      24.759  31.631  46.242  1.00  0.00     0.006 C 
BRANCH   3   4
ATOM      4  C   UNL     1      25.029  31.381  44.756  1.00  0.00     0.053 C 
BRANCH   4   5
ATOM      5  C   UNL     1      24.224  32.320  43.912  1.00  0.00     0.041 C 
ATOM      6  O   UNL     1      22.967  32.301  43.968  1.00  0.00    -0.550 OA
ATOM      7  O   UNL     1      24.864  33.250  43.102  1.00  0.00    -0.550 OA
ENDBRANCH   4   5
ENDBRANCH   3   4
ENDBRANCH   2   3
ENDBRANCH   1   2
BRANCH   1   8
ATOM      8  C   UNL     1      22.284  32.225  47.448  1.00  0.00     0.000 C 
BRANCH   8   9
ATOM      9  C   UNL     1      20.890  32.537  48.028  1.00  0.00     0.006 C 
BRANCH   9  10
ATOM     10  C   UNL     1      20.904  33.035  49.482  1.00  0.00     0.053 C 
BRANCH  10  11
ATOM     11  C   UNL     1      20.714  31.915  50.459  1.00  0.00     0.041 C 
ATOM     12  O   UNL     1      19.571  31.671  50.928  1.00  0.00    -0.550 OA
ATOM     13  O   UNL     1      21.793  31.121  50.825  1.00  0.00    -0.550 OA
ENDBRANCH  10  11
ENDBRANCH   9  10
ENDBRANCH   8   9
ENDBRANCH   1   8
TORSDOF 8
ENDMDL
MODEL 3
REMARK VINA RESULT:    -2.761      2.823      3.726
REMARK INTER + INTRA:          -4.545
REMARK INTER:                  -4.102
REMARK INTRA:                  -0.442
REMARK UNBOUND:                -0.493
REMARK SMILES O=C([O-])CCCCCCCC(=O)[O-]
REMARK SMILES IDX 7 1 6 2 5 3 4 4 2 5 1 6 3 7 8 8 9 9 10 10 11 11 12 12 13 13
REMARK H PARENT
REMARK Flexibility Score: inf
ROOT
ATOM      1  C   UNL     1      21.125  31.646  49.932  1.00  0.00     0.000 C 
ENDROOT
BRANCH   1   2
ATOM      2  C   UNL     1      21.762  30.608  50.874  1.00  0.00     0.000 C 
BRANCH   2   3
ATOM      3  C   UNL     1      22.606  29.564  50.128  1.00  0.00     0.006 C 
BRANCH   3   4
ATOM      4  C   UNL     1      22.211  28.143  50.542  1.00  0.00     0.053 C 
BRANCH   4   5
ATOM      5  C   UNL     1      23.253  27.162  50.105  1.00  0.00     0.041 C 
ATOM      6  O   UNL     1      23.535  26.173  50.832  1.00  0.00    -0.550 OA
ATOM      7  O   UNL     1      23.877  27.312  48.873  1.00  0.00    -0.550 OA
ENDBRANCH   4   5
ENDBRANCH   3   4
ENDBRANCH   2   3
ENDBRANCH   1   2
BRANCH   1   8
ATOM      8  C   UNL     1      21.280  31.345  48.428  1.00  0.00     0.000 C 
BRANCH   8   9
ATOM      9  C   UNL     1      22.102  32.380  47.633  1.00  0.00     0.006 C 
BRANCH   9  10
ATOM     10  C   UNL     1      22.696  31.846  46.321  1.00  0.00     0.053 C 
BRANCH  10  11
ATOM     11  C   UNL     1      24.060  31.259  46.522  1.00  0.00     0.041 C 
ATOM     12  O   UNL     1      24.187  30.097  46.988  1.00  0.00    -0.550 OA
ATOM     13  O   UNL     1      25.188  31.983  46.161  1.00  0.00    -0.550 OA
ENDBRANCH  10  11
ENDBRANCH   9  10
ENDBRANCH   8   9
ENDBRANCH   1   8
TORSDOF 8
ENDMDL
MODEL 4
REMARK VINA RESULT:    -2.758      2.473      3.315
REMARK INTER + INTRA:          -4.540
REMARK INTER:                  -4.259
REMARK INTRA:                  -0.280
REMARK UNBOUND:                -0.493
REMARK SMILES O=C([O-])CCCCCCCC(=O)[O-]
REMARK SMILES IDX 7 1 6 2 5 3 4 4 2 5 1 6 3 7 8 8 9 9 10 10 11 11 12 12 13 13
REMARK H PARENT
REMARK Flexibility Score: inf
ROOT
ATOM      1  C   UNL     1      23.856  29.944  46.656  1.00  0.00     0.000 C 
ENDROOT
BRANCH   1   2
ATOM      2  C   UNL     1      23.763  29.367  48.081  1.00  0.00     0.000 C 
BRANCH   2   3
ATOM      3  C   UNL     1      22.569  29.919  48.872  1.00  0.00     0.006 C 
BRANCH   3   4
ATOM      4  C   UNL     1      22.598  29.428  50.322  1.00  0.00     0.053 C 
BRANCH   4   5
ATOM      5  C   UNL     1      22.202  27.987  50.396  1.00  0.00     0.041 C 
ATOM      6  O   UNL     1      21.007  27.648  50.188  1.00  0.00    -0.550 OA
ATOM      7  O   UNL     1      23.161  27.014  50.644  1.00  0.00    -0.550 OA
ENDBRANCH   4   5
ENDBRANCH   3   4
ENDBRANCH   2   3
ENDBRANCH   1   2
BRANCH   1   8
ATOM      8  C   UNL     1      24.246  31.433  46.580  1.00  0.00     0.000 C 
BRANCH   8   9
ATOM      9  C   UNL     1      25.209  31.800  45.433  1.00  0.00     0.006 C 
BRANCH   9  10
ATOM     10  C   UNL     1      25.297  30.748  44.317  1.00  0.00     0.053 C 
BRANCH  10  11
ATOM     11  C   UNL     1      26.070  31.249  43.134  1.00  0.00     0.041 C 
ATOM     12  O   UNL     1      26.155  32.484  42.910  1.00  0.00    -0.550 OA
ATOM     13  O   UNL     1      26.725  30.351  42.301  1.00  0.00    -0.550 OA
ENDBRANCH  10  11
ENDBRANCH   9  10
ENDBRANCH   8   9
ENDBRANCH   1   8
TORSDOF 8
ENDMDL
MODEL 5
REMARK VINA RESULT:    -2.736      1.178      1.987
REMARK INTER + INTRA:          -4.508
REMARK INTER:                  -4.006
REMARK INTRA:                  -0.502
REMARK UNBOUND:                -0.493
REMARK SMILES O=C([O-])CCCCCCCC(=O)[O-]
REMARK SMILES IDX 7 1 6 2 5 3 4 4 2 5 1 6 3 7 8 8 9 9 10 10 11 11 12 12 13 13
REMARK H PARENT
REMARK Flexibility Score: inf
ROOT
ATOM      1  C   UNL     1      22.670  29.234  50.479  1.00  0.00     0.000 C 
ENDROOT
BRANCH   1   2
ATOM      2  C   UNL     1      21.421  29.884  51.102  1.00  0.00     0.000 C 
BRANCH   2   3
ATOM      3  C   UNL     1      21.380  31.406  50.906  1.00  0.00     0.006 C 
BRANCH   3   4
ATOM      4  C   UNL     1      20.185  31.815  50.040  1.00  0.00     0.053 C 
BRANCH   4   5
ATOM      5  C   UNL     1      20.581  32.887  49.073  1.00  0.00     0.041 C 
ATOM      6  O   UNL     1      20.876  34.037  49.490  1.00  0.00    -0.550 OA
ATOM      7  O   UNL     1      20.673  32.601  47.717  1.00  0.00    -0.550 OA
ENDBRANCH   4   5
ENDBRANCH   3   4
ENDBRANCH   2   3
ENDBRANCH   1   2
BRANCH   1   8
ATOM      8  C   UNL     1      22.498  28.748  49.026  1.00  0.00     0.000 C 
BRANCH   8   9
ATOM      9  C   UNL     1      23.632  29.151  48.061  1.00  0.00     0.006 C 
BRANCH   9  10
ATOM     10  C   UNL     1      23.550  30.600  47.557  1.00  0.00     0.053 C 
BRANCH  10  11
ATOM     11  C   UNL     1      24.282  30.784  46.262  1.00  0.00     0.041 C 
ATOM     12  O   UNL     1      25.049  31.769  46.103  1.00  0.00    -0.550 OA
ATOM     13  O   UNL     1      24.142  29.849  45.245  1.00  0.00    -0.550 OA
ENDBRANCH  10  11
ENDBRANCH   9  10
ENDBRANCH   8   9
ENDBRANCH   1   8
TORSDOF 8
ENDMDL
MODEL 6
REMARK VINA RESULT:    -2.728      1.378      4.848
REMARK INTER + INTRA:          -4.496
REMARK INTER:                  -3.951
REMARK INTRA:                  -0.546
REMARK UNBOUND:                -0.493
REMARK SMILES O=C([O-])CCCCCCCC(=O)[O-]
REMARK SMILES IDX 7 1 6 2 5 3 4 4 2 5 1 6 3 7 8 8 9 9 10 10 11 11 12 12 13 13
REMARK H PARENT
REMARK Flexibility Score: inf
ROOT
ATOM      1  C   UNL     1      21.582  29.413  49.676  1.00  0.00     0.000 C 
ENDROOT
BRANCH   1   2
ATOM      2  C   UNL     1      22.843  28.757  49.084  1.00  0.00     0.000 C 
BRANCH   2   3
ATOM      3  C   UNL     1      23.664  29.719  48.214  1.00  0.00     0.006 C 
BRANCH   3   4
ATOM      4  C   UNL     1      23.339  29.528  46.729  1.00  0.00     0.053 C 
BRANCH   4   5
ATOM      5  C   UNL     1      24.199  30.416  45.886  1.00  0.00     0.041 C 
ATOM      6  O   UNL     1      24.383  30.148  44.670  1.00  0.00    -0.550 OA
ATOM      7  O   UNL     1      24.757  31.566  46.431  1.00  0.00    -0.550 OA
ENDBRANCH   4   5
ENDBRANCH   3   4
ENDBRANCH   2   3
ENDBRANCH   1   2
BRANCH   1   8
ATOM      8  C   UNL     1      21.792  30.136  51.020  1.00  0.00     0.000 C 
BRANCH   8   9
ATOM      9  C   UNL     1      21.290  31.593  51.066  1.00  0.00     0.006 C 
BRANCH   9  10
ATOM     10  C   UNL     1      20.378  31.988  49.894  1.00  0.00     0.053 C 
BRANCH  10  11
ATOM     11  C   UNL     1      21.022  33.005  49.002  1.00  0.00     0.041 C 
ATOM     12  O   UNL     1      21.644  32.640  47.971  1.00  0.00    -0.550 OA
ATOM     13  O   UNL     1      20.903  34.358  49.293  1.00  0.00    -0.550 OA
ENDBRANCH  10  11
ENDBRANCH   9  10
ENDBRANCH   8   9
ENDBRANCH   1   8
TORSDOF 8
ENDMDL
MODEL 7
REMARK VINA RESULT:    -2.726      8.635      9.652
REMARK INTER + INTRA:          -4.493
REMARK INTER:                  -4.124
REMARK INTRA:                  -0.369
REMARK UNBOUND:                -0.493
REMARK SMILES O=C([O-])CCCCCCCC(=O)[O-]
REMARK SMILES IDX 7 1 6 2 5 3 4 4 2 5 1 6 3 7 8 8 9 9 10 10 11 11 12 12 13 13
REMARK H PARENT
REMARK Flexibility Score: inf
ROOT
ATOM      1  C   UNL     1      27.953  36.862  43.119  1.00  0.00     0.000 C 
ENDROOT
BRANCH   1   2
ATOM      2  C   UNL     1      29.457  36.595  42.928  1.00  0.00     0.000 C 
BRANCH   2   3
ATOM      3  C   UNL     1      30.122  36.001  44.178  1.00  0.00     0.006 C 
BRANCH   3   4
ATOM      4  C   UNL     1      29.546  36.625  45.453  1.00  0.00     0.053 C 
BRANCH   4   5
ATOM      5  C   UNL     1      29.706  35.692  46.612  1.00  0.00     0.041 C 
ATOM      6  O   UNL     1      29.615  36.126  47.790  1.00  0.00    -0.550 OA
ATOM      7  O   UNL     1      29.906  34.335  46.390  1.00  0.00    -0.550 OA
ENDBRANCH   4   5
ENDBRANCH   3   4
ENDBRANCH   2   3
ENDBRANCH   1   2
BRANCH   1   8
ATOM      8  C   UNL     1      27.314  37.783  42.061  1.00  0.00     0.000 C 
BRANCH   8   9
ATOM      9  C   UNL     1      25.931  37.333  41.548  1.00  0.00     0.006 C 
BRANCH   9  10
ATOM     10  C   UNL     1      25.965  36.581  40.209  1.00  0.00     0.053 C 
BRANCH  10  11
ATOM     11  C   UNL     1      25.857  35.097  40.397  1.00  0.00     0.041 C 
ATOM     12  O   UNL     1      25.599  34.620  41.532  1.00  0.00    -0.550 OA
ATOM     13  O   UNL     1      26.008  34.247  39.310  1.00  0.00    -0.550 OA
ENDBRANCH  10  11
ENDBRANCH   9  10
ENDBRANCH   8   9
ENDBRANCH   1   8
TORSDOF 8
ENDMDL
MODEL 8
REMARK VINA RESULT:    -2.691      2.195      5.635
REMARK INTER + INTRA:          -4.441
REMARK INTER:                  -3.925
REMARK INTRA:                  -0.517
REMARK UNBOUND:                -0.493
REMARK SMILES O=C([O-])CCCCCCCC(=O)[O-]
REMARK SMILES IDX 7 1 6 2 5 3 4 4 2 5 1 6 3 7 8 8 9 9 10 10 11 11 12 12 13 13
REMARK H PARENT
REMARK Flexibility Score: inf
ROOT
ATOM      1  C   UNL     1      21.180  32.770  48.482  1.00  0.00     0.000 C 
ENDROOT
BRANCH   1   2
ATOM      2  C   UNL     1      21.676  31.541  47.698  1.00  0.00     0.000 C 
BRANCH   2   3
ATOM      3  C   UNL     1      22.971  31.813  46.919  1.00  0.00     0.006 C 
BRANCH   3   4
ATOM      4  C   UNL     1      23.958  30.652  47.073  1.00  0.00     0.053 C 
BRANCH   4   5
ATOM      5  C   UNL     1      23.769  29.654  45.974  1.00  0.00     0.041 C 
ATOM      6  O   UNL     1      23.263  28.528  46.221  1.00  0.00    -0.550 OA
ATOM      7  O   UNL     1      24.106  29.987  44.668  1.00  0.00    -0.550 OA
ENDBRANCH   4   5
ENDBRANCH   3   4
ENDBRANCH   2   3
ENDBRANCH   1   2
BRANCH   1   8
ATOM      8  C   UNL     1      20.468  32.453  49.812  1.00  0.00     0.000 C 
BRANCH   8   9
ATOM      9  C   UNL     1      21.309  31.661  50.833  1.00  0.00     0.006 C 
BRANCH   9  10
ATOM     10  C   UNL     1      20.787  30.246  51.124  1.00  0.00     0.053 C 
BRANCH  10  11
ATOM     11  C   UNL     1      21.707  29.189  50.593  1.00  0.00     0.041 C 
ATOM     12  O   UNL     1      22.896  29.476  50.295  1.00  0.00    -0.550 OA
ATOM     13  O   UNL     1      21.260  27.881  50.461  1.00  0.00    -0.550 OA
ENDBRANCH  10  11
ENDBRANCH   9  10
ENDBRANCH   8   9
ENDBRANCH   1   8
TORSDOF 8
ENDMDL
MODEL 9
REMARK VINA RESULT:    -2.651      1.368      5.119
REMARK INTER + INTRA:          -4.383
REMARK INTER:                  -3.605
REMARK INTRA:                  -0.778
REMARK UNBOUND:                -0.493
REMARK SMILES O=C([O-])CCCCCCCC(=O)[O-]
REMARK SMILES IDX 7 1 6 2 5 3 4 4 2 5 1 6 3 7 8 8 9 9 10 10 11 11 12 12 13 13
REMARK H PARENT
REMARK Flexibility Score: inf
ROOT
ATOM      1  C   UNL     1      23.054  27.178  47.986  1.00  0.00     0.000 C 
ENDROOT
BRANCH   1   2
ATOM      2  C   UNL     1      23.031  28.417  47.072  1.00  0.00     0.000 C 
BRANCH   2   3
ATOM      3  C   UNL     1      23.973  29.531  47.554  1.00  0.00     0.006 C 
BRANCH   3   4
ATOM      4  C   UNL     1      23.529  30.894  47.016  1.00  0.00     0.053 C 
BRANCH   4   5
ATOM      5  C   UNL     1      24.318  31.260  45.799  1.00  0.00     0.041 C 
ATOM      6  O   UNL     1      23.890  30.961  44.654  1.00  0.00    -0.550 OA
ATOM      7  O   UNL     1      25.502  31.977  45.927  1.00  0.00    -0.550 OA
ENDBRANCH   4   5
ENDBRANCH   3   4
ENDBRANCH   2   3
ENDBRANCH   1   2
BRANCH   1   8
ATOM      8  C   UNL     1      23.328  27.469  49.475  1.00  0.00     0.000 C 
BRANCH   8   9
ATOM      9  C   UNL     1      22.094  27.889  50.299  1.00  0.00     0.006 C 
BRANCH   9  10
ATOM     10  C   UNL     1      22.146  29.330  50.829  1.00  0.00     0.053 C 
BRANCH  10  11
ATOM     11  C   UNL     1      21.309  30.261  50.005  1.00  0.00     0.041 C 
ATOM     12  O   UNL     1      21.418  31.507  50.150  1.00  0.00    -0.550 OA
ATOM     13  O   UNL     1      20.435  29.752  49.053  1.00  0.00    -0.550 OA
ENDBRANCH  10  11
ENDBRANCH   9  10
ENDBRANCH   8   9
ENDBRANCH   1   8
TORSDOF 8
ENDMDL
