MODEL 1
REMARK VINA RESULT:    35.996      0.000      0.000
REMARK INTER + INTRA:          39.626
REMARK INTER:                  39.153
REMARK INTRA:                   0.473
REMARK UNBOUND:                 0.473
REMARK SMILES C=C1C[C@]2(O)O[C@]3(C[C@H]2C(C)C)[C@@H](C)CC[C@@H]13
REMARK SMILES IDX 14 1 13 2 15 3 16 4 17 5 7 6 8 7 9 8 4 9 6 10 3 11 2 12 1 13
REMARK SMILES IDX 10 14 11 15 12 16 5 17
REMARK H PARENT 5 18
REMARK Flexibility Score: inf
ROOT
ATOM      1  C   UNL     1       9.264  71.190   7.603  1.00  0.00     0.011 C 
ATOM      2  C   UNL     1       9.425  71.142   6.078  1.00  0.00     0.019 C 
ATOM      3  C   UNL     1      10.823  71.597   5.602  1.00  0.00     0.007 C 
ATOM      4  C   UNL     1      11.112  70.832   4.294  1.00  0.00     0.011 C 
ATOM      5  C   UNL     1       9.811  70.090   4.003  1.00  0.00     0.047 C 
ATOM      6  C   UNL     1       9.228  69.780   5.389  1.00  0.00     0.081 C 
ATOM      7  C   UNL     1       9.928  68.579   6.087  1.00  0.00     0.046 C 
ATOM      8  C   UNL     1       9.037  67.386   5.729  1.00  0.00     0.054 C 
ATOM      9  C   UNL     1       8.011  68.036   4.767  1.00  0.00     0.173 C 
ATOM     10  O   UNL     1       7.890  69.389   5.193  1.00  0.00    -0.342 OA
ATOM     11  C   UNL     1       8.558  67.978   3.299  1.00  0.00     0.096 C 
ATOM     12  C   UNL     1       9.797  68.844   3.154  1.00  0.00    -0.066 C 
ATOM     13  C   UNL     1      10.690  68.626   2.178  1.00  0.00     0.008 C 
ENDROOT
BRANCH   8  14
ATOM     14  C   UNL     1       8.474  66.660   6.997  1.00  0.00    -0.009 C 
ATOM     15  C   UNL     1       7.460  65.541   6.700  1.00  0.00     0.008 C 
ATOM     16  C   UNL     1       9.593  66.145   7.916  1.00  0.00     0.008 C 
ENDBRANCH   8  14
BRANCH   9  17
ATOM     17  O   UNL     1       6.763  67.395   4.815  1.00  0.00    -0.365 OA
ATOM     18  H   UNL     1       6.543  67.257   5.773  1.00  0.00     0.214 HD
ENDBRANCH   9  17
TORSDOF 2
ENDMDL
MODEL 2
REMARK VINA RESULT:    36.921      8.066     10.046
REMARK INTER + INTRA:          40.631
REMARK INTER:                  40.773
REMARK INTRA:                  -0.142
REMARK UNBOUND:                 0.473
REMARK SMILES C=C1C[C@]2(O)O[C@]3(C[C@H]2C(C)C)[C@@H](C)CC[C@@H]13
REMARK SMILES IDX 14 1 13 2 15 3 16 4 17 5 7 6 8 7 9 8 4 9 6 10 3 11 2 12 1 13
REMARK SMILES IDX 10 14 11 15 12 16 5 17
REMARK H PARENT 5 18
REMARK Flexibility Score: inf
ROOT
ATOM      1  C   UNL     1      12.629  77.873   4.820  1.00  0.00     0.011 C 
ATOM      2  C   UNL     1      11.660  76.788   4.331  1.00  0.00     0.019 C 
ATOM      3  C   UNL     1      10.221  76.976   4.863  1.00  0.00     0.007 C 
ATOM      4  C   UNL     1       9.279  76.383   3.795  1.00  0.00     0.011 C 
ATOM      5  C   UNL     1      10.222  75.753   2.776  1.00  0.00     0.047 C 
ATOM      6  C   UNL     1      11.473  76.641   2.810  1.00  0.00     0.081 C 
ATOM      7  C   UNL     1      11.292  77.977   2.035  1.00  0.00     0.046 C 
ATOM      8  C   UNL     1      11.864  77.669   0.648  1.00  0.00     0.054 C 
ATOM      9  C   UNL     1      12.184  76.157   0.768  1.00  0.00     0.173 C 
ATOM     10  O   UNL     1      12.494  75.939   2.141  1.00  0.00    -0.342 OA
ATOM     11  C   UNL     1      10.925  75.318   0.358  1.00  0.00     0.096 C 
ATOM     12  C   UNL     1       9.792  75.534   1.347  1.00  0.00    -0.066 C 
ATOM     13  C   UNL     1       8.516  75.314   1.003  1.00  0.00     0.008 C 
ENDROOT
BRANCH   8  14
ATOM     14  C   UNL     1      13.042  78.625   0.262  1.00  0.00    -0.009 C 
ATOM     15  C   UNL     1      13.232  78.833  -1.251  1.00  0.00     0.008 C 
ATOM     16  C   UNL     1      12.953  79.977   0.986  1.00  0.00     0.008 C 
ENDBRANCH   8  14
BRANCH   9  17
ATOM     17  O   UNL     1      13.267  75.781  -0.042  1.00  0.00    -0.365 OA
ATOM     18  H   UNL     1      13.342  76.460  -0.762  1.00  0.00     0.214 HD
ENDBRANCH   9  17
TORSDOF 2
ENDMDL
MODEL 3
REMARK VINA RESULT:    37.266      7.445      9.376
REMARK INTER + INTRA:          41.007
REMARK INTER:                  41.298
REMARK INTRA:                  -0.291
REMARK UNBOUND:                 0.473
REMARK SMILES C=C1C[C@]2(O)O[C@]3(C[C@H]2C(C)C)[C@@H](C)CC[C@@H]13
REMARK SMILES IDX 14 1 13 2 15 3 16 4 17 5 7 6 8 7 9 8 4 9 6 10 3 11 2 12 1 13
REMARK SMILES IDX 10 14 11 15 12 16 5 17
REMARK H PARENT 5 18
REMARK Flexibility Score: inf
ROOT
ATOM      1  C   UNL     1       8.462  75.230   3.974  1.00  0.00     0.011 C 
ATOM      2  C   UNL     1       9.357  76.255   4.686  1.00  0.00     0.019 C 
ATOM      3  C   UNL     1       9.928  75.735   6.024  1.00  0.00     0.007 C 
ATOM      4  C   UNL     1      11.285  76.440   6.225  1.00  0.00     0.011 C 
ATOM      5  C   UNL     1      11.360  77.436   5.073  1.00  0.00     0.047 C 
ATOM      6  C   UNL     1      10.598  76.756   3.927  1.00  0.00     0.081 C 
ATOM      7  C   UNL     1      11.430  75.650   3.217  1.00  0.00     0.046 C 
ATOM      8  C   UNL     1      12.056  76.380   2.025  1.00  0.00     0.054 C 
ATOM      9  C   UNL     1      11.603  77.841   2.276  1.00  0.00     0.173 C 
ATOM     10  O   UNL     1      10.354  77.743   2.953  1.00  0.00    -0.342 OA
ATOM     11  C   UNL     1      12.655  78.568   3.183  1.00  0.00     0.096 C 
ATOM     12  C   UNL     1      12.686  77.949   4.570  1.00  0.00    -0.066 C 
ATOM     13  C   UNL     1      13.762  78.065   5.361  1.00  0.00     0.008 C 
ENDROOT
BRANCH   8  14
ATOM     14  C   UNL     1      11.663  75.731   0.655  1.00  0.00    -0.009 C 
ATOM     15  C   UNL     1      12.675  74.704   0.116  1.00  0.00     0.008 C 
ATOM     16  C   UNL     1      10.247  75.133   0.680  1.00  0.00     0.008 C 
ENDBRANCH   8  14
BRANCH   9  17
ATOM     17  O   UNL     1      11.455  78.561   1.080  1.00  0.00    -0.365 OA
ATOM     18  H   UNL     1      11.628  79.516   1.292  1.00  0.00     0.214 HD
ENDBRANCH   9  17
TORSDOF 2
ENDMDL
MODEL 4
REMARK VINA RESULT:    37.307      7.731      9.234
REMARK INTER + INTRA:          41.051
REMARK INTER:                  40.916
REMARK INTRA:                   0.135
REMARK UNBOUND:                 0.473
REMARK SMILES C=C1C[C@]2(O)O[C@]3(C[C@H]2C(C)C)[C@@H](C)CC[C@@H]13
REMARK SMILES IDX 14 1 13 2 15 3 16 4 17 5 7 6 8 7 9 8 4 9 6 10 3 11 2 12 1 13
REMARK SMILES IDX 10 14 11 15 12 16 5 17
REMARK H PARENT 5 18
REMARK Flexibility Score: inf
ROOT
ATOM      1  C   UNL     1       8.344  78.993   1.439  1.00  0.00     0.011 C 
ATOM      2  C   UNL     1       9.285  78.750   2.626  1.00  0.00     0.019 C 
ATOM      3  C   UNL     1       8.544  78.661   3.979  1.00  0.00     0.007 C 
ATOM      4  C   UNL     1       9.379  77.724   4.875  1.00  0.00     0.011 C 
ATOM      5  C   UNL     1      10.630  77.439   4.051  1.00  0.00     0.047 C 
ATOM      6  C   UNL     1      10.147  77.475   2.595  1.00  0.00     0.081 C 
ATOM      7  C   UNL     1       9.397  76.180   2.172  1.00  0.00     0.046 C 
ATOM      8  C   UNL     1      10.489  75.329   1.518  1.00  0.00     0.054 C 
ATOM      9  C   UNL     1      11.752  76.193   1.764  1.00  0.00     0.173 C 
ATOM     10  O   UNL     1      11.296  77.542   1.782  1.00  0.00    -0.342 OA
ATOM     11  C   UNL     1      12.385  75.817   3.148  1.00  0.00     0.096 C 
ATOM     12  C   UNL     1      11.452  76.197   4.285  1.00  0.00    -0.066 C 
ATOM     13  C   UNL     1      11.534  75.600   5.482  1.00  0.00     0.008 C 
ENDROOT
BRANCH   8  14
ATOM     14  C   UNL     1      10.150  74.957   0.035  1.00  0.00    -0.009 C 
ATOM     15  C   UNL     1      11.082  73.907  -0.594  1.00  0.00     0.008 C 
ATOM     16  C   UNL     1       8.679  74.546  -0.138  1.00  0.00     0.008 C 
ENDBRANCH   8  14
BRANCH   9  17
ATOM     17  O   UNL     1      12.716  76.018   0.758  1.00  0.00    -0.365 OA
ATOM     18  H   UNL     1      13.581  76.338   1.125  1.00  0.00     0.214 HD
ENDBRANCH   9  17
TORSDOF 2
ENDMDL
MODEL 5
REMARK VINA RESULT:    38.350      2.364      4.191
REMARK INTER + INTRA:          42.186
REMARK INTER:                  42.445
REMARK INTRA:                  -0.259
REMARK UNBOUND:                 0.473
REMARK SMILES C=C1C[C@]2(O)O[C@]3(C[C@H]2C(C)C)[C@@H](C)CC[C@@H]13
REMARK SMILES IDX 14 1 13 2 15 3 16 4 17 5 7 6 8 7 9 8 4 9 6 10 3 11 2 12 1 13
REMARK SMILES IDX 10 14 11 15 12 16 5 17
REMARK H PARENT 5 18
REMARK Flexibility Score: inf
ROOT
ATOM      1  C   UNL     1      13.028  68.337   4.526  1.00  0.00     0.011 C 
ATOM      2  C   UNL     1      12.296  69.285   5.486  1.00  0.00     0.019 C 
ATOM      3  C   UNL     1      13.118  70.544   5.841  1.00  0.00     0.007 C 
ATOM      4  C   UNL     1      12.101  71.668   6.119  1.00  0.00     0.011 C 
ATOM      5  C   UNL     1      10.747  70.969   6.057  1.00  0.00     0.047 C 
ATOM      6  C   UNL     1      10.940  69.850   5.024  1.00  0.00     0.081 C 
ATOM      7  C   UNL     1      10.905  70.365   3.557  1.00  0.00     0.046 C 
ATOM      8  C   UNL     1       9.449  70.152   3.136  1.00  0.00     0.054 C 
ATOM      9  C   UNL     1       8.807  69.658   4.457  1.00  0.00     0.173 C 
ATOM     10  O   UNL     1       9.844  68.976   5.155  1.00  0.00    -0.342 OA
ATOM     11  C   UNL     1       8.311  70.888   5.292  1.00  0.00     0.096 C 
ATOM     12  C   UNL     1       9.486  71.736   5.748  1.00  0.00    -0.066 C 
ATOM     13  C   UNL     1       9.331  73.028   6.066  1.00  0.00     0.008 C 
ENDROOT
BRANCH   8  14
ATOM     14  C   UNL     1       9.320  69.221   1.882  1.00  0.00    -0.009 C 
ATOM     15  C   UNL     1       9.412  69.949   0.529  1.00  0.00     0.008 C 
ATOM     16  C   UNL     1      10.306  68.043   1.931  1.00  0.00     0.008 C 
ENDBRANCH   8  14
BRANCH   9  17
ATOM     17  O   UNL     1       7.724  68.795   4.228  1.00  0.00    -0.365 OA
ATOM     18  H   UNL     1       7.665  68.187   5.011  1.00  0.00     0.214 HD
ENDBRANCH   9  17
TORSDOF 2
ENDMDL
