MODEL 1
REMARK VINA RESULT:    -5.359      0.000      0.000
REMARK INTER + INTRA:          -8.109
REMARK INTER:                  -6.612
REMARK INTRA:                  -1.497
REMARK UNBOUND:                -1.497
REMARK SMILES CC(C)=CCC[C@@H](C)c1ccc(C)cc1
REMARK SMILES IDX 6 1 7 2 8 3 9 4 13 5 12 6 11 7 14 8 10 9 15 10 5 11 4 12
REMARK SMILES IDX 2 13 1 14 3 15
REMARK H PARENT
REMARK Flexibility Score: inf
ROOT
ATOM      1  C   UNL     1      21.266  44.535  -4.581  1.00  0.00     0.012 C 
ENDROOT
BRANCH   1   2
ATOM      2  C   UNL     1      21.600  44.139  -6.037  1.00  0.00     0.016 C 
ATOM      3  C   UNL     1      20.401  43.502  -6.757  1.00  0.00     0.013 C 
BRANCH   2   4
ATOM      4  C   UNL     1      22.102  45.344  -6.811  1.00  0.00    -0.045 A 
ATOM      5  C   UNL     1      23.564  48.767  -9.003  1.00  0.00     0.044 C 
ATOM      6  C   UNL     1      23.040  47.598  -8.225  1.00  0.00    -0.051 A 
ATOM      7  C   UNL     1      23.755  47.105  -7.123  1.00  0.00     0.004 A 
ATOM      8  C   UNL     1      21.868  46.944  -8.632  1.00  0.00     0.004 A 
ATOM      9  C   UNL     1      23.286  45.992  -6.418  1.00  0.00     0.004 A 
ATOM     10  C   UNL     1      21.398  45.833  -7.929  1.00  0.00     0.004 A 
ENDBRANCH   2   4
ENDBRANCH   1   2
BRANCH   1  11
ATOM     11  C   UNL     1      20.269  45.701  -4.499  1.00  0.00     0.028 C 
BRANCH  11  12
ATOM     12  C   UNL     1      20.841  46.834  -3.683  1.00  0.00    -0.028 C 
ATOM     13  C   UNL     1      20.944  48.111  -4.114  1.00  0.00    -0.080 C 
ATOM     14  C   UNL     1      20.538  48.518  -5.511  1.00  0.00     0.039 C 
ATOM     15  C   UNL     1      21.499  49.146  -3.171  1.00  0.00     0.039 C 
ENDBRANCH  11  12
ENDBRANCH   1  11
TORSDOF 4
ENDMDL
MODEL 2
REMARK VINA RESULT:    -5.201      1.711      3.988
REMARK INTER + INTRA:          -7.914
REMARK INTER:                  -6.967
REMARK INTRA:                  -0.948
REMARK UNBOUND:                -1.497
REMARK SMILES CC(C)=CCC[C@@H](C)c1ccc(C)cc1
REMARK SMILES IDX 6 1 7 2 8 3 9 4 13 5 12 6 11 7 14 8 10 9 15 10 5 11 4 12
REMARK SMILES IDX 2 13 1 14 3 15
REMARK H PARENT
REMARK Flexibility Score: inf
ROOT
ATOM      1  C   UNL     1      20.366  49.136  -5.029  1.00  0.00     0.012 C 
ENDROOT
BRANCH   1   2
ATOM      2  C   UNL     1      21.447  48.527  -5.951  1.00  0.00     0.016 C 
ATOM      3  C   UNL     1      22.858  48.647  -5.354  1.00  0.00     0.013 C 
BRANCH   2   4
ATOM      4  C   UNL     1      21.125  47.076  -6.258  1.00  0.00    -0.045 A 
ATOM      5  C   UNL     1      20.185  42.946  -7.106  1.00  0.00     0.044 C 
ATOM      6  C   UNL     1      20.540  44.372  -6.804  1.00  0.00    -0.051 A 
ATOM      7  C   UNL     1      20.288  44.908  -5.532  1.00  0.00     0.004 A 
ATOM      8  C   UNL     1      21.063  45.199  -7.809  1.00  0.00     0.004 A 
ATOM      9  C   UNL     1      20.584  46.247  -5.260  1.00  0.00     0.004 A 
ATOM     10  C   UNL     1      21.359  46.537  -7.538  1.00  0.00     0.004 A 
ENDBRANCH   2   4
ENDBRANCH   1   2
BRANCH   1  11
ATOM     11  C   UNL     1      20.928  49.572  -3.667  1.00  0.00     0.028 C 
BRANCH  11  12
ATOM     12  C   UNL     1      20.476  48.631  -2.578  1.00  0.00    -0.028 C 
ATOM     13  C   UNL     1      21.297  48.070  -1.663  1.00  0.00    -0.080 C 
ATOM     14  C   UNL     1      22.790  48.298  -1.683  1.00  0.00     0.039 C 
ATOM     15  C   UNL     1      20.695  47.181  -0.607  1.00  0.00     0.039 C 
ENDBRANCH  11  12
ENDBRANCH   1  11
TORSDOF 4
ENDMDL
MODEL 3
REMARK VINA RESULT:    -4.959      2.323      6.246
REMARK INTER + INTRA:          -7.615
REMARK INTER:                  -6.759
REMARK INTRA:                  -0.856
REMARK UNBOUND:                -1.497
REMARK SMILES CC(C)=CCC[C@@H](C)c1ccc(C)cc1
REMARK SMILES IDX 6 1 7 2 8 3 9 4 13 5 12 6 11 7 14 8 10 9 15 10 5 11 4 12
REMARK SMILES IDX 2 13 1 14 3 15
REMARK H PARENT
REMARK Flexibility Score: inf
ROOT
ATOM      1  C   UNL     1      20.333  47.498  -4.942  1.00  0.00     0.012 C 
ENDROOT
BRANCH   1   2
ATOM      2  C   UNL     1      21.146  47.926  -3.700  1.00  0.00     0.016 C 
ATOM      3  C   UNL     1      20.889  49.390  -3.310  1.00  0.00     0.013 C 
BRANCH   2   4
ATOM      4  C   UNL     1      20.848  47.007  -2.529  1.00  0.00    -0.045 A 
ATOM      5  C   UNL     1      19.990  44.419   0.822  1.00  0.00     0.044 C 
ATOM      6  C   UNL     1      20.318  45.310  -0.339  1.00  0.00    -0.051 A 
ATOM      7  C   UNL     1      20.553  46.678  -0.135  1.00  0.00     0.004 A 
ATOM      8  C   UNL     1      20.324  44.799  -1.645  1.00  0.00     0.004 A 
ATOM      9  C   UNL     1      20.823  47.518  -1.219  1.00  0.00     0.004 A 
ATOM     10  C   UNL     1      20.593  45.636  -2.730  1.00  0.00     0.004 A 
ENDBRANCH   2   4
ENDBRANCH   1   2
BRANCH   1  11
ATOM     11  C   UNL     1      21.223  46.990  -6.086  1.00  0.00     0.028 C 
BRANCH  11  12
ATOM     12  C   UNL     1      20.655  45.726  -6.682  1.00  0.00    -0.028 C 
ATOM     13  C   UNL     1      21.058  44.478  -6.355  1.00  0.00    -0.080 C 
ATOM     14  C   UNL     1      22.183  44.232  -5.377  1.00  0.00     0.039 C 
ATOM     15  C   UNL     1      20.368  43.307  -7.004  1.00  0.00     0.039 C 
ENDBRANCH  11  12
ENDBRANCH   1  11
TORSDOF 4
ENDMDL
MODEL 4
REMARK VINA RESULT:    -4.852      1.717      2.772
REMARK INTER + INTRA:          -7.484
REMARK INTER:                  -6.860
REMARK INTRA:                  -0.624
REMARK UNBOUND:                -1.497
REMARK SMILES CC(C)=CCC[C@@H](C)c1ccc(C)cc1
REMARK SMILES IDX 6 1 7 2 8 3 9 4 13 5 12 6 11 7 14 8 10 9 15 10 5 11 4 12
REMARK SMILES IDX 2 13 1 14 3 15
REMARK H PARENT
REMARK Flexibility Score: inf
ROOT
ATOM      1  C   UNL     1      19.993  45.203  -4.977  1.00  0.00     0.012 C 
ENDROOT
BRANCH   1   2
ATOM      2  C   UNL     1      21.080  44.554  -5.864  1.00  0.00     0.016 C 
ATOM      3  C   UNL     1      20.511  43.454  -6.774  1.00  0.00     0.013 C 
BRANCH   2   4
ATOM      4  C   UNL     1      21.788  45.611  -6.692  1.00  0.00    -0.045 A 
ATOM      5  C   UNL     1      23.773  48.635  -9.054  1.00  0.00     0.044 C 
ATOM      6  C   UNL     1      23.091  47.564  -8.255  1.00  0.00    -0.051 A 
ATOM      7  C   UNL     1      21.717  47.330  -8.414  1.00  0.00     0.004 A 
ATOM      8  C   UNL     1      23.806  46.835  -7.294  1.00  0.00     0.004 A 
ATOM      9  C   UNL     1      21.072  46.357  -7.645  1.00  0.00     0.004 A 
ATOM     10  C   UNL     1      23.164  45.862  -6.524  1.00  0.00     0.004 A 
ENDBRANCH   2   4
ENDBRANCH   1   2
BRANCH   1  11
ATOM     11  C   UNL     1      20.563  45.788  -3.676  1.00  0.00     0.028 C 
BRANCH  11  12
ATOM     12  C   UNL     1      20.675  44.720  -2.616  1.00  0.00    -0.028 C 
ATOM     13  C   UNL     1      20.672  44.960  -1.286  1.00  0.00    -0.080 C 
ATOM     14  C   UNL     1      20.610  46.362  -0.727  1.00  0.00     0.039 C 
ATOM     15  C   UNL     1      20.750  43.787  -0.344  1.00  0.00     0.039 C 
ENDBRANCH  11  12
ENDBRANCH   1  11
TORSDOF 4
ENDMDL
MODEL 5
REMARK VINA RESULT:    -4.820      2.043      5.747
REMARK INTER + INTRA:          -7.444
REMARK INTER:                  -6.605
REMARK INTRA:                  -0.839
REMARK UNBOUND:                -1.497
REMARK SMILES CC(C)=CCC[C@@H](C)c1ccc(C)cc1
REMARK SMILES IDX 6 1 7 2 8 3 9 4 13 5 12 6 11 7 14 8 10 9 15 10 5 11 4 12
REMARK SMILES IDX 2 13 1 14 3 15
REMARK H PARENT
REMARK Flexibility Score: inf
ROOT
ATOM      1  C   UNL     1      20.346  45.324  -5.752  1.00  0.00     0.012 C 
ENDROOT
BRANCH   1   2
ATOM      2  C   UNL     1      20.965  46.452  -4.897  1.00  0.00     0.016 C 
ATOM      3  C   UNL     1      20.369  47.829  -5.226  1.00  0.00     0.013 C 
BRANCH   2   4
ATOM      4  C   UNL     1      20.803  46.146  -3.419  1.00  0.00    -0.045 A 
ATOM      5  C   UNL     1      20.332  45.307   0.793  1.00  0.00     0.044 C 
ATOM      6  C   UNL     1      20.526  45.593  -0.667  1.00  0.00    -0.051 A 
ATOM      7  C   UNL     1      20.742  46.907  -1.107  1.00  0.00     0.004 A 
ATOM      8  C   UNL     1      20.425  44.560  -1.610  1.00  0.00     0.004 A 
ATOM      9  C   UNL     1      20.886  47.181  -2.470  1.00  0.00     0.004 A 
ATOM     10  C   UNL     1      20.569  44.831  -2.972  1.00  0.00     0.004 A 
ENDBRANCH   2   4
ENDBRANCH   1   2
BRANCH   1  11
ATOM     11  C   UNL     1      21.353  44.703  -6.732  1.00  0.00     0.028 C 
BRANCH  11  12
ATOM     12  C   UNL     1      21.550  45.596  -7.932  1.00  0.00    -0.028 C 
ATOM     13  C   UNL     1      22.668  46.314  -8.175  1.00  0.00    -0.080 C 
ATOM     14  C   UNL     1      23.832  46.332  -7.212  1.00  0.00     0.039 C 
ATOM     15  C   UNL     1      22.737  47.131  -9.439  1.00  0.00     0.039 C 
ENDBRANCH  11  12
ENDBRANCH   1  11
TORSDOF 4
ENDMDL
MODEL 6
REMARK VINA RESULT:    -4.797      1.235      3.604
REMARK INTER + INTRA:          -7.415
REMARK INTER:                  -6.452
REMARK INTRA:                  -0.964
REMARK UNBOUND:                -1.497
REMARK SMILES CC(C)=CCC[C@@H](C)c1ccc(C)cc1
REMARK SMILES IDX 6 1 7 2 8 3 9 4 13 5 12 6 11 7 14 8 10 9 15 10 5 11 4 12
REMARK SMILES IDX 2 13 1 14 3 15
REMARK H PARENT
REMARK Flexibility Score: inf
ROOT
ATOM      1  C   UNL     1      21.257  47.085  -4.144  1.00  0.00     0.012 C 
ENDROOT
BRANCH   1   2
ATOM      2  C   UNL     1      20.654  47.992  -5.239  1.00  0.00     0.016 C 
ATOM      3  C   UNL     1      20.377  49.416  -4.730  1.00  0.00     0.013 C 
BRANCH   2   4
ATOM      4  C   UNL     1      21.563  48.033  -6.454  1.00  0.00    -0.045 A 
ATOM      5  C   UNL     1      24.125  48.158  -9.930  1.00  0.00     0.044 C 
ATOM      6  C   UNL     1      23.241  48.084  -8.721  1.00  0.00    -0.051 A 
ATOM      7  C   UNL     1      21.857  47.905  -8.867  1.00  0.00     0.004 A 
ATOM      8  C   UNL     1      23.779  48.262  -7.438  1.00  0.00     0.004 A 
ATOM      9  C   UNL     1      21.026  47.873  -7.743  1.00  0.00     0.004 A 
ATOM     10  C   UNL     1      22.951  48.230  -6.314  1.00  0.00     0.004 A 
ENDBRANCH   2   4
ENDBRANCH   1   2
BRANCH   1  11
ATOM     11  C   UNL     1      20.372  45.870  -3.828  1.00  0.00     0.028 C 
BRANCH  11  12
ATOM     12  C   UNL     1      20.007  45.133  -5.093  1.00  0.00    -0.028 C 
ATOM     13  C   UNL     1      20.891  44.486  -5.883  1.00  0.00    -0.080 C 
ATOM     14  C   UNL     1      22.374  44.490  -5.593  1.00  0.00     0.039 C 
ATOM     15  C   UNL     1      20.374  43.757  -7.096  1.00  0.00     0.039 C 
ENDBRANCH  11  12
ENDBRANCH   1  11
TORSDOF 4
ENDMDL
MODEL 7
REMARK VINA RESULT:    -4.695      2.102      3.338
REMARK INTER + INTRA:          -7.290
REMARK INTER:                  -6.589
REMARK INTRA:                  -0.701
REMARK UNBOUND:                -1.497
REMARK SMILES CC(C)=CCC[C@@H](C)c1ccc(C)cc1
REMARK SMILES IDX 6 1 7 2 8 3 9 4 13 5 12 6 11 7 14 8 10 9 15 10 5 11 4 12
REMARK SMILES IDX 2 13 1 14 3 15
REMARK H PARENT
REMARK Flexibility Score: inf
ROOT
ATOM      1  C   UNL     1      20.106  45.370  -4.463  1.00  0.00     0.012 C 
ENDROOT
BRANCH   1   2
ATOM      2  C   UNL     1      20.323  46.843  -4.877  1.00  0.00     0.016 C 
ATOM      3  C   UNL     1      21.117  47.633  -3.825  1.00  0.00     0.013 C 
BRANCH   2   4
ATOM      4  C   UNL     1      21.015  46.917  -6.226  1.00  0.00    -0.045 A 
ATOM      5  C   UNL     1      22.965  47.101 -10.077  1.00  0.00     0.044 C 
ATOM      6  C   UNL     1      22.315  47.031  -8.726  1.00  0.00    -0.051 A 
ATOM      7  C   UNL     1      21.767  45.824  -8.268  1.00  0.00     0.004 A 
ATOM      8  C   UNL     1      22.189  48.186  -7.942  1.00  0.00     0.004 A 
ATOM      9  C   UNL     1      21.128  45.766  -7.025  1.00  0.00     0.004 A 
ATOM     10  C   UNL     1      21.551  48.130  -6.700  1.00  0.00     0.004 A 
ENDBRANCH   2   4
ENDBRANCH   1   2
BRANCH   1  11
ATOM     11  C   UNL     1      21.116  44.896  -3.407  1.00  0.00     0.028 C 
BRANCH  11  12
ATOM     12  C   UNL     1      20.417  44.565  -2.112  1.00  0.00    -0.028 C 
ATOM     13  C   UNL     1      20.827  44.983  -0.894  1.00  0.00    -0.080 C 
ATOM     14  C   UNL     1      22.087  45.796  -0.710  1.00  0.00     0.039 C 
ATOM     15  C   UNL     1      20.003  44.608   0.310  1.00  0.00     0.039 C 
ENDBRANCH  11  12
ENDBRANCH   1  11
TORSDOF 4
ENDMDL
MODEL 8
REMARK VINA RESULT:    -4.600      1.702      5.280
REMARK INTER + INTRA:          -7.173
REMARK INTER:                  -6.370
REMARK INTRA:                  -0.803
REMARK UNBOUND:                -1.497
REMARK SMILES CC(C)=CCC[C@@H](C)c1ccc(C)cc1
REMARK SMILES IDX 6 1 7 2 8 3 9 4 13 5 12 6 11 7 14 8 10 9 15 10 5 11 4 12
REMARK SMILES IDX 2 13 1 14 3 15
REMARK H PARENT
REMARK Flexibility Score: inf
ROOT
ATOM      1  C   UNL     1      22.565  45.292  -5.914  1.00  0.00     0.012 C 
ENDROOT
BRANCH   1   2
ATOM      2  C   UNL     1      21.093  45.653  -5.613  1.00  0.00     0.016 C 
ATOM      3  C   UNL     1      20.119  44.549  -6.053  1.00  0.00     0.013 C 
BRANCH   2   4
ATOM      4  C   UNL     1      20.914  45.958  -4.136  1.00  0.00    -0.045 A 
ATOM      5  C   UNL     1      20.413  46.791   0.073  1.00  0.00     0.044 C 
ATOM      6  C   UNL     1      20.557  46.506  -1.393  1.00  0.00    -0.051 A 
ATOM      7  C   UNL     1      20.527  45.183  -1.861  1.00  0.00     0.004 A 
ATOM      8  C   UNL     1      20.790  47.551  -2.298  1.00  0.00     0.004 A 
ATOM      9  C   UNL     1      20.697  44.912  -3.222  1.00  0.00     0.004 A 
ATOM     10  C   UNL     1      20.960  47.282  -3.658  1.00  0.00     0.004 A 
ENDBRANCH   2   4
ENDBRANCH   1   2
BRANCH   1  11
ATOM     11  C   UNL     1      23.385  46.500  -6.389  1.00  0.00     0.028 C 
BRANCH  11  12
ATOM     12  C   UNL     1      23.510  46.502  -7.893  1.00  0.00    -0.028 C 
ATOM     13  C   UNL     1      22.780  47.283  -8.719  1.00  0.00    -0.080 C 
ATOM     14  C   UNL     1      21.705  48.209  -8.202  1.00  0.00     0.039 C 
ATOM     15  C   UNL     1      23.044  47.206 -10.200  1.00  0.00     0.039 C 
ENDBRANCH  11  12
ENDBRANCH   1  11
TORSDOF 4
ENDMDL
MODEL 9
REMARK VINA RESULT:    -4.377      2.136      4.377
REMARK INTER + INTRA:          -6.897
REMARK INTER:                  -6.068
REMARK INTRA:                  -0.829
REMARK UNBOUND:                -1.497
REMARK SMILES CC(C)=CCC[C@@H](C)c1ccc(C)cc1
REMARK SMILES IDX 6 1 7 2 8 3 9 4 13 5 12 6 11 7 14 8 10 9 15 10 5 11 4 12
REMARK SMILES IDX 2 13 1 14 3 15
REMARK H PARENT
REMARK Flexibility Score: inf
ROOT
ATOM      1  C   UNL     1      20.502  48.704  -2.633  1.00  0.00     0.012 C 
ENDROOT
BRANCH   1   2
ATOM      2  C   UNL     1      21.221  49.108  -3.939  1.00  0.00     0.016 C 
ATOM      3  C   UNL     1      22.693  49.481  -3.704  1.00  0.00     0.013 C 
BRANCH   2   4
ATOM      4  C   UNL     1      21.116  47.995  -4.967  1.00  0.00    -0.045 A 
ATOM      5  C   UNL     1      20.790  44.815  -7.873  1.00  0.00     0.044 C 
ATOM      6  C   UNL     1      20.932  45.909  -6.856  1.00  0.00    -0.051 A 
ATOM      7  C   UNL     1      20.441  45.731  -5.554  1.00  0.00     0.004 A 
ATOM      8  C   UNL     1      21.492  47.143  -7.217  1.00  0.00     0.004 A 
ATOM      9  C   UNL     1      20.538  46.762  -4.616  1.00  0.00     0.004 A 
ATOM     10  C   UNL     1      21.591  48.175  -6.281  1.00  0.00     0.004 A 
ENDBRANCH   2   4
ENDBRANCH   1   2
BRANCH   1  11
ATOM     11  C   UNL     1      21.480  48.297  -1.520  1.00  0.00     0.028 C 
BRANCH  11  12
ATOM     12  C   UNL     1      20.775  47.488  -0.460  1.00  0.00    -0.028 C 
ATOM     13  C   UNL     1      20.759  46.138  -0.413  1.00  0.00    -0.080 C 
ATOM     14  C   UNL     1      21.417  45.293  -1.479  1.00  0.00     0.039 C 
ATOM     15  C   UNL     1      20.047  45.467   0.732  1.00  0.00     0.039 C 
ENDBRANCH  11  12
ENDBRANCH   1  11
TORSDOF 4
ENDMDL
