MODEL 1
REMARK VINA RESULT:    89.902      0.000      0.000
REMARK INTER + INTRA:         101.131
REMARK INTER:                 100.413
REMARK INTRA:                   0.718
REMARK UNBOUND:                 0.718
REMARK SMILES CC1(C)CC[C@]2(CO)CC=C3[C@@](C)(CC[C@@H]4[C@@]5(C)CC[C@H](O)C(C)(C)[C@H]5CC[C@]34C)[C@@H]2C1
REMARK SMILES IDX 1 1 2 2 4 3 5 4 6 5 9 6 10 7 11 8 29 9 28 10 27 11 26 12
REMARK SMILES IDX 23 13 21 14 20 15 19 16 17 17 16 18 15 19 14 20 12 21 31 22
REMARK SMILES IDX 32 23 13 24 18 25 24 26 25 27 30 28 3 29 7 30 8 31 22 33
REMARK H PARENT 8 32 22 34
REMARK Flexibility Score: inf
ROOT
ATOM      1  C   UNL     1     -36.700  19.075   5.737  1.00  0.00     0.011 C 
ATOM      2  C   UNL     1     -37.167  20.469   5.256  1.00  0.00    -0.035 C 
ATOM      3  C   UNL     1     -38.123  21.115   6.312  1.00  0.00     0.007 C 
ATOM      4  C   UNL     1     -37.642  22.478   6.836  1.00  0.00     0.010 C 
ATOM      5  C   UNL     1     -36.167  22.460   7.341  1.00  0.00     0.001 C 
ATOM      6  C   UNL     1     -35.798  23.913   7.703  1.00  0.00     0.037 C 
ATOM      7  C   UNL     1     -34.336  24.045   7.962  1.00  0.00    -0.026 C 
ATOM      8  C   UNL     1     -33.422  23.647   7.048  1.00  0.00    -0.062 C 
ATOM      9  C   UNL     1     -31.929  24.084   7.218  1.00  0.00    -0.008 C 
ATOM     10  C   UNL     1     -31.349  23.252   8.386  1.00  0.00     0.012 C 
ATOM     11  C   UNL     1     -29.845  23.432   8.612  1.00  0.00     0.006 C 
ATOM     12  C   UNL     1     -28.953  23.121   7.366  1.00  0.00     0.003 C 
ATOM     13  C   UNL     1     -27.401  23.299   7.711  1.00  0.00    -0.006 C 
ATOM     14  C   UNL     1     -27.030  24.818   7.792  1.00  0.00     0.120 C 
ATOM     15  C   UNL     1     -27.495  25.633   6.568  1.00  0.00     0.033 C 
ATOM     16  C   UNL     1     -28.999  25.447   6.292  1.00  0.00     0.010 C 
ATOM     17  C   UNL     1     -29.445  23.956   6.112  1.00  0.00    -0.025 C 
ATOM     18  C   UNL     1     -31.043  23.808   5.930  1.00  0.00     0.005 C 
ATOM     19  C   UNL     1     -31.407  22.455   5.220  1.00  0.00     0.006 C 
ATOM     20  C   UNL     1     -32.748  21.810   5.548  1.00  0.00     0.012 C 
ATOM     21  C   UNL     1     -33.900  22.787   5.874  1.00  0.00    -0.008 C 
ATOM     22  C   UNL     1     -35.184  21.882   6.236  1.00  0.00     0.008 C 
ATOM     23  C   UNL     1     -35.939  21.379   4.963  1.00  0.00     0.011 C 
ATOM     24  C   UNL     1     -34.185  23.722   4.669  1.00  0.00     0.016 C 
ATOM     25  C   UNL     1     -28.790  23.464   4.770  1.00  0.00     0.012 C 
ATOM     26  C   UNL     1     -27.060  22.655   9.089  1.00  0.00     0.014 C 
ATOM     27  C   UNL     1     -26.505  22.551   6.679  1.00  0.00     0.014 C 
ATOM     28  C   UNL     1     -31.921  25.627   7.541  1.00  0.00     0.016 C 
ATOM     29  C   UNL     1     -37.940  20.265   3.930  1.00  0.00     0.011 C 
ENDROOT
BRANCH   5  30
ATOM     30  C   UNL     1     -36.107  21.599   8.648  1.00  0.00     0.163 C 
BRANCH  30  31
ATOM     31  O   UNL     1     -36.198  20.227   8.363  1.00  0.00    -0.396 OA
ATOM     32  H   UNL     1     -35.864  19.752   9.167  1.00  0.00     0.210 HD
ENDBRANCH  30  31
ENDBRANCH   5  30
BRANCH  14  33
ATOM     33  O   UNL     1     -25.655  25.007   8.032  1.00  0.00    -0.393 OA
ATOM     34  H   UNL     1     -25.553  25.603   8.822  1.00  0.00     0.210 HD
ENDBRANCH  14  33
TORSDOF 3
ENDMDL
MODEL 2
REMARK VINA RESULT:    90.799      1.561      3.126
REMARK INTER + INTRA:         102.133
REMARK INTER:                 101.145
REMARK INTRA:                   0.988
REMARK UNBOUND:                 0.718
REMARK SMILES CC1(C)CC[C@]2(CO)CC=C3[C@@](C)(CC[C@@H]4[C@@]5(C)CC[C@H](O)C(C)(C)[C@H]5CC[C@]34C)[C@@H]2C1
REMARK SMILES IDX 1 1 2 2 4 3 5 4 6 5 9 6 10 7 11 8 29 9 28 10 27 11 26 12
REMARK SMILES IDX 23 13 21 14 20 15 19 16 17 17 16 18 15 19 14 20 12 21 31 22
REMARK SMILES IDX 32 23 13 24 18 25 24 26 25 27 30 28 3 29 7 30 8 31 22 33
REMARK H PARENT 8 32 22 34
REMARK Flexibility Score: inf
ROOT
ATOM      1  C   UNL     1     -37.777  22.750   8.892  1.00  0.00     0.011 C 
ATOM      2  C   UNL     1     -37.484  21.446   8.114  1.00  0.00    -0.035 C 
ATOM      3  C   UNL     1     -38.124  21.508   6.689  1.00  0.00     0.007 C 
ATOM      4  C   UNL     1     -37.114  21.325   5.544  1.00  0.00     0.010 C 
ATOM      5  C   UNL     1     -35.880  22.272   5.653  1.00  0.00     0.001 C 
ATOM      6  C   UNL     1     -34.910  21.877   4.522  1.00  0.00     0.037 C 
ATOM      7  C   UNL     1     -33.591  22.553   4.687  1.00  0.00    -0.026 C 
ATOM      8  C   UNL     1     -32.885  22.443   5.835  1.00  0.00    -0.062 C 
ATOM      9  C   UNL     1     -31.388  22.896   5.859  1.00  0.00    -0.008 C 
ATOM     10  C   UNL     1     -31.386  24.443   5.826  1.00  0.00     0.012 C 
ATOM     11  C   UNL     1     -30.006  25.083   5.993  1.00  0.00     0.006 C 
ATOM     12  C   UNL     1     -29.245  24.671   7.294  1.00  0.00     0.003 C 
ATOM     13  C   UNL     1     -27.834  25.420   7.398  1.00  0.00    -0.006 C 
ATOM     14  C   UNL     1     -26.803  24.780   6.408  1.00  0.00     0.120 C 
ATOM     15  C   UNL     1     -26.705  23.246   6.523  1.00  0.00     0.033 C 
ATOM     16  C   UNL     1     -28.085  22.572   6.393  1.00  0.00     0.010 C 
ATOM     17  C   UNL     1     -29.158  23.092   7.409  1.00  0.00    -0.025 C 
ATOM     18  C   UNL     1     -30.612  22.431   7.163  1.00  0.00     0.005 C 
ATOM     19  C   UNL     1     -31.495  22.514   8.459  1.00  0.00     0.006 C 
ATOM     20  C   UNL     1     -33.007  22.603   8.292  1.00  0.00     0.012 C 
ATOM     21  C   UNL     1     -33.591  21.867   7.066  1.00  0.00    -0.008 C 
ATOM     22  C   UNL     1     -35.178  22.146   7.072  1.00  0.00     0.008 C 
ATOM     23  C   UNL     1     -35.950  21.193   8.042  1.00  0.00     0.011 C 
ATOM     24  C   UNL     1     -33.281  20.348   7.139  1.00  0.00     0.016 C 
ATOM     25  C   UNL     1     -28.681  22.619   8.829  1.00  0.00     0.012 C 
ATOM     26  C   UNL     1     -27.976  26.927   7.027  1.00  0.00     0.014 C 
ATOM     27  C   UNL     1     -27.296  25.408   8.860  1.00  0.00     0.014 C 
ATOM     28  C   UNL     1     -30.688  22.285   4.585  1.00  0.00     0.016 C 
ATOM     29  C   UNL     1     -38.125  20.281   8.908  1.00  0.00     0.011 C 
ENDROOT
BRANCH   5  30
ATOM     30  C   UNL     1     -36.362  23.739   5.396  1.00  0.00     0.163 C 
BRANCH  30  31
ATOM     31  O   UNL     1     -37.471  24.062   6.194  1.00  0.00    -0.396 OA
ATOM     32  H   UNL     1     -37.218  23.841   7.128  1.00  0.00     0.210 HD
ENDBRANCH  30  31
ENDBRANCH   5  30
BRANCH  14  33
ATOM     33  O   UNL     1     -25.532  25.378   6.520  1.00  0.00    -0.393 OA
ATOM     34  H   UNL     1     -25.646  26.365   6.494  1.00  0.00     0.210 HD
ENDBRANCH  14  33
TORSDOF 3
ENDMDL
