MODEL 1
REMARK VINA RESULT:    -5.024      0.000      0.000
REMARK INTER + INTRA:          -9.938
REMARK INTER:                  -8.842
REMARK INTRA:                  -1.097
REMARK UNBOUND:                -1.097
REMARK SMILES CCCCCCCCCCCCCCC(=O)[O-]
REMARK SMILES IDX 9 1 10 2 11 3 12 4 13 5 14 6 15 7 16 8 17 9 8 10 7 11 6 12
REMARK SMILES IDX 5 13 4 14 3 15 2 16 1 17
REMARK H PARENT
REMARK Flexibility Score: inf
ROOT
ATOM      1  C   UNL     1     -19.696  39.128  86.421  1.00  0.00     0.000 C 
ENDROOT
BRANCH   1   2
ATOM      2  C   UNL     1     -19.835  37.833  85.607  1.00  0.00     0.000 C 
BRANCH   2   3
ATOM      3  C   UNL     1     -18.972  37.829  84.331  1.00  0.00     0.000 C 
BRANCH   3   4
ATOM      4  C   UNL     1     -18.016  36.629  84.198  1.00  0.00     0.000 C 
BRANCH   4   5
ATOM      5  C   UNL     1     -16.943  36.836  83.114  1.00  0.00     0.006 C 
BRANCH   5   6
ATOM      6  C   UNL     1     -16.776  35.598  82.224  1.00  0.00     0.053 C 
BRANCH   6   7
ATOM      7  C   UNL     1     -17.230  35.862  80.820  1.00  0.00     0.041 C 
ATOM      8  O   UNL     1     -17.261  37.039  80.374  1.00  0.00    -0.550 OA
ATOM      9  O   UNL     1     -17.585  34.803  79.994  1.00  0.00    -0.550 OA
ENDBRANCH   6   7
ENDBRANCH   5   6
ENDBRANCH   4   5
ENDBRANCH   3   4
ENDBRANCH   2   3
ENDBRANCH   1   2
BRANCH   1  10
ATOM     10  C   UNL     1     -21.060  39.591  86.953  1.00  0.00     0.000 C 
BRANCH  10  11
ATOM     11  C   UNL     1     -20.983  40.142  88.385  1.00  0.00    -0.000 C 
BRANCH  11  12
ATOM     12  C   UNL     1     -19.662  40.873  88.668  1.00  0.00    -0.000 C 
BRANCH  12  13
ATOM     13  C   UNL     1     -19.113  40.497  90.052  1.00  0.00    -0.000 C 
BRANCH  13  14
ATOM     14  C   UNL     1     -17.992  39.447  89.978  1.00  0.00    -0.000 C 
BRANCH  14  15
ATOM     15  C   UNL     1     -18.419  38.084  90.554  1.00  0.00    -0.000 C 
BRANCH  15  16
ATOM     16  C   UNL     1     -18.978  37.140  89.479  1.00  0.00    -0.003 C 
ATOM     17  C   UNL     1     -17.996  36.034  89.098  1.00  0.00     0.004 C 
ENDBRANCH  15  16
ENDBRANCH  14  15
ENDBRANCH  13  14
ENDBRANCH  12  13
ENDBRANCH  11  12
ENDBRANCH  10  11
ENDBRANCH   1  10
TORSDOF 13
ENDMDL
MODEL 2
REMARK VINA RESULT:    -4.997      8.488     11.489
REMARK INTER + INTRA:          -9.891
REMARK INTER:                  -8.933
REMARK INTRA:                  -0.957
REMARK UNBOUND:                -1.097
REMARK SMILES CCCCCCCCCCCCCCC(=O)[O-]
REMARK SMILES IDX 9 1 10 2 11 3 12 4 13 5 14 6 15 7 16 8 17 9 8 10 7 11 6 12
REMARK SMILES IDX 5 13 4 14 3 15 2 16 1 17
REMARK H PARENT
REMARK Flexibility Score: inf
ROOT
ATOM      1  C   UNL     1     -24.682  45.778  87.542  1.00  0.00     0.000 C 
ENDROOT
BRANCH   1   2
ATOM      2  C   UNL     1     -26.084  45.523  88.115  1.00  0.00     0.000 C 
BRANCH   2   3
ATOM      3  C   UNL     1     -26.408  46.409  89.332  1.00  0.00     0.000 C 
BRANCH   3   4
ATOM      4  C   UNL     1     -26.969  45.657  90.552  1.00  0.00     0.000 C 
BRANCH   4   5
ATOM      5  C   UNL     1     -26.113  44.443  90.953  1.00  0.00     0.006 C 
BRANCH   5   6
ATOM      6  C   UNL     1     -26.950  43.334  91.603  1.00  0.00     0.053 C 
BRANCH   6   7
ATOM      7  C   UNL     1     -28.056  42.877  90.700  1.00  0.00     0.041 C 
ATOM      8  O   UNL     1     -29.254  42.934  91.084  1.00  0.00    -0.550 OA
ATOM      9  O   UNL     1     -27.765  42.420  89.421  1.00  0.00    -0.550 OA
ENDBRANCH   6   7
ENDBRANCH   5   6
ENDBRANCH   4   5
ENDBRANCH   3   4
ENDBRANCH   2   3
ENDBRANCH   1   2
BRANCH   1  10
ATOM     10  C   UNL     1     -23.637  44.892  88.235  1.00  0.00     0.000 C 
BRANCH  10  11
ATOM     11  C   UNL     1     -22.408  44.621  87.352  1.00  0.00    -0.000 C 
BRANCH  11  12
ATOM     12  C   UNL     1     -22.023  45.830  86.487  1.00  0.00    -0.000 C 
BRANCH  12  13
ATOM     13  C   UNL     1     -21.266  45.383  85.228  1.00  0.00    -0.000 C 
BRANCH  13  14
ATOM     14  C   UNL     1     -20.608  44.003  85.392  1.00  0.00    -0.000 C 
BRANCH  14  15
ATOM     15  C   UNL     1     -19.089  44.096  85.626  1.00  0.00    -0.000 C 
BRANCH  15  16
ATOM     16  C   UNL     1     -18.360  44.810  84.479  1.00  0.00    -0.003 C 
ATOM     17  C   UNL     1     -17.210  45.689  84.968  1.00  0.00     0.004 C 
ENDBRANCH  15  16
ENDBRANCH  14  15
ENDBRANCH  13  14
ENDBRANCH  12  13
ENDBRANCH  11  12
ENDBRANCH  10  11
ENDBRANCH   1  10
TORSDOF 13
ENDMDL
MODEL 3
REMARK VINA RESULT:    -4.995      5.451      7.754
REMARK INTER + INTRA:          -9.888
REMARK INTER:                  -8.527
REMARK INTRA:                  -1.361
REMARK UNBOUND:                -1.097
REMARK SMILES CCCCCCCCCCCCCCC(=O)[O-]
REMARK SMILES IDX 9 1 10 2 11 3 12 4 13 5 14 6 15 7 16 8 17 9 8 10 7 11 6 12
REMARK SMILES IDX 5 13 4 14 3 15 2 16 1 17
REMARK H PARENT
REMARK Flexibility Score: inf
ROOT
ATOM      1  C   UNL     1     -19.788  41.550  86.816  1.00  0.00     0.000 C 
ENDROOT
BRANCH   1   2
ATOM      2  C   UNL     1     -21.184  41.034  87.194  1.00  0.00     0.000 C 
BRANCH   2   3
ATOM      3  C   UNL     1     -21.299  39.500  87.121  1.00  0.00     0.000 C 
BRANCH   3   4
ATOM      4  C   UNL     1     -19.961  38.744  87.207  1.00  0.00     0.000 C 
BRANCH   4   5
ATOM      5  C   UNL     1     -19.873  37.820  88.434  1.00  0.00     0.006 C 
BRANCH   5   6
ATOM      6  C   UNL     1     -20.040  38.589  89.750  1.00  0.00     0.053 C 
BRANCH   6   7
ATOM      7  C   UNL     1     -18.871  39.488  90.017  1.00  0.00     0.041 C 
ATOM      8  O   UNL     1     -19.045  40.725  90.173  1.00  0.00    -0.550 OA
ATOM      9  O   UNL     1     -17.594  38.953  90.130  1.00  0.00    -0.550 OA
ENDBRANCH   6   7
ENDBRANCH   5   6
ENDBRANCH   4   5
ENDBRANCH   3   4
ENDBRANCH   2   3
ENDBRANCH   1   2
BRANCH   1  10
ATOM     10  C   UNL     1     -19.883  42.863  86.026  1.00  0.00     0.000 C 
BRANCH  10  11
ATOM     11  C   UNL     1     -20.413  44.030  86.875  1.00  0.00    -0.000 C 
BRANCH  11  12
ATOM     12  C   UNL     1     -21.307  44.988  86.072  1.00  0.00    -0.000 C 
BRANCH  12  13
ATOM     13  C   UNL     1     -20.867  45.046  84.602  1.00  0.00    -0.000 C 
BRANCH  13  14
ATOM     14  C   UNL     1     -20.026  46.293  84.286  1.00  0.00    -0.000 C 
BRANCH  14  15
ATOM     15  C   UNL     1     -18.747  45.960  83.495  1.00  0.00    -0.000 C 
BRANCH  15  16
ATOM     16  C   UNL     1     -17.469  46.332  84.261  1.00  0.00    -0.003 C 
ATOM     17  C   UNL     1     -17.094  45.298  85.320  1.00  0.00     0.004 C 
ENDBRANCH  15  16
ENDBRANCH  14  15
ENDBRANCH  13  14
ENDBRANCH  12  13
ENDBRANCH  11  12
ENDBRANCH  10  11
ENDBRANCH   1  10
TORSDOF 13
ENDMDL
MODEL 4
REMARK VINA RESULT:    -4.990      1.325      2.497
REMARK INTER + INTRA:          -9.878
REMARK INTER:                  -8.858
REMARK INTRA:                  -1.020
REMARK UNBOUND:                -1.097
REMARK SMILES CCCCCCCCCCCCCCC(=O)[O-]
REMARK SMILES IDX 9 1 10 2 11 3 12 4 13 5 14 6 15 7 16 8 17 9 8 10 7 11 6 12
REMARK SMILES IDX 5 13 4 14 3 15 2 16 1 17
REMARK H PARENT
REMARK Flexibility Score: inf
ROOT
ATOM      1  C   UNL     1     -18.988  37.417  84.095  1.00  0.00     0.000 C 
ENDROOT
BRANCH   1   2
ATOM      2  C   UNL     1     -17.890  36.355  83.926  1.00  0.00     0.000 C 
BRANCH   2   3
ATOM      3  C   UNL     1     -16.721  36.834  83.045  1.00  0.00     0.000 C 
BRANCH   3   4
ATOM      4  C   UNL     1     -16.453  35.973  81.797  1.00  0.00     0.000 C 
BRANCH   4   5
ATOM      5  C   UNL     1     -17.647  35.079  81.418  1.00  0.00     0.006 C 
BRANCH   5   6
ATOM      6  C   UNL     1     -18.078  35.278  79.960  1.00  0.00     0.053 C 
BRANCH   6   7
ATOM      7  C   UNL     1     -18.619  36.656  79.727  1.00  0.00     0.041 C 
ATOM      8  O   UNL     1     -19.522  37.118  80.473  1.00  0.00    -0.550 OA
ATOM      9  O   UNL     1     -18.100  37.444  78.707  1.00  0.00    -0.550 OA
ENDBRANCH   6   7
ENDBRANCH   5   6
ENDBRANCH   4   5
ENDBRANCH   3   4
ENDBRANCH   2   3
ENDBRANCH   1   2
BRANCH   1  10
ATOM     10  C   UNL     1     -19.185  37.770  85.576  1.00  0.00     0.000 C 
BRANCH  10  11
ATOM     11  C   UNL     1     -20.488  38.544  85.833  1.00  0.00    -0.000 C 
BRANCH  11  12
ATOM     12  C   UNL     1     -20.915  38.512  87.308  1.00  0.00    -0.000 C 
BRANCH  12  13
ATOM     13  C   UNL     1     -20.009  39.414  88.160  1.00  0.00    -0.000 C 
BRANCH  13  14
ATOM     14  C   UNL     1     -20.288  39.277  89.666  1.00  0.00    -0.000 C 
BRANCH  14  15
ATOM     15  C   UNL     1     -19.820  37.926  90.235  1.00  0.00    -0.000 C 
BRANCH  15  16
ATOM     16  C   UNL     1     -18.376  37.587  89.833  1.00  0.00    -0.003 C 
ATOM     17  C   UNL     1     -18.231  36.165  89.296  1.00  0.00     0.004 C 
ENDBRANCH  15  16
ENDBRANCH  14  15
ENDBRANCH  13  14
ENDBRANCH  12  13
ENDBRANCH  11  12
ENDBRANCH  10  11
ENDBRANCH   1  10
TORSDOF 13
ENDMDL
MODEL 5
REMARK VINA RESULT:    -4.972      1.664      3.861
REMARK INTER + INTRA:          -9.848
REMARK INTER:                  -9.146
REMARK INTRA:                  -0.702
REMARK UNBOUND:                -1.097
REMARK SMILES CCCCCCCCCCCCCCC(=O)[O-]
REMARK SMILES IDX 9 1 10 2 11 3 12 4 13 5 14 6 15 7 16 8 17 9 8 10 7 11 6 12
REMARK SMILES IDX 5 13 4 14 3 15 2 16 1 17
REMARK H PARENT
REMARK Flexibility Score: inf
ROOT
ATOM      1  C   UNL     1     -16.806  37.307  83.264  1.00  0.00     0.000 C 
ENDROOT
BRANCH   1   2
ATOM      2  C   UNL     1     -16.154  36.181  82.448  1.00  0.00     0.000 C 
BRANCH   2   3
ATOM      3  C   UNL     1     -17.124  35.027  82.133  1.00  0.00     0.000 C 
BRANCH   3   4
ATOM      4  C   UNL     1     -17.170  34.603  80.654  1.00  0.00     0.000 C 
BRANCH   4   5
ATOM      5  C   UNL     1     -18.398  35.155  79.910  1.00  0.00     0.006 C 
BRANCH   5   6
ATOM      6  C   UNL     1     -18.599  36.655  80.159  1.00  0.00     0.053 C 
BRANCH   6   7
ATOM      7  C   UNL     1     -19.239  37.330  78.984  1.00  0.00     0.041 C 
ATOM      8  O   UNL     1     -18.578  37.537  77.933  1.00  0.00    -0.550 OA
ATOM      9  O   UNL     1     -20.578  37.698  79.038  1.00  0.00    -0.550 OA
ENDBRANCH   6   7
ENDBRANCH   5   6
ENDBRANCH   4   5
ENDBRANCH   3   4
ENDBRANCH   2   3
ENDBRANCH   1   2
BRANCH   1  10
ATOM     10  C   UNL     1     -17.965  36.768  84.115  1.00  0.00     0.000 C 
BRANCH  10  11
ATOM     11  C   UNL     1     -19.131  37.763  84.228  1.00  0.00    -0.000 C 
BRANCH  11  12
ATOM     12  C   UNL     1     -19.793  37.744  85.614  1.00  0.00    -0.000 C 
BRANCH  12  13
ATOM     13  C   UNL     1     -19.793  39.147  86.239  1.00  0.00    -0.000 C 
BRANCH  13  14
ATOM     14  C   UNL     1     -20.234  39.137  87.712  1.00  0.00    -0.000 C 
BRANCH  14  15
ATOM     15  C   UNL     1     -19.842  37.838  88.439  1.00  0.00    -0.000 C 
BRANCH  15  16
ATOM     16  C   UNL     1     -19.713  38.029  89.957  1.00  0.00    -0.003 C 
ATOM     17  C   UNL     1     -18.260  38.094  90.422  1.00  0.00     0.004 C 
ENDBRANCH  15  16
ENDBRANCH  14  15
ENDBRANCH  13  14
ENDBRANCH  12  13
ENDBRANCH  11  12
ENDBRANCH  10  11
ENDBRANCH   1  10
TORSDOF 13
ENDMDL
MODEL 6
REMARK VINA RESULT:    -4.853      6.047      8.266
REMARK INTER + INTRA:          -9.639
REMARK INTER:                  -8.215
REMARK INTRA:                  -1.423
REMARK UNBOUND:                -1.097
REMARK SMILES CCCCCCCCCCCCCCC(=O)[O-]
REMARK SMILES IDX 9 1 10 2 11 3 12 4 13 5 14 6 15 7 16 8 17 9 8 10 7 11 6 12
REMARK SMILES IDX 5 13 4 14 3 15 2 16 1 17
REMARK H PARENT
REMARK Flexibility Score: inf
ROOT
ATOM      1  C   UNL     1     -20.558  43.619  85.632  1.00  0.00     0.000 C 
ENDROOT
BRANCH   1   2
ATOM      2  C   UNL     1     -19.851  42.673  86.614  1.00  0.00     0.000 C 
BRANCH   2   3
ATOM      3  C   UNL     1     -20.728  42.292  87.820  1.00  0.00     0.000 C 
BRANCH   3   4
ATOM      4  C   UNL     1     -21.611  41.048  87.614  1.00  0.00     0.000 C 
BRANCH   4   5
ATOM      5  C   UNL     1     -20.850  39.873  86.974  1.00  0.00     0.006 C 
BRANCH   5   6
ATOM      6  C   UNL     1     -20.818  38.640  87.886  1.00  0.00     0.053 C 
BRANCH   6   7
ATOM      7  C   UNL     1     -19.985  38.880  89.109  1.00  0.00     0.041 C 
ATOM      8  O   UNL     1     -18.859  39.436  89.012  1.00  0.00    -0.550 OA
ATOM      9  O   UNL     1     -20.468  38.521  90.361  1.00  0.00    -0.550 OA
ENDBRANCH   6   7
ENDBRANCH   5   6
ENDBRANCH   4   5
ENDBRANCH   3   4
ENDBRANCH   2   3
ENDBRANCH   1   2
BRANCH   1  10
ATOM     10  C   UNL     1     -20.666  45.036  86.215  1.00  0.00     0.000 C 
BRANCH  10  11
ATOM     11  C   UNL     1     -21.775  45.868  85.553  1.00  0.00    -0.000 C 
BRANCH  11  12
ATOM     12  C   UNL     1     -21.221  46.984  84.653  1.00  0.00    -0.000 C 
BRANCH  12  13
ATOM     13  C   UNL     1     -21.000  46.473  83.222  1.00  0.00    -0.000 C 
BRANCH  13  14
ATOM     14  C   UNL     1     -19.557  46.684  82.734  1.00  0.00    -0.000 C 
BRANCH  14  15
ATOM     15  C   UNL     1     -18.581  45.640  83.306  1.00  0.00    -0.000 C 
BRANCH  15  16
ATOM     16  C   UNL     1     -17.607  46.244  84.328  1.00  0.00    -0.003 C 
ATOM     17  C   UNL     1     -17.095  45.216  85.335  1.00  0.00     0.004 C 
ENDBRANCH  15  16
ENDBRANCH  14  15
ENDBRANCH  13  14
ENDBRANCH  12  13
ENDBRANCH  11  12
ENDBRANCH  10  11
ENDBRANCH   1  10
TORSDOF 13
ENDMDL
MODEL 7
REMARK VINA RESULT:    -4.835      5.932      8.330
REMARK INTER + INTRA:          -9.607
REMARK INTER:                  -8.501
REMARK INTRA:                  -1.106
REMARK UNBOUND:                -1.097
REMARK SMILES CCCCCCCCCCCCCCC(=O)[O-]
REMARK SMILES IDX 9 1 10 2 11 3 12 4 13 5 14 6 15 7 16 8 17 9 8 10 7 11 6 12
REMARK SMILES IDX 5 13 4 14 3 15 2 16 1 17
REMARK H PARENT
REMARK Flexibility Score: inf
ROOT
ATOM      1  C   UNL     1     -20.626  42.177  87.834  1.00  0.00     0.000 C 
ENDROOT
BRANCH   1   2
ATOM      2  C   UNL     1     -21.405  40.860  87.970  1.00  0.00     0.000 C 
BRANCH   2   3
ATOM      3  C   UNL     1     -20.853  39.739  87.071  1.00  0.00     0.000 C 
BRANCH   3   4
ATOM      4  C   UNL     1     -20.615  38.394  87.782  1.00  0.00     0.000 C 
BRANCH   4   5
ATOM      5  C   UNL     1     -19.491  38.461  88.830  1.00  0.00     0.006 C 
BRANCH   5   6
ATOM      6  C   UNL     1     -19.981  38.069  90.229  1.00  0.00     0.053 C 
BRANCH   6   7
ATOM      7  C   UNL     1     -20.180  39.272  91.101  1.00  0.00     0.041 C 
ATOM      8  O   UNL     1     -19.209  40.026  91.374  1.00  0.00    -0.550 OA
ATOM      9  O   UNL     1     -21.446  39.579  91.585  1.00  0.00    -0.550 OA
ENDBRANCH   6   7
ENDBRANCH   5   6
ENDBRANCH   4   5
ENDBRANCH   3   4
ENDBRANCH   2   3
ENDBRANCH   1   2
BRANCH   1  10
ATOM     10  C   UNL     1     -19.864  42.229  86.502  1.00  0.00     0.000 C 
BRANCH  10  11
ATOM     11  C   UNL     1     -20.233  43.457  85.655  1.00  0.00    -0.000 C 
BRANCH  11  12
ATOM     12  C   UNL     1     -19.402  44.697  86.015  1.00  0.00    -0.000 C 
BRANCH  12  13
ATOM     13  C   UNL     1     -17.986  44.598  85.427  1.00  0.00    -0.000 C 
BRANCH  13  14
ATOM     14  C   UNL     1     -17.860  45.302  84.067  1.00  0.00    -0.000 C 
BRANCH  14  15
ATOM     15  C   UNL     1     -18.714  46.580  83.981  1.00  0.00    -0.000 C 
BRANCH  15  16
ATOM     16  C   UNL     1     -19.478  46.688  82.653  1.00  0.00    -0.003 C 
ATOM     17  C   UNL     1     -20.809  45.939  82.675  1.00  0.00     0.004 C 
ENDBRANCH  15  16
ENDBRANCH  14  15
ENDBRANCH  13  14
ENDBRANCH  12  13
ENDBRANCH  11  12
ENDBRANCH  10  11
ENDBRANCH   1  10
TORSDOF 13
ENDMDL
MODEL 8
REMARK VINA RESULT:    -4.833      5.416      7.930
REMARK INTER + INTRA:          -9.603
REMARK INTER:                  -7.960
REMARK INTRA:                  -1.643
REMARK UNBOUND:                -1.097
REMARK SMILES CCCCCCCCCCCCCCC(=O)[O-]
REMARK SMILES IDX 9 1 10 2 11 3 12 4 13 5 14 6 15 7 16 8 17 9 8 10 7 11 6 12
REMARK SMILES IDX 5 13 4 14 3 15 2 16 1 17
REMARK H PARENT
REMARK Flexibility Score: inf
ROOT
ATOM      1  C   UNL     1     -22.425  44.109  87.512  1.00  0.00     0.000 C 
ENDROOT
BRANCH   1   2
ATOM      2  C   UNL     1     -21.748  43.789  88.853  1.00  0.00     0.000 C 
BRANCH   2   3
ATOM      3  C   UNL     1     -21.180  42.359  88.914  1.00  0.00     0.000 C 
BRANCH   3   4
ATOM      4  C   UNL     1     -21.582  41.450  87.739  1.00  0.00     0.000 C 
BRANCH   4   5
ATOM      5  C   UNL     1     -20.378  40.753  87.081  1.00  0.00     0.006 C 
BRANCH   5   6
ATOM      6  C   UNL     1     -19.518  39.999  88.103  1.00  0.00     0.053 C 
BRANCH   6   7
ATOM      7  C   UNL     1     -19.958  38.575  88.252  1.00  0.00     0.041 C 
ATOM      8  O   UNL     1     -20.779  38.075  87.439  1.00  0.00    -0.550 OA
ATOM      9  O   UNL     1     -19.434  37.787  89.270  1.00  0.00    -0.550 OA
ENDBRANCH   6   7
ENDBRANCH   5   6
ENDBRANCH   4   5
ENDBRANCH   3   4
ENDBRANCH   2   3
ENDBRANCH   1   2
BRANCH   1  10
ATOM     10  C   UNL     1     -22.049  45.517  87.029  1.00  0.00     0.000 C 
BRANCH  10  11
ATOM     11  C   UNL     1     -20.784  45.527  86.156  1.00  0.00    -0.000 C 
BRANCH  11  12
ATOM     12  C   UNL     1     -20.584  44.211  85.388  1.00  0.00    -0.000 C 
BRANCH  12  13
ATOM     13  C   UNL     1     -19.103  43.804  85.374  1.00  0.00    -0.000 C 
BRANCH  13  14
ATOM     14  C   UNL     1     -18.162  44.991  85.637  1.00  0.00    -0.000 C 
BRANCH  14  15
ATOM     15  C   UNL     1     -17.529  45.542  84.347  1.00  0.00    -0.000 C 
BRANCH  15  16
ATOM     16  C   UNL     1     -18.053  46.939  83.985  1.00  0.00    -0.003 C 
ATOM     17  C   UNL     1     -19.158  46.900  82.930  1.00  0.00     0.004 C 
ENDBRANCH  15  16
ENDBRANCH  14  15
ENDBRANCH  13  14
ENDBRANCH  12  13
ENDBRANCH  11  12
ENDBRANCH  10  11
ENDBRANCH   1  10
TORSDOF 13
ENDMDL
MODEL 9
REMARK VINA RESULT:    -4.822      8.207     11.410
REMARK INTER + INTRA:          -9.583
REMARK INTER:                  -7.886
REMARK INTRA:                  -1.697
REMARK UNBOUND:                -1.097
REMARK SMILES CCCCCCCCCCCCCCC(=O)[O-]
REMARK SMILES IDX 9 1 10 2 11 3 12 4 13 5 14 6 15 7 16 8 17 9 8 10 7 11 6 12
REMARK SMILES IDX 5 13 4 14 3 15 2 16 1 17
REMARK H PARENT
REMARK Flexibility Score: inf
ROOT
ATOM      1  C   UNL     1     -24.402  45.942  86.962  1.00  0.00     0.000 C 
ENDROOT
BRANCH   1   2
ATOM      2  C   UNL     1     -25.874  46.006  87.397  1.00  0.00     0.000 C 
BRANCH   2   3
ATOM      3  C   UNL     1     -26.100  46.909  88.624  1.00  0.00     0.000 C 
BRANCH   3   4
ATOM      4  C   UNL     1     -26.726  46.204  89.841  1.00  0.00     0.000 C 
BRANCH   4   5
ATOM      5  C   UNL     1     -26.510  44.681  89.829  1.00  0.00     0.006 C 
BRANCH   5   6
ATOM      6  C   UNL     1     -27.190  43.992  91.018  1.00  0.00     0.053 C 
BRANCH   6   7
ATOM      7  C   UNL     1     -28.210  42.991  90.567  1.00  0.00     0.041 C 
ATOM      8  O   UNL     1     -29.108  42.599  91.359  1.00  0.00    -0.550 OA
ATOM      9  O   UNL     1     -28.190  42.517  89.261  1.00  0.00    -0.550 OA
ENDBRANCH   6   7
ENDBRANCH   5   6
ENDBRANCH   4   5
ENDBRANCH   3   4
ENDBRANCH   2   3
ENDBRANCH   1   2
BRANCH   1  10
ATOM     10  C   UNL     1     -23.468  46.265  88.138  1.00  0.00     0.000 C 
BRANCH  10  11
ATOM     11  C   UNL     1     -22.835  45.009  88.757  1.00  0.00    -0.000 C 
BRANCH  11  12
ATOM     12  C   UNL     1     -23.121  43.739  87.941  1.00  0.00    -0.000 C 
BRANCH  12  13
ATOM     13  C   UNL     1     -21.834  42.931  87.717  1.00  0.00    -0.000 C 
BRANCH  13  14
ATOM     14  C   UNL     1     -20.613  43.826  87.452  1.00  0.00    -0.000 C 
BRANCH  14  15
ATOM     15  C   UNL     1     -20.202  43.843  85.968  1.00  0.00    -0.000 C 
BRANCH  15  16
ATOM     16  C   UNL     1     -21.015  44.852  85.144  1.00  0.00    -0.003 C 
ATOM     17  C   UNL     1     -20.748  46.299  85.553  1.00  0.00     0.004 C 
ENDBRANCH  15  16
ENDBRANCH  14  15
ENDBRANCH  13  14
ENDBRANCH  12  13
ENDBRANCH  11  12
ENDBRANCH  10  11
ENDBRANCH   1  10
TORSDOF 13
ENDMDL
