MODEL 1
REMARK VINA RESULT:    -4.466      0.000      0.000
REMARK INTER + INTRA:          -5.760
REMARK INTER:                  -5.510
REMARK INTRA:                  -0.249
REMARK UNBOUND:                -0.249
REMARK SMILES CCCCC=CC(C)=O
REMARK SMILES IDX 4 1 3 2 2 3 1 4 5 5 6 6 7 7 9 8 8 9
REMARK H PARENT
REMARK Flexibility Score: inf
ROOT
ATOM      1  C   UNL     1      27.543  18.197  26.887  1.00  0.00     0.027 C 
ENDROOT
BRANCH   1   2
ATOM      2  C   UNL     1      29.042  18.470  27.088  1.00  0.00     0.004 C 
BRANCH   2   3
ATOM      3  C   UNL     1      29.678  17.496  28.091  1.00  0.00    -0.003 C 
ATOM      4  C   UNL     1      28.995  17.585  29.452  1.00  0.00     0.004 C 
ENDBRANCH   2   3
ENDBRANCH   1   2
BRANCH   1   5
ATOM      5  C   UNL     1      26.692  19.384  27.248  1.00  0.00    -0.023 C 
ATOM      6  C   UNL     1      27.213  20.614  27.336  1.00  0.00     0.042 C 
BRANCH   6   7
ATOM      7  C   UNL     1      26.417  21.808  27.690  1.00  0.00     0.152 C 
ATOM      8  O   UNL     1      26.779  22.505  28.674  1.00  0.00    -0.295 OA
ATOM      9  C   UNL     1      25.197  22.217  26.920  1.00  0.00     0.093 C 
ENDBRANCH   6   7
ENDBRANCH   1   5
TORSDOF 4
ENDMDL
MODEL 2
REMARK VINA RESULT:    -4.387      2.237      4.536
REMARK INTER + INTRA:          -5.662
REMARK INTER:                  -5.375
REMARK INTRA:                  -0.287
REMARK UNBOUND:                -0.249
REMARK SMILES CCCCC=CC(C)=O
REMARK SMILES IDX 4 1 3 2 2 3 1 4 5 5 6 6 7 7 9 8 8 9
REMARK H PARENT
REMARK Flexibility Score: inf
ROOT
ATOM      1  C   UNL     1      25.441  18.536  27.141  1.00  0.00     0.027 C 
ENDROOT
BRANCH   1   2
ATOM      2  C   UNL     1      25.138  19.747  28.036  1.00  0.00     0.004 C 
BRANCH   2   3
ATOM      3  C   UNL     1      25.408  21.079  27.320  1.00  0.00    -0.003 C 
ATOM      4  C   UNL     1      26.506  21.870  28.024  1.00  0.00     0.004 C 
ENDBRANCH   2   3
ENDBRANCH   1   2
BRANCH   1   5
ATOM      5  C   UNL     1      26.905  18.194  27.118  1.00  0.00    -0.023 C 
ATOM      6  C   UNL     1      27.648  18.231  28.231  1.00  0.00     0.042 C 
BRANCH   6   7
ATOM      7  C   UNL     1      29.089  17.906  28.255  1.00  0.00     0.152 C 
ATOM      8  O   UNL     1      29.579  17.418  29.307  1.00  0.00    -0.295 OA
ATOM      9  C   UNL     1      29.985  18.135  27.075  1.00  0.00     0.093 C 
ENDBRANCH   6   7
ENDBRANCH   1   5
TORSDOF 4
ENDMDL
MODEL 3
REMARK VINA RESULT:    -4.320     12.205     12.946
REMARK INTER + INTRA:          -5.579
REMARK INTER:                  -5.336
REMARK INTRA:                  -0.243
REMARK UNBOUND:                -0.249
REMARK SMILES CCCCC=CC(C)=O
REMARK SMILES IDX 4 1 3 2 2 3 1 4 5 5 6 6 7 7 9 8 8 9
REMARK H PARENT
REMARK Flexibility Score: inf
ROOT
ATOM      1  C   UNL     1      30.900  20.835  16.124  1.00  0.00     0.027 C 
ENDROOT
BRANCH   1   2
ATOM      2  C   UNL     1      31.130  19.877  14.945  1.00  0.00     0.004 C 
BRANCH   2   3
ATOM      3  C   UNL     1      30.791  18.423  15.306  1.00  0.00    -0.003 C 
ATOM      4  C   UNL     1      32.043  17.652  15.713  1.00  0.00     0.004 C 
ENDBRANCH   2   3
ENDBRANCH   1   2
BRANCH   1   5
ATOM      5  C   UNL     1      32.136  21.021  16.960  1.00  0.00    -0.023 C 
ATOM      6  C   UNL     1      33.345  21.146  16.400  1.00  0.00     0.042 C 
BRANCH   6   7
ATOM      7  C   UNL     1      34.586  21.328  17.181  1.00  0.00     0.152 C 
ATOM      8  O   UNL     1      35.677  20.953  16.676  1.00  0.00    -0.295 OA
ATOM      9  C   UNL     1      34.593  21.942  18.548  1.00  0.00     0.093 C 
ENDBRANCH   6   7
ENDBRANCH   1   5
TORSDOF 4
ENDMDL
MODEL 4
REMARK VINA RESULT:    -4.299     12.220     13.219
REMARK INTER + INTRA:          -5.554
REMARK INTER:                  -5.263
REMARK INTRA:                  -0.290
REMARK UNBOUND:                -0.249
REMARK SMILES CCCCC=CC(C)=O
REMARK SMILES IDX 4 1 3 2 2 3 1 4 5 5 6 6 7 7 9 8 8 9
REMARK H PARENT
REMARK Flexibility Score: inf
ROOT
ATOM      1  C   UNL     1      35.145  19.964  16.152  1.00  0.00     0.027 C 
ENDROOT
BRANCH   1   2
ATOM      2  C   UNL     1      34.917  21.464  16.392  1.00  0.00     0.004 C 
BRANCH   2   3
ATOM      3  C   UNL     1      35.213  21.870  17.843  1.00  0.00    -0.003 C 
ATOM      4  C   UNL     1      33.979  21.705  18.724  1.00  0.00     0.004 C 
ENDBRANCH   2   3
ENDBRANCH   1   2
BRANCH   1   5
ATOM      5  C   UNL     1      33.864  19.227  15.875  1.00  0.00    -0.023 C 
ATOM      6  C   UNL     1      32.720  19.880  15.639  1.00  0.00     0.042 C 
BRANCH   6   7
ATOM      7  C   UNL     1      31.438  19.199  15.365  1.00  0.00     0.152 C 
ATOM      8  O   UNL     1      30.479  19.877  14.912  1.00  0.00    -0.295 OA
ATOM      9  C   UNL     1      31.241  17.732  15.607  1.00  0.00     0.093 C 
ENDBRANCH   6   7
ENDBRANCH   1   5
TORSDOF 4
ENDMDL
MODEL 5
REMARK VINA RESULT:    -4.167     10.782     11.899
REMARK INTER + INTRA:          -5.391
REMARK INTER:                  -5.133
REMARK INTRA:                  -0.258
REMARK UNBOUND:                -0.249
REMARK SMILES CCCCC=CC(C)=O
REMARK SMILES IDX 4 1 3 2 2 3 1 4 5 5 6 6 7 7 9 8 8 9
REMARK H PARENT
REMARK Flexibility Score: inf
ROOT
ATOM      1  C   UNL     1      34.938  21.610  18.054  1.00  0.00     0.027 C 
ENDROOT
BRANCH   1   2
ATOM      2  C   UNL     1      34.689  21.289  16.573  1.00  0.00     0.004 C 
BRANCH   2   3
ATOM      3  C   UNL     1      35.738  20.321  16.005  1.00  0.00    -0.003 C 
ATOM      4  C   UNL     1      35.111  18.975  15.654  1.00  0.00     0.004 C 
ENDBRANCH   2   3
ENDBRANCH   1   2
BRANCH   1   5
ATOM      5  C   UNL     1      33.865  21.055  18.949  1.00  0.00    -0.023 C 
ATOM      6  C   UNL     1      33.058  20.068  18.541  1.00  0.00     0.042 C 
BRANCH   6   7
ATOM      7  C   UNL     1      31.990  19.493  19.384  1.00  0.00     0.152 C 
ATOM      8  O   UNL     1      30.887  19.205  18.848  1.00  0.00    -0.295 OA
ATOM      9  C   UNL     1      32.171  19.241  20.850  1.00  0.00     0.093 C 
ENDBRANCH   6   7
ENDBRANCH   1   5
TORSDOF 4
ENDMDL
MODEL 6
REMARK VINA RESULT:    -4.120      2.424      4.542
REMARK INTER + INTRA:          -5.333
REMARK INTER:                  -5.070
REMARK INTRA:                  -0.263
REMARK UNBOUND:                -0.249
REMARK SMILES CCCCC=CC(C)=O
REMARK SMILES IDX 4 1 3 2 2 3 1 4 5 5 6 6 7 7 9 8 8 9
REMARK H PARENT
REMARK Flexibility Score: inf
ROOT
ATOM      1  C   UNL     1      26.988  20.459  26.384  1.00  0.00     0.027 C 
ENDROOT
BRANCH   1   2
ATOM      2  C   UNL     1      26.079  20.829  27.565  1.00  0.00     0.004 C 
BRANCH   2   3
ATOM      3  C   UNL     1      26.783  21.752  28.572  1.00  0.00    -0.003 C 
ATOM      4  C   UNL     1      26.908  21.082  29.937  1.00  0.00     0.004 C 
ENDBRANCH   2   3
ENDBRANCH   1   2
BRANCH   1   5
ATOM      5  C   UNL     1      28.245  19.761  26.826  1.00  0.00    -0.023 C 
ATOM      6  C   UNL     1      28.215  18.519  27.324  1.00  0.00     0.042 C 
BRANCH   6   7
ATOM      7  C   UNL     1      29.423  17.796  27.773  1.00  0.00     0.152 C 
ATOM      8  O   UNL     1      30.301  17.500  26.920  1.00  0.00    -0.295 OA
ATOM      9  C   UNL     1      29.640  17.405  29.203  1.00  0.00     0.093 C 
ENDBRANCH   6   7
ENDBRANCH   1   5
TORSDOF 4
ENDMDL
MODEL 7
REMARK VINA RESULT:    -4.110      1.591      2.426
REMARK INTER + INTRA:          -5.321
REMARK INTER:                  -5.103
REMARK INTRA:                  -0.218
REMARK UNBOUND:                -0.249
REMARK SMILES CCCCC=CC(C)=O
REMARK SMILES IDX 4 1 3 2 2 3 1 4 5 5 6 6 7 7 9 8 8 9
REMARK H PARENT
REMARK Flexibility Score: inf
ROOT
ATOM      1  C   UNL     1      29.024  17.795  29.312  1.00  0.00     0.027 C 
ENDROOT
BRANCH   1   2
ATOM      2  C   UNL     1      29.857  17.399  28.083  1.00  0.00     0.004 C 
BRANCH   2   3
ATOM      3  C   UNL     1      29.678  18.386  26.920  1.00  0.00    -0.003 C 
ATOM      4  C   UNL     1      30.881  18.355  25.982  1.00  0.00     0.004 C 
ENDBRANCH   2   3
ENDBRANCH   1   2
BRANCH   1   5
ATOM      5  C   UNL     1      28.066  18.916  29.017  1.00  0.00    -0.023 C 
ATOM      6  C   UNL     1      28.068  20.044  29.737  1.00  0.00     0.042 C 
BRANCH   6   7
ATOM      7  C   UNL     1      27.145  21.169  29.485  1.00  0.00     0.152 C 
ATOM      8  O   UNL     1      26.854  21.936  30.440  1.00  0.00    -0.295 OA
ATOM      9  C   UNL     1      26.544  21.429  28.136  1.00  0.00     0.093 C 
ENDBRANCH   6   7
ENDBRANCH   1   5
TORSDOF 4
ENDMDL
MODEL 8
REMARK VINA RESULT:    -4.106     12.386     13.638
REMARK INTER + INTRA:          -5.316
REMARK INTER:                  -5.075
REMARK INTRA:                  -0.241
REMARK UNBOUND:                -0.249
REMARK SMILES CCCCC=CC(C)=O
REMARK SMILES IDX 4 1 3 2 2 3 1 4 5 5 6 6 7 7 9 8 8 9
REMARK H PARENT
REMARK Flexibility Score: inf
ROOT
ATOM      1  C   UNL     1      32.533  20.729  17.936  1.00  0.00     0.027 C 
ENDROOT
BRANCH   1   2
ATOM      2  C   UNL     1      31.212  20.386  17.230  1.00  0.00     0.004 C 
BRANCH   2   3
ATOM      3  C   UNL     1      30.879  21.381  16.108  1.00  0.00    -0.003 C 
ATOM      4  C   UNL     1      30.302  20.665  14.891  1.00  0.00     0.004 C 
ENDBRANCH   2   3
ENDBRANCH   1   2
BRANCH   1   5
ATOM      5  C   UNL     1      33.735  20.301  17.140  1.00  0.00    -0.023 C 
ATOM      6  C   UNL     1      33.737  19.162  16.437  1.00  0.00     0.042 C 
BRANCH   6   7
ATOM      7  C   UNL     1      34.895  18.701  15.644  1.00  0.00     0.152 C 
ATOM      8  O   UNL     1      34.933  17.498  15.275  1.00  0.00    -0.295 OA
ATOM      9  C   UNL     1      36.022  19.613  15.263  1.00  0.00     0.093 C 
ENDBRANCH   6   7
ENDBRANCH   1   5
TORSDOF 4
ENDMDL
MODEL 9
REMARK VINA RESULT:    -4.069     12.426     13.245
REMARK INTER + INTRA:          -5.270
REMARK INTER:                  -5.086
REMARK INTRA:                  -0.185
REMARK UNBOUND:                -0.249
REMARK SMILES CCCCC=CC(C)=O
REMARK SMILES IDX 4 1 3 2 2 3 1 4 5 5 6 6 7 7 9 8 8 9
REMARK H PARENT
REMARK Flexibility Score: inf
ROOT
ATOM      1  C   UNL     1      34.483  21.462  16.903  1.00  0.00     0.027 C 
ENDROOT
BRANCH   1   2
ATOM      2  C   UNL     1      35.589  20.415  16.701  1.00  0.00     0.004 C 
BRANCH   2   3
ATOM      3  C   UNL     1      35.473  19.703  15.345  1.00  0.00    -0.003 C 
ATOM      4  C   UNL     1      35.028  18.254  15.521  1.00  0.00     0.004 C 
ENDBRANCH   2   3
ENDBRANCH   1   2
BRANCH   1   5
ATOM      5  C   UNL     1      33.282  21.200  16.036  1.00  0.00    -0.023 C 
ATOM      6  C   UNL     1      32.050  21.134  16.553  1.00  0.00     0.042 C 
BRANCH   6   7
ATOM      7  C   UNL     1      30.842  20.877  15.741  1.00  0.00     0.152 C 
ATOM      8  O   UNL     1      29.909  21.722  15.762  1.00  0.00    -0.295 OA
ATOM      9  C   UNL     1      30.690  19.648  14.895  1.00  0.00     0.093 C 
ENDBRANCH   6   7
ENDBRANCH   1   5
TORSDOF 4
ENDMDL
