MODEL 1
REMARK VINA RESULT:    -4.930      0.000      0.000
REMARK INTER + INTRA:          -8.144
REMARK INTER:                  -7.524
REMARK INTRA:                  -0.620
REMARK UNBOUND:                -0.620
REMARK SMILES O=C([O-])CCCCCCCCC(=O)[O-]
REMARK SMILES IDX 7 1 6 2 5 3 4 4 2 5 1 6 3 7 8 8 9 9 10 10 11 11 12 12 13 13
REMARK SMILES IDX 14 14
REMARK H PARENT
REMARK Flexibility Score: inf
ROOT
ATOM      1  C   UNL     1      48.481  34.118  16.367  1.00  0.00     0.000 C 
ENDROOT
BRANCH   1   2
ATOM      2  C   UNL     1      47.598  33.798  15.150  1.00  0.00     0.000 C 
BRANCH   2   3
ATOM      3  C   UNL     1      48.411  33.293  13.946  1.00  0.00     0.006 C 
BRANCH   3   4
ATOM      4  C   UNL     1      48.517  34.348  12.837  1.00  0.00     0.053 C 
BRANCH   4   5
ATOM      5  C   UNL     1      49.108  33.780  11.583  1.00  0.00     0.041 C 
ATOM      6  O   UNL     1      48.363  33.282  10.699  1.00  0.00    -0.550 OA
ATOM      7  O   UNL     1      50.485  33.777  11.403  1.00  0.00    -0.550 OA
ENDBRANCH   4   5
ENDBRANCH   3   4
ENDBRANCH   2   3
ENDBRANCH   1   2
BRANCH   1   8
ATOM      8  C   UNL     1      48.267  33.136  17.529  1.00  0.00     0.000 C 
BRANCH   8   9
ATOM      9  C   UNL     1      49.506  32.257  17.740  1.00  0.00     0.000 C 
BRANCH   9  10
ATOM     10  C   UNL     1      49.322  30.881  17.090  1.00  0.00     0.006 C 
BRANCH  10  11
ATOM     11  C   UNL     1      47.923  30.324  17.368  1.00  0.00     0.053 C 
BRANCH  11  12
ATOM     12  C   UNL     1      47.499  29.398  16.273  1.00  0.00     0.041 C 
ATOM     13  O   UNL     1      46.864  29.841  15.280  1.00  0.00    -0.550 OA
ATOM     14  O   UNL     1      47.762  28.038  16.372  1.00  0.00    -0.550 OA
ENDBRANCH  11  12
ENDBRANCH  10  11
ENDBRANCH   9  10
ENDBRANCH   8   9
ENDBRANCH   1   8
TORSDOF 9
ENDMDL
MODEL 2
REMARK VINA RESULT:    -4.815      0.800      5.278
REMARK INTER + INTRA:          -7.968
REMARK INTER:                  -7.198
REMARK INTRA:                  -0.770
REMARK UNBOUND:                -0.620
REMARK SMILES O=C([O-])CCCCCCCCC(=O)[O-]
REMARK SMILES IDX 7 1 6 2 5 3 4 4 2 5 1 6 3 7 8 8 9 9 10 10 11 11 12 12 13 13
REMARK SMILES IDX 14 14
REMARK H PARENT
REMARK Flexibility Score: inf
ROOT
ATOM      1  C   UNL     1      49.272  33.072  17.597  1.00  0.00     0.000 C 
ENDROOT
BRANCH   1   2
ATOM      2  C   UNL     1      48.605  31.689  17.670  1.00  0.00     0.000 C 
BRANCH   2   3
ATOM      3  C   UNL     1      49.525  30.562  17.171  1.00  0.00     0.006 C 
BRANCH   3   4
ATOM      4  C   UNL     1      49.175  30.120  15.744  1.00  0.00     0.053 C 
BRANCH   4   5
ATOM      5  C   UNL     1      47.965  29.237  15.715  1.00  0.00     0.041 C 
ATOM      6  O   UNL     1      48.043  28.039  16.095  1.00  0.00    -0.550 OA
ATOM      7  O   UNL     1      46.755  29.730  15.243  1.00  0.00    -0.550 OA
ENDBRANCH   4   5
ENDBRANCH   3   4
ENDBRANCH   2   3
ENDBRANCH   1   2
BRANCH   1   8
ATOM      8  C   UNL     1      48.393  34.119  16.895  1.00  0.00     0.000 C 
BRANCH   8   9
ATOM      9  C   UNL     1      47.705  33.519  15.662  1.00  0.00     0.000 C 
BRANCH   9  10
ATOM     10  C   UNL     1      48.310  34.076  14.368  1.00  0.00     0.006 C 
BRANCH  10  11
ATOM     11  C   UNL     1      48.585  32.955  13.362  1.00  0.00     0.053 C 
BRANCH  11  12
ATOM     12  C   UNL     1      48.842  33.521  12.002  1.00  0.00     0.041 C 
ATOM     13  O   UNL     1      49.998  33.905  11.683  1.00  0.00    -0.550 OA
ATOM     14  O   UNL     1      47.794  33.672  11.103  1.00  0.00    -0.550 OA
ENDBRANCH  11  12
ENDBRANCH  10  11
ENDBRANCH   9  10
ENDBRANCH   8   9
ENDBRANCH   1   8
TORSDOF 9
ENDMDL
MODEL 3
REMARK VINA RESULT:    -4.655      1.303      1.780
REMARK INTER + INTRA:          -7.724
REMARK INTER:                  -7.065
REMARK INTRA:                  -0.659
REMARK UNBOUND:                -0.620
REMARK SMILES O=C([O-])CCCCCCCCC(=O)[O-]
REMARK SMILES IDX 7 1 6 2 5 3 4 4 2 5 1 6 3 7 8 8 9 9 10 10 11 11 12 12 13 13
REMARK SMILES IDX 14 14
REMARK H PARENT
REMARK Flexibility Score: inf
ROOT
ATOM      1  C   UNL     1      48.428  33.903  17.260  1.00  0.00     0.000 C 
ENDROOT
BRANCH   1   2
ATOM      2  C   UNL     1      47.463  33.858  16.064  1.00  0.00     0.000 C 
BRANCH   2   3
ATOM      3  C   UNL     1      48.126  33.307  14.790  1.00  0.00     0.006 C 
BRANCH   3   4
ATOM      4  C   UNL     1      48.282  34.384  13.708  1.00  0.00     0.053 C 
BRANCH   4   5
ATOM      5  C   UNL     1      48.852  33.822  12.441  1.00  0.00     0.041 C 
ATOM      6  O   UNL     1      49.980  34.199  12.031  1.00  0.00    -0.550 OA
ATOM      7  O   UNL     1      48.123  32.901  11.700  1.00  0.00    -0.550 OA
ENDBRANCH   4   5
ENDBRANCH   3   4
ENDBRANCH   2   3
ENDBRANCH   1   2
BRANCH   1   8
ATOM      8  C   UNL     1      49.113  32.553  17.521  1.00  0.00     0.000 C 
BRANCH   8   9
ATOM      9  C   UNL     1      48.126  31.544  18.120  1.00  0.00     0.000 C 
BRANCH   9  10
ATOM     10  C   UNL     1      48.015  30.294  17.240  1.00  0.00     0.006 C 
BRANCH  10  11
ATOM     11  C   UNL     1      49.225  30.168  16.308  1.00  0.00     0.053 C 
BRANCH  11  12
ATOM     12  C   UNL     1      49.472  28.735  15.958  1.00  0.00     0.041 C 
ATOM     13  O   UNL     1      48.504  27.970  15.704  1.00  0.00    -0.550 OA
ATOM     14  O   UNL     1      50.766  28.232  15.962  1.00  0.00    -0.550 OA
ENDBRANCH  11  12
ENDBRANCH  10  11
ENDBRANCH   9  10
ENDBRANCH   8   9
ENDBRANCH   1   8
TORSDOF 9
ENDMDL
MODEL 4
REMARK VINA RESULT:    -4.500      3.450      6.092
REMARK INTER + INTRA:          -7.487
REMARK INTER:                  -6.948
REMARK INTRA:                  -0.540
REMARK UNBOUND:                -0.620
REMARK SMILES O=C([O-])CCCCCCCCC(=O)[O-]
REMARK SMILES IDX 7 1 6 2 5 3 4 4 2 5 1 6 3 7 8 8 9 9 10 10 11 11 12 12 13 13
REMARK SMILES IDX 14 14
REMARK H PARENT
REMARK Flexibility Score: inf
ROOT
ATOM      1  C   UNL     1      48.544  33.121  13.730  1.00  0.00     0.000 C 
ENDROOT
BRANCH   1   2
ATOM      2  C   UNL     1      48.455  31.681  14.260  1.00  0.00     0.000 C 
BRANCH   2   3
ATOM      3  C   UNL     1      47.897  31.610  15.691  1.00  0.00     0.006 C 
BRANCH   3   4
ATOM      4  C   UNL     1      47.793  32.997  16.340  1.00  0.00     0.053 C 
BRANCH   4   5
ATOM      5  C   UNL     1      48.896  33.235  17.324  1.00  0.00     0.041 C 
ATOM      6  O   UNL     1      49.169  34.405  17.702  1.00  0.00    -0.550 OA
ATOM      7  O   UNL     1      49.642  32.166  17.805  1.00  0.00    -0.550 OA
ENDBRANCH   4   5
ENDBRANCH   3   4
ENDBRANCH   2   3
ENDBRANCH   1   2
BRANCH   1   8
ATOM      8  C   UNL     1      48.564  33.189  12.196  1.00  0.00     0.000 C 
BRANCH   8   9
ATOM      9  C   UNL     1      47.429  34.078  11.671  1.00  0.00     0.000 C 
BRANCH   9  10
ATOM     10  C   UNL     1      46.815  34.912  12.801  1.00  0.00     0.006 C 
BRANCH  10  11
ATOM     11  C   UNL     1      45.603  35.704  12.304  1.00  0.00     0.053 C 
BRANCH  11  12
ATOM     12  C   UNL     1      44.576  35.826  13.385  1.00  0.00     0.041 C 
ATOM     13  O   UNL     1      43.450  36.331  13.135  1.00  0.00    -0.550 OA
ATOM     14  O   UNL     1      44.880  35.428  14.680  1.00  0.00    -0.550 OA
ENDBRANCH  11  12
ENDBRANCH  10  11
ENDBRANCH   9  10
ENDBRANCH   8   9
ENDBRANCH   1   8
TORSDOF 9
ENDMDL
MODEL 5
REMARK VINA RESULT:    -4.450      1.828      3.000
REMARK INTER + INTRA:          -7.410
REMARK INTER:                  -6.763
REMARK INTRA:                  -0.648
REMARK UNBOUND:                -0.620
REMARK SMILES O=C([O-])CCCCCCCCC(=O)[O-]
REMARK SMILES IDX 7 1 6 2 5 3 4 4 2 5 1 6 3 7 8 8 9 9 10 10 11 11 12 12 13 13
REMARK SMILES IDX 14 14
REMARK H PARENT
REMARK Flexibility Score: inf
ROOT
ATOM      1  C   UNL     1      49.039  31.602  17.301  1.00  0.00     0.000 C 
ENDROOT
BRANCH   1   2
ATOM      2  C   UNL     1      48.376  32.933  17.691  1.00  0.00     0.000 C 
BRANCH   2   3
ATOM      3  C   UNL     1      48.515  34.006  16.598  1.00  0.00     0.006 C 
BRANCH   3   4
ATOM      4  C   UNL     1      47.516  33.796  15.452  1.00  0.00     0.053 C 
BRANCH   4   5
ATOM      5  C   UNL     1      48.210  33.523  14.153  1.00  0.00     0.041 C 
ATOM      6  O   UNL     1      48.510  34.471  13.381  1.00  0.00    -0.550 OA
ATOM      7  O   UNL     1      48.500  32.216  13.781  1.00  0.00    -0.550 OA
ENDBRANCH   4   5
ENDBRANCH   3   4
ENDBRANCH   2   3
ENDBRANCH   1   2
BRANCH   1   8
ATOM      8  C   UNL     1      48.127  30.391  17.546  1.00  0.00     0.000 C 
BRANCH   8   9
ATOM      9  C   UNL     1      47.407  29.977  16.257  1.00  0.00     0.000 C 
BRANCH   9  10
ATOM     10  C   UNL     1      48.186  28.884  15.517  1.00  0.00     0.006 C 
BRANCH  10  11
ATOM     11  C   UNL     1      48.942  27.986  16.501  1.00  0.00     0.053 C 
BRANCH  11  12
ATOM     12  C   UNL     1      48.505  26.563  16.356  1.00  0.00     0.041 C 
ATOM     13  O   UNL     1      48.516  26.010  15.225  1.00  0.00    -0.550 OA
ATOM     14  O   UNL     1      48.036  25.864  17.461  1.00  0.00    -0.550 OA
ENDBRANCH  11  12
ENDBRANCH  10  11
ENDBRANCH   9  10
ENDBRANCH   8   9
ENDBRANCH   1   8
TORSDOF 9
ENDMDL
MODEL 6
REMARK VINA RESULT:    -4.440      5.486      9.083
REMARK INTER + INTRA:          -7.396
REMARK INTER:                  -6.791
REMARK INTRA:                  -0.605
REMARK UNBOUND:                -0.620
REMARK SMILES O=C([O-])CCCCCCCCC(=O)[O-]
REMARK SMILES IDX 7 1 6 2 5 3 4 4 2 5 1 6 3 7 8 8 9 9 10 10 11 11 12 12 13 13
REMARK SMILES IDX 14 14
REMARK H PARENT
REMARK Flexibility Score: inf
ROOT
ATOM      1  C   UNL     1      48.751  25.209  20.800  1.00  0.00     0.000 C 
ENDROOT
BRANCH   1   2
ATOM      2  C   UNL     1      48.316  26.346  21.739  1.00  0.00     0.000 C 
BRANCH   2   3
ATOM      3  C   UNL     1      49.475  26.883  22.594  1.00  0.00     0.006 C 
BRANCH   3   4
ATOM      4  C   UNL     1      50.722  25.993  22.502  1.00  0.00     0.053 C 
BRANCH   4   5
ATOM      5  C   UNL     1      51.909  26.748  21.988  1.00  0.00     0.041 C 
ATOM      6  O   UNL     1      52.544  27.526  22.748  1.00  0.00    -0.550 OA
ATOM      7  O   UNL     1      52.297  26.615  20.661  1.00  0.00    -0.550 OA
ENDBRANCH   4   5
ENDBRANCH   3   4
ENDBRANCH   2   3
ENDBRANCH   1   2
BRANCH   1   8
ATOM      8  C   UNL     1      48.465  25.517  19.322  1.00  0.00     0.000 C 
BRANCH   8   9
ATOM      9  C   UNL     1      49.734  25.359  18.474  1.00  0.00     0.000 C 
BRANCH   9  10
ATOM     10  C   UNL     1      49.425  25.538  16.983  1.00  0.00     0.006 C 
BRANCH  10  11
ATOM     11  C   UNL     1      48.132  26.334  16.782  1.00  0.00     0.053 C 
BRANCH  11  12
ATOM     12  C   UNL     1      48.436  27.712  16.285  1.00  0.00     0.041 C 
ATOM     13  O   UNL     1      49.588  27.993  15.864  1.00  0.00    -0.550 OA
ATOM     14  O   UNL     1      47.460  28.699  16.334  1.00  0.00    -0.550 OA
ENDBRANCH  11  12
ENDBRANCH  10  11
ENDBRANCH   9  10
ENDBRANCH   8   9
ENDBRANCH   1   8
TORSDOF 9
ENDMDL
MODEL 7
REMARK VINA RESULT:    -4.403      5.485      8.056
REMARK INTER + INTRA:          -7.339
REMARK INTER:                  -6.734
REMARK INTRA:                  -0.605
REMARK UNBOUND:                -0.620
REMARK SMILES O=C([O-])CCCCCCCCC(=O)[O-]
REMARK SMILES IDX 7 1 6 2 5 3 4 4 2 5 1 6 3 7 8 8 9 9 10 10 11 11 12 12 13 13
REMARK SMILES IDX 14 14
REMARK H PARENT
REMARK Flexibility Score: inf
ROOT
ATOM      1  C   UNL     1      48.444  25.578  19.455  1.00  0.00     0.000 C 
ENDROOT
BRANCH   1   2
ATOM      2  C   UNL     1      49.664  25.232  18.587  1.00  0.00     0.000 C 
BRANCH   2   3
ATOM      3  C   UNL     1      49.442  25.555  17.099  1.00  0.00     0.006 C 
BRANCH   3   4
ATOM      4  C   UNL     1      48.148  26.345  16.867  1.00  0.00     0.053 C 
BRANCH   4   5
ATOM      5  C   UNL     1      48.421  27.711  16.315  1.00  0.00     0.041 C 
ATOM      6  O   UNL     1      47.484  28.542  16.185  1.00  0.00    -0.550 OA
ATOM      7  O   UNL     1      49.707  28.056  15.919  1.00  0.00    -0.550 OA
ENDBRANCH   4   5
ENDBRANCH   3   4
ENDBRANCH   2   3
ENDBRANCH   1   2
BRANCH   1   8
ATOM      8  C   UNL     1      48.659  25.246  20.939  1.00  0.00     0.000 C 
BRANCH   8   9
ATOM      9  C   UNL     1      48.294  26.442  21.828  1.00  0.00     0.000 C 
BRANCH   9  10
ATOM     10  C   UNL     1      49.504  26.913  22.641  1.00  0.00     0.006 C 
BRANCH  10  11
ATOM     11  C   UNL     1      50.690  25.960  22.464  1.00  0.00     0.053 C 
BRANCH  11  12
ATOM     12  C   UNL     1      51.880  26.695  21.934  1.00  0.00     0.041 C 
ATOM     13  O   UNL     1      52.291  26.476  20.765  1.00  0.00    -0.550 OA
ATOM     14  O   UNL     1      52.565  27.587  22.749  1.00  0.00    -0.550 OA
ENDBRANCH  11  12
ENDBRANCH  10  11
ENDBRANCH   9  10
ENDBRANCH   8   9
ENDBRANCH   1   8
TORSDOF 9
ENDMDL
MODEL 8
REMARK VINA RESULT:    -4.393      2.877      6.248
REMARK INTER + INTRA:          -7.323
REMARK INTER:                  -6.712
REMARK INTRA:                  -0.611
REMARK UNBOUND:                -0.620
REMARK SMILES O=C([O-])CCCCCCCCC(=O)[O-]
REMARK SMILES IDX 7 1 6 2 5 3 4 4 2 5 1 6 3 7 8 8 9 9 10 10 11 11 12 12 13 13
REMARK SMILES IDX 14 14
REMARK H PARENT
REMARK Flexibility Score: inf
ROOT
ATOM      1  C   UNL     1      49.170  30.164  16.402  1.00  0.00     0.000 C 
ENDROOT
BRANCH   1   2
ATOM      2  C   UNL     1      49.541  28.700  16.115  1.00  0.00     0.000 C 
BRANCH   2   3
ATOM      3  C   UNL     1      48.476  27.711  16.618  1.00  0.00     0.006 C 
BRANCH   3   4
ATOM      4  C   UNL     1      48.510  26.384  15.847  1.00  0.00     0.053 C 
BRANCH   4   5
ATOM      5  C   UNL     1      49.706  25.559  16.213  1.00  0.00     0.041 C 
ATOM      6  O   UNL     1      49.901  25.219  17.409  1.00  0.00    -0.550 OA
ATOM      7  O   UNL     1      50.620  25.188  15.235  1.00  0.00    -0.550 OA
ENDBRANCH   4   5
ENDBRANCH   3   4
ENDBRANCH   2   3
ENDBRANCH   1   2
BRANCH   1   8
ATOM      8  C   UNL     1      48.011  30.297  17.402  1.00  0.00     0.000 C 
BRANCH   8   9
ATOM      9  C   UNL     1      48.092  31.628  18.162  1.00  0.00     0.000 C 
BRANCH   9  10
ATOM     10  C   UNL     1      49.296  32.454  17.697  1.00  0.00     0.006 C 
BRANCH  10  11
ATOM     11  C   UNL     1      48.877  33.884  17.342  1.00  0.00     0.053 C 
BRANCH  11  12
ATOM     12  C   UNL     1      47.785  33.872  16.320  1.00  0.00     0.041 C 
ATOM     13  O   UNL     1      46.656  34.359  16.594  1.00  0.00    -0.550 OA
ATOM     14  O   UNL     1      47.997  33.279  15.082  1.00  0.00    -0.550 OA
ENDBRANCH  11  12
ENDBRANCH  10  11
ENDBRANCH   9  10
ENDBRANCH   8   9
ENDBRANCH   1   8
TORSDOF 9
ENDMDL
MODEL 9
REMARK VINA RESULT:    -4.349      2.719      3.512
REMARK INTER + INTRA:          -7.257
REMARK INTER:                  -6.664
REMARK INTRA:                  -0.593
REMARK UNBOUND:                -0.620
REMARK SMILES O=C([O-])CCCCCCCCC(=O)[O-]
REMARK SMILES IDX 7 1 6 2 5 3 4 4 2 5 1 6 3 7 8 8 9 9 10 10 11 11 12 12 13 13
REMARK SMILES IDX 14 14
REMARK H PARENT
REMARK Flexibility Score: inf
ROOT
ATOM      1  C   UNL     1      48.418  33.303  14.096  1.00  0.00     0.000 C 
ENDROOT
BRANCH   1   2
ATOM      2  C   UNL     1      48.077  33.982  12.760  1.00  0.00     0.000 C 
BRANCH   2   3
ATOM      3  C   UNL     1      47.239  35.258  12.941  1.00  0.00     0.006 C 
BRANCH   3   4
ATOM      4  C   UNL     1      45.834  35.117  12.341  1.00  0.00     0.053 C 
BRANCH   4   5
ATOM      5  C   UNL     1      44.803  35.828  13.163  1.00  0.00     0.041 C 
ATOM      6  O   UNL     1      44.685  35.575  14.390  1.00  0.00    -0.550 OA
ATOM      7  O   UNL     1      43.954  36.752  12.566  1.00  0.00    -0.550 OA
ENDBRANCH   4   5
ENDBRANCH   3   4
ENDBRANCH   2   3
ENDBRANCH   1   2
BRANCH   1   8
ATOM      8  C   UNL     1      47.649  33.907  15.281  1.00  0.00     0.000 C 
BRANCH   8   9
ATOM      9  C   UNL     1      48.515  33.922  16.547  1.00  0.00     0.000 C 
BRANCH   9  10
ATOM     10  C   UNL     1      48.196  32.723  17.447  1.00  0.00     0.006 C 
BRANCH  10  11
ATOM     11  C   UNL     1      49.294  31.660  17.356  1.00  0.00     0.053 C 
BRANCH  11  12
ATOM     12  C   UNL     1      48.805  30.463  16.604  1.00  0.00     0.041 C 
ATOM     13  O   UNL     1      49.626  29.637  16.126  1.00  0.00    -0.550 OA
ATOM     14  O   UNL     1      47.445  30.287  16.387  1.00  0.00    -0.550 OA
ENDBRANCH  11  12
ENDBRANCH  10  11
ENDBRANCH   9  10
ENDBRANCH   8   9
ENDBRANCH   1   8
TORSDOF 9
ENDMDL
