MODEL 1
REMARK VINA RESULT:     9.626      0.000      0.000
REMARK INTER + INTRA:          10.997
REMARK INTER:                  11.315
REMARK INTRA:                  -0.317
REMARK UNBOUND:                -0.317
REMARK SMILES O=c1c(O)c(-c2ccc(O)c(O)c2)oc2cc(O)ccc12
REMARK SMILES IDX 5 1 3 2 2 3 1 4 21 5 15 6 14 7 16 8 17 9 19 10 20 11 6 12
REMARK SMILES IDX 7 13 8 14 9 15 13 16 11 17 10 18 12 20 4 22 18 24
REMARK H PARENT 10 19 12 21 4 23 18 25
REMARK Flexibility Score: inf
ROOT
ATOM      1  C   UNL     1     123.559 133.539 126.944  1.00  0.00     0.180 A 
ATOM      2  C   UNL     1     123.383 133.060 128.259  1.00  0.00     0.208 A 
ATOM      3  C   UNL     1     122.736 133.880 129.196  1.00  0.00     0.235 A 
ATOM      4  O   UNL     1     122.576 133.480 130.381  1.00  0.00    -0.285 OA
ATOM      5  C   UNL     1     122.262 135.141 128.800  1.00  0.00     0.069 A 
ATOM      6  C   UNL     1     122.456 135.538 127.458  1.00  0.00     0.142 A 
ATOM      7  O   UNL     1     123.082 134.735 126.605  1.00  0.00    -0.452 OA
ATOM      8  C   UNL     1     121.990 136.783 127.023  1.00  0.00     0.094 A 
ATOM      9  C   UNL     1     121.333 137.641 127.910  1.00  0.00     0.119 A 
ATOM     10  C   UNL     1     121.140 137.252 129.243  1.00  0.00     0.047 A 
ATOM     11  C   UNL     1     121.601 136.009 129.688  1.00  0.00     0.020 A 
ENDROOT
BRANCH   1  12
ATOM     12  C   UNL     1     124.248 132.742 125.904  1.00  0.00     0.025 A 
ATOM     13  C   UNL     1     123.487 132.020 124.970  1.00  0.00     0.016 A 
ATOM     14  C   UNL     1     124.116 131.279 123.967  1.00  0.00     0.051 A 
ATOM     15  C   UNL     1     125.513 131.260 123.873  1.00  0.00     0.157 A 
ATOM     16  C   UNL     1     125.650 132.738 125.793  1.00  0.00     0.062 A 
ATOM     17  C   UNL     1     126.282 131.994 124.784  1.00  0.00     0.158 A 
BRANCH  15  18
ATOM     18  O   UNL     1     126.144 130.520 122.875  1.00  0.00    -0.504 OA
ATOM     19  H   UNL     1     127.060 130.776 122.524  1.00  0.00     0.293 HD
ENDBRANCH  15  18
BRANCH  17  20
ATOM     20  O   UNL     1     127.671 131.986 124.680  1.00  0.00    -0.504 OA
ATOM     21  H   UNL     1     128.151 131.375 124.030  1.00  0.00     0.293 HD
ENDBRANCH  17  20
ENDBRANCH   1  12
BRANCH   2  22
ATOM     22  O   UNL     1     123.820 131.781 128.612  1.00  0.00    -0.502 OA
ATOM     23  H   UNL     1     124.303 131.595 129.482  1.00  0.00     0.293 HD
ENDBRANCH   2  22
BRANCH   9  24
ATOM     24  O   UNL     1     120.876 138.876 127.459  1.00  0.00    -0.508 OA
ATOM     25  H   UNL     1     121.047 139.190 126.510  1.00  0.00     0.293 HD
ENDBRANCH   9  24
TORSDOF 5
ENDMDL
