MODEL 1
REMARK VINA RESULT:    -5.948      0.000      0.000
REMARK INTER + INTRA:          -9.362
REMARK INTER:                  -8.035
REMARK INTRA:                  -1.327
REMARK UNBOUND:                -1.327
REMARK SMILES CC(=O)CCC=C(C)CCC=C(C)C
REMARK SMILES IDX 7 1 6 2 8 3 9 4 10 5 11 6 13 7 12 8 14 9 5 10 4 11 2 12 3 13
REMARK SMILES IDX 1 14
REMARK H PARENT
REMARK Flexibility Score: inf
ROOT
ATOM      1  C   UNL     1      -8.347  34.671  24.732  1.00  0.00    -0.077 C 
ATOM      2  C   UNL     1      -8.738  33.603  25.466  1.00  0.00    -0.028 C 
ATOM      3  C   UNL     1      -9.022  35.993  24.993  1.00  0.00     0.039 C 
ENDROOT
BRANCH   1   4
ATOM      4  C   UNL     1      -7.252  34.618  23.683  1.00  0.00     0.034 C 
BRANCH   4   5
ATOM      5  C   UNL     1      -7.804  34.811  22.264  1.00  0.00     0.032 C 
BRANCH   5   6
ATOM      6  C   UNL     1      -8.692  33.662  21.852  1.00  0.00    -0.028 C 
ATOM      7  C   UNL     1      -9.375  31.645  20.627  1.00  0.00     0.039 C 
ATOM      8  C   UNL     1      -8.414  32.780  20.866  1.00  0.00    -0.080 C 
ATOM      9  C   UNL     1      -7.180  32.903  20.005  1.00  0.00     0.039 C 
ENDBRANCH   5   6
ENDBRANCH   4   5
ENDBRANCH   1   4
BRANCH   2  10
ATOM     10  C   UNL     1      -8.219  32.191  25.320  1.00  0.00     0.035 C 
BRANCH  10  11
ATOM     11  C   UNL     1      -9.155  31.331  24.463  1.00  0.00     0.079 C 
BRANCH  11  12
ATOM     12  C   UNL     1      -8.430  30.170  23.834  1.00  0.00     0.130 C 
ATOM     13  O   UNL     1      -8.977  29.079  23.774  1.00  0.00    -0.300 OA
ATOM     14  C   UNL     1      -7.049  30.329  23.272  1.00  0.00     0.087 C 
ENDBRANCH  11  12
ENDBRANCH  10  11
ENDBRANCH   2  10
TORSDOF 6
ENDMDL
MODEL 2
REMARK VINA RESULT:    -5.882      1.878      4.571
REMARK INTER + INTRA:          -9.272
REMARK INTER:                  -8.250
REMARK INTRA:                  -1.022
REMARK UNBOUND:                -1.327
REMARK SMILES CC(=O)CCC=C(C)CCC=C(C)C
REMARK SMILES IDX 7 1 6 2 8 3 9 4 10 5 11 6 13 7 12 8 14 9 5 10 4 11 2 12 3 13
REMARK SMILES IDX 1 14
REMARK H PARENT
REMARK Flexibility Score: inf
ROOT
ATOM      1  C   UNL     1      -7.950  33.406  21.004  1.00  0.00    -0.077 C 
ATOM      2  C   UNL     1      -7.501  34.402  21.805  1.00  0.00    -0.028 C 
ATOM      3  C   UNL     1      -7.146  33.073  19.773  1.00  0.00     0.039 C 
ENDROOT
BRANCH   1   4
ATOM      4  C   UNL     1      -9.198  32.593  21.289  1.00  0.00     0.034 C 
BRANCH   4   5
ATOM      5  C   UNL     1      -8.869  31.132  21.627  1.00  0.00     0.032 C 
BRANCH   5   6
ATOM      6  C   UNL     1      -8.870  30.893  23.118  1.00  0.00    -0.028 C 
ATOM      7  C   UNL     1      -7.985  30.237  25.313  1.00  0.00     0.039 C 
ATOM      8  C   UNL     1      -7.853  30.341  23.816  1.00  0.00    -0.080 C 
ATOM      9  C   UNL     1      -6.603  29.828  23.143  1.00  0.00     0.039 C 
ENDBRANCH   5   6
ENDBRANCH   4   5
ENDBRANCH   1   4
BRANCH   2  10
ATOM     10  C   UNL     1      -8.189  34.912  23.049  1.00  0.00     0.035 C 
BRANCH  10  11
ATOM     11  C   UNL     1      -7.777  34.112  24.290  1.00  0.00     0.079 C 
BRANCH  11  12
ATOM     12  C   UNL     1      -8.260  34.762  25.561  1.00  0.00     0.130 C 
ATOM     13  O   UNL     1      -8.080  34.200  26.631  1.00  0.00    -0.300 OA
ATOM     14  C   UNL     1      -8.952  36.092  25.539  1.00  0.00     0.087 C 
ENDBRANCH  11  12
ENDBRANCH  10  11
ENDBRANCH   2  10
TORSDOF 6
ENDMDL
MODEL 3
REMARK VINA RESULT:    -5.574      1.228      3.999
REMARK INTER + INTRA:          -8.856
REMARK INTER:                  -7.779
REMARK INTRA:                  -1.078
REMARK UNBOUND:                -1.327
REMARK SMILES CC(=O)CCC=C(C)CCC=C(C)C
REMARK SMILES IDX 7 1 6 2 8 3 9 4 10 5 11 6 13 7 12 8 14 9 5 10 4 11 2 12 3 13
REMARK SMILES IDX 1 14
REMARK H PARENT
REMARK Flexibility Score: inf
ROOT
ATOM      1  C   UNL     1      -7.880  32.712  20.995  1.00  0.00    -0.077 C 
ATOM      2  C   UNL     1      -7.871  31.397  21.318  1.00  0.00    -0.028 C 
ATOM      3  C   UNL     1      -7.046  33.158  19.821  1.00  0.00     0.039 C 
ENDROOT
BRANCH   1   4
ATOM      4  C   UNL     1      -8.700  33.755  21.731  1.00  0.00     0.034 C 
BRANCH   4   5
ATOM      5  C   UNL     1      -7.828  34.653  22.619  1.00  0.00     0.032 C 
BRANCH   5   6
ATOM      6  C   UNL     1      -7.756  34.133  24.034  1.00  0.00    -0.028 C 
ATOM      7  C   UNL     1      -8.210  34.046  26.447  1.00  0.00     0.039 C 
ATOM      8  C   UNL     1      -8.312  34.733  25.110  1.00  0.00    -0.080 C 
ATOM      9  C   UNL     1      -9.023  36.061  25.010  1.00  0.00     0.039 C 
ENDBRANCH   5   6
ENDBRANCH   4   5
ENDBRANCH   1   4
BRANCH   2  10
ATOM     10  C   UNL     1      -8.598  30.767  22.483  1.00  0.00     0.035 C 
BRANCH  10  11
ATOM     11  C   UNL     1      -7.644  30.452  23.640  1.00  0.00     0.079 C 
BRANCH  11  12
ATOM     12  C   UNL     1      -8.334  30.545  24.976  1.00  0.00     0.130 C 
ATOM     13  O   UNL     1      -9.434  31.072  25.051  1.00  0.00    -0.300 OA
ATOM     14  C   UNL     1      -7.701  29.993  26.218  1.00  0.00     0.087 C 
ENDBRANCH  11  12
ENDBRANCH  10  11
ENDBRANCH   2  10
TORSDOF 6
ENDMDL
MODEL 4
REMARK VINA RESULT:    -5.548      1.731      3.955
REMARK INTER + INTRA:          -8.822
REMARK INTER:                  -7.369
REMARK INTRA:                  -1.452
REMARK UNBOUND:                -1.327
REMARK SMILES CC(=O)CCC=C(C)CCC=C(C)C
REMARK SMILES IDX 7 1 6 2 8 3 9 4 10 5 11 6 13 7 12 8 14 9 5 10 4 11 2 12 3 13
REMARK SMILES IDX 1 14
REMARK H PARENT
REMARK Flexibility Score: inf
ROOT
ATOM      1  C   UNL     1      -8.702  32.295  26.154  1.00  0.00    -0.077 C 
ATOM      2  C   UNL     1      -8.573  33.206  25.161  1.00  0.00    -0.028 C 
ATOM      3  C   UNL     1      -7.885  32.493  27.406  1.00  0.00     0.039 C 
ENDROOT
BRANCH   1   4
ATOM      4  C   UNL     1      -9.639  31.104  26.089  1.00  0.00     0.034 C 
BRANCH   4   5
ATOM      5  C   UNL     1      -8.895  29.802  25.760  1.00  0.00     0.032 C 
BRANCH   5   6
ATOM      6  C   UNL     1      -9.183  29.339  24.352  1.00  0.00    -0.028 C 
ATOM      7  C   UNL     1      -8.745  28.875  21.980  1.00  0.00     0.039 C 
ATOM      8  C   UNL     1      -8.333  29.455  23.308  1.00  0.00    -0.080 C 
ATOM      9  C   UNL     1      -6.996  30.144  23.434  1.00  0.00     0.039 C 
ENDBRANCH   5   6
ENDBRANCH   4   5
ENDBRANCH   1   4
BRANCH   2  10
ATOM     10  C   UNL     1      -9.266  33.155  23.819  1.00  0.00     0.035 C 
BRANCH  10  11
ATOM     11  C   UNL     1      -8.342  33.624  22.689  1.00  0.00     0.079 C 
BRANCH  11  12
ATOM     12  C   UNL     1      -8.562  32.836  21.424  1.00  0.00     0.130 C 
ATOM     13  O   UNL     1      -9.628  32.265  21.247  1.00  0.00    -0.300 OA
ATOM     14  C   UNL     1      -7.499  32.746  20.370  1.00  0.00     0.087 C 
ENDBRANCH  11  12
ENDBRANCH  10  11
ENDBRANCH   2  10
TORSDOF 6
ENDMDL
MODEL 5
REMARK VINA RESULT:    -5.261      1.654      2.682
REMARK INTER + INTRA:          -8.434
REMARK INTER:                  -7.005
REMARK INTRA:                  -1.428
REMARK UNBOUND:                -1.327
REMARK SMILES CC(=O)CCC=C(C)CCC=C(C)C
REMARK SMILES IDX 7 1 6 2 8 3 9 4 10 5 11 6 13 7 12 8 14 9 5 10 4 11 2 12 3 13
REMARK SMILES IDX 1 14
REMARK H PARENT
REMARK Flexibility Score: inf
ROOT
ATOM      1  C   UNL     1      -8.118  33.868  23.496  1.00  0.00    -0.077 C 
ATOM      2  C   UNL     1      -8.498  33.250  24.639  1.00  0.00    -0.028 C 
ATOM      3  C   UNL     1      -7.009  34.884  23.577  1.00  0.00     0.039 C 
ENDROOT
BRANCH   1   4
ATOM      4  C   UNL     1      -8.728  33.576  22.137  1.00  0.00     0.034 C 
BRANCH   4   5
ATOM      5  C   UNL     1      -7.891  32.570  21.335  1.00  0.00     0.032 C 
BRANCH   5   6
ATOM      6  C   UNL     1      -8.479  31.181  21.400  1.00  0.00    -0.028 C 
ATOM      7  C   UNL     1      -8.774  28.875  22.192  1.00  0.00     0.039 C 
ATOM      8  C   UNL     1      -8.030  30.185  22.194  1.00  0.00    -0.080 C 
ATOM      9  C   UNL     1      -6.812  30.345  23.072  1.00  0.00     0.039 C 
ENDBRANCH   5   6
ENDBRANCH   4   5
ENDBRANCH   1   4
BRANCH   2  10
ATOM     10  C   UNL     1      -9.618  32.243  24.770  1.00  0.00     0.035 C 
BRANCH  10  11
ATOM     11  C   UNL     1      -9.660  31.625  26.172  1.00  0.00     0.079 C 
BRANCH  11  12
ATOM     12  C   UNL     1      -8.781  30.406  26.273  1.00  0.00     0.130 C 
ATOM     13  O   UNL     1      -7.665  30.506  26.762  1.00  0.00    -0.300 OA
ATOM     14  C   UNL     1      -9.251  29.066  25.793  1.00  0.00     0.087 C 
ENDBRANCH  11  12
ENDBRANCH  10  11
ENDBRANCH   2  10
TORSDOF 6
ENDMDL
MODEL 6
REMARK VINA RESULT:    -5.106      2.138      4.343
REMARK INTER + INTRA:          -8.223
REMARK INTER:                  -7.258
REMARK INTRA:                  -0.965
REMARK UNBOUND:                -1.327
REMARK SMILES CC(=O)CCC=C(C)CCC=C(C)C
REMARK SMILES IDX 7 1 6 2 8 3 9 4 10 5 11 6 13 7 12 8 14 9 5 10 4 11 2 12 3 13
REMARK SMILES IDX 1 14
REMARK H PARENT
REMARK Flexibility Score: inf
ROOT
ATOM      1  C   UNL     1      -8.240  29.556  23.282  1.00  0.00    -0.077 C 
ATOM      2  C   UNL     1      -8.811  29.157  24.443  1.00  0.00    -0.028 C 
ATOM      3  C   UNL     1      -8.677  28.877  22.009  1.00  0.00     0.039 C 
ENDROOT
BRANCH   1   4
ATOM      4  C   UNL     1      -7.206  30.662  23.188  1.00  0.00     0.034 C 
BRANCH   4   5
ATOM      5  C   UNL     1      -7.804  31.964  22.635  1.00  0.00     0.032 C 
BRANCH   5   6
ATOM      6  C   UNL     1      -7.956  33.008  23.715  1.00  0.00    -0.028 C 
ATOM      7  C   UNL     1      -8.172  35.252  24.689  1.00  0.00     0.039 C 
ATOM      8  C   UNL     1      -7.934  34.344  23.511  1.00  0.00    -0.080 C 
ATOM      9  C   UNL     1      -7.676  34.944  22.150  1.00  0.00     0.039 C 
ENDBRANCH   5   6
ENDBRANCH   4   5
ENDBRANCH   1   4
BRANCH   2  10
ATOM     10  C   UNL     1      -8.473  29.679  25.820  1.00  0.00     0.035 C 
BRANCH  10  11
ATOM     11  C   UNL     1      -9.503  30.706  26.303  1.00  0.00     0.079 C 
BRANCH  11  12
ATOM     12  C   UNL     1      -9.024  31.448  27.523  1.00  0.00     0.130 C 
ATOM     13  O   UNL     1      -9.522  31.203  28.612  1.00  0.00    -0.300 OA
ATOM     14  C   UNL     1      -7.938  32.477  27.431  1.00  0.00     0.087 C 
ENDBRANCH  11  12
ENDBRANCH  10  11
ENDBRANCH   2  10
TORSDOF 6
ENDMDL
MODEL 7
REMARK VINA RESULT:    -5.063      1.550      2.270
REMARK INTER + INTRA:          -8.166
REMARK INTER:                  -7.394
REMARK INTRA:                  -0.772
REMARK UNBOUND:                -1.327
REMARK SMILES CC(=O)CCC=C(C)CCC=C(C)C
REMARK SMILES IDX 7 1 6 2 8 3 9 4 10 5 11 6 13 7 12 8 14 9 5 10 4 11 2 12 3 13
REMARK SMILES IDX 1 14
REMARK H PARENT
REMARK Flexibility Score: inf
ROOT
ATOM      1  C   UNL     1      -8.700  32.244  25.839  1.00  0.00    -0.077 C 
ATOM      2  C   UNL     1      -9.458  31.124  25.896  1.00  0.00    -0.028 C 
ATOM      3  C   UNL     1      -8.471  33.009  27.118  1.00  0.00     0.039 C 
ENDROOT
BRANCH   1   4
ATOM      4  C   UNL     1      -8.048  32.757  24.569  1.00  0.00     0.034 C 
BRANCH   4   5
ATOM      5  C   UNL     1      -9.083  33.108  23.491  1.00  0.00     0.032 C 
BRANCH   5   6
ATOM      6  C   UNL     1      -8.565  32.811  22.105  1.00  0.00    -0.028 C 
ATOM      7  C   UNL     1      -7.319  33.175  20.020  1.00  0.00     0.039 C 
ATOM      8  C   UNL     1      -7.817  33.653  21.359  1.00  0.00    -0.080 C 
ATOM      9  C   UNL     1      -7.473  35.047  21.824  1.00  0.00     0.039 C 
ENDBRANCH   5   6
ENDBRANCH   4   5
ENDBRANCH   1   4
BRANCH   2  10
ATOM     10  C   UNL     1      -9.840  30.254  24.722  1.00  0.00     0.035 C 
BRANCH  10  11
ATOM     11  C   UNL     1      -8.823  29.129  24.499  1.00  0.00     0.079 C 
BRANCH  11  12
ATOM     12  C   UNL     1      -8.122  29.263  23.172  1.00  0.00     0.130 C 
ATOM     13  O   UNL     1      -8.723  28.992  22.143  1.00  0.00    -0.300 OA
ATOM     14  C   UNL     1      -6.700  29.731  23.088  1.00  0.00     0.087 C 
ENDBRANCH  11  12
ENDBRANCH  10  11
ENDBRANCH   2  10
TORSDOF 6
ENDMDL
MODEL 8
REMARK VINA RESULT:    -5.014      2.114      3.875
REMARK INTER + INTRA:          -8.100
REMARK INTER:                  -7.376
REMARK INTRA:                  -0.724
REMARK UNBOUND:                -1.327
REMARK SMILES CC(=O)CCC=C(C)CCC=C(C)C
REMARK SMILES IDX 7 1 6 2 8 3 9 4 10 5 11 6 13 7 12 8 14 9 5 10 4 11 2 12 3 13
REMARK SMILES IDX 1 14
REMARK H PARENT
REMARK Flexibility Score: inf
ROOT
ATOM      1  C   UNL     1      -7.927  30.313  23.901  1.00  0.00    -0.077 C 
ATOM      2  C   UNL     1      -8.743  29.409  24.493  1.00  0.00    -0.028 C 
ATOM      3  C   UNL     1      -6.727  29.798  23.149  1.00  0.00     0.039 C 
ENDROOT
BRANCH   1   4
ATOM      4  C   UNL     1      -8.167  31.811  23.931  1.00  0.00     0.034 C 
BRANCH   4   5
ATOM      5  C   UNL     1      -9.159  32.258  22.848  1.00  0.00     0.032 C 
BRANCH   5   6
ATOM      6  C   UNL     1      -8.486  32.402  21.504  1.00  0.00    -0.028 C 
ATOM      7  C   UNL     1      -7.148  33.459  19.736  1.00  0.00     0.039 C 
ATOM      8  C   UNL     1      -7.827  33.503  21.080  1.00  0.00    -0.080 C 
ATOM      9  C   UNL     1      -7.757  34.764  21.907  1.00  0.00     0.039 C 
ENDBRANCH   5   6
ENDBRANCH   4   5
ENDBRANCH   1   4
BRANCH   2  10
ATOM     10  C   UNL     1      -9.960  29.729  25.328  1.00  0.00     0.035 C 
BRANCH  10  11
ATOM     11  C   UNL     1      -9.660  29.626  26.827  1.00  0.00     0.079 C 
BRANCH  11  12
ATOM     12  C   UNL     1      -9.600  30.982  27.480  1.00  0.00     0.130 C 
ATOM     13  O   UNL     1     -10.008  31.962  26.874  1.00  0.00    -0.300 OA
ATOM     14  C   UNL     1      -9.057  31.154  28.867  1.00  0.00     0.087 C 
ENDBRANCH  11  12
ENDBRANCH  10  11
ENDBRANCH   2  10
TORSDOF 6
ENDMDL
