MODEL 1
REMARK VINA RESULT:    -5.354      0.000      0.000
REMARK INTER + INTRA:          -6.065
REMARK INTER:                  -5.824
REMARK INTRA:                  -0.241
REMARK UNBOUND:                -0.241
REMARK SMILES O=C([O-])c1ccccc1O
REMARK SMILES IDX 4 1 9 2 5 3 8 4 6 5 7 6 2 7 1 8 3 9 10 10
REMARK H PARENT 10 11
REMARK Flexibility Score: inf
ROOT
ATOM      1  C   UNL     1     -30.019   9.927   8.071  1.00  0.00     0.039 A 
ATOM      2  C   UNL     1     -29.957  10.609   6.829  1.00  0.00     0.124 A 
ATOM      3  C   UNL     1     -31.147   9.135   8.356  1.00  0.00     0.014 A 
ATOM      4  C   UNL     1     -30.981  10.433   5.890  1.00  0.00     0.047 A 
ATOM      5  C   UNL     1     -32.170   8.987   7.416  1.00  0.00     0.001 A 
ATOM      6  C   UNL     1     -32.082   9.627   6.181  1.00  0.00     0.004 A 
ENDROOT
BRANCH   1   7
ATOM      7  C   UNL     1     -28.926   9.985   9.065  1.00  0.00     0.075 C 
ATOM      8  O   UNL     1     -27.738   9.751   8.715  1.00  0.00    -0.545 OA
ATOM      9  O   UNL     1     -29.178  10.364  10.378  1.00  0.00    -0.545 OA
ENDBRANCH   1   7
BRANCH   2  10
ATOM     10  O   UNL     1     -28.923  11.490   6.507  1.00  0.00    -0.507 OA
ATOM     11  H   UNL     1     -28.354  11.401   5.676  1.00  0.00     0.293 HD
ENDBRANCH   2  10
TORSDOF 2
ENDMDL
MODEL 2
REMARK VINA RESULT:    -5.334      1.951      3.000
REMARK INTER + INTRA:          -6.042
REMARK INTER:                  -5.827
REMARK INTRA:                  -0.215
REMARK UNBOUND:                -0.241
REMARK SMILES O=C([O-])c1ccccc1O
REMARK SMILES IDX 4 1 9 2 5 3 8 4 6 5 7 6 2 7 1 8 3 9 10 10
REMARK H PARENT 10 11
REMARK Flexibility Score: inf
ROOT
ATOM      1  C   UNL     1     -31.393   9.429   8.190  1.00  0.00     0.039 A 
ATOM      2  C   UNL     1     -30.069   9.891   8.403  1.00  0.00     0.124 A 
ATOM      3  C   UNL     1     -32.003   9.662   6.943  1.00  0.00     0.014 A 
ATOM      4  C   UNL     1     -29.375  10.510   7.355  1.00  0.00     0.047 A 
ATOM      5  C   UNL     1     -31.304  10.300   5.916  1.00  0.00     0.001 A 
ATOM      6  C   UNL     1     -29.988  10.715   6.119  1.00  0.00     0.004 A 
ENDROOT
BRANCH   1   7
ATOM      7  C   UNL     1     -32.146   8.677   9.217  1.00  0.00     0.075 C 
ATOM      8  O   UNL     1     -33.141   7.978   8.888  1.00  0.00    -0.545 OA
ATOM      9  O   UNL     1     -31.730   8.673  10.543  1.00  0.00    -0.545 OA
ENDBRANCH   1   7
BRANCH   2  10
ATOM     10  O   UNL     1     -29.426   9.788   9.638  1.00  0.00    -0.507 OA
ATOM     11  H   UNL     1     -29.816   9.293  10.429  1.00  0.00     0.293 HD
ENDBRANCH   2  10
TORSDOF 2
ENDMDL
MODEL 3
REMARK VINA RESULT:    -5.259      2.380      3.151
REMARK INTER + INTRA:          -5.961
REMARK INTER:                  -5.741
REMARK INTRA:                  -0.220
REMARK UNBOUND:                -0.241
REMARK SMILES O=C([O-])c1ccccc1O
REMARK SMILES IDX 4 1 9 2 5 3 8 4 6 5 7 6 2 7 1 8 3 9 10 10
REMARK H PARENT 10 11
REMARK Flexibility Score: inf
ROOT
ATOM      1  C   UNL     1     -31.113   9.410   8.193  1.00  0.00     0.039 A 
ATOM      2  C   UNL     1     -31.479   9.777   6.873  1.00  0.00     0.124 A 
ATOM      3  C   UNL     1     -29.841   9.777   8.673  1.00  0.00     0.014 A 
ATOM      4  C   UNL     1     -30.601  10.546   6.099  1.00  0.00     0.047 A 
ATOM      5  C   UNL     1     -28.970  10.526   7.880  1.00  0.00     0.001 A 
ATOM      6  C   UNL     1     -29.353  10.918   6.598  1.00  0.00     0.004 A 
ENDROOT
BRANCH   1   7
ATOM      7  C   UNL     1     -32.031   8.689   9.101  1.00  0.00     0.075 C 
ATOM      8  O   UNL     1     -32.970   7.993   8.630  1.00  0.00    -0.545 OA
ATOM      9  O   UNL     1     -31.833   8.711  10.477  1.00  0.00    -0.545 OA
ENDBRANCH   1   7
BRANCH   2  10
ATOM     10  O   UNL     1     -32.680   9.371   6.286  1.00  0.00    -0.507 OA
ATOM     11  H   UNL     1     -33.531   9.216   6.810  1.00  0.00     0.293 HD
ENDBRANCH   2  10
TORSDOF 2
ENDMDL
MODEL 4
REMARK VINA RESULT:    -5.211      1.504      3.185
REMARK INTER + INTRA:          -5.909
REMARK INTER:                  -5.672
REMARK INTRA:                  -0.238
REMARK UNBOUND:                -0.241
REMARK SMILES O=C([O-])c1ccccc1O
REMARK SMILES IDX 4 1 9 2 5 3 8 4 6 5 7 6 2 7 1 8 3 9 10 10
REMARK H PARENT 10 11
REMARK Flexibility Score: inf
ROOT
ATOM      1  C   UNL     1     -31.170   9.579   7.589  1.00  0.00     0.039 A 
ATOM      2  C   UNL     1     -30.567   9.540   8.872  1.00  0.00     0.124 A 
ATOM      3  C   UNL     1     -32.495   9.127   7.446  1.00  0.00     0.014 A 
ATOM      4  C   UNL     1     -31.316   9.116   9.977  1.00  0.00     0.047 A 
ATOM      5  C   UNL     1     -33.221   8.687   8.555  1.00  0.00     0.001 A 
ATOM      6  C   UNL     1     -32.635   8.690   9.821  1.00  0.00     0.004 A 
ENDROOT
BRANCH   1   7
ATOM      7  C   UNL     1     -30.471  10.112   6.399  1.00  0.00     0.075 C 
ATOM      8  O   UNL     1     -30.870   9.809   5.243  1.00  0.00    -0.545 OA
ATOM      9  O   UNL     1     -29.414  11.004   6.535  1.00  0.00    -0.545 OA
ENDBRANCH   1   7
BRANCH   2  10
ATOM     10  O   UNL     1     -29.228   9.878   9.084  1.00  0.00    -0.507 OA
ATOM     11  H   UNL     1     -28.726  10.547   8.516  1.00  0.00     0.293 HD
ENDBRANCH   2  10
TORSDOF 2
ENDMDL
MODEL 5
REMARK VINA RESULT:    -4.988      1.885      3.443
REMARK INTER + INTRA:          -5.666
REMARK INTER:                  -5.449
REMARK INTRA:                  -0.217
REMARK UNBOUND:                -0.241
REMARK SMILES O=C([O-])c1ccccc1O
REMARK SMILES IDX 4 1 9 2 5 3 8 4 6 5 7 6 2 7 1 8 3 9 10 10
REMARK H PARENT 10 11
REMARK Flexibility Score: inf
ROOT
ATOM      1  C   UNL     1     -31.498   9.652   7.237  1.00  0.00     0.039 A 
ATOM      2  C   UNL     1     -30.380   9.819   8.094  1.00  0.00     0.124 A 
ATOM      3  C   UNL     1     -32.686   9.115   7.768  1.00  0.00     0.014 A 
ATOM      4  C   UNL     1     -30.497   9.510   9.455  1.00  0.00     0.047 A 
ATOM      5  C   UNL     1     -32.779   8.792   9.123  1.00  0.00     0.001 A 
ATOM      6  C   UNL     1     -31.689   8.998   9.968  1.00  0.00     0.004 A 
ENDROOT
BRANCH   1   7
ATOM      7  C   UNL     1     -31.476  10.055   5.815  1.00  0.00     0.075 C 
ATOM      8  O   UNL     1     -30.683   9.497   5.010  1.00  0.00    -0.545 OA
ATOM      9  O   UNL     1     -32.373  11.000   5.330  1.00  0.00    -0.545 OA
ENDBRANCH   1   7
BRANCH   2  10
ATOM     10  O   UNL     1     -29.136  10.253   7.629  1.00  0.00    -0.507 OA
ATOM     11  H   UNL     1     -28.262   9.818   7.889  1.00  0.00     0.293 HD
ENDBRANCH   2  10
TORSDOF 2
ENDMDL
MODEL 6
REMARK VINA RESULT:    -4.930      2.457      3.835
REMARK INTER + INTRA:          -5.603
REMARK INTER:                  -5.366
REMARK INTRA:                  -0.237
REMARK UNBOUND:                -0.241
REMARK SMILES O=C([O-])c1ccccc1O
REMARK SMILES IDX 4 1 9 2 5 3 8 4 6 5 7 6 2 7 1 8 3 9 10 10
REMARK H PARENT 10 11
REMARK Flexibility Score: inf
ROOT
ATOM      1  C   UNL     1     -31.219   9.527   7.400  1.00  0.00     0.039 A 
ATOM      2  C   UNL     1     -30.462   9.516   8.600  1.00  0.00     0.124 A 
ATOM      3  C   UNL     1     -30.750  10.281   6.308  1.00  0.00     0.014 A 
ATOM      4  C   UNL     1     -29.240  10.199   8.655  1.00  0.00     0.047 A 
ATOM      5  C   UNL     1     -29.540  10.974   6.386  1.00  0.00     0.001 A 
ATOM      6  C   UNL     1     -28.781  10.925   7.555  1.00  0.00     0.004 A 
ENDROOT
BRANCH   1   7
ATOM      7  C   UNL     1     -32.464   8.745   7.238  1.00  0.00     0.075 C 
ATOM      8  O   UNL     1     -32.781   8.285   6.109  1.00  0.00    -0.545 OA
ATOM      9  O   UNL     1     -33.264   8.449   8.335  1.00  0.00    -0.545 OA
ENDBRANCH   1   7
BRANCH   2  10
ATOM     10  O   UNL     1     -30.902   8.874   9.759  1.00  0.00    -0.507 OA
ATOM     11  H   UNL     1     -31.258   9.367  10.568  1.00  0.00     0.293 HD
ENDBRANCH   2  10
TORSDOF 2
ENDMDL
MODEL 7
REMARK VINA RESULT:    -4.920      1.388      2.310
REMARK INTER + INTRA:          -5.593
REMARK INTER:                  -5.340
REMARK INTRA:                  -0.253
REMARK UNBOUND:                -0.241
REMARK SMILES O=C([O-])c1ccccc1O
REMARK SMILES IDX 4 1 9 2 5 3 8 4 6 5 7 6 2 7 1 8 3 9 10 10
REMARK H PARENT 10 11
REMARK Flexibility Score: inf
ROOT
ATOM      1  C   UNL     1     -30.592   9.654   8.015  1.00  0.00     0.039 A 
ATOM      2  C   UNL     1     -31.496   9.293   6.983  1.00  0.00     0.124 A 
ATOM      3  C   UNL     1     -30.954   9.407   9.353  1.00  0.00     0.014 A 
ATOM      4  C   UNL     1     -32.695   8.646   7.307  1.00  0.00     0.047 A 
ATOM      5  C   UNL     1     -32.164   8.780   9.660  1.00  0.00     0.001 A 
ATOM      6  C   UNL     1     -33.029   8.391   8.637  1.00  0.00     0.004 A 
ENDROOT
BRANCH   1   7
ATOM      7  C   UNL     1     -29.265  10.245   7.739  1.00  0.00     0.075 C 
ATOM      8  O   UNL     1     -28.248   9.837   8.360  1.00  0.00    -0.545 OA
ATOM      9  O   UNL     1     -29.108  11.206   6.746  1.00  0.00    -0.545 OA
ENDBRANCH   1   7
BRANCH   2  10
ATOM     10  O   UNL     1     -31.258   9.590   5.639  1.00  0.00    -0.507 OA
ATOM     11  H   UNL     1     -30.367   9.440   5.185  1.00  0.00     0.293 HD
ENDBRANCH   2  10
TORSDOF 2
ENDMDL
MODEL 8
REMARK VINA RESULT:    -4.905      0.977      2.181
REMARK INTER + INTRA:          -5.576
REMARK INTER:                  -5.345
REMARK INTRA:                  -0.230
REMARK UNBOUND:                -0.241
REMARK SMILES O=C([O-])c1ccccc1O
REMARK SMILES IDX 4 1 9 2 5 3 8 4 6 5 7 6 2 7 1 8 3 9 10 10
REMARK H PARENT 10 11
REMARK Flexibility Score: inf
ROOT
ATOM      1  C   UNL     1     -30.045   9.912   7.861  1.00  0.00     0.039 A 
ATOM      2  C   UNL     1     -31.227   9.259   8.296  1.00  0.00     0.124 A 
ATOM      3  C   UNL     1     -30.027  10.508   6.586  1.00  0.00     0.014 A 
ATOM      4  C   UNL     1     -32.366   9.275   7.482  1.00  0.00     0.047 A 
ATOM      5  C   UNL     1     -31.166  10.496   5.778  1.00  0.00     0.001 A 
ATOM      6  C   UNL     1     -32.337   9.888   6.229  1.00  0.00     0.004 A 
ENDROOT
BRANCH   1   7
ATOM      7  C   UNL     1     -28.840  10.023   8.712  1.00  0.00     0.075 C 
ATOM      8  O   UNL     1     -27.705   9.743   8.242  1.00  0.00    -0.545 OA
ATOM      9  O   UNL     1     -28.931  10.500  10.014  1.00  0.00    -0.545 OA
ENDBRANCH   1   7
BRANCH   2  10
ATOM     10  O   UNL     1     -31.299   8.560   9.503  1.00  0.00    -0.507 OA
ATOM     11  H   UNL     1     -32.011   7.872   9.706  1.00  0.00     0.293 HD
ENDBRANCH   2  10
TORSDOF 2
ENDMDL
MODEL 9
REMARK VINA RESULT:    -4.757      3.148      4.426
REMARK INTER + INTRA:          -5.415
REMARK INTER:                  -5.250
REMARK INTRA:                  -0.165
REMARK UNBOUND:                -0.241
REMARK SMILES O=C([O-])c1ccccc1O
REMARK SMILES IDX 4 1 9 2 5 3 8 4 6 5 7 6 2 7 1 8 3 9 10 10
REMARK H PARENT 10 11
REMARK Flexibility Score: inf
ROOT
ATOM      1  C   UNL     1     -32.779   8.631   8.898  1.00  0.00     0.039 A 
ATOM      2  C   UNL     1     -31.680   9.052   9.690  1.00  0.00     0.124 A 
ATOM      3  C   UNL     1     -32.710   8.788   7.500  1.00  0.00     0.014 A 
ATOM      4  C   UNL     1     -30.530   9.554   9.068  1.00  0.00     0.047 A 
ATOM      5  C   UNL     1     -31.563   9.311   6.898  1.00  0.00     0.001 A 
ATOM      6  C   UNL     1     -30.471   9.684   7.681  1.00  0.00     0.004 A 
ENDROOT
BRANCH   1   7
ATOM      7  C   UNL     1     -33.981   7.996   9.480  1.00  0.00     0.075 C 
ATOM      8  O   UNL     1     -33.902   6.856  10.009  1.00  0.00    -0.545 OA
ATOM      9  O   UNL     1     -35.196   8.672   9.513  1.00  0.00    -0.545 OA
ENDBRANCH   1   7
BRANCH   2  10
ATOM     10  O   UNL     1     -31.706   9.021  11.086  1.00  0.00    -0.507 OA
ATOM     11  H   UNL     1     -31.903   8.186  11.621  1.00  0.00     0.293 HD
ENDBRANCH   2  10
TORSDOF 2
ENDMDL
