MODEL 1
REMARK VINA RESULT:    -4.466      0.000      0.000
REMARK INTER + INTRA:          -6.607
REMARK INTER:                  -6.293
REMARK INTRA:                  -0.313
REMARK UNBOUND:                -0.313
REMARK SMILES C=CCCCCCCC(=O)[O-]
REMARK SMILES IDX 6 1 7 2 8 3 9 4 10 5 11 6 5 7 4 8 3 9 2 10 1 11
REMARK H PARENT
REMARK Flexibility Score: inf
ROOT
ATOM      1  C   UNL     1       1.530  -3.569  -3.619  1.00  0.00     0.000 C 
ENDROOT
BRANCH   1   2
ATOM      2  C   UNL     1       2.098  -3.136  -4.979  1.00  0.00     0.006 C 
BRANCH   2   3
ATOM      3  C   UNL     1       3.528  -2.591  -4.874  1.00  0.00     0.053 C 
BRANCH   3   4
ATOM      4  C   UNL     1       4.484  -3.488  -5.596  1.00  0.00     0.041 C 
ATOM      5  O   UNL     1       5.319  -3.004  -6.405  1.00  0.00    -0.550 OA
ATOM      6  O   UNL     1       4.485  -4.853  -5.340  1.00  0.00    -0.550 OA
ENDBRANCH   3   4
ENDBRANCH   2   3
ENDBRANCH   1   2
BRANCH   1   7
ATOM      7  C   UNL     1       0.301  -2.743  -3.203  1.00  0.00     0.000 C 
BRANCH   7   8
ATOM      8  C   UNL     1      -0.451  -3.362  -2.013  1.00  0.00     0.004 C 
BRANCH   8   9
ATOM      9  C   UNL     1      -0.861  -4.821  -2.268  1.00  0.00     0.027 C 
BRANCH   9  10
ATOM     10  C   UNL     1      -1.831  -4.921  -3.412  1.00  0.00    -0.035 C 
ATOM     11  C   UNL     1      -3.142  -5.086  -3.212  1.00  0.00     0.004 C 
ENDBRANCH   9  10
ENDBRANCH   8   9
ENDBRANCH   7   8
ENDBRANCH   1   7
TORSDOF 7
ENDMDL
MODEL 2
REMARK VINA RESULT:    -4.404      1.763      2.380
REMARK INTER + INTRA:          -6.519
REMARK INTER:                  -6.022
REMARK INTRA:                  -0.497
REMARK UNBOUND:                -0.313
REMARK SMILES C=CCCCCCCC(=O)[O-]
REMARK SMILES IDX 6 1 7 2 8 3 9 4 10 5 11 6 5 7 4 8 3 9 2 10 1 11
REMARK H PARENT
REMARK Flexibility Score: inf
ROOT
ATOM      1  C   UNL     1       0.044  -2.900  -2.849  1.00  0.00     0.000 C 
ENDROOT
BRANCH   1   2
ATOM      2  C   UNL     1       1.353  -3.436  -3.448  1.00  0.00     0.006 C 
BRANCH   2   3
ATOM      3  C   UNL     1       1.394  -3.317  -4.977  1.00  0.00     0.053 C 
BRANCH   3   4
ATOM      4  C   UNL     1       2.022  -2.022  -5.384  1.00  0.00     0.041 C 
ATOM      5  O   UNL     1       3.276  -1.899  -5.386  1.00  0.00    -0.550 OA
ATOM      6  O   UNL     1       1.227  -0.966  -5.810  1.00  0.00    -0.550 OA
ENDBRANCH   3   4
ENDBRANCH   2   3
ENDBRANCH   1   2
BRANCH   1   7
ATOM      7  C   UNL     1      -0.365  -3.641  -1.564  1.00  0.00     0.000 C 
BRANCH   7   8
ATOM      8  C   UNL     1      -0.131  -5.157  -1.656  1.00  0.00     0.004 C 
BRANCH   8   9
ATOM      9  C   UNL     1      -1.443  -5.953  -1.739  1.00  0.00     0.027 C 
BRANCH   9  10
ATOM     10  C   UNL     1      -2.046  -5.865  -3.114  1.00  0.00    -0.035 C 
ATOM     11  C   UNL     1      -3.114  -5.101  -3.367  1.00  0.00     0.004 C 
ENDBRANCH   9  10
ENDBRANCH   8   9
ENDBRANCH   7   8
ENDBRANCH   1   7
TORSDOF 7
ENDMDL
MODEL 3
REMARK VINA RESULT:    -4.366      3.809      5.972
REMARK INTER + INTRA:          -6.466
REMARK INTER:                  -5.897
REMARK INTRA:                  -0.570
REMARK UNBOUND:                -0.313
REMARK SMILES C=CCCCCCCC(=O)[O-]
REMARK SMILES IDX 6 1 7 2 8 3 9 4 10 5 11 6 5 7 4 8 3 9 2 10 1 11
REMARK H PARENT
REMARK Flexibility Score: inf
ROOT
ATOM      1  C   UNL     1      -0.361  -6.567  -1.988  1.00  0.00     0.000 C 
ENDROOT
BRANCH   1   2
ATOM      2  C   UNL     1      -1.744  -6.398  -1.340  1.00  0.00     0.006 C 
BRANCH   2   3
ATOM      3  C   UNL     1      -2.879  -6.930  -2.225  1.00  0.00     0.053 C 
BRANCH   3   4
ATOM      4  C   UNL     1      -3.028  -6.082  -3.449  1.00  0.00     0.041 C 
ATOM      5  O   UNL     1      -2.780  -6.563  -4.587  1.00  0.00    -0.550 OA
ATOM      6  O   UNL     1      -3.489  -4.777  -3.339  1.00  0.00    -0.550 OA
ENDBRANCH   3   4
ENDBRANCH   2   3
ENDBRANCH   1   2
BRANCH   1   7
ATOM      7  C   UNL     1       0.501  -5.297  -1.880  1.00  0.00     0.000 C 
BRANCH   7   8
ATOM      8  C   UNL     1      -0.340  -4.027  -1.676  1.00  0.00     0.004 C 
BRANCH   8   9
ATOM      9  C   UNL     1      -0.082  -2.968  -2.759  1.00  0.00     0.027 C 
BRANCH   9  10
ATOM     10  C   UNL     1       1.205  -3.240  -3.488  1.00  0.00    -0.035 C 
ATOM     11  C   UNL     1       1.483  -2.669  -4.664  1.00  0.00     0.004 C 
ENDBRANCH   9  10
ENDBRANCH   8   9
ENDBRANCH   7   8
ENDBRANCH   1   7
TORSDOF 7
ENDMDL
MODEL 4
REMARK VINA RESULT:    -4.360      3.725      6.310
REMARK INTER + INTRA:          -6.457
REMARK INTER:                  -6.267
REMARK INTRA:                  -0.191
REMARK UNBOUND:                -0.313
REMARK SMILES C=CCCCCCCC(=O)[O-]
REMARK SMILES IDX 6 1 7 2 8 3 9 4 10 5 11 6 5 7 4 8 3 9 2 10 1 11
REMARK H PARENT
REMARK Flexibility Score: inf
ROOT
ATOM      1  C   UNL     1       0.317  -3.349  -2.603  1.00  0.00     0.000 C 
ENDROOT
BRANCH   1   2
ATOM      2  C   UNL     1      -1.151  -3.747  -2.816  1.00  0.00     0.006 C 
BRANCH   2   3
ATOM      3  C   UNL     1      -1.307  -5.207  -3.262  1.00  0.00     0.053 C 
BRANCH   3   4
ATOM      4  C   UNL     1      -2.730  -5.492  -3.630  1.00  0.00     0.041 C 
ATOM      5  O   UNL     1      -3.023  -6.543  -4.259  1.00  0.00    -0.550 OA
ATOM      6  O   UNL     1      -3.738  -4.621  -3.235  1.00  0.00    -0.550 OA
ENDBRANCH   3   4
ENDBRANCH   2   3
ENDBRANCH   1   2
BRANCH   1   7
ATOM      7  C   UNL     1       0.939  -2.696  -3.850  1.00  0.00     0.000 C 
BRANCH   7   8
ATOM      8  C   UNL     1       2.047  -3.557  -4.477  1.00  0.00     0.004 C 
BRANCH   8   9
ATOM      9  C   UNL     1       3.366  -2.787  -4.649  1.00  0.00     0.027 C 
BRANCH   9  10
ATOM     10  C   UNL     1       4.407  -3.638  -5.324  1.00  0.00    -0.035 C 
ATOM     11  C   UNL     1       5.236  -3.138  -6.245  1.00  0.00     0.004 C 
ENDBRANCH   9  10
ENDBRANCH   8   9
ENDBRANCH   7   8
ENDBRANCH   1   7
TORSDOF 7
ENDMDL
MODEL 5
REMARK VINA RESULT:    -4.305      3.680      6.290
REMARK INTER + INTRA:          -6.379
REMARK INTER:                  -6.172
REMARK INTRA:                  -0.207
REMARK UNBOUND:                -0.313
REMARK SMILES C=CCCCCCCC(=O)[O-]
REMARK SMILES IDX 6 1 7 2 8 3 9 4 10 5 11 6 5 7 4 8 3 9 2 10 1 11
REMARK H PARENT
REMARK Flexibility Score: inf
ROOT
ATOM      1  C   UNL     1       0.117  -2.981  -2.883  1.00  0.00     0.000 C 
ENDROOT
BRANCH   1   2
ATOM      2  C   UNL     1      -1.258  -3.612  -2.616  1.00  0.00     0.006 C 
BRANCH   2   3
ATOM      3  C   UNL     1      -1.353  -5.057  -3.125  1.00  0.00     0.053 C 
BRANCH   3   4
ATOM      4  C   UNL     1      -2.746  -5.361  -3.579  1.00  0.00     0.041 C 
ATOM      5  O   UNL     1      -3.700  -4.613  -3.238  1.00  0.00    -0.550 OA
ATOM      6  O   UNL     1      -2.983  -6.441  -4.420  1.00  0.00    -0.550 OA
ENDBRANCH   3   4
ENDBRANCH   2   3
ENDBRANCH   1   2
BRANCH   1   7
ATOM      7  C   UNL     1       0.971  -3.814  -3.854  1.00  0.00     0.000 C 
BRANCH   7   8
ATOM      8  C   UNL     1       1.989  -2.961  -4.627  1.00  0.00     0.004 C 
BRANCH   8   9
ATOM      9  C   UNL     1       3.023  -3.814  -5.379  1.00  0.00     0.027 C 
BRANCH   9  10
ATOM     10  C   UNL     1       4.406  -3.237  -5.242  1.00  0.00    -0.035 C 
ATOM     11  C   UNL     1       5.263  -3.212  -6.267  1.00  0.00     0.004 C 
ENDBRANCH   9  10
ENDBRANCH   8   9
ENDBRANCH   7   8
ENDBRANCH   1   7
TORSDOF 7
ENDMDL
MODEL 6
REMARK VINA RESULT:    -4.265      1.759      2.811
REMARK INTER + INTRA:          -6.323
REMARK INTER:                  -6.029
REMARK INTRA:                  -0.295
REMARK UNBOUND:                -0.313
REMARK SMILES C=CCCCCCCC(=O)[O-]
REMARK SMILES IDX 6 1 7 2 8 3 9 4 10 5 11 6 5 7 4 8 3 9 2 10 1 11
REMARK H PARENT
REMARK Flexibility Score: inf
ROOT
ATOM      1  C   UNL     1       3.721  -2.762  -4.751  1.00  0.00     0.000 C 
ENDROOT
BRANCH   1   2
ATOM      2  C   UNL     1       4.607  -3.501  -5.766  1.00  0.00     0.006 C 
BRANCH   2   3
ATOM      3  C   UNL     1       3.971  -4.806  -6.263  1.00  0.00     0.053 C 
BRANCH   3   4
ATOM      4  C   UNL     1       4.861  -5.970  -5.960  1.00  0.00     0.041 C 
ATOM      5  O   UNL     1       5.212  -6.208  -4.775  1.00  0.00    -0.550 OA
ATOM      6  O   UNL     1       5.263  -6.822  -6.981  1.00  0.00    -0.550 OA
ENDBRANCH   3   4
ENDBRANCH   2   3
ENDBRANCH   1   2
BRANCH   1   7
ATOM      7  C   UNL     1       2.223  -3.042  -4.960  1.00  0.00     0.000 C 
BRANCH   7   8
ATOM      8  C   UNL     1       1.534  -3.551  -3.685  1.00  0.00     0.004 C 
BRANCH   8   9
ATOM      9  C   UNL     1       0.334  -2.683  -3.275  1.00  0.00     0.027 C 
BRANCH   9  10
ATOM     10  C   UNL     1      -0.489  -3.359  -2.213  1.00  0.00    -0.035 C 
ATOM     11  C   UNL     1      -0.012  -4.380  -1.496  1.00  0.00     0.004 C 
ENDBRANCH   9  10
ENDBRANCH   8   9
ENDBRANCH   7   8
ENDBRANCH   1   7
TORSDOF 7
ENDMDL
MODEL 7
REMARK VINA RESULT:    -4.264      2.227      2.511
REMARK INTER + INTRA:          -6.323
REMARK INTER:                  -5.711
REMARK INTRA:                  -0.612
REMARK UNBOUND:                -0.313
REMARK SMILES C=CCCCCCCC(=O)[O-]
REMARK SMILES IDX 6 1 7 2 8 3 9 4 10 5 11 6 5 7 4 8 3 9 2 10 1 11
REMARK H PARENT
REMARK Flexibility Score: inf
ROOT
ATOM      1  C   UNL     1       0.325  -2.562  -3.294  1.00  0.00     0.000 C 
ENDROOT
BRANCH   1   2
ATOM      2  C   UNL     1       1.466  -3.545  -3.596  1.00  0.00     0.006 C 
BRANCH   2   3
ATOM      3  C   UNL     1       1.881  -3.531  -5.073  1.00  0.00     0.053 C 
BRANCH   3   4
ATOM      4  C   UNL     1       0.874  -4.260  -5.905  1.00  0.00     0.041 C 
ATOM      5  O   UNL     1       0.652  -3.900  -7.091  1.00  0.00    -0.550 OA
ATOM      6  O   UNL     1       0.217  -5.370  -5.388  1.00  0.00    -0.550 OA
ENDBRANCH   3   4
ENDBRANCH   2   3
ENDBRANCH   1   2
BRANCH   1   7
ATOM      7  C   UNL     1      -0.615  -3.070  -2.187  1.00  0.00     0.000 C 
BRANCH   7   8
ATOM      8  C   UNL     1      -0.206  -4.451  -1.652  1.00  0.00     0.004 C 
BRANCH   8   9
ATOM      9  C   UNL     1      -1.193  -5.557  -2.056  1.00  0.00     0.027 C 
BRANCH   9  10
ATOM     10  C   UNL     1      -2.273  -5.019  -2.954  1.00  0.00    -0.035 C 
ATOM     11  C   UNL     1      -2.936  -5.806  -3.807  1.00  0.00     0.004 C 
ENDBRANCH   9  10
ENDBRANCH   8   9
ENDBRANCH   7   8
ENDBRANCH   1   7
TORSDOF 7
ENDMDL
MODEL 8
REMARK VINA RESULT:    -4.217      3.940      5.666
REMARK INTER + INTRA:          -6.256
REMARK INTER:                  -5.546
REMARK INTRA:                  -0.710
REMARK UNBOUND:                -0.313
REMARK SMILES C=CCCCCCCC(=O)[O-]
REMARK SMILES IDX 6 1 7 2 8 3 9 4 10 5 11 6 5 7 4 8 3 9 2 10 1 11
REMARK H PARENT
REMARK Flexibility Score: inf
ROOT
ATOM      1  C   UNL     1      -0.149  -3.875  -1.780  1.00  0.00     0.000 C 
ENDROOT
BRANCH   1   2
ATOM      2  C   UNL     1      -0.849  -5.195  -2.135  1.00  0.00     0.006 C 
BRANCH   2   3
ATOM      3  C   UNL     1      -1.353  -5.224  -3.584  1.00  0.00     0.053 C 
BRANCH   3   4
ATOM      4  C   UNL     1      -2.804  -5.586  -3.625  1.00  0.00     0.041 C 
ATOM      5  O   UNL     1      -3.677  -4.745  -3.283  1.00  0.00    -0.550 OA
ATOM      6  O   UNL     1      -3.197  -6.835  -4.088  1.00  0.00    -0.550 OA
ENDBRANCH   3   4
ENDBRANCH   2   3
ENDBRANCH   1   2
BRANCH   1   7
ATOM      7  C   UNL     1       0.109  -2.992  -3.013  1.00  0.00     0.000 C 
BRANCH   7   8
ATOM      8  C   UNL     1       1.551  -3.105  -3.530  1.00  0.00     0.004 C 
BRANCH   8   9
ATOM      9  C   UNL     1       1.617  -3.524  -5.007  1.00  0.00     0.027 C 
BRANCH   9  10
ATOM     10  C   UNL     1       2.275  -4.868  -5.162  1.00  0.00    -0.035 C 
ATOM     11  C   UNL     1       2.405  -5.711  -4.133  1.00  0.00     0.004 C 
ENDBRANCH   9  10
ENDBRANCH   8   9
ENDBRANCH   7   8
ENDBRANCH   1   7
TORSDOF 7
ENDMDL
MODEL 9
REMARK VINA RESULT:    -4.164      1.848      2.425
REMARK INTER + INTRA:          -6.181
REMARK INTER:                  -5.330
REMARK INTRA:                  -0.851
REMARK UNBOUND:                -0.313
REMARK SMILES C=CCCCCCCC(=O)[O-]
REMARK SMILES IDX 6 1 7 2 8 3 9 4 10 5 11 6 5 7 4 8 3 9 2 10 1 11
REMARK H PARENT
REMARK Flexibility Score: inf
ROOT
ATOM      1  C   UNL     1       1.329  -3.194  -3.616  1.00  0.00     0.000 C 
ENDROOT
BRANCH   1   2
ATOM      2  C   UNL     1       1.103  -3.812  -5.004  1.00  0.00     0.006 C 
BRANCH   2   3
ATOM      3  C   UNL     1       1.092  -5.346  -4.971  1.00  0.00     0.053 C 
BRANCH   3   4
ATOM      4  C   UNL     1       2.280  -5.861  -4.221  1.00  0.00     0.041 C 
ATOM      5  O   UNL     1       2.124  -6.485  -3.138  1.00  0.00    -0.550 OA
ATOM      6  O   UNL     1       3.557  -5.696  -4.742  1.00  0.00    -0.550 OA
ENDBRANCH   3   4
ENDBRANCH   2   3
ENDBRANCH   1   2
BRANCH   1   7
ATOM      7  C   UNL     1       0.018  -2.999  -2.835  1.00  0.00     0.000 C 
BRANCH   7   8
ATOM      8  C   UNL     1      -0.125  -3.983  -1.663  1.00  0.00     0.004 C 
BRANCH   8   9
ATOM      9  C   UNL     1      -1.069  -5.152  -1.986  1.00  0.00     0.027 C 
BRANCH   9  10
ATOM     10  C   UNL     1      -2.094  -4.754  -3.014  1.00  0.00    -0.035 C 
ATOM     11  C   UNL     1      -2.723  -5.661  -3.767  1.00  0.00     0.004 C 
ENDBRANCH   9  10
ENDBRANCH   8   9
ENDBRANCH   7   8
ENDBRANCH   1   7
TORSDOF 7
ENDMDL
