MODEL 1
REMARK VINA RESULT:    -4.469      0.000      0.000
REMARK INTER + INTRA:          -9.985
REMARK INTER:                  -8.127
REMARK INTRA:                  -1.858
REMARK UNBOUND:                -1.858
REMARK SMILES CCCCCCCCCCCCCCCC(=O)[O-]
REMARK SMILES IDX 9 1 10 2 11 3 12 4 13 5 14 6 15 7 16 8 17 9 18 10 8 11 7 12
REMARK SMILES IDX 6 13 5 14 4 15 3 16 2 17 1 18
REMARK H PARENT
REMARK Flexibility Score: inf
ROOT
ATOM      1  C   UNL     1      15.318  62.453  31.390  1.00  0.00     0.000 C 
ENDROOT
BRANCH   1   2
ATOM      2  C   UNL     1      16.120  63.570  32.089  1.00  0.00     0.000 C 
BRANCH   2   3
ATOM      3  C   UNL     1      15.467  64.132  33.364  1.00  0.00     0.000 C 
BRANCH   3   4
ATOM      4  C   UNL     1      14.745  65.480  33.177  1.00  0.00     0.000 C 
BRANCH   4   5
ATOM      5  C   UNL     1      15.145  66.547  34.221  1.00  0.00     0.000 C 
BRANCH   5   6
ATOM      6  C   UNL     1      15.573  67.887  33.598  1.00  0.00     0.006 C 
BRANCH   6   7
ATOM      7  C   UNL     1      16.763  68.518  34.332  1.00  0.00     0.053 C 
BRANCH   7   8
ATOM      8  C   UNL     1      17.077  69.863  33.757  1.00  0.00     0.041 C 
ATOM      9  O   UNL     1      16.958  70.067  32.519  1.00  0.00    -0.550 OA
ATOM     10  O   UNL     1      17.453  70.906  34.593  1.00  0.00    -0.550 OA
ENDBRANCH   7   8
ENDBRANCH   6   7
ENDBRANCH   5   6
ENDBRANCH   4   5
ENDBRANCH   3   4
ENDBRANCH   2   3
ENDBRANCH   1   2
BRANCH   1  11
ATOM     11  C   UNL     1      14.087  62.967  30.614  1.00  0.00     0.000 C 
BRANCH  11  12
ATOM     12  C   UNL     1      12.986  61.897  30.496  1.00  0.00    -0.000 C 
BRANCH  12  13
ATOM     13  C   UNL     1      11.661  62.348  31.130  1.00  0.00    -0.000 C 
BRANCH  13  14
ATOM     14  C   UNL     1      11.843  63.546  32.078  1.00  0.00    -0.000 C 
BRANCH  14  15
ATOM     15  C   UNL     1      11.834  63.137  33.560  1.00  0.00    -0.000 C 
BRANCH  15  16
ATOM     16  C   UNL     1      11.963  61.622  33.813  1.00  0.00    -0.000 C 
BRANCH  16  17
ATOM     17  C   UNL     1      13.381  61.178  34.230  1.00  0.00    -0.003 C 
ATOM     18  C   UNL     1      13.771  59.827  33.631  1.00  0.00     0.004 C 
ENDBRANCH  16  17
ENDBRANCH  15  16
ENDBRANCH  14  15
ENDBRANCH  13  14
ENDBRANCH  12  13
ENDBRANCH  11  12
ENDBRANCH   1  11
TORSDOF 14
ENDMDL
MODEL 2
REMARK VINA RESULT:    -4.355      1.424      2.053
REMARK INTER + INTRA:          -9.777
REMARK INTER:                  -8.322
REMARK INTRA:                  -1.454
REMARK UNBOUND:                -1.858
REMARK SMILES CCCCCCCCCCCCCCCC(=O)[O-]
REMARK SMILES IDX 9 1 10 2 11 3 12 4 13 5 14 6 15 7 16 8 17 9 18 10 8 11 7 12
REMARK SMILES IDX 6 13 5 14 4 15 3 16 2 17 1 18
REMARK H PARENT
REMARK Flexibility Score: inf
ROOT
ATOM      1  C   UNL     1      14.032  64.156  32.311  1.00  0.00     0.000 C 
ENDROOT
BRANCH   1   2
ATOM      2  C   UNL     1      15.161  64.955  32.994  1.00  0.00     0.000 C 
BRANCH   2   3
ATOM      3  C   UNL     1      14.844  66.441  33.239  1.00  0.00     0.000 C 
BRANCH   3   4
ATOM      4  C   UNL     1      14.864  67.320  31.975  1.00  0.00     0.000 C 
BRANCH   4   5
ATOM      5  C   UNL     1      15.207  68.801  32.256  1.00  0.00     0.000 C 
BRANCH   5   6
ATOM      6  C   UNL     1      15.736  69.050  33.679  1.00  0.00     0.006 C 
BRANCH   6   7
ATOM      7  C   UNL     1      17.255  69.264  33.707  1.00  0.00     0.053 C 
BRANCH   7   8
ATOM      8  C   UNL     1      17.787  69.047  35.090  1.00  0.00     0.041 C 
ATOM      9  O   UNL     1      18.726  69.763  35.526  1.00  0.00    -0.550 OA
ATOM     10  O   UNL     1      17.212  68.087  35.912  1.00  0.00    -0.550 OA
ENDBRANCH   7   8
ENDBRANCH   6   7
ENDBRANCH   5   6
ENDBRANCH   4   5
ENDBRANCH   3   4
ENDBRANCH   2   3
ENDBRANCH   1   2
BRANCH   1  11
ATOM     11  C   UNL     1      14.526  63.232  31.178  1.00  0.00     0.000 C 
BRANCH  11  12
ATOM     12  C   UNL     1      13.363  62.560  30.426  1.00  0.00    -0.000 C 
BRANCH  12  13
ATOM     13  C   UNL     1      11.995  63.133  30.830  1.00  0.00    -0.000 C 
BRANCH  13  14
ATOM     14  C   UNL     1      11.040  62.050  31.362  1.00  0.00    -0.000 C 
BRANCH  14  15
ATOM     15  C   UNL     1      11.753  60.718  31.647  1.00  0.00    -0.000 C 
BRANCH  15  16
ATOM     16  C   UNL     1      11.724  60.272  33.122  1.00  0.00    -0.000 C 
BRANCH  16  17
ATOM     17  C   UNL     1      12.448  61.241  34.080  1.00  0.00    -0.003 C 
ATOM     18  C   UNL     1      13.939  60.933  34.209  1.00  0.00     0.004 C 
ENDBRANCH  16  17
ENDBRANCH  15  16
ENDBRANCH  14  15
ENDBRANCH  13  14
ENDBRANCH  12  13
ENDBRANCH  11  12
ENDBRANCH   1  11
TORSDOF 14
ENDMDL
MODEL 3
REMARK VINA RESULT:    -4.329      3.646      7.802
REMARK INTER + INTRA:          -9.729
REMARK INTER:                  -8.713
REMARK INTRA:                  -1.016
REMARK UNBOUND:                -1.858
REMARK SMILES CCCCCCCCCCCCCCCC(=O)[O-]
REMARK SMILES IDX 9 1 10 2 11 3 12 4 13 5 14 6 15 7 16 8 17 9 18 10 8 11 7 12
REMARK SMILES IDX 6 13 5 14 4 15 3 16 2 17 1 18
REMARK H PARENT
REMARK Flexibility Score: inf
ROOT
ATOM      1  C   UNL     1      14.950  66.669  33.382  1.00  0.00     0.000 C 
ENDROOT
BRANCH   1   2
ATOM      2  C   UNL     1      15.776  65.390  33.134  1.00  0.00     0.000 C 
BRANCH   2   3
ATOM      3  C   UNL     1      14.943  64.114  32.917  1.00  0.00     0.000 C 
BRANCH   3   4
ATOM      4  C   UNL     1      15.009  63.537  31.490  1.00  0.00     0.000 C 
BRANCH   4   5
ATOM      5  C   UNL     1      14.204  62.230  31.313  1.00  0.00     0.000 C 
BRANCH   5   6
ATOM      6  C   UNL     1      13.133  62.312  30.211  1.00  0.00     0.006 C 
BRANCH   6   7
ATOM      7  C   UNL     1      11.904  63.118  30.652  1.00  0.00     0.053 C 
BRANCH   7   8
ATOM      8  C   UNL     1      11.272  62.489  31.855  1.00  0.00     0.041 C 
ATOM      9  O   UNL     1      10.748  61.347  31.770  1.00  0.00    -0.550 OA
ATOM     10  O   UNL     1      11.307  63.143  33.079  1.00  0.00    -0.550 OA
ENDBRANCH   7   8
ENDBRANCH   6   7
ENDBRANCH   5   6
ENDBRANCH   4   5
ENDBRANCH   3   4
ENDBRANCH   2   3
ENDBRANCH   1   2
BRANCH   1  11
ATOM     11  C   UNL     1      15.027  67.690  32.228  1.00  0.00     0.000 C 
BRANCH  11  12
ATOM     12  C   UNL     1      15.371  69.106  32.725  1.00  0.00    -0.000 C 
BRANCH  12  13
ATOM     13  C   UNL     1      16.875  69.289  32.979  1.00  0.00    -0.000 C 
BRANCH  13  14
ATOM     14  C   UNL     1      17.163  70.341  34.065  1.00  0.00    -0.000 C 
BRANCH  14  15
ATOM     15  C   UNL     1      17.935  69.762  35.262  1.00  0.00    -0.000 C 
BRANCH  15  16
ATOM     16  C   UNL     1      17.414  68.404  35.772  1.00  0.00    -0.000 C 
BRANCH  16  17
ATOM     17  C   UNL     1      17.925  68.030  37.180  1.00  0.00    -0.003 C 
ATOM     18  C   UNL     1      19.113  68.887  37.618  1.00  0.00     0.004 C 
ENDBRANCH  16  17
ENDBRANCH  15  16
ENDBRANCH  14  15
ENDBRANCH  13  14
ENDBRANCH  12  13
ENDBRANCH  11  12
ENDBRANCH   1  11
TORSDOF 14
ENDMDL
MODEL 4
REMARK VINA RESULT:    -4.243      1.370      2.674
REMARK INTER + INTRA:          -9.573
REMARK INTER:                  -7.104
REMARK INTRA:                  -2.468
REMARK UNBOUND:                -1.858
REMARK SMILES CCCCCCCCCCCCCCCC(=O)[O-]
REMARK SMILES IDX 9 1 10 2 11 3 12 4 13 5 14 6 15 7 16 8 17 9 18 10 8 11 7 12
REMARK SMILES IDX 6 13 5 14 4 15 3 16 2 17 1 18
REMARK H PARENT
REMARK Flexibility Score: inf
ROOT
ATOM      1  C   UNL     1      13.034  61.663  30.247  1.00  0.00     0.000 C 
ENDROOT
BRANCH   1   2
ATOM      2  C   UNL     1      14.253  62.597  30.391  1.00  0.00     0.000 C 
BRANCH   2   3
ATOM      3  C   UNL     1      15.355  62.081  31.332  1.00  0.00     0.000 C 
BRANCH   3   4
ATOM      4  C   UNL     1      15.871  63.117  32.349  1.00  0.00     0.000 C 
BRANCH   4   5
ATOM      5  C   UNL     1      15.714  64.580  31.875  1.00  0.00     0.000 C 
BRANCH   5   6
ATOM      6  C   UNL     1      14.915  65.460  32.852  1.00  0.00     0.006 C 
BRANCH   6   7
ATOM      7  C   UNL     1      14.917  66.938  32.439  1.00  0.00     0.053 C 
BRANCH   7   8
ATOM      8  C   UNL     1      15.792  67.734  33.356  1.00  0.00     0.041 C 
ATOM      9  O   UNL     1      16.607  67.150  34.119  1.00  0.00    -0.550 OA
ATOM     10  O   UNL     1      15.744  69.121  33.332  1.00  0.00    -0.550 OA
ENDBRANCH   7   8
ENDBRANCH   6   7
ENDBRANCH   5   6
ENDBRANCH   4   5
ENDBRANCH   3   4
ENDBRANCH   2   3
ENDBRANCH   1   2
BRANCH   1  11
ATOM     11  C   UNL     1      11.710  62.294  30.728  1.00  0.00     0.000 C 
BRANCH  11  12
ATOM     12  C   UNL     1      11.941  63.556  31.579  1.00  0.00    -0.000 C 
BRANCH  12  13
ATOM     13  C   UNL     1      11.589  63.337  33.058  1.00  0.00    -0.000 C 
BRANCH  13  14
ATOM     14  C   UNL     1      12.682  62.559  33.812  1.00  0.00    -0.000 C 
BRANCH  14  15
ATOM     15  C   UNL     1      12.265  61.114  34.135  1.00  0.00    -0.000 C 
BRANCH  15  16
ATOM     16  C   UNL     1      13.160  60.028  33.507  1.00  0.00    -0.000 C 
BRANCH  16  17
ATOM     17  C   UNL     1      12.381  58.978  32.686  1.00  0.00    -0.003 C 
ATOM     18  C   UNL     1      10.868  59.191  32.747  1.00  0.00     0.004 C 
ENDBRANCH  16  17
ENDBRANCH  15  16
ENDBRANCH  14  15
ENDBRANCH  13  14
ENDBRANCH  12  13
ENDBRANCH  11  12
ENDBRANCH   1  11
TORSDOF 14
ENDMDL
MODEL 5
REMARK VINA RESULT:    -4.177      1.083      2.454
REMARK INTER + INTRA:          -9.453
REMARK INTER:                  -7.349
REMARK INTRA:                  -2.104
REMARK UNBOUND:                -1.858
REMARK SMILES CCCCCCCCCCCCCCCC(=O)[O-]
REMARK SMILES IDX 9 1 10 2 11 3 12 4 13 5 14 6 15 7 16 8 17 9 18 10 8 11 7 12
REMARK SMILES IDX 6 13 5 14 4 15 3 16 2 17 1 18
REMARK H PARENT
REMARK Flexibility Score: inf
ROOT
ATOM      1  C   UNL     1      14.707  61.950  34.094  1.00  0.00     0.000 C 
ENDROOT
BRANCH   1   2
ATOM      2  C   UNL     1      15.808  62.065  33.020  1.00  0.00     0.000 C 
BRANCH   2   3
ATOM      3  C   UNL     1      15.902  63.440  32.335  1.00  0.00     0.000 C 
BRANCH   3   4
ATOM      4  C   UNL     1      15.131  64.568  33.047  1.00  0.00     0.000 C 
BRANCH   4   5
ATOM      5  C   UNL     1      16.033  65.724  33.533  1.00  0.00     0.000 C 
BRANCH   5   6
ATOM      6  C   UNL     1      15.249  66.915  34.111  1.00  0.00     0.006 C 
BRANCH   6   7
ATOM      7  C   UNL     1      16.173  68.025  34.629  1.00  0.00     0.053 C 
BRANCH   7   8
ATOM      8  C   UNL     1      16.187  69.179  33.676  1.00  0.00     0.041 C 
ATOM      9  O   UNL     1      15.603  69.090  32.564  1.00  0.00    -0.550 OA
ATOM     10  O   UNL     1      16.803  70.370  34.037  1.00  0.00    -0.550 OA
ENDBRANCH   7   8
ENDBRANCH   6   7
ENDBRANCH   5   6
ENDBRANCH   4   5
ENDBRANCH   3   4
ENDBRANCH   2   3
ENDBRANCH   1   2
BRANCH   1  11
ATOM     11  C   UNL     1      13.849  60.674  33.967  1.00  0.00     0.000 C 
BRANCH  11  12
ATOM     12  C   UNL     1      12.341  60.980  34.008  1.00  0.00    -0.000 C 
BRANCH  12  13
ATOM     13  C   UNL     1      12.037  62.466  33.762  1.00  0.00    -0.000 C 
BRANCH  13  14
ATOM     14  C   UNL     1      11.285  62.699  32.440  1.00  0.00    -0.000 C 
BRANCH  14  15
ATOM     15  C   UNL     1      12.047  63.626  31.479  1.00  0.00    -0.000 C 
BRANCH  15  16
ATOM     16  C   UNL     1      12.865  62.900  30.394  1.00  0.00    -0.000 C 
BRANCH  16  17
ATOM     17  C   UNL     1      12.722  61.363  30.431  1.00  0.00    -0.003 C 
ATOM     18  C   UNL     1      14.021  60.645  30.063  1.00  0.00     0.004 C 
ENDBRANCH  16  17
ENDBRANCH  15  16
ENDBRANCH  14  15
ENDBRANCH  13  14
ENDBRANCH  12  13
ENDBRANCH  11  12
ENDBRANCH   1  11
TORSDOF 14
ENDMDL
MODEL 6
REMARK VINA RESULT:    -4.144      1.775      2.474
REMARK INTER + INTRA:          -9.394
REMARK INTER:                  -7.043
REMARK INTRA:                  -2.350
REMARK UNBOUND:                -1.858
REMARK SMILES CCCCCCCCCCCCCCCC(=O)[O-]
REMARK SMILES IDX 9 1 10 2 11 3 12 4 13 5 14 6 15 7 16 8 17 9 18 10 8 11 7 12
REMARK SMILES IDX 6 13 5 14 4 15 3 16 2 17 1 18
REMARK H PARENT
REMARK Flexibility Score: inf
ROOT
ATOM      1  C   UNL     1      13.733  62.283  30.424  1.00  0.00     0.000 C 
ENDROOT
BRANCH   1   2
ATOM      2  C   UNL     1      14.630  63.417  30.959  1.00  0.00     0.000 C 
BRANCH   2   3
ATOM      3  C   UNL     1      15.621  62.994  32.058  1.00  0.00     0.000 C 
BRANCH   3   4
ATOM      4  C   UNL     1      15.556  63.840  33.344  1.00  0.00     0.000 C 
BRANCH   4   5
ATOM      5  C   UNL     1      14.680  65.106  33.207  1.00  0.00     0.000 C 
BRANCH   5   6
ATOM      6  C   UNL     1      15.487  66.416  33.202  1.00  0.00     0.006 C 
BRANCH   6   7
ATOM      7  C   UNL     1      16.738  66.333  34.087  1.00  0.00     0.053 C 
BRANCH   7   8
ATOM      8  C   UNL     1      16.466  66.934  35.431  1.00  0.00     0.041 C 
ATOM      9  O   UNL     1      16.637  66.252  36.476  1.00  0.00    -0.550 OA
ATOM     10  O   UNL     1      16.074  68.262  35.531  1.00  0.00    -0.550 OA
ENDBRANCH   7   8
ENDBRANCH   6   7
ENDBRANCH   5   6
ENDBRANCH   4   5
ENDBRANCH   3   4
ENDBRANCH   2   3
ENDBRANCH   1   2
BRANCH   1  11
ATOM     11  C   UNL     1      12.227  62.623  30.442  1.00  0.00     0.000 C 
BRANCH  11  12
ATOM     12  C   UNL     1      11.872  63.634  31.547  1.00  0.00    -0.000 C 
BRANCH  12  13
ATOM     13  C   UNL     1      11.158  62.975  32.737  1.00  0.00    -0.000 C 
BRANCH  13  14
ATOM     14  C   UNL     1      12.146  62.401  33.768  1.00  0.00    -0.000 C 
BRANCH  14  15
ATOM     15  C   UNL     1      12.212  60.865  33.737  1.00  0.00    -0.000 C 
BRANCH  15  16
ATOM     16  C   UNL     1      13.632  60.282  33.596  1.00  0.00    -0.000 C 
BRANCH  16  17
ATOM     17  C   UNL     1      14.531  60.528  34.827  1.00  0.00    -0.003 C 
ATOM     18  C   UNL     1      15.999  60.199  34.555  1.00  0.00     0.004 C 
ENDBRANCH  16  17
ENDBRANCH  15  16
ENDBRANCH  14  15
ENDBRANCH  13  14
ENDBRANCH  12  13
ENDBRANCH  11  12
ENDBRANCH   1  11
TORSDOF 14
ENDMDL
MODEL 7
REMARK VINA RESULT:    -4.138      4.930      6.537
REMARK INTER + INTRA:          -9.383
REMARK INTER:                  -7.763
REMARK INTRA:                  -1.619
REMARK UNBOUND:                -1.858
REMARK SMILES CCCCCCCCCCCCCCCC(=O)[O-]
REMARK SMILES IDX 9 1 10 2 11 3 12 4 13 5 14 6 15 7 16 8 17 9 18 10 8 11 7 12
REMARK SMILES IDX 6 13 5 14 4 15 3 16 2 17 1 18
REMARK H PARENT
REMARK Flexibility Score: inf
ROOT
ATOM      1  C   UNL     1      10.836  59.673  31.872  1.00  0.00     0.000 C 
ENDROOT
BRANCH   1   2
ATOM      2  C   UNL     1      10.834  61.212  31.972  1.00  0.00     0.000 C 
BRANCH   2   3
ATOM      3  C   UNL     1      11.573  61.781  33.195  1.00  0.00     0.000 C 
BRANCH   3   4
ATOM      4  C   UNL     1      11.746  63.312  33.188  1.00  0.00     0.000 C 
BRANCH   4   5
ATOM      5  C   UNL     1      12.544  63.839  31.973  1.00  0.00     0.000 C 
BRANCH   5   6
ATOM      6  C   UNL     1      14.068  63.799  32.176  1.00  0.00     0.006 C 
BRANCH   6   7
ATOM      7  C   UNL     1      14.795  63.131  31.001  1.00  0.00     0.053 C 
BRANCH   7   8
ATOM      8  C   UNL     1      14.334  61.716  30.839  1.00  0.00     0.041 C 
ATOM      9  O   UNL     1      13.683  61.376  29.815  1.00  0.00    -0.550 OA
ATOM     10  O   UNL     1      14.665  60.764  31.793  1.00  0.00    -0.550 OA
ENDBRANCH   7   8
ENDBRANCH   6   7
ENDBRANCH   5   6
ENDBRANCH   4   5
ENDBRANCH   3   4
ENDBRANCH   2   3
ENDBRANCH   1   2
BRANCH   1  11
ATOM     11  C   UNL     1       9.775  59.113  30.900  1.00  0.00     0.000 C 
BRANCH  11  12
ATOM     12  C   UNL     1       8.513  59.992  30.847  1.00  0.00    -0.000 C 
BRANCH  12  13
ATOM     13  C   UNL     1       7.300  59.242  30.275  1.00  0.00    -0.000 C 
BRANCH  13  14
ATOM     14  C   UNL     1       6.106  59.232  31.247  1.00  0.00    -0.000 C 
BRANCH  14  15
ATOM     15  C   UNL     1       6.487  59.705  32.660  1.00  0.00    -0.000 C 
BRANCH  15  16
ATOM     16  C   UNL     1       6.528  58.590  33.724  1.00  0.00    -0.000 C 
BRANCH  16  17
ATOM     17  C   UNL     1       7.629  57.536  33.479  1.00  0.00    -0.003 C 
ATOM     18  C   UNL     1       8.862  57.764  34.353  1.00  0.00     0.004 C 
ENDBRANCH  16  17
ENDBRANCH  15  16
ENDBRANCH  14  15
ENDBRANCH  13  14
ENDBRANCH  12  13
ENDBRANCH  11  12
ENDBRANCH   1  11
TORSDOF 14
ENDMDL
MODEL 8
REMARK VINA RESULT:    -4.134      4.175      8.060
REMARK INTER + INTRA:          -9.375
REMARK INTER:                  -8.148
REMARK INTRA:                  -1.227
REMARK UNBOUND:                -1.858
REMARK SMILES CCCCCCCCCCCCCCCC(=O)[O-]
REMARK SMILES IDX 9 1 10 2 11 3 12 4 13 5 14 6 15 7 16 8 17 9 18 10 8 11 7 12
REMARK SMILES IDX 6 13 5 14 4 15 3 16 2 17 1 18
REMARK H PARENT
REMARK Flexibility Score: inf
ROOT
ATOM      1  C   UNL     1      16.640  66.505  35.392  1.00  0.00     0.000 C 
ENDROOT
BRANCH   1   2
ATOM      2  C   UNL     1      16.539  65.754  34.050  1.00  0.00     0.000 C 
BRANCH   2   3
ATOM      3  C   UNL     1      15.406  66.231  33.125  1.00  0.00     0.000 C 
BRANCH   3   4
ATOM      4  C   UNL     1      14.186  65.291  33.065  1.00  0.00     0.000 C 
BRANCH   4   5
ATOM      5  C   UNL     1      14.542  63.840  32.669  1.00  0.00     0.000 C 
BRANCH   5   6
ATOM      6  C   UNL     1      13.646  63.268  31.557  1.00  0.00     0.006 C 
BRANCH   6   7
ATOM      7  C   UNL     1      12.191  63.742  31.679  1.00  0.00     0.053 C 
BRANCH   7   8
ATOM      8  C   UNL     1      11.435  62.862  32.625  1.00  0.00     0.041 C 
ATOM      9  O   UNL     1      11.404  63.134  33.855  1.00  0.00    -0.550 OA
ATOM     10  O   UNL     1      10.723  61.772  32.142  1.00  0.00    -0.550 OA
ENDBRANCH   7   8
ENDBRANCH   6   7
ENDBRANCH   5   6
ENDBRANCH   4   5
ENDBRANCH   3   4
ENDBRANCH   2   3
ENDBRANCH   1   2
BRANCH   1  11
ATOM     11  C   UNL     1      16.301  68.008  35.288  1.00  0.00     0.000 C 
BRANCH  11  12
ATOM     12  C   UNL     1      17.454  68.823  34.677  1.00  0.00    -0.000 C 
BRANCH  12  13
ATOM     13  C   UNL     1      18.116  69.760  35.699  1.00  0.00    -0.000 C 
BRANCH  13  14
ATOM     14  C   UNL     1      18.991  68.998  36.711  1.00  0.00    -0.000 C 
BRANCH  14  15
ATOM     15  C   UNL     1      18.745  69.444  38.162  1.00  0.00    -0.000 C 
BRANCH  15  16
ATOM     16  C   UNL     1      17.952  68.439  39.021  1.00  0.00    -0.000 C 
BRANCH  16  17
ATOM     17  C   UNL     1      18.237  66.962  38.673  1.00  0.00    -0.003 C 
ATOM     18  C   UNL     1      17.188  66.012  39.251  1.00  0.00     0.004 C 
ENDBRANCH  16  17
ENDBRANCH  15  16
ENDBRANCH  14  15
ENDBRANCH  13  14
ENDBRANCH  12  13
ENDBRANCH  11  12
ENDBRANCH   1  11
TORSDOF 14
ENDMDL
MODEL 9
REMARK VINA RESULT:    -4.133      4.889      7.209
REMARK INTER + INTRA:          -9.374
REMARK INTER:                  -7.315
REMARK INTRA:                  -2.059
REMARK UNBOUND:                -1.858
REMARK SMILES CCCCCCCCCCCCCCCC(=O)[O-]
REMARK SMILES IDX 9 1 10 2 11 3 12 4 13 5 14 6 15 7 16 8 17 9 18 10 8 11 7 12
REMARK SMILES IDX 6 13 5 14 4 15 3 16 2 17 1 18
REMARK H PARENT
REMARK Flexibility Score: inf
ROOT
ATOM      1  C   UNL     1      10.926  57.457  32.863  1.00  0.00     0.000 C 
ENDROOT
BRANCH   1   2
ATOM      2  C   UNL     1      10.955  58.990  33.028  1.00  0.00     0.000 C 
BRANCH   2   3
ATOM      3  C   UNL     1      11.119  59.778  31.716  1.00  0.00     0.000 C 
BRANCH   3   4
ATOM      4  C   UNL     1      10.409  61.145  31.694  1.00  0.00     0.000 C 
BRANCH   4   5
ATOM      5  C   UNL     1      11.321  62.309  31.245  1.00  0.00     0.000 C 
BRANCH   5   6
ATOM      6  C   UNL     1      11.557  63.363  32.341  1.00  0.00     0.006 C 
BRANCH   6   7
ATOM      7  C   UNL     1      12.171  62.757  33.610  1.00  0.00     0.053 C 
BRANCH   7   8
ATOM      8  C   UNL     1      13.613  62.424  33.384  1.00  0.00     0.041 C 
ATOM      9  O   UNL     1      14.475  63.341  33.339  1.00  0.00    -0.550 OA
ATOM     10  O   UNL     1      14.010  61.099  33.274  1.00  0.00    -0.550 OA
ENDBRANCH   7   8
ENDBRANCH   6   7
ENDBRANCH   5   6
ENDBRANCH   4   5
ENDBRANCH   3   4
ENDBRANCH   2   3
ENDBRANCH   1   2
BRANCH   1  11
ATOM     11  C   UNL     1       9.817  56.766  33.686  1.00  0.00     0.000 C 
BRANCH  11  12
ATOM     12  C   UNL     1       8.726  57.754  34.137  1.00  0.00    -0.000 C 
BRANCH  12  13
ATOM     13  C   UNL     1       7.407  57.559  33.372  1.00  0.00    -0.000 C 
BRANCH  13  14
ATOM     14  C   UNL     1       6.488  58.790  33.466  1.00  0.00    -0.000 C 
BRANCH  14  15
ATOM     15  C   UNL     1       6.706  59.782  32.311  1.00  0.00    -0.000 C 
BRANCH  15  16
ATOM     16  C   UNL     1       6.496  59.192  30.904  1.00  0.00    -0.000 C 
BRANCH  16  17
ATOM     17  C   UNL     1       7.736  59.299  29.991  1.00  0.00    -0.003 C 
ATOM     18  C   UNL     1       8.478  57.970  29.853  1.00  0.00     0.004 C 
ENDBRANCH  16  17
ENDBRANCH  15  16
ENDBRANCH  14  15
ENDBRANCH  13  14
ENDBRANCH  12  13
ENDBRANCH  11  12
ENDBRANCH   1  11
TORSDOF 14
ENDMDL
