MODEL 1
REMARK VINA RESULT:    -5.451      0.000      0.000
REMARK INTER + INTRA:          -5.451
REMARK INTER:                  -5.451
REMARK INTRA:                   0.000
REMARK UNBOUND:                 0.000
REMARK SMILES O=c1ccc2ccccc2o1
REMARK SMILES IDX 7 1 8 2 9 3 10 4 5 5 6 6 4 7 3 8 2 9 1 10 11 11
REMARK H PARENT
REMARK Flexibility Score: inf
ROOT
ATOM      1  C   UNL     1     -23.947  -7.999  17.095  1.00  0.00     0.001 A 
ATOM      2  C   UNL     1     -24.204  -7.633  15.768  1.00  0.00     0.004 A 
ATOM      3  C   UNL     1     -23.154  -7.528  14.851  1.00  0.00     0.048 A 
ATOM      4  C   UNL     1     -21.840  -7.790  15.256  1.00  0.00     0.138 A 
ATOM      5  C   UNL     1     -21.579  -8.159  16.595  1.00  0.00     0.018 A 
ATOM      6  C   UNL     1     -22.637  -8.263  17.510  1.00  0.00     0.012 A 
ATOM      7  C   UNL     1     -20.257  -8.414  16.970  1.00  0.00     0.019 A 
ATOM      8  C   UNL     1     -19.242  -8.297  16.022  1.00  0.00     0.094 A 
ATOM      9  C   UNL     1     -19.574  -7.926  14.715  1.00  0.00     0.336 A 
ATOM     10  O   UNL     1     -18.671  -7.816  13.844  1.00  0.00    -0.246 OA
ATOM     11  O   UNL     1     -20.841  -7.689  14.382  1.00  0.00    -0.423 OA
ENDROOT
TORSDOF 0
ENDMDL
MODEL 2
REMARK VINA RESULT:    -5.449      1.358      3.742
REMARK INTER + INTRA:          -5.449
REMARK INTER:                  -5.449
REMARK INTRA:                   0.000
REMARK UNBOUND:                 0.000
REMARK SMILES O=c1ccc2ccccc2o1
REMARK SMILES IDX 7 1 8 2 9 3 10 4 5 5 6 6 4 7 3 8 2 9 1 10 11 11
REMARK H PARENT
REMARK Flexibility Score: inf
ROOT
ATOM      1  C   UNL     1     -18.744  -8.408  16.304  1.00  0.00     0.001 A 
ATOM      2  C   UNL     1     -18.786  -7.910  14.996  1.00  0.00     0.004 A 
ATOM      3  C   UNL     1     -20.014  -7.628  14.390  1.00  0.00     0.048 A 
ATOM      4  C   UNL     1     -21.207  -7.841  15.089  1.00  0.00     0.138 A 
ATOM      5  C   UNL     1     -21.166  -8.345  16.409  1.00  0.00     0.018 A 
ATOM      6  C   UNL     1     -19.930  -8.625  17.012  1.00  0.00     0.012 A 
ATOM      7  C   UNL     1     -22.373  -8.549  17.083  1.00  0.00     0.019 A 
ATOM      8  C   UNL     1     -23.574  -8.254  16.439  1.00  0.00     0.094 A 
ATOM      9  C   UNL     1     -23.539  -7.759  15.131  1.00  0.00     0.336 A 
ATOM     10  O   UNL     1     -24.613  -7.486  14.534  1.00  0.00    -0.246 OA
ATOM     11  O   UNL     1     -22.376  -7.573  14.512  1.00  0.00    -0.423 OA
ENDROOT
TORSDOF 0
ENDMDL
MODEL 3
REMARK VINA RESULT:    -5.418      2.089      2.406
REMARK INTER + INTRA:          -5.418
REMARK INTER:                  -5.418
REMARK INTRA:                   0.000
REMARK UNBOUND:                 0.000
REMARK SMILES O=c1ccc2ccccc2o1
REMARK SMILES IDX 7 1 8 2 9 3 10 4 5 5 6 6 4 7 3 8 2 9 1 10 11 11
REMARK H PARENT
REMARK Flexibility Score: inf
ROOT
ATOM      1  C   UNL     1     -23.530  -9.127  17.245  1.00  0.00     0.001 A 
ATOM      2  C   UNL     1     -23.336  -9.414  15.889  1.00  0.00     0.004 A 
ATOM      3  C   UNL     1     -22.686  -8.494  15.060  1.00  0.00     0.048 A 
ATOM      4  C   UNL     1     -22.225  -7.282  15.585  1.00  0.00     0.138 A 
ATOM      5  C   UNL     1     -22.420  -6.991  16.954  1.00  0.00     0.018 A 
ATOM      6  C   UNL     1     -23.073  -7.918  17.780  1.00  0.00     0.012 A 
ATOM      7  C   UNL     1     -21.950  -5.771  17.450  1.00  0.00     0.019 A 
ATOM      8  C   UNL     1     -21.307  -4.885  16.588  1.00  0.00     0.094 A 
ATOM      9  C   UNL     1     -21.150  -5.239  15.244  1.00  0.00     0.336 A 
ATOM     10  O   UNL     1     -20.572  -4.451  14.450  1.00  0.00    -0.246 OA
ATOM     11  O   UNL     1     -21.607  -6.406  14.796  1.00  0.00    -0.423 OA
ENDROOT
TORSDOF 0
ENDMDL
MODEL 4
REMARK VINA RESULT:    -5.364      1.886      4.356
REMARK INTER + INTRA:          -5.364
REMARK INTER:                  -5.364
REMARK INTRA:                   0.000
REMARK UNBOUND:                 0.000
REMARK SMILES O=c1ccc2ccccc2o1
REMARK SMILES IDX 7 1 8 2 9 3 10 4 5 5 6 6 4 7 3 8 2 9 1 10 11 11
REMARK H PARENT
REMARK Flexibility Score: inf
ROOT
ATOM      1  C   UNL     1     -19.085  -7.879  14.711  1.00  0.00     0.001 A 
ATOM      2  C   UNL     1     -18.844  -8.357  16.004  1.00  0.00     0.004 A 
ATOM      3  C   UNL     1     -19.910  -8.593  16.878  1.00  0.00     0.048 A 
ATOM      4  C   UNL     1     -21.224  -8.353  16.461  1.00  0.00     0.138 A 
ATOM      5  C   UNL     1     -21.469  -7.869  15.156  1.00  0.00     0.018 A 
ATOM      6  C   UNL     1     -20.395  -7.635  14.285  1.00  0.00     0.012 A 
ATOM      7  C   UNL     1     -22.791  -7.637  14.769  1.00  0.00     0.019 A 
ATOM      8  C   UNL     1     -23.823  -7.887  15.672  1.00  0.00     0.094 A 
ATOM      9  C   UNL     1     -23.506  -8.364  16.949  1.00  0.00     0.336 A 
ATOM     10  O   UNL     1     -24.424  -8.596  17.779  1.00  0.00    -0.246 OA
ATOM     11  O   UNL     1     -22.238  -8.577  17.294  1.00  0.00    -0.423 OA
ENDROOT
TORSDOF 0
ENDMDL
MODEL 5
REMARK VINA RESULT:    -5.351      1.648      2.384
REMARK INTER + INTRA:          -5.351
REMARK INTER:                  -5.351
REMARK INTRA:                   0.000
REMARK UNBOUND:                 0.000
REMARK SMILES O=c1ccc2ccccc2o1
REMARK SMILES IDX 7 1 8 2 9 3 10 4 5 5 6 6 4 7 3 8 2 9 1 10 11 11
REMARK H PARENT
REMARK Flexibility Score: inf
ROOT
ATOM      1  C   UNL     1     -23.544  -7.730  15.019  1.00  0.00     0.001 A 
ATOM      2  C   UNL     1     -23.702  -8.338  16.270  1.00  0.00     0.004 A 
ATOM      3  C   UNL     1     -22.581  -8.721  17.013  1.00  0.00     0.048 A 
ATOM      4  C   UNL     1     -21.295  -8.496  16.509  1.00  0.00     0.138 A 
ATOM      5  C   UNL     1     -21.134  -7.883  15.246  1.00  0.00     0.018 A 
ATOM      6  C   UNL     1     -22.263  -7.501  14.506  1.00  0.00     0.012 A 
ATOM      7  C   UNL     1     -19.838  -7.672  14.768  1.00  0.00     0.019 A 
ATOM      8  C   UNL     1     -18.750  -8.069  15.544  1.00  0.00     0.094 A 
ATOM      9  C   UNL     1     -18.984  -8.671  16.784  1.00  0.00     0.336 A 
ATOM     10  O   UNL     1     -18.015  -9.037  17.499  1.00  0.00    -0.246 OA
ATOM     11  O   UNL     1     -20.229  -8.861  17.217  1.00  0.00    -0.423 OA
ENDROOT
TORSDOF 0
ENDMDL
MODEL 6
REMARK VINA RESULT:    -5.346      1.565      1.968
REMARK INTER + INTRA:          -5.346
REMARK INTER:                  -5.346
REMARK INTRA:                   0.000
REMARK UNBOUND:                 0.000
REMARK SMILES O=c1ccc2ccccc2o1
REMARK SMILES IDX 7 1 8 2 9 3 10 4 5 5 6 6 4 7 3 8 2 9 1 10 11 11
REMARK H PARENT
REMARK Flexibility Score: inf
ROOT
ATOM      1  C   UNL     1     -24.172  -7.225  18.468  1.00  0.00     0.001 A 
ATOM      2  C   UNL     1     -24.402  -8.469  17.871  1.00  0.00     0.004 A 
ATOM      3  C   UNL     1     -23.635  -8.877  16.775  1.00  0.00     0.048 A 
ATOM      4  C   UNL     1     -22.632  -8.041  16.272  1.00  0.00     0.138 A 
ATOM      5  C   UNL     1     -22.399  -6.783  16.874  1.00  0.00     0.018 A 
ATOM      6  C   UNL     1     -23.172  -6.381  17.973  1.00  0.00     0.012 A 
ATOM      7  C   UNL     1     -21.391  -5.969  16.349  1.00  0.00     0.019 A 
ATOM      8  C   UNL     1     -20.650  -6.417  15.256  1.00  0.00     0.094 A 
ATOM      9  C   UNL     1     -20.937  -7.672  14.710  1.00  0.00     0.336 A 
ATOM     10  O   UNL     1     -20.279  -8.093  13.723  1.00  0.00    -0.246 OA
ATOM     11  O   UNL     1     -21.902  -8.429  15.229  1.00  0.00    -0.423 OA
ENDROOT
TORSDOF 0
ENDMDL
MODEL 7
REMARK VINA RESULT:    -5.320      2.262      3.533
REMARK INTER + INTRA:          -5.320
REMARK INTER:                  -5.320
REMARK INTRA:                   0.000
REMARK UNBOUND:                 0.000
REMARK SMILES O=c1ccc2ccccc2o1
REMARK SMILES IDX 7 1 8 2 9 3 10 4 5 5 6 6 4 7 3 8 2 9 1 10 11 11
REMARK H PARENT
REMARK Flexibility Score: inf
ROOT
ATOM      1  C   UNL     1     -21.014  -4.713  16.199  1.00  0.00     0.001 A 
ATOM      2  C   UNL     1     -20.674  -5.340  14.995  1.00  0.00     0.004 A 
ATOM      3  C   UNL     1     -21.090  -6.651  14.742  1.00  0.00     0.048 A 
ATOM      4  C   UNL     1     -21.850  -7.341  15.693  1.00  0.00     0.138 A 
ATOM      5  C   UNL     1     -22.194  -6.709  16.909  1.00  0.00     0.018 A 
ATOM      6  C   UNL     1     -21.774  -5.393  17.157  1.00  0.00     0.012 A 
ATOM      7  C   UNL     1     -22.954  -7.423  17.841  1.00  0.00     0.019 A 
ATOM      8  C   UNL     1     -23.347  -8.727  17.546  1.00  0.00     0.094 A 
ATOM      9  C   UNL     1     -22.970  -9.290  16.322  1.00  0.00     0.336 A 
ATOM     10  O   UNL     1     -23.316 -10.466  16.038  1.00  0.00    -0.246 OA
ATOM     11  O   UNL     1     -22.246  -8.589  15.452  1.00  0.00    -0.423 OA
ENDROOT
TORSDOF 0
ENDMDL
MODEL 8
REMARK VINA RESULT:    -5.271      2.067      4.076
REMARK INTER + INTRA:          -5.271
REMARK INTER:                  -5.271
REMARK INTRA:                   0.000
REMARK UNBOUND:                 0.000
REMARK SMILES O=c1ccc2ccccc2o1
REMARK SMILES IDX 7 1 8 2 9 3 10 4 5 5 6 6 4 7 3 8 2 9 1 10 11 11
REMARK H PARENT
REMARK Flexibility Score: inf
ROOT
ATOM      1  C   UNL     1     -18.232  -7.021  14.865  1.00  0.00     0.001 A 
ATOM      2  C   UNL     1     -18.796  -5.754  14.684  1.00  0.00     0.004 A 
ATOM      3  C   UNL     1     -20.096  -5.492  15.130  1.00  0.00     0.048 A 
ATOM      4  C   UNL     1     -20.837  -6.497  15.761  1.00  0.00     0.138 A 
ATOM      5  C   UNL     1     -20.268  -7.777  15.944  1.00  0.00     0.018 A 
ATOM      6  C   UNL     1     -18.964  -8.034  15.495  1.00  0.00     0.012 A 
ATOM      7  C   UNL     1     -21.032  -8.762  16.577  1.00  0.00     0.019 A 
ATOM      8  C   UNL     1     -22.323  -8.456  17.006  1.00  0.00     0.094 A 
ATOM      9  C   UNL     1     -22.822  -7.167  16.789  1.00  0.00     0.336 A 
ATOM     10  O   UNL     1     -23.985  -6.871  17.169  1.00  0.00    -0.246 OA
ATOM     11  O   UNL     1     -22.073  -6.247  16.185  1.00  0.00    -0.423 OA
ENDROOT
TORSDOF 0
ENDMDL
MODEL 9
REMARK VINA RESULT:    -5.155      1.846      2.376
REMARK INTER + INTRA:          -5.155
REMARK INTER:                  -5.155
REMARK INTRA:                   0.000
REMARK UNBOUND:                 0.000
REMARK SMILES O=c1ccc2ccccc2o1
REMARK SMILES IDX 7 1 8 2 9 3 10 4 5 5 6 6 4 7 3 8 2 9 1 10 11 11
REMARK H PARENT
REMARK Flexibility Score: inf
ROOT
ATOM      1  C   UNL     1     -24.503  -8.274  17.899  1.00  0.00     0.001 A 
ATOM      2  C   UNL     1     -24.110  -7.116  18.579  1.00  0.00     0.004 A 
ATOM      3  C   UNL     1     -23.058  -6.335  18.091  1.00  0.00     0.048 A 
ATOM      4  C   UNL     1     -22.393  -6.709  16.918  1.00  0.00     0.138 A 
ATOM      5  C   UNL     1     -22.788  -7.879  16.231  1.00  0.00     0.018 A 
ATOM      6  C   UNL     1     -23.845  -8.657  16.725  1.00  0.00     0.012 A 
ATOM      7  C   UNL     1     -22.105  -8.228  15.062  1.00  0.00     0.019 A 
ATOM      8  C   UNL     1     -21.062  -7.420  14.612  1.00  0.00     0.094 A 
ATOM      9  C   UNL     1     -20.725  -6.277  15.344  1.00  0.00     0.336 A 
ATOM     10  O   UNL     1     -19.786  -5.534  14.953  1.00  0.00    -0.246 OA
ATOM     11  O   UNL     1     -21.391  -5.966  16.454  1.00  0.00    -0.423 OA
ENDROOT
TORSDOF 0
ENDMDL
