MODEL 1
REMARK VINA RESULT:    -5.063      0.000      0.000
REMARK INTER + INTRA:          -5.535
REMARK INTER:                  -5.507
REMARK INTRA:                  -0.029
REMARK UNBOUND:                -0.029
REMARK SMILES O=C([O-])c1ccc(O)cc1
REMARK SMILES IDX 4 1 5 2 10 3 6 4 9 5 7 6 2 7 1 8 3 9 8 10
REMARK H PARENT 8 11
REMARK Flexibility Score: inf
ROOT
ATOM      1  C   UNL     1      11.021   0.755  34.899  1.00  0.00    -0.003 A 
ATOM      2  C   UNL     1      10.077   0.085  34.100  1.00  0.00     0.014 A 
ATOM      3  C   UNL     1      10.582   1.439  36.047  1.00  0.00     0.014 A 
ATOM      4  C   UNL     1       8.721   0.100  34.444  1.00  0.00     0.047 A 
ATOM      5  C   UNL     1       9.226   1.450  36.389  1.00  0.00     0.047 A 
ATOM      6  C   UNL     1       8.293   0.783  35.590  1.00  0.00     0.115 A 
ENDROOT
BRANCH   1   7
ATOM      7  C   UNL     1      12.457   0.744  34.540  1.00  0.00     0.071 C 
ATOM      8  O   UNL     1      13.092  -0.342  34.473  1.00  0.00    -0.545 OA
ATOM      9  O   UNL     1      13.126   1.933  34.273  1.00  0.00    -0.545 OA
ENDBRANCH   1   7
BRANCH   6  10
ATOM     10  O   UNL     1       6.946   0.804  35.942  1.00  0.00    -0.508 OA
ATOM     11  H   UNL     1       6.468  -0.031  36.262  1.00  0.00     0.293 HD
ENDBRANCH   6  10
TORSDOF 2
ENDMDL
MODEL 2
REMARK VINA RESULT:    -5.039      0.067      1.532
REMARK INTER + INTRA:          -5.510
REMARK INTER:                  -5.481
REMARK INTRA:                  -0.029
REMARK UNBOUND:                -0.029
REMARK SMILES O=C([O-])c1ccc(O)cc1
REMARK SMILES IDX 4 1 5 2 10 3 6 4 9 5 7 6 2 7 1 8 3 9 8 10
REMARK H PARENT 8 11
REMARK Flexibility Score: inf
ROOT
ATOM      1  C   UNL     1      11.036   0.755  34.864  1.00  0.00    -0.003 A 
ATOM      2  C   UNL     1      10.604   1.490  35.983  1.00  0.00     0.014 A 
ATOM      3  C   UNL     1      10.089   0.035  34.114  1.00  0.00     0.014 A 
ATOM      4  C   UNL     1       9.253   1.505  36.342  1.00  0.00     0.047 A 
ATOM      5  C   UNL     1       8.738   0.052  34.475  1.00  0.00     0.047 A 
ATOM      6  C   UNL     1       8.317   0.784  35.589  1.00  0.00     0.115 A 
ENDROOT
BRANCH   1   7
ATOM      7  C   UNL     1      12.465   0.735  34.479  1.00  0.00     0.071 C 
ATOM      8  O   UNL     1      13.107  -0.349  34.454  1.00  0.00    -0.545 OA
ATOM      9  O   UNL     1      13.120   1.914  34.141  1.00  0.00    -0.545 OA
ENDBRANCH   1   7
BRANCH   6  10
ATOM     10  O   UNL     1       6.968   0.792  35.937  1.00  0.00    -0.508 OA
ATOM     11  H   UNL     1       6.251   1.058  35.272  1.00  0.00     0.293 HD
ENDBRANCH   6  10
TORSDOF 2
ENDMDL
MODEL 3
REMARK VINA RESULT:    -4.839      1.625      2.347
REMARK INTER + INTRA:          -5.292
REMARK INTER:                  -5.263
REMARK INTRA:                  -0.029
REMARK UNBOUND:                -0.029
REMARK SMILES O=C([O-])c1ccc(O)cc1
REMARK SMILES IDX 4 1 5 2 10 3 6 4 9 5 7 6 2 7 1 8 3 9 8 10
REMARK H PARENT 8 11
REMARK Flexibility Score: inf
ROOT
ATOM      1  C   UNL     1      11.292   1.451  35.218  1.00  0.00    -0.003 A 
ATOM      2  C   UNL     1      10.045   1.432  35.870  1.00  0.00     0.014 A 
ATOM      3  C   UNL     1      11.507   0.583  34.132  1.00  0.00     0.014 A 
ATOM      4  C   UNL     1       9.036   0.564  35.442  1.00  0.00     0.047 A 
ATOM      5  C   UNL     1      10.495  -0.283  33.707  1.00  0.00     0.047 A 
ATOM      6  C   UNL     1       9.259  -0.296  34.359  1.00  0.00     0.115 A 
ENDROOT
BRANCH   1   7
ATOM      7  C   UNL     1      12.365   2.367  35.666  1.00  0.00     0.071 C 
ATOM      8  O   UNL     1      13.478   1.913  36.043  1.00  0.00    -0.545 OA
ATOM      9  O   UNL     1      12.157   3.741  35.679  1.00  0.00    -0.545 OA
ENDBRANCH   1   7
BRANCH   6  10
ATOM     10  O   UNL     1       8.261  -1.165  33.925  1.00  0.00    -0.508 OA
ATOM     11  H   UNL     1       7.903  -1.130  32.977  1.00  0.00     0.293 HD
ENDBRANCH   6  10
TORSDOF 2
ENDMDL
MODEL 4
REMARK VINA RESULT:    -4.819      0.979      4.535
REMARK INTER + INTRA:          -5.271
REMARK INTER:                  -5.239
REMARK INTRA:                  -0.032
REMARK UNBOUND:                -0.029
REMARK SMILES O=C([O-])c1ccc(O)cc1
REMARK SMILES IDX 4 1 5 2 10 3 6 4 9 5 7 6 2 7 1 8 3 9 8 10
REMARK H PARENT 8 11
REMARK Flexibility Score: inf
ROOT
ATOM      1  C   UNL     1       9.153   0.327  35.404  1.00  0.00    -0.003 A 
ATOM      2  C   UNL     1       9.996   1.092  36.231  1.00  0.00     0.014 A 
ATOM      3  C   UNL     1       9.668  -0.202  34.207  1.00  0.00     0.014 A 
ATOM      4  C   UNL     1      11.327   1.320  35.867  1.00  0.00     0.047 A 
ATOM      5  C   UNL     1      11.000   0.029  33.846  1.00  0.00     0.047 A 
ATOM      6  C   UNL     1      11.831   0.789  34.673  1.00  0.00     0.115 A 
ENDROOT
BRANCH   1   7
ATOM      7  C   UNL     1       7.743   0.082  35.783  1.00  0.00     0.071 C 
ATOM      8  O   UNL     1       7.056   0.993  36.318  1.00  0.00    -0.545 OA
ATOM      9  O   UNL     1       7.158  -1.158  35.554  1.00  0.00    -0.545 OA
ENDBRANCH   1   7
BRANCH   6  10
ATOM     10  O   UNL     1      13.155   1.011  34.300  1.00  0.00    -0.508 OA
ATOM     11  H   UNL     1      13.679   0.322  33.773  1.00  0.00     0.293 HD
ENDBRANCH   6  10
TORSDOF 2
ENDMDL
MODEL 5
REMARK VINA RESULT:    -4.806     17.585     18.079
REMARK INTER + INTRA:          -5.256
REMARK INTER:                  -5.228
REMARK INTRA:                  -0.028
REMARK UNBOUND:                -0.029
REMARK SMILES O=C([O-])c1ccc(O)cc1
REMARK SMILES IDX 4 1 5 2 10 3 6 4 9 5 7 6 2 7 1 8 3 9 8 10
REMARK H PARENT 8 11
REMARK Flexibility Score: inf
ROOT
ATOM      1  C   UNL     1      12.171 -10.614  48.747  1.00  0.00    -0.003 A 
ATOM      2  C   UNL     1      13.150 -11.624  48.701  1.00  0.00     0.014 A 
ATOM      3  C   UNL     1      11.301 -10.457  47.653  1.00  0.00     0.014 A 
ATOM      4  C   UNL     1      13.254 -12.458  47.583  1.00  0.00     0.047 A 
ATOM      5  C   UNL     1      11.408 -11.294  46.537  1.00  0.00     0.047 A 
ATOM      6  C   UNL     1      12.384 -12.294  46.498  1.00  0.00     0.115 A 
ENDROOT
BRANCH   1   7
ATOM      7  C   UNL     1      12.056  -9.728  49.927  1.00  0.00     0.071 C 
ATOM      8  O   UNL     1      11.676 -10.186  51.037  1.00  0.00    -0.545 OA
ATOM      9  O   UNL     1      12.364  -8.376  49.825  1.00  0.00    -0.545 OA
ENDBRANCH   1   7
BRANCH   6  10
ATOM     10  O   UNL     1      12.478 -13.119  45.380  1.00  0.00    -0.508 OA
ATOM     11  H   UNL     1      13.312 -13.664  45.193  1.00  0.00     0.293 HD
ENDBRANCH   6  10
TORSDOF 2
ENDMDL
MODEL 6
REMARK VINA RESULT:    -4.703     17.644     18.357
REMARK INTER + INTRA:          -5.144
REMARK INTER:                  -5.115
REMARK INTRA:                  -0.028
REMARK UNBOUND:                -0.029
REMARK SMILES O=C([O-])c1ccc(O)cc1
REMARK SMILES IDX 4 1 5 2 10 3 6 4 9 5 7 6 2 7 1 8 3 9 8 10
REMARK H PARENT 8 11
REMARK Flexibility Score: inf
ROOT
ATOM      1  C   UNL     1      10.492 -11.060  47.962  1.00  0.00    -0.003 A 
ATOM      2  C   UNL     1      11.626 -11.437  47.221  1.00  0.00     0.014 A 
ATOM      3  C   UNL     1      10.511 -11.207  49.361  1.00  0.00     0.014 A 
ATOM      4  C   UNL     1      12.756 -11.950  47.866  1.00  0.00     0.047 A 
ATOM      5  C   UNL     1      11.643 -11.720  50.003  1.00  0.00     0.047 A 
ATOM      6  C   UNL     1      12.766 -12.093  49.260  1.00  0.00     0.115 A 
ENDROOT
BRANCH   1   7
ATOM      7  C   UNL     1       9.293 -10.518  47.285  1.00  0.00     0.071 C 
ATOM      8  O   UNL     1       9.342  -9.409  46.688  1.00  0.00    -0.545 OA
ATOM      9  O   UNL     1       8.096 -11.224  47.300  1.00  0.00    -0.545 OA
ENDBRANCH   1   7
BRANCH   6  10
ATOM     10  O   UNL     1      13.886 -12.602  49.914  1.00  0.00    -0.508 OA
ATOM     11  H   UNL     1      13.829 -12.960  50.860  1.00  0.00     0.293 HD
ENDBRANCH   6  10
TORSDOF 2
ENDMDL
MODEL 7
REMARK VINA RESULT:    -4.657      1.405      3.989
REMARK INTER + INTRA:          -5.094
REMARK INTER:                  -5.064
REMARK INTRA:                  -0.030
REMARK UNBOUND:                -0.029
REMARK SMILES O=C([O-])c1ccc(O)cc1
REMARK SMILES IDX 4 1 5 2 10 3 6 4 9 5 7 6 2 7 1 8 3 9 8 10
REMARK H PARENT 8 11
REMARK Flexibility Score: inf
ROOT
ATOM      1  C   UNL     1       9.628   0.298  34.759  1.00  0.00    -0.003 A 
ATOM      2  C   UNL     1      10.758  -0.020  33.985  1.00  0.00     0.014 A 
ATOM      3  C   UNL     1       9.789   1.092  35.909  1.00  0.00     0.014 A 
ATOM      4  C   UNL     1      12.023   0.448  34.353  1.00  0.00     0.047 A 
ATOM      5  C   UNL     1      11.056   1.558  36.275  1.00  0.00     0.047 A 
ATOM      6  C   UNL     1      12.175   1.238  35.500  1.00  0.00     0.115 A 
ENDROOT
BRANCH   1   7
ATOM      7  C   UNL     1       8.286  -0.195  34.375  1.00  0.00     0.071 C 
ATOM      8  O   UNL     1       7.560  -0.796  35.211  1.00  0.00    -0.545 OA
ATOM      9  O   UNL     1       7.808  -0.001  33.084  1.00  0.00    -0.545 OA
ENDBRANCH   1   7
BRANCH   6  10
ATOM     10  O   UNL     1      13.430   1.709  35.877  1.00  0.00    -0.508 OA
ATOM     11  H   UNL     1      13.978   1.245  36.592  1.00  0.00     0.293 HD
ENDBRANCH   6  10
TORSDOF 2
ENDMDL
MODEL 8
REMARK VINA RESULT:    -4.643     17.997     18.632
REMARK INTER + INTRA:          -5.078
REMARK INTER:                  -5.052
REMARK INTRA:                  -0.027
REMARK UNBOUND:                -0.029
REMARK SMILES O=C([O-])c1ccc(O)cc1
REMARK SMILES IDX 4 1 5 2 10 3 6 4 9 5 7 6 2 7 1 8 3 9 8 10
REMARK H PARENT 8 11
REMARK Flexibility Score: inf
ROOT
ATOM      1  C   UNL     1      11.241 -11.451  49.277  1.00  0.00    -0.003 A 
ATOM      2  C   UNL     1      12.556 -11.841  48.965  1.00  0.00     0.014 A 
ATOM      3  C   UNL     1      10.456 -10.840  48.283  1.00  0.00     0.014 A 
ATOM      4  C   UNL     1      13.074 -11.624  47.685  1.00  0.00     0.047 A 
ATOM      5  C   UNL     1      10.978 -10.624  47.003  1.00  0.00     0.047 A 
ATOM      6  C   UNL     1      12.285 -11.014  46.701  1.00  0.00     0.115 A 
ENDROOT
BRANCH   1   7
ATOM      7  C   UNL     1      10.687 -11.678  50.631  1.00  0.00     0.071 C 
ATOM      8  O   UNL     1      10.057 -12.736  50.896  1.00  0.00    -0.545 OA
ATOM      9  O   UNL     1      10.854 -10.725  51.629  1.00  0.00    -0.545 OA
ENDBRANCH   1   7
BRANCH   6  10
ATOM     10  O   UNL     1      12.791 -10.793  45.421  1.00  0.00    -0.508 OA
ATOM     11  H   UNL     1      13.728 -10.435  45.276  1.00  0.00     0.293 HD
ENDBRANCH   6  10
TORSDOF 2
ENDMDL
MODEL 9
REMARK VINA RESULT:    -4.578      6.302      8.774
REMARK INTER + INTRA:          -5.008
REMARK INTER:                  -4.973
REMARK INTRA:                  -0.035
REMARK UNBOUND:                -0.029
REMARK SMILES O=C([O-])c1ccc(O)cc1
REMARK SMILES IDX 4 1 5 2 10 3 6 4 9 5 7 6 2 7 1 8 3 9 8 10
REMARK H PARENT 8 11
REMARK Flexibility Score: inf
ROOT
ATOM      1  C   UNL     1       3.138  -2.360  38.254  1.00  0.00    -0.003 A 
ATOM      2  C   UNL     1       4.189  -2.634  37.360  1.00  0.00     0.014 A 
ATOM      3  C   UNL     1       2.783  -1.022  38.502  1.00  0.00     0.014 A 
ATOM      4  C   UNL     1       4.869  -1.589  36.727  1.00  0.00     0.047 A 
ATOM      5  C   UNL     1       3.465   0.020  37.866  1.00  0.00     0.047 A 
ATOM      6  C   UNL     1       4.509  -0.259  36.979  1.00  0.00     0.115 A 
ENDROOT
BRANCH   1   7
ATOM      7  C   UNL     1       2.415  -3.462  38.928  1.00  0.00     0.071 C 
ATOM      8  O   UNL     1       1.263  -3.275  39.403  1.00  0.00    -0.545 OA
ATOM      9  O   UNL     1       2.997  -4.718  39.047  1.00  0.00    -0.545 OA
ENDBRANCH   1   7
BRANCH   6  10
ATOM     10  O   UNL     1       5.179   0.790  36.354  1.00  0.00    -0.508 OA
ATOM     11  H   UNL     1       4.988   1.042  35.391  1.00  0.00     0.293 HD
ENDBRANCH   6  10
TORSDOF 2
ENDMDL
