MODEL 1
REMARK VINA RESULT:    -3.345      0.000      0.000
REMARK INTER + INTRA:          -8.224
REMARK INTER:                  -6.083
REMARK INTRA:                  -2.140
REMARK UNBOUND:                -2.140
REMARK SMILES CCCCCCCCCCCCCCCCC
REMARK SMILES IDX 9 1 8 2 7 3 6 4 5 5 4 6 3 7 2 8 1 9 10 10 11 11 12 12 13 13
REMARK SMILES IDX 14 14 15 15 16 16 17 17
REMARK H PARENT
REMARK Flexibility Score: inf
ROOT
ATOM      1  C   UNL     1      18.716  -6.406  29.672  1.00  0.00    -0.000 C 
ENDROOT
BRANCH   1   2
ATOM      2  C   UNL     1      19.596  -6.209  28.426  1.00  0.00    -0.000 C 
BRANCH   2   3
ATOM      3  C   UNL     1      19.207  -4.963  27.611  1.00  0.00    -0.000 C 
BRANCH   3   4
ATOM      4  C   UNL     1      19.690  -3.657  28.261  1.00  0.00    -0.000 C 
BRANCH   4   5
ATOM      5  C   UNL     1      18.580  -2.597  28.368  1.00  0.00    -0.000 C 
BRANCH   5   6
ATOM      6  C   UNL     1      17.580  -2.916  29.501  1.00  0.00    -0.000 C 
BRANCH   6   7
ATOM      7  C   UNL     1      16.116  -2.966  29.032  1.00  0.00    -0.000 C 
BRANCH   7   8
ATOM      8  C   UNL     1      15.730  -4.318  28.420  1.00  0.00    -0.003 C 
ATOM      9  C   UNL     1      14.938  -5.165  29.410  1.00  0.00     0.004 C 
ENDBRANCH   7   8
ENDBRANCH   6   7
ENDBRANCH   5   6
ENDBRANCH   4   5
ENDBRANCH   3   4
ENDBRANCH   2   3
ENDBRANCH   1   2
BRANCH   1  10
ATOM     10  C   UNL     1      17.664  -7.529  29.566  1.00  0.00    -0.000 C 
BRANCH  10  11
ATOM     11  C   UNL     1      18.102  -8.772  28.769  1.00  0.00    -0.000 C 
BRANCH  11  12
ATOM     12  C   UNL     1      17.427  -8.867  27.391  1.00  0.00    -0.000 C 
BRANCH  12  13
ATOM     13  C   UNL     1      15.995  -8.303  27.383  1.00  0.00    -0.000 C 
BRANCH  13  14
ATOM     14  C   UNL     1      15.695  -7.279  26.271  1.00  0.00    -0.000 C 
BRANCH  14  15
ATOM     15  C   UNL     1      16.489  -7.545  24.981  1.00  0.00    -0.000 C 
BRANCH  15  16
ATOM     16  C   UNL     1      15.870  -8.667  24.132  1.00  0.00    -0.003 C 
ATOM     17  C   UNL     1      16.847  -9.810  23.856  1.00  0.00     0.004 C 
ENDBRANCH  15  16
ENDBRANCH  14  15
ENDBRANCH  13  14
ENDBRANCH  12  13
ENDBRANCH  11  12
ENDBRANCH  10  11
ENDBRANCH   1  10
TORSDOF 14
ENDMDL
MODEL 2
REMARK VINA RESULT:    -3.319      1.090      5.028
REMARK INTER + INTRA:          -8.176
REMARK INTER:                  -5.687
REMARK INTRA:                  -2.489
REMARK UNBOUND:                -2.140
REMARK SMILES CCCCCCCCCCCCCCCCC
REMARK SMILES IDX 9 1 8 2 7 3 6 4 5 5 4 6 3 7 2 8 1 9 10 10 11 11 12 12 13 13
REMARK SMILES IDX 14 14 15 15 16 16 17 17
REMARK H PARENT
REMARK Flexibility Score: inf
ROOT
ATOM      1  C   UNL     1      17.231  -9.487  27.855  1.00  0.00    -0.000 C 
ENDROOT
BRANCH   1   2
ATOM      2  C   UNL     1      16.869  -9.521  26.360  1.00  0.00    -0.000 C 
BRANCH   2   3
ATOM      3  C   UNL     1      15.667  -8.625  26.015  1.00  0.00    -0.000 C 
BRANCH   3   4
ATOM      4  C   UNL     1      16.091  -7.246  25.486  1.00  0.00    -0.000 C 
BRANCH   4   5
ATOM      5  C   UNL     1      15.683  -6.096  26.424  1.00  0.00    -0.000 C 
BRANCH   5   6
ATOM      6  C   UNL     1      14.991  -6.609  27.705  1.00  0.00    -0.000 C 
BRANCH   6   7
ATOM      7  C   UNL     1      14.993  -5.588  28.856  1.00  0.00    -0.000 C 
BRANCH   7   8
ATOM      8  C   UNL     1      15.612  -4.241  28.459  1.00  0.00    -0.003 C 
ATOM      9  C   UNL     1      16.058  -3.457  29.689  1.00  0.00     0.004 C 
ENDBRANCH   7   8
ENDBRANCH   6   7
ENDBRANCH   5   6
ENDBRANCH   4   5
ENDBRANCH   3   4
ENDBRANCH   2   3
ENDBRANCH   1   2
BRANCH   1  10
ATOM     10  C   UNL     1      18.294  -8.441  28.252  1.00  0.00    -0.000 C 
BRANCH  10  11
ATOM     11  C   UNL     1      18.015  -7.681  29.563  1.00  0.00    -0.000 C 
BRANCH  11  12
ATOM     12  C   UNL     1      18.560  -6.243  29.546  1.00  0.00    -0.000 C 
BRANCH  12  13
ATOM     13  C   UNL     1      19.548  -5.988  28.393  1.00  0.00    -0.000 C 
BRANCH  13  14
ATOM     14  C   UNL     1      19.142  -4.872  27.412  1.00  0.00    -0.000 C 
BRANCH  14  15
ATOM     15  C   UNL     1      19.347  -3.461  27.990  1.00  0.00    -0.000 C 
BRANCH  15  16
ATOM     16  C   UNL     1      20.614  -3.359  28.854  1.00  0.00    -0.003 C 
ATOM     17  C   UNL     1      21.094  -1.919  29.035  1.00  0.00     0.004 C 
ENDBRANCH  15  16
ENDBRANCH  14  15
ENDBRANCH  13  14
ENDBRANCH  12  13
ENDBRANCH  11  12
ENDBRANCH  10  11
ENDBRANCH   1  10
TORSDOF 14
ENDMDL
MODEL 3
REMARK VINA RESULT:    -3.313      1.059      2.395
REMARK INTER + INTRA:          -8.165
REMARK INTER:                  -6.151
REMARK INTRA:                  -2.013
REMARK UNBOUND:                -2.140
REMARK SMILES CCCCCCCCCCCCCCCCC
REMARK SMILES IDX 9 1 8 2 7 3 6 4 5 5 4 6 3 7 2 8 1 9 10 10 11 11 12 12 13 13
REMARK SMILES IDX 14 14 15 15 16 16 17 17
REMARK H PARENT
REMARK Flexibility Score: inf
ROOT
ATOM      1  C   UNL     1      17.679  -7.591  27.859  1.00  0.00    -0.000 C 
ENDROOT
BRANCH   1   2
ATOM      2  C   UNL     1      18.521  -6.851  28.913  1.00  0.00    -0.000 C 
BRANCH   2   3
ATOM      3  C   UNL     1      19.661  -6.024  28.295  1.00  0.00    -0.000 C 
BRANCH   3   4
ATOM      4  C   UNL     1      19.147  -4.840  27.460  1.00  0.00    -0.000 C 
BRANCH   4   5
ATOM      5  C   UNL     1      19.557  -3.477  28.042  1.00  0.00    -0.000 C 
BRANCH   5   6
ATOM      6  C   UNL     1      18.332  -2.616  28.423  1.00  0.00    -0.000 C 
BRANCH   6   7
ATOM      7  C   UNL     1      17.388  -3.300  29.426  1.00  0.00    -0.000 C 
BRANCH   7   8
ATOM      8  C   UNL     1      15.969  -3.493  28.876  1.00  0.00    -0.003 C 
ATOM      9  C   UNL     1      15.138  -4.381  29.796  1.00  0.00     0.004 C 
ENDBRANCH   7   8
ENDBRANCH   6   7
ENDBRANCH   5   6
ENDBRANCH   4   5
ENDBRANCH   3   4
ENDBRANCH   2   3
ENDBRANCH   1   2
BRANCH   1  10
ATOM     10  C   UNL     1      16.180  -7.228  27.837  1.00  0.00    -0.000 C 
BRANCH  10  11
ATOM     11  C   UNL     1      15.650  -6.686  26.496  1.00  0.00    -0.000 C 
BRANCH  11  12
ATOM     12  C   UNL     1      16.418  -7.238  25.283  1.00  0.00    -0.000 C 
BRANCH  12  13
ATOM     13  C   UNL     1      15.809  -8.537  24.727  1.00  0.00    -0.000 C 
BRANCH  13  14
ATOM     14  C   UNL     1      16.733  -9.358  23.807  1.00  0.00    -0.000 C 
BRANCH  14  15
ATOM     15  C   UNL     1      17.160 -10.699  24.428  1.00  0.00    -0.000 C 
BRANCH  15  16
ATOM     16  C   UNL     1      16.750 -10.819  25.905  1.00  0.00    -0.003 C 
ATOM     17  C   UNL     1      17.928 -11.138  26.824  1.00  0.00     0.004 C 
ENDBRANCH  15  16
ENDBRANCH  14  15
ENDBRANCH  13  14
ENDBRANCH  12  13
ENDBRANCH  11  12
ENDBRANCH  10  11
ENDBRANCH   1  10
TORSDOF 14
ENDMDL
MODEL 4
REMARK VINA RESULT:    -3.312      1.891      4.519
REMARK INTER + INTRA:          -8.163
REMARK INTER:                  -6.632
REMARK INTRA:                  -1.531
REMARK UNBOUND:                -2.140
REMARK SMILES CCCCCCCCCCCCCCCCC
REMARK SMILES IDX 9 1 8 2 7 3 6 4 5 5 4 6 3 7 2 8 1 9 10 10 11 11 12 12 13 13
REMARK SMILES IDX 14 14 15 15 16 16 17 17
REMARK H PARENT
REMARK Flexibility Score: inf
ROOT
ATOM      1  C   UNL     1      16.426  -8.673  24.599  1.00  0.00    -0.000 C 
ENDROOT
BRANCH   1   2
ATOM      2  C   UNL     1      16.344  -7.271  25.228  1.00  0.00    -0.000 C 
BRANCH   2   3
ATOM      3  C   UNL     1      16.372  -7.304  26.766  1.00  0.00    -0.000 C 
BRANCH   3   4
ATOM      4  C   UNL     1      17.173  -6.139  27.368  1.00  0.00    -0.000 C 
BRANCH   4   5
ATOM      5  C   UNL     1      18.233  -6.603  28.381  1.00  0.00    -0.000 C 
BRANCH   5   6
ATOM      6  C   UNL     1      19.507  -5.730  28.331  1.00  0.00    -0.000 C 
BRANCH   6   7
ATOM      7  C   UNL     1      19.376  -4.505  27.410  1.00  0.00    -0.000 C 
BRANCH   7   8
ATOM      8  C   UNL     1      19.537  -3.175  28.157  1.00  0.00    -0.003 C 
ATOM      9  C   UNL     1      18.201  -2.687  28.706  1.00  0.00     0.004 C 
ENDBRANCH   7   8
ENDBRANCH   6   7
ENDBRANCH   5   6
ENDBRANCH   4   5
ENDBRANCH   3   4
ENDBRANCH   2   3
ENDBRANCH   1   2
BRANCH   1  10
ATOM     10  C   UNL     1      16.605  -9.835  25.598  1.00  0.00    -0.000 C 
BRANCH  10  11
ATOM     11  C   UNL     1      17.141 -11.148  24.996  1.00  0.00    -0.000 C 
BRANCH  11  12
ATOM     12  C   UNL     1      17.621 -10.987  23.543  1.00  0.00    -0.000 C 
BRANCH  12  13
ATOM     13  C   UNL     1      17.004 -12.024  22.588  1.00  0.00    -0.000 C 
BRANCH  13  14
ATOM     14  C   UNL     1      15.480 -11.911  22.387  1.00  0.00    -0.000 C 
BRANCH  14  15
ATOM     15  C   UNL     1      15.088 -10.818  21.379  1.00  0.00    -0.000 C 
BRANCH  15  16
ATOM     16  C   UNL     1      14.228  -9.713  22.015  1.00  0.00    -0.003 C 
ATOM     17  C   UNL     1      13.334 -10.232  23.141  1.00  0.00     0.004 C 
ENDBRANCH  15  16
ENDBRANCH  14  15
ENDBRANCH  13  14
ENDBRANCH  12  13
ENDBRANCH  11  12
ENDBRANCH  10  11
ENDBRANCH   1  10
TORSDOF 14
ENDMDL
MODEL 5
REMARK VINA RESULT:    -3.267      1.192      3.386
REMARK INTER + INTRA:          -8.080
REMARK INTER:                  -5.419
REMARK INTRA:                  -2.661
REMARK UNBOUND:                -2.140
REMARK SMILES CCCCCCCCCCCCCCCCC
REMARK SMILES IDX 9 1 8 2 7 3 6 4 5 5 4 6 3 7 2 8 1 9 10 10 11 11 12 12 13 13
REMARK SMILES IDX 14 14 15 15 16 16 17 17
REMARK H PARENT
REMARK Flexibility Score: inf
ROOT
ATOM      1  C   UNL     1      15.657  -4.960  28.123  1.00  0.00    -0.000 C 
ENDROOT
BRANCH   1   2
ATOM      2  C   UNL     1      15.316  -5.147  29.612  1.00  0.00    -0.000 C 
BRANCH   2   3
ATOM      3  C   UNL     1      16.562  -5.139  30.515  1.00  0.00    -0.000 C 
BRANCH   3   4
ATOM      4  C   UNL     1      17.207  -6.528  30.644  1.00  0.00    -0.000 C 
BRANCH   4   5
ATOM      5  C   UNL     1      18.730  -6.501  30.429  1.00  0.00    -0.000 C 
BRANCH   5   6
ATOM      6  C   UNL     1      19.200  -5.189  29.763  1.00  0.00    -0.000 C 
BRANCH   6   7
ATOM      7  C   UNL     1      19.632  -5.365  28.297  1.00  0.00    -0.000 C 
BRANCH   7   8
ATOM      8  C   UNL     1      19.303  -4.145  27.426  1.00  0.00    -0.003 C 
ATOM      9  C   UNL     1      18.861  -2.962  28.280  1.00  0.00     0.004 C 
ENDBRANCH   7   8
ENDBRANCH   6   7
ENDBRANCH   5   6
ENDBRANCH   4   5
ENDBRANCH   3   4
ENDBRANCH   2   3
ENDBRANCH   1   2
BRANCH   1  10
ATOM     10  C   UNL     1      15.436  -6.201  27.234  1.00  0.00    -0.000 C 
BRANCH  10  11
ATOM     11  C   UNL     1      16.711  -6.812  26.623  1.00  0.00    -0.000 C 
BRANCH  11  12
ATOM     12  C   UNL     1      17.206  -8.051  27.388  1.00  0.00    -0.000 C 
BRANCH  12  13
ATOM     13  C   UNL     1      16.122  -9.134  27.543  1.00  0.00    -0.000 C 
BRANCH  13  14
ATOM     14  C   UNL     1      15.700  -9.836  26.238  1.00  0.00    -0.000 C 
BRANCH  14  15
ATOM     15  C   UNL     1      16.898 -10.339  25.414  1.00  0.00    -0.000 C 
BRANCH  15  16
ATOM     16  C   UNL     1      16.855  -9.849  23.957  1.00  0.00    -0.003 C 
ATOM     17  C   UNL     1      15.689  -8.898  23.686  1.00  0.00     0.004 C 
ENDBRANCH  15  16
ENDBRANCH  14  15
ENDBRANCH  13  14
ENDBRANCH  12  13
ENDBRANCH  11  12
ENDBRANCH  10  11
ENDBRANCH   1  10
TORSDOF 14
ENDMDL
MODEL 6
REMARK VINA RESULT:    -3.260      1.177      5.873
REMARK INTER + INTRA:          -8.068
REMARK INTER:                  -5.673
REMARK INTRA:                  -2.395
REMARK UNBOUND:                -2.140
REMARK SMILES CCCCCCCCCCCCCCCCC
REMARK SMILES IDX 9 1 8 2 7 3 6 4 5 5 4 6 3 7 2 8 1 9 10 10 11 11 12 12 13 13
REMARK SMILES IDX 14 14 15 15 16 16 17 17
REMARK H PARENT
REMARK Flexibility Score: inf
ROOT
ATOM      1  C   UNL     1      15.803  -6.853  28.760  1.00  0.00    -0.000 C 
ENDROOT
BRANCH   1   2
ATOM      2  C   UNL     1      15.633  -6.047  27.460  1.00  0.00    -0.000 C 
BRANCH   2   3
ATOM      3  C   UNL     1      15.253  -6.928  26.257  1.00  0.00    -0.000 C 
BRANCH   3   4
ATOM      4  C   UNL     1      16.419  -7.120  25.273  1.00  0.00    -0.000 C 
BRANCH   4   5
ATOM      5  C   UNL     1      16.361  -8.468  24.535  1.00  0.00    -0.000 C 
BRANCH   5   6
ATOM      6  C   UNL     1      15.998  -9.634  25.482  1.00  0.00    -0.000 C 
BRANCH   6   7
ATOM      7  C   UNL     1      17.165 -10.083  26.378  1.00  0.00    -0.000 C 
BRANCH   7   8
ATOM      8  C   UNL     1      16.728 -10.395  27.816  1.00  0.00    -0.003 C 
ATOM      9  C   UNL     1      17.922 -10.787  28.680  1.00  0.00     0.004 C 
ENDBRANCH   7   8
ENDBRANCH   6   7
ENDBRANCH   5   6
ENDBRANCH   4   5
ENDBRANCH   3   4
ENDBRANCH   2   3
ENDBRANCH   1   2
BRANCH   1  10
ATOM     10  C   UNL     1      17.212  -6.807  29.386  1.00  0.00    -0.000 C 
BRANCH  10  11
ATOM     11  C   UNL     1      18.371  -7.145  28.429  1.00  0.00    -0.000 C 
BRANCH  11  12
ATOM     12  C   UNL     1      19.445  -6.045  28.380  1.00  0.00    -0.000 C 
BRANCH  12  13
ATOM     13  C   UNL     1      18.990  -4.794  27.608  1.00  0.00    -0.000 C 
BRANCH  13  14
ATOM     14  C   UNL     1      19.601  -3.464  28.087  1.00  0.00    -0.000 C 
BRANCH  14  15
ATOM     15  C   UNL     1      18.544  -2.462  28.583  1.00  0.00    -0.000 C 
BRANCH  15  16
ATOM     16  C   UNL     1      17.438  -3.138  29.410  1.00  0.00    -0.003 C 
ATOM     17  C   UNL     1      16.033  -2.759  28.942  1.00  0.00     0.004 C 
ENDBRANCH  15  16
ENDBRANCH  14  15
ENDBRANCH  13  14
ENDBRANCH  12  13
ENDBRANCH  11  12
ENDBRANCH  10  11
ENDBRANCH   1  10
TORSDOF 14
ENDMDL
MODEL 7
REMARK VINA RESULT:    -3.254      1.859      7.080
REMARK INTER + INTRA:          -8.058
REMARK INTER:                  -6.767
REMARK INTRA:                  -1.291
REMARK UNBOUND:                -2.140
REMARK SMILES CCCCCCCCCCCCCCCCC
REMARK SMILES IDX 9 1 8 2 7 3 6 4 5 5 4 6 3 7 2 8 1 9 10 10 11 11 12 12 13 13
REMARK SMILES IDX 14 14 15 15 16 16 17 17
REMARK H PARENT
REMARK Flexibility Score: inf
ROOT
ATOM      1  C   UNL     1      16.379  -7.513  25.067  1.00  0.00    -0.000 C 
ENDROOT
BRANCH   1   2
ATOM      2  C   UNL     1      15.884  -8.614  24.113  1.00  0.00    -0.000 C 
BRANCH   2   3
ATOM      3  C   UNL     1      16.371 -10.017  24.515  1.00  0.00    -0.000 C 
BRANCH   3   4
ATOM      4  C   UNL     1      17.514 -10.524  23.623  1.00  0.00    -0.000 C 
BRANCH   4   5
ATOM      5  C   UNL     1      17.844 -12.008  23.861  1.00  0.00    -0.000 C 
BRANCH   5   6
ATOM      6  C   UNL     1      17.836 -12.372  25.362  1.00  0.00    -0.000 C 
BRANCH   6   7
ATOM      7  C   UNL     1      19.192 -12.154  26.054  1.00  0.00    -0.000 C 
BRANCH   7   8
ATOM      8  C   UNL     1      19.053 -11.729  27.522  1.00  0.00    -0.003 C 
ATOM      9  C   UNL     1      18.310 -10.402  27.643  1.00  0.00     0.004 C 
ENDBRANCH   7   8
ENDBRANCH   6   7
ENDBRANCH   5   6
ENDBRANCH   4   5
ENDBRANCH   3   4
ENDBRANCH   2   3
ENDBRANCH   1   2
BRANCH   1  10
ATOM     10  C   UNL     1      15.540  -7.324  26.348  1.00  0.00    -0.000 C 
BRANCH  10  11
ATOM     11  C   UNL     1      16.338  -7.305  27.665  1.00  0.00    -0.000 C 
BRANCH  11  12
ATOM     12  C   UNL     1      17.266  -6.084  27.783  1.00  0.00    -0.000 C 
BRANCH  12  13
ATOM     13  C   UNL     1      18.590  -6.403  28.500  1.00  0.00    -0.000 C 
BRANCH  13  14
ATOM     14  C   UNL     1      19.765  -5.465  28.164  1.00  0.00    -0.000 C 
BRANCH  14  15
ATOM     15  C   UNL     1      19.330  -4.214  27.381  1.00  0.00    -0.000 C 
BRANCH  15  16
ATOM     16  C   UNL     1      19.542  -2.918  28.180  1.00  0.00    -0.003 C 
ATOM     17  C   UNL     1      20.893  -2.875  28.893  1.00  0.00     0.004 C 
ENDBRANCH  15  16
ENDBRANCH  14  15
ENDBRANCH  13  14
ENDBRANCH  12  13
ENDBRANCH  11  12
ENDBRANCH  10  11
ENDBRANCH   1  10
TORSDOF 14
ENDMDL
MODEL 8
REMARK VINA RESULT:    -3.242      1.027      5.350
REMARK INTER + INTRA:          -8.036
REMARK INTER:                  -5.632
REMARK INTRA:                  -2.404
REMARK UNBOUND:                -2.140
REMARK SMILES CCCCCCCCCCCCCCCCC
REMARK SMILES IDX 9 1 8 2 7 3 6 4 5 5 4 6 3 7 2 8 1 9 10 10 11 11 12 12 13 13
REMARK SMILES IDX 14 14 15 15 16 16 17 17
REMARK H PARENT
REMARK Flexibility Score: inf
ROOT
ATOM      1  C   UNL     1      16.546  -3.770  29.276  1.00  0.00    -0.000 C 
ENDROOT
BRANCH   1   2
ATOM      2  C   UNL     1      15.655  -4.542  28.287  1.00  0.00    -0.000 C 
BRANCH   2   3
ATOM      3  C   UNL     1      15.154  -5.881  28.855  1.00  0.00    -0.000 C 
BRANCH   3   4
ATOM      4  C   UNL     1      14.986  -6.957  27.770  1.00  0.00    -0.000 C 
BRANCH   4   5
ATOM      5  C   UNL     1      15.328  -6.442  26.361  1.00  0.00    -0.000 C 
BRANCH   5   6
ATOM      6  C   UNL     1      16.533  -7.187  25.746  1.00  0.00    -0.000 C 
BRANCH   6   7
ATOM      7  C   UNL     1      16.158  -8.084  24.555  1.00  0.00    -0.000 C 
BRANCH   7   8
ATOM      8  C   UNL     1      16.555  -9.551  24.762  1.00  0.00    -0.003 C 
ATOM      9  C   UNL     1      15.691 -10.209  25.833  1.00  0.00     0.004 C 
ENDBRANCH   7   8
ENDBRANCH   6   7
ENDBRANCH   5   6
ENDBRANCH   4   5
ENDBRANCH   3   4
ENDBRANCH   2   3
ENDBRANCH   1   2
BRANCH   1  10
ATOM     10  C   UNL     1      17.399  -2.643  28.656  1.00  0.00    -0.000 C 
BRANCH  10  11
ATOM     11  C   UNL     1      18.907  -2.936  28.554  1.00  0.00    -0.000 C 
BRANCH  11  12
ATOM     12  C   UNL     1      19.232  -4.068  27.565  1.00  0.00    -0.000 C 
BRANCH  12  13
ATOM     13  C   UNL     1      19.831  -5.310  28.248  1.00  0.00    -0.000 C 
BRANCH  13  14
ATOM     14  C   UNL     1      18.897  -6.533  28.331  1.00  0.00    -0.000 C 
BRANCH  14  15
ATOM     15  C   UNL     1      18.528  -6.908  29.777  1.00  0.00    -0.000 C 
BRANCH  15  16
ATOM     16  C   UNL     1      18.072  -8.371  29.905  1.00  0.00    -0.003 C 
ATOM     17  C   UNL     1      17.965  -9.079  28.555  1.00  0.00     0.004 C 
ENDBRANCH  15  16
ENDBRANCH  14  15
ENDBRANCH  13  14
ENDBRANCH  12  13
ENDBRANCH  11  12
ENDBRANCH  10  11
ENDBRANCH   1  10
TORSDOF 14
ENDMDL
MODEL 9
REMARK VINA RESULT:    -3.236      2.050      4.228
REMARK INTER + INTRA:          -8.025
REMARK INTER:                  -6.255
REMARK INTRA:                  -1.769
REMARK UNBOUND:                -2.140
REMARK SMILES CCCCCCCCCCCCCCCCC
REMARK SMILES IDX 9 1 8 2 7 3 6 4 5 5 4 6 3 7 2 8 1 9 10 10 11 11 12 12 13 13
REMARK SMILES IDX 14 14 15 15 16 16 17 17
REMARK H PARENT
REMARK Flexibility Score: inf
ROOT
ATOM      1  C   UNL     1      16.374  -8.574  24.966  1.00  0.00    -0.000 C 
ENDROOT
BRANCH   1   2
ATOM      2  C   UNL     1      16.442  -7.073  25.295  1.00  0.00    -0.000 C 
BRANCH   2   3
ATOM      3  C   UNL     1      15.470  -6.662  26.416  1.00  0.00    -0.000 C 
BRANCH   3   4
ATOM      4  C   UNL     1      16.183  -5.984  27.596  1.00  0.00    -0.000 C 
BRANCH   4   5
ATOM      5  C   UNL     1      17.566  -6.592  27.887  1.00  0.00    -0.000 C 
BRANCH   5   6
ATOM      6  C   UNL     1      18.559  -5.542  28.433  1.00  0.00    -0.000 C 
BRANCH   6   7
ATOM      7  C   UNL     1      19.142  -4.624  27.345  1.00  0.00    -0.000 C 
BRANCH   7   8
ATOM      8  C   UNL     1      19.399  -3.195  27.842  1.00  0.00    -0.003 C 
ATOM      9  C   UNL     1      18.264  -2.712  28.738  1.00  0.00     0.004 C 
ENDBRANCH   7   8
ENDBRANCH   6   7
ENDBRANCH   5   6
ENDBRANCH   4   5
ENDBRANCH   3   4
ENDBRANCH   2   3
ENDBRANCH   1   2
BRANCH   1  10
ATOM     10  C   UNL     1      15.436  -9.405  25.866  1.00  0.00    -0.000 C 
BRANCH  10  11
ATOM     11  C   UNL     1      16.118 -10.521  26.680  1.00  0.00    -0.000 C 
BRANCH  11  12
ATOM     12  C   UNL     1      17.448 -10.073  27.309  1.00  0.00    -0.000 C 
BRANCH  12  13
ATOM     13  C   UNL     1      18.569 -11.116  27.149  1.00  0.00    -0.000 C 
BRANCH  13  14
ATOM     14  C   UNL     1      18.306 -12.212  26.099  1.00  0.00    -0.000 C 
BRANCH  14  15
ATOM     15  C   UNL     1      19.474 -12.393  25.115  1.00  0.00    -0.000 C 
BRANCH  15  16
ATOM     16  C   UNL     1      19.012 -12.397  23.649  1.00  0.00    -0.003 C 
ATOM     17  C   UNL     1      17.842 -11.448  23.393  1.00  0.00     0.004 C 
ENDBRANCH  15  16
ENDBRANCH  14  15
ENDBRANCH  13  14
ENDBRANCH  12  13
ENDBRANCH  11  12
ENDBRANCH  10  11
ENDBRANCH   1  10
TORSDOF 14
ENDMDL
