MODEL 1
REMARK VINA RESULT:    -1.704      0.000      0.000
REMARK INTER + INTRA:          -3.121
REMARK INTER:                  -2.600
REMARK INTRA:                  -0.521
REMARK UNBOUND:                -0.521
REMARK SMILES CCCCCCCCCC=CC(=O)[O-]
REMARK SMILES IDX 7 1 8 2 9 3 10 4 11 5 12 6 13 7 14 8 6 9 5 10 4 11 3 12 2 13
REMARK SMILES IDX 1 14
REMARK H PARENT
REMARK Flexibility Score: inf
ROOT
ATOM      1  C   UNL     1     141.342 128.138 130.872  1.00  0.00     0.000 C 
ENDROOT
BRANCH   1   2
ATOM      2  C   UNL     1     140.116 128.430 129.989  1.00  0.00     0.004 C 
BRANCH   2   3
ATOM      3  C   UNL     1     138.900 128.875 130.817  1.00  0.00     0.027 C 
BRANCH   3   4
ATOM      4  C   UNL     1     138.210 127.717 131.489  1.00  0.00    -0.025 C 
ATOM      5  C   UNL     1     137.081 127.119 131.071  1.00  0.00     0.020 C 
BRANCH   5   6
ATOM      6  C   UNL     1     136.312 127.442 129.851  1.00  0.00     0.064 C 
ATOM      7  O   UNL     1     136.678 127.061 128.708  1.00  0.00    -0.545 OA
ATOM      8  O   UNL     1     135.134 128.167 129.973  1.00  0.00    -0.545 OA
ENDBRANCH   5   6
ENDBRANCH   3   4
ENDBRANCH   2   3
ENDBRANCH   1   2
BRANCH   1   9
ATOM      9  C   UNL     1     142.656 128.126 130.063  1.00  0.00     0.000 C 
BRANCH   9  10
ATOM     10  C   UNL     1     142.468 128.491 128.580  1.00  0.00     0.000 C 
BRANCH  10  11
ATOM     11  C   UNL     1     143.797 128.568 127.811  1.00  0.00    -0.000 C 
BRANCH  11  12
ATOM     12  C   UNL     1     143.797 127.700 126.543  1.00  0.00    -0.000 C 
BRANCH  12  13
ATOM     13  C   UNL     1     144.125 128.504 125.277  1.00  0.00    -0.003 C 
ATOM     14  C   UNL     1     144.065 130.004 125.547  1.00  0.00     0.004 C 
ENDBRANCH  12  13
ENDBRANCH  11  12
ENDBRANCH  10  11
ENDBRANCH   9  10
ENDBRANCH   1   9
TORSDOF 9
ENDMDL
MODEL 2
REMARK VINA RESULT:    -1.613      3.175      6.957
REMARK INTER + INTRA:          -2.982
REMARK INTER:                  -2.386
REMARK INTRA:                  -0.596
REMARK UNBOUND:                -0.521
REMARK SMILES CCCCCCCCCC=CC(=O)[O-]
REMARK SMILES IDX 7 1 8 2 9 3 10 4 11 5 12 6 13 7 14 8 6 9 5 10 4 11 3 12 2 13
REMARK SMILES IDX 1 14
REMARK H PARENT
REMARK Flexibility Score: inf
ROOT
ATOM      1  C   UNL     1     140.609 128.030 129.840  1.00  0.00     0.000 C 
ENDROOT
BRANCH   1   2
ATOM      2  C   UNL     1     142.138 128.201 129.796  1.00  0.00     0.004 C 
BRANCH   2   3
ATOM      3  C   UNL     1     142.607 128.890 128.504  1.00  0.00     0.027 C 
BRANCH   3   4
ATOM      4  C   UNL     1     143.751 128.161 127.850  1.00  0.00    -0.025 C 
ATOM      5  C   UNL     1     144.125 128.269 126.564  1.00  0.00     0.020 C 
BRANCH   5   6
ATOM      6  C   UNL     1     143.524 129.152 125.542  1.00  0.00     0.064 C 
ATOM      7  O   UNL     1     142.506 128.816 124.881  1.00  0.00    -0.545 OA
ATOM      8  O   UNL     1     144.086 130.403 125.323  1.00  0.00    -0.545 OA
ENDBRANCH   5   6
ENDBRANCH   3   4
ENDBRANCH   2   3
ENDBRANCH   1   2
BRANCH   1   9
ATOM      9  C   UNL     1     140.009 128.485 131.187  1.00  0.00     0.000 C 
BRANCH   9  10
ATOM     10  C   UNL     1     138.848 127.600 131.673  1.00  0.00     0.000 C 
BRANCH  10  11
ATOM     11  C   UNL     1     137.494 128.327 131.649  1.00  0.00    -0.000 C 
BRANCH  11  12
ATOM     12  C   UNL     1     136.381 127.482 131.008  1.00  0.00    -0.000 C 
BRANCH  12  13
ATOM     13  C   UNL     1     136.901 126.581 129.879  1.00  0.00    -0.003 C 
ATOM     14  C   UNL     1     136.937 127.329 128.550  1.00  0.00     0.004 C 
ENDBRANCH  12  13
ENDBRANCH  11  12
ENDBRANCH  10  11
ENDBRANCH   9  10
ENDBRANCH   1   9
TORSDOF 9
ENDMDL
MODEL 3
REMARK VINA RESULT:    -1.405      0.870      1.059
REMARK INTER + INTRA:          -2.666
REMARK INTER:                  -2.498
REMARK INTRA:                  -0.167
REMARK UNBOUND:                -0.521
REMARK SMILES CCCCCCCCCC=CC(=O)[O-]
REMARK SMILES IDX 7 1 8 2 9 3 10 4 11 5 12 6 13 7 14 8 6 9 5 10 4 11 3 12 2 13
REMARK SMILES IDX 1 14
REMARK H PARENT
REMARK Flexibility Score: inf
ROOT
ATOM      1  C   UNL     1     141.645 128.243 130.393  1.00  0.00     0.000 C 
ENDROOT
BRANCH   1   2
ATOM      2  C   UNL     1     140.180 128.646 130.643  1.00  0.00     0.004 C 
BRANCH   2   3
ATOM      3  C   UNL     1     139.496 127.729 131.670  1.00  0.00     0.027 C 
BRANCH   3   4
ATOM      4  C   UNL     1     138.066 128.126 131.927  1.00  0.00    -0.025 C 
ATOM      5  C   UNL     1     137.012 127.831 131.148  1.00  0.00     0.020 C 
BRANCH   5   6
ATOM      6  C   UNL     1     137.029 127.024 129.910  1.00  0.00     0.064 C 
ATOM      7  O   UNL     1     137.760 126.007 129.784  1.00  0.00    -0.545 OA
ATOM      8  O   UNL     1     136.192 127.385 128.862  1.00  0.00    -0.545 OA
ENDBRANCH   5   6
ENDBRANCH   3   4
ENDBRANCH   2   3
ENDBRANCH   1   2
BRANCH   1   9
ATOM      9  C   UNL     1     142.082 128.503 128.936  1.00  0.00     0.000 C 
BRANCH   9  10
ATOM     10  C   UNL     1     143.555 128.152 128.664  1.00  0.00     0.000 C 
BRANCH  10  11
ATOM     11  C   UNL     1     144.082 128.762 127.356  1.00  0.00    -0.000 C 
BRANCH  11  12
ATOM     12  C   UNL     1     143.819 127.864 126.137  1.00  0.00    -0.000 C 
BRANCH  12  13
ATOM     13  C   UNL     1     143.472 128.667 124.875  1.00  0.00    -0.003 C 
ATOM     14  C   UNL     1     143.817 130.143 125.050  1.00  0.00     0.004 C 
ENDBRANCH  12  13
ENDBRANCH  11  12
ENDBRANCH  10  11
ENDBRANCH   9  10
ENDBRANCH   1   9
TORSDOF 9
ENDMDL
MODEL 4
REMARK VINA RESULT:    -1.210      1.042      1.726
REMARK INTER + INTRA:          -2.368
REMARK INTER:                  -2.234
REMARK INTRA:                  -0.134
REMARK UNBOUND:                -0.521
REMARK SMILES CCCCCCCCCC=CC(=O)[O-]
REMARK SMILES IDX 7 1 8 2 9 3 10 4 11 5 12 6 13 7 14 8 6 9 5 10 4 11 3 12 2 13
REMARK SMILES IDX 1 14
REMARK H PARENT
REMARK Flexibility Score: inf
ROOT
ATOM      1  C   UNL     1     140.236 128.392 130.113  1.00  0.00     0.000 C 
ENDROOT
BRANCH   1   2
ATOM      2  C   UNL     1     138.969 128.615 130.957  1.00  0.00     0.004 C 
BRANCH   2   3
ATOM      3  C   UNL     1     138.060 127.375 130.976  1.00  0.00     0.027 C 
BRANCH   3   4
ATOM      4  C   UNL     1     137.613 126.973 129.595  1.00  0.00    -0.025 C 
ATOM      5  C   UNL     1     136.422 127.250 129.038  1.00  0.00     0.020 C 
BRANCH   5   6
ATOM      6  C   UNL     1     135.328 128.039 129.643  1.00  0.00     0.064 C 
ATOM      7  O   UNL     1     135.197 128.156 130.889  1.00  0.00    -0.545 OA
ATOM      8  O   UNL     1     134.431 128.691 128.807  1.00  0.00    -0.545 OA
ENDBRANCH   5   6
ENDBRANCH   3   4
ENDBRANCH   2   3
ENDBRANCH   1   2
BRANCH   1   9
ATOM      9  C   UNL     1     141.479 128.119 130.986  1.00  0.00     0.000 C 
BRANCH   9  10
ATOM     10  C   UNL     1     142.793 128.065 130.186  1.00  0.00     0.000 C 
BRANCH  10  11
ATOM     11  C   UNL     1     142.611 128.464 128.712  1.00  0.00    -0.000 C 
BRANCH  11  12
ATOM     12  C   UNL     1     143.859 128.174 127.864  1.00  0.00    -0.000 C 
BRANCH  12  13
ATOM     13  C   UNL     1     144.105 129.244 126.790  1.00  0.00    -0.003 C 
ATOM     14  C   UNL     1     143.568 128.797 125.434  1.00  0.00     0.004 C 
ENDBRANCH  12  13
ENDBRANCH  11  12
ENDBRANCH  10  11
ENDBRANCH   9  10
ENDBRANCH   1   9
TORSDOF 9
ENDMDL
MODEL 5
REMARK VINA RESULT:    -0.885      4.118      7.811
REMARK INTER + INTRA:          -1.872
REMARK INTER:                  -1.528
REMARK INTRA:                  -0.344
REMARK UNBOUND:                -0.521
REMARK SMILES CCCCCCCCCC=CC(=O)[O-]
REMARK SMILES IDX 7 1 8 2 9 3 10 4 11 5 12 6 13 7 14 8 6 9 5 10 4 11 3 12 2 13
REMARK SMILES IDX 1 14
REMARK H PARENT
REMARK Flexibility Score: inf
ROOT
ATOM      1  C   UNL     1     135.245 128.088 129.781  1.00  0.00     0.000 C 
ENDROOT
BRANCH   1   2
ATOM      2  C   UNL     1     136.387 127.389 129.023  1.00  0.00     0.004 C 
BRANCH   2   3
ATOM      3  C   UNL     1     137.346 126.651 129.972  1.00  0.00     0.027 C 
BRANCH   3   4
ATOM      4  C   UNL     1     137.575 127.407 131.254  1.00  0.00    -0.025 C 
ATOM      5  C   UNL     1     138.670 128.122 131.565  1.00  0.00     0.020 C 
BRANCH   5   6
ATOM      6  C   UNL     1     139.848 128.351 130.702  1.00  0.00     0.064 C 
ATOM      7  O   UNL     1     139.742 128.797 129.530  1.00  0.00    -0.545 OA
ATOM      8  O   UNL     1     141.113 128.089 131.211  1.00  0.00    -0.545 OA
ENDBRANCH   5   6
ENDBRANCH   3   4
ENDBRANCH   2   3
ENDBRANCH   1   2
BRANCH   1   9
ATOM      9  C   UNL     1     134.084 128.490 128.848  1.00  0.00     0.000 C 
BRANCH   9  10
ATOM     10  C   UNL     1     133.965 130.009 128.634  1.00  0.00     0.000 C 
BRANCH  10  11
ATOM     11  C   UNL     1     133.797 130.391 127.154  1.00  0.00    -0.000 C 
BRANCH  11  12
ATOM     12  C   UNL     1     132.406 130.032 126.607  1.00  0.00    -0.000 C 
BRANCH  12  13
ATOM     13  C   UNL     1     131.993 130.915 125.420  1.00  0.00    -0.003 C 
ATOM     14  C   UNL     1     130.623 130.510 124.884  1.00  0.00     0.004 C 
ENDBRANCH  12  13
ENDBRANCH  11  12
ENDBRANCH  10  11
ENDBRANCH   9  10
ENDBRANCH   1   9
TORSDOF 9
ENDMDL
MODEL 6
REMARK VINA RESULT:    -0.690      4.266      7.930
REMARK INTER + INTRA:          -1.573
REMARK INTER:                  -1.347
REMARK INTRA:                  -0.226
REMARK UNBOUND:                -0.521
REMARK SMILES CCCCCCCCCC=CC(=O)[O-]
REMARK SMILES IDX 7 1 8 2 9 3 10 4 11 5 12 6 13 7 14 8 6 9 5 10 4 11 3 12 2 13
REMARK SMILES IDX 1 14
REMARK H PARENT
REMARK Flexibility Score: inf
ROOT
ATOM      1  C   UNL     1     135.225 127.621 129.205  1.00  0.00     0.000 C 
ENDROOT
BRANCH   1   2
ATOM      2  C   UNL     1     136.024 127.281 130.475  1.00  0.00     0.004 C 
BRANCH   2   3
ATOM      3  C   UNL     1     137.424 126.735 130.149  1.00  0.00     0.027 C 
BRANCH   3   4
ATOM      4  C   UNL     1     138.241 127.704 129.336  1.00  0.00    -0.025 C 
ATOM      5  C   UNL     1     139.343 128.350 129.751  1.00  0.00     0.020 C 
BRANCH   5   6
ATOM      6  C   UNL     1     140.005 128.211 131.066  1.00  0.00     0.064 C 
ATOM      7  O   UNL     1     141.249 128.061 131.178  1.00  0.00    -0.545 OA
ATOM      8  O   UNL     1     139.229 128.275 132.216  1.00  0.00    -0.545 OA
ENDBRANCH   5   6
ENDBRANCH   3   4
ENDBRANCH   2   3
ENDBRANCH   1   2
BRANCH   1   9
ATOM      9  C   UNL     1     134.322 128.858 129.396  1.00  0.00     0.000 C 
BRANCH   9  10
ATOM     10  C   UNL     1     134.184 129.720 128.129  1.00  0.00     0.000 C 
BRANCH  10  11
ATOM     11  C   UNL     1     132.851 129.497 127.398  1.00  0.00    -0.000 C 
BRANCH  11  12
ATOM     12  C   UNL     1     132.597 130.543 126.300  1.00  0.00    -0.000 C 
BRANCH  12  13
ATOM     13  C   UNL     1     131.691 130.014 125.179  1.00  0.00    -0.003 C 
ATOM     14  C   UNL     1     130.562 130.994 124.875  1.00  0.00     0.004 C 
ENDBRANCH  12  13
ENDBRANCH  11  12
ENDBRANCH  10  11
ENDBRANCH   9  10
ENDBRANCH   1   9
TORSDOF 9
ENDMDL
MODEL 7
REMARK VINA RESULT:    -0.186      4.098      6.832
REMARK INTER + INTRA:          -0.805
REMARK INTER:                  -0.607
REMARK INTRA:                  -0.199
REMARK UNBOUND:                -0.521
REMARK SMILES CCCCCCCCCC=CC(=O)[O-]
REMARK SMILES IDX 7 1 8 2 9 3 10 4 11 5 12 6 13 7 14 8 6 9 5 10 4 11 3 12 2 13
REMARK SMILES IDX 1 14
REMARK H PARENT
REMARK Flexibility Score: inf
ROOT
ATOM      1  C   UNL     1     134.429 128.342 129.842  1.00  0.00     0.000 C 
ENDROOT
BRANCH   1   2
ATOM      2  C   UNL     1     134.712 128.954 128.458  1.00  0.00     0.004 C 
BRANCH   2   3
ATOM      3  C   UNL     1     133.485 129.681 127.885  1.00  0.00     0.027 C 
BRANCH   3   4
ATOM      4  C   UNL     1     132.522 128.737 127.215  1.00  0.00    -0.025 C 
ATOM      5  C   UNL     1     131.674 129.048 126.220  1.00  0.00     0.020 C 
BRANCH   5   6
ATOM      6  C   UNL     1     131.543 130.359 125.550  1.00  0.00     0.064 C 
ATOM      7  O   UNL     1     132.472 131.208 125.552  1.00  0.00    -0.545 OA
ATOM      8  O   UNL     1     130.364 130.653 124.877  1.00  0.00    -0.545 OA
ENDBRANCH   5   6
ENDBRANCH   3   4
ENDBRANCH   2   3
ENDBRANCH   1   2
BRANCH   1   9
ATOM      9  C   UNL     1     135.588 127.450 130.334  1.00  0.00     0.000 C 
BRANCH   9  10
ATOM     10  C   UNL     1     136.613 127.112 129.237  1.00  0.00     0.000 C 
BRANCH  10  11
ATOM     11  C   UNL     1     138.064 127.364 129.679  1.00  0.00    -0.000 C 
BRANCH  11  12
ATOM     12  C   UNL     1     138.169 127.773 131.156  1.00  0.00    -0.000 C 
BRANCH  12  13
ATOM     13  C   UNL     1     139.597 128.169 131.559  1.00  0.00    -0.003 C 
ATOM     14  C   UNL     1     140.496 128.306 130.334  1.00  0.00     0.004 C 
ENDBRANCH  12  13
ENDBRANCH  11  12
ENDBRANCH  10  11
ENDBRANCH   9  10
ENDBRANCH   1   9
TORSDOF 9
ENDMDL
MODEL 8
REMARK VINA RESULT:     0.056      1.804      3.526
REMARK INTER + INTRA:          -0.436
REMARK INTER:                   0.117
REMARK INTRA:                  -0.553
REMARK UNBOUND:                -0.521
REMARK SMILES CCCCCCCCCC=CC(=O)[O-]
REMARK SMILES IDX 7 1 8 2 9 3 10 4 11 5 12 6 13 7 14 8 6 9 5 10 4 11 3 12 2 13
REMARK SMILES IDX 1 14
REMARK H PARENT
REMARK Flexibility Score: inf
ROOT
ATOM      1  C   UNL     1     137.908 127.190 131.226  1.00  0.00     0.000 C 
ENDROOT
BRANCH   1   2
ATOM      2  C   UNL     1     137.746 126.723 129.768  1.00  0.00     0.004 C 
BRANCH   2   3
ATOM      3  C   UNL     1     136.403 127.167 129.165  1.00  0.00     0.027 C 
BRANCH   3   4
ATOM      4  C   UNL     1     135.512 127.834 130.180  1.00  0.00    -0.025 C 
ATOM      5  C   UNL     1     134.437 128.593 129.911  1.00  0.00     0.020 C 
BRANCH   5   6
ATOM      6  C   UNL     1     133.882 128.893 128.574  1.00  0.00     0.064 C 
ATOM      7  O   UNL     1     133.168 128.069 127.945  1.00  0.00    -0.545 OA
ATOM      8  O   UNL     1     134.137 130.134 128.006  1.00  0.00    -0.545 OA
ENDBRANCH   5   6
ENDBRANCH   3   4
ENDBRANCH   2   3
ENDBRANCH   1   2
BRANCH   1   9
ATOM      9  C   UNL     1     138.671 128.527 131.329  1.00  0.00     0.000 C 
BRANCH   9  10
ATOM     10  C   UNL     1     139.946 128.577 130.469  1.00  0.00     0.000 C 
BRANCH  10  11
ATOM     11  C   UNL     1     141.166 127.967 131.176  1.00  0.00    -0.000 C 
BRANCH  11  12
ATOM     12  C   UNL     1     142.465 128.152 130.375  1.00  0.00    -0.000 C 
BRANCH  12  13
ATOM     13  C   UNL     1     142.207 128.438 128.889  1.00  0.00    -0.003 C 
ATOM     14  C   UNL     1     143.504 128.392 128.086  1.00  0.00     0.004 C 
ENDBRANCH  12  13
ENDBRANCH  11  12
ENDBRANCH  10  11
ENDBRANCH   9  10
ENDBRANCH   1   9
TORSDOF 9
ENDMDL
MODEL 9
REMARK VINA RESULT:     0.329      4.368      7.019
REMARK INTER + INTRA:          -0.019
REMARK INTER:                   0.116
REMARK INTRA:                  -0.135
REMARK UNBOUND:                -0.521
REMARK SMILES CCCCCCCCCC=CC(=O)[O-]
REMARK SMILES IDX 7 1 8 2 9 3 10 4 11 5 12 6 13 7 14 8 6 9 5 10 4 11 3 12 2 13
REMARK SMILES IDX 1 14
REMARK H PARENT
REMARK Flexibility Score: inf
ROOT
ATOM      1  C   UNL     1     134.152 128.558 129.781  1.00  0.00     0.000 C 
ENDROOT
BRANCH   1   2
ATOM      2  C   UNL     1     134.445 129.258 128.442  1.00  0.00     0.004 C 
BRANCH   2   3
ATOM      3  C   UNL     1     133.156 129.612 127.681  1.00  0.00     0.027 C 
BRANCH   3   4
ATOM      4  C   UNL     1     133.350 130.769 126.737  1.00  0.00    -0.025 C 
ATOM      5  C   UNL     1     132.541 131.101 125.717  1.00  0.00     0.020 C 
BRANCH   5   6
ATOM      6  C   UNL     1     131.278 130.432 125.339  1.00  0.00     0.064 C 
ATOM      7  O   UNL     1     131.122 129.188 125.447  1.00  0.00    -0.545 OA
ATOM      8  O   UNL     1     130.222 131.206 124.875  1.00  0.00    -0.545 OA
ENDBRANCH   5   6
ENDBRANCH   3   4
ENDBRANCH   2   3
ENDBRANCH   1   2
BRANCH   1   9
ATOM      9  C   UNL     1     135.365 127.759 130.301  1.00  0.00     0.000 C 
BRANCH   9  10
ATOM     10  C   UNL     1     136.311 127.282 129.184  1.00  0.00     0.000 C 
BRANCH  10  11
ATOM     11  C   UNL     1     137.668 126.799 129.719  1.00  0.00    -0.000 C 
BRANCH  11  12
ATOM     12  C   UNL     1     138.721 127.918 129.753  1.00  0.00    -0.000 C 
BRANCH  12  13
ATOM     13  C   UNL     1     139.258 128.180 131.168  1.00  0.00    -0.003 C 
ATOM     14  C   UNL     1     140.781 128.268 131.172  1.00  0.00     0.004 C 
ENDBRANCH  12  13
ENDBRANCH  11  12
ENDBRANCH  10  11
ENDBRANCH   9  10
ENDBRANCH   1   9
TORSDOF 9
ENDMDL
