MODEL 1
REMARK VINA RESULT:    -6.257      0.000      0.000
REMARK INTER + INTRA:          -8.585
REMARK INTER:                  -7.902
REMARK INTRA:                  -0.682
REMARK UNBOUND:                -0.682
REMARK SMILES O=C(C=Cc1ccc(O)cc1)c1ccc(O)cc1O
REMARK SMILES IDX 4 1 3 2 5 3 6 4 7 5 8 6 11 7 10 8 9 9 2 11 1 12 12 13 18 14
REMARK SMILES IDX 13 15 17 16 14 17 15 18 19 19 16 21
REMARK H PARENT 9 10 19 20 16 22
REMARK Flexibility Score: inf
ROOT
ATOM      1  C   UNL     1      30.687 -92.550  37.873  1.00  0.00     0.012 C 
ATOM      2  C   UNL     1      31.691 -93.437  37.892  1.00  0.00     0.053 C 
ENDROOT
BRANCH   1   3
ATOM      3  C   UNL     1      30.871 -91.103  37.602  1.00  0.00    -0.025 A 
ATOM      4  C   UNL     1      31.887 -90.709  36.714  1.00  0.00     0.012 A 
ATOM      5  C   UNL     1      32.104 -89.356  36.437  1.00  0.00     0.047 A 
ATOM      6  C   UNL     1      31.318 -88.377  37.052  1.00  0.00     0.115 A 
ATOM      7  C   UNL     1      30.094 -90.109  38.231  1.00  0.00     0.012 A 
ATOM      8  C   UNL     1      30.315 -88.757  37.951  1.00  0.00     0.047 A 
BRANCH   6   9
ATOM      9  O   UNL     1      31.546 -87.033  36.766  1.00  0.00    -0.508 OA
ATOM     10  H   UNL     1      30.887 -86.488  36.221  1.00  0.00     0.293 HD
ENDBRANCH   6   9
ENDBRANCH   1   3
BRANCH   2  11
ATOM     11  C   UNL     1      31.472 -94.871  38.179  1.00  0.00     0.189 C 
ATOM     12  O   UNL     1      32.409 -95.576  38.643  1.00  0.00    -0.289 OA
BRANCH  11  13
ATOM     13  C   UNL     1      30.143 -95.484  37.953  1.00  0.00     0.064 A 
ATOM     14  C   UNL     1      29.300 -95.859  39.027  1.00  0.00     0.130 A 
ATOM     15  C   UNL     1      29.688 -95.662  36.635  1.00  0.00     0.020 A 
ATOM     16  C   UNL     1      28.021 -96.366  38.762  1.00  0.00     0.093 A 
ATOM     17  C   UNL     1      28.417 -96.183  36.383  1.00  0.00     0.047 A 
ATOM     18  C   UNL     1      27.579 -96.531  37.447  1.00  0.00     0.119 A 
BRANCH  14  19
ATOM     19  O   UNL     1      29.705 -95.769  40.361  1.00  0.00    -0.507 OA
ATOM     20  H   UNL     1      29.075 -95.891  41.142  1.00  0.00     0.293 HD
ENDBRANCH  14  19
BRANCH  18  21
ATOM     21  O   UNL     1      26.306 -97.044  37.210  1.00  0.00    -0.508 OA
ATOM     22  H   UNL     1      25.472 -96.562  37.529  1.00  0.00     0.293 HD
ENDBRANCH  18  21
ENDBRANCH  11  13
ENDBRANCH   2  11
TORSDOF 6
ENDMDL
MODEL 2
REMARK VINA RESULT:    -6.072      1.098      2.032
REMARK INTER + INTRA:          -8.352
REMARK INTER:                  -7.831
REMARK INTRA:                  -0.520
REMARK UNBOUND:                -0.682
REMARK SMILES O=C(C=Cc1ccc(O)cc1)c1ccc(O)cc1O
REMARK SMILES IDX 4 1 3 2 5 3 6 4 7 5 8 6 11 7 10 8 9 9 2 11 1 12 12 13 18 14
REMARK SMILES IDX 13 15 17 16 14 17 15 18 19 19 16 21
REMARK H PARENT 9 10 19 20 16 22
REMARK Flexibility Score: inf
ROOT
ATOM      1  C   UNL     1      31.029 -92.515  37.876  1.00  0.00     0.012 C 
ATOM      2  C   UNL     1      32.052 -93.381  37.840  1.00  0.00     0.053 C 
ENDROOT
BRANCH   1   3
ATOM      3  C   UNL     1      31.162 -91.071  37.565  1.00  0.00    -0.025 A 
ATOM      4  C   UNL     1      30.291 -90.164  38.195  1.00  0.00     0.012 A 
ATOM      5  C   UNL     1      30.373 -88.795  37.925  1.00  0.00     0.047 A 
ATOM      6  C   UNL     1      31.317 -88.313  37.014  1.00  0.00     0.115 A 
ATOM      7  C   UNL     1      32.100 -90.578  36.635  1.00  0.00     0.012 A 
ATOM      8  C   UNL     1      32.178 -89.208  36.368  1.00  0.00     0.047 A 
BRANCH   6   9
ATOM      9  O   UNL     1      31.386 -86.946  36.755  1.00  0.00    -0.508 OA
ATOM     10  H   UNL     1      30.991 -86.265  37.394  1.00  0.00     0.293 HD
ENDBRANCH   6   9
ENDBRANCH   1   3
BRANCH   2  11
ATOM     11  C   UNL     1      31.885 -94.813  38.169  1.00  0.00     0.189 C 
ATOM     12  O   UNL     1      32.893 -95.565  38.257  1.00  0.00    -0.289 OA
BRANCH  11  13
ATOM     13  C   UNL     1      30.537 -95.369  38.429  1.00  0.00     0.064 A 
ATOM     14  C   UNL     1      29.640 -95.677  37.377  1.00  0.00     0.130 A 
ATOM     15  C   UNL     1      30.153 -95.637  39.754  1.00  0.00     0.020 A 
ATOM     16  C   UNL     1      28.405 -96.270  37.670  1.00  0.00     0.093 A 
ATOM     17  C   UNL     1      28.913 -96.215  40.034  1.00  0.00     0.047 A 
ATOM     18  C   UNL     1      28.039 -96.538  38.991  1.00  0.00     0.119 A 
BRANCH  14  19
ATOM     19  O   UNL     1      29.925 -95.383  36.042  1.00  0.00    -0.507 OA
ATOM     20  H   UNL     1      30.751 -94.879  35.749  1.00  0.00     0.293 HD
ENDBRANCH  14  19
BRANCH  18  21
ATOM     21  O   UNL     1      26.803 -97.123  39.256  1.00  0.00    -0.508 OA
ATOM     22  H   UNL     1      26.319 -97.679  38.560  1.00  0.00     0.293 HD
ENDBRANCH  18  21
ENDBRANCH  11  13
ENDBRANCH   2  11
TORSDOF 6
ENDMDL
MODEL 3
REMARK VINA RESULT:    -5.594      1.525      2.303
REMARK INTER + INTRA:          -7.748
REMARK INTER:                  -7.287
REMARK INTRA:                  -0.461
REMARK UNBOUND:                -0.682
REMARK SMILES O=C(C=Cc1ccc(O)cc1)c1ccc(O)cc1O
REMARK SMILES IDX 4 1 3 2 5 3 6 4 7 5 8 6 11 7 10 8 9 9 2 11 1 12 12 13 18 14
REMARK SMILES IDX 13 15 17 16 14 17 15 18 19 19 16 21
REMARK H PARENT 9 10 19 20 16 22
REMARK Flexibility Score: inf
ROOT
ATOM      1  C   UNL     1      30.865 -93.337  37.697  1.00  0.00     0.012 C 
ATOM      2  C   UNL     1      29.956 -94.092  37.064  1.00  0.00     0.053 C 
ENDROOT
BRANCH   1   3
ATOM      3  C   UNL     1      31.071 -91.894  37.424  1.00  0.00    -0.025 A 
ATOM      4  C   UNL     1      30.410 -90.955  38.234  1.00  0.00     0.012 A 
ATOM      5  C   UNL     1      30.567 -89.584  38.006  1.00  0.00     0.047 A 
ATOM      6  C   UNL     1      31.376 -89.132  36.960  1.00  0.00     0.115 A 
ATOM      7  C   UNL     1      31.872 -91.431  36.360  1.00  0.00     0.012 A 
ATOM      8  C   UNL     1      32.026 -90.059  36.136  1.00  0.00     0.047 A 
BRANCH   6   9
ATOM      9  O   UNL     1      31.523 -87.764  36.745  1.00  0.00    -0.508 OA
ATOM     10  H   UNL     1      32.158 -87.205  37.305  1.00  0.00     0.293 HD
ENDBRANCH   6   9
ENDBRANCH   1   3
BRANCH   2  11
ATOM     11  C   UNL     1      29.787 -95.533  37.353  1.00  0.00     0.189 C 
ATOM     12  O   UNL     1      30.399 -96.394  36.664  1.00  0.00    -0.289 OA
BRANCH  11  13
ATOM     13  C   UNL     1      28.924 -95.975  38.471  1.00  0.00     0.064 A 
ATOM     14  C   UNL     1      29.367 -95.943  39.817  1.00  0.00     0.130 A 
ATOM     15  C   UNL     1      27.612 -96.399  38.195  1.00  0.00     0.020 A 
ATOM     16  C   UNL     1      28.486 -96.301  40.846  1.00  0.00     0.093 A 
ATOM     17  C   UNL     1      26.750 -96.768  39.229  1.00  0.00     0.047 A 
ATOM     18  C   UNL     1      27.184 -96.715  40.558  1.00  0.00     0.119 A 
BRANCH  14  19
ATOM     19  O   UNL     1      30.673 -95.592  40.164  1.00  0.00    -0.507 OA
ATOM     20  H   UNL     1      30.893 -94.856  40.822  1.00  0.00     0.293 HD
ENDBRANCH  14  19
BRANCH  18  21
ATOM     21  O   UNL     1      26.330 -97.072  41.599  1.00  0.00    -0.508 OA
ATOM     22  H   UNL     1      25.766 -96.382  42.082  1.00  0.00     0.293 HD
ENDBRANCH  18  21
ENDBRANCH  11  13
ENDBRANCH   2  11
TORSDOF 6
ENDMDL
MODEL 4
REMARK VINA RESULT:    -5.578      2.741      7.257
REMARK INTER + INTRA:          -7.728
REMARK INTER:                  -6.988
REMARK INTRA:                  -0.740
REMARK UNBOUND:                -0.682
REMARK SMILES O=C(C=Cc1ccc(O)cc1)c1ccc(O)cc1O
REMARK SMILES IDX 4 1 3 2 5 3 6 4 7 5 8 6 11 7 10 8 9 9 2 11 1 12 12 13 18 14
REMARK SMILES IDX 13 15 17 16 14 17 15 18 19 19 16 21
REMARK H PARENT 9 10 19 20 16 22
REMARK Flexibility Score: inf
ROOT
ATOM      1  C   UNL     1      30.904 -92.526  37.971  1.00  0.00     0.012 C 
ATOM      2  C   UNL     1      30.428 -92.214  36.757  1.00  0.00     0.053 C 
ENDROOT
BRANCH   1   3
ATOM      3  C   UNL     1      31.711 -93.738  38.251  1.00  0.00    -0.025 A 
ATOM      4  C   UNL     1      33.048 -93.772  37.817  1.00  0.00     0.012 A 
ATOM      5  C   UNL     1      33.843 -94.897  38.051  1.00  0.00     0.047 A 
ATOM      6  C   UNL     1      33.313 -96.010  38.710  1.00  0.00     0.115 A 
ATOM      7  C   UNL     1      31.179 -94.871  38.901  1.00  0.00     0.012 A 
ATOM      8  C   UNL     1      31.978 -95.994  39.132  1.00  0.00     0.047 A 
BRANCH   6   9
ATOM      9  O   UNL     1      34.118 -97.124  38.935  1.00  0.00    -0.508 OA
ATOM     10  H   UNL     1      34.060 -97.947  38.345  1.00  0.00     0.293 HD
ENDBRANCH   6   9
ENDBRANCH   1   3
BRANCH   2  11
ATOM     11  C   UNL     1      29.614 -91.003  36.517  1.00  0.00     0.189 C 
ATOM     12  O   UNL     1      28.382 -91.105  36.267  1.00  0.00    -0.289 OA
BRANCH  11  13
ATOM     13  C   UNL     1      30.231 -89.659  36.597  1.00  0.00     0.064 A 
ATOM     14  C   UNL     1      29.632 -88.603  37.326  1.00  0.00     0.130 A 
ATOM     15  C   UNL     1      31.467 -89.437  35.964  1.00  0.00     0.020 A 
ATOM     16  C   UNL     1      30.292 -87.372  37.434  1.00  0.00     0.093 A 
ATOM     17  C   UNL     1      32.107 -88.200  36.066  1.00  0.00     0.047 A 
ATOM     18  C   UNL     1      31.523 -87.167  36.806  1.00  0.00     0.119 A 
BRANCH  14  19
ATOM     19  O   UNL     1      28.379 -88.729  37.929  1.00  0.00    -0.507 OA
ATOM     20  H   UNL     1      28.241 -89.136  38.845  1.00  0.00     0.293 HD
ENDBRANCH  14  19
BRANCH  18  21
ATOM     21  O   UNL     1      32.156 -85.931  36.922  1.00  0.00    -0.508 OA
ATOM     22  H   UNL     1      32.234 -85.457  37.815  1.00  0.00     0.293 HD
ENDBRANCH  18  21
ENDBRANCH  11  13
ENDBRANCH   2  11
TORSDOF 6
ENDMDL
MODEL 5
REMARK VINA RESULT:    -5.354     15.849     16.765
REMARK INTER + INTRA:          -7.444
REMARK INTER:                  -6.835
REMARK INTRA:                  -0.609
REMARK UNBOUND:                -0.682
REMARK SMILES O=C(C=Cc1ccc(O)cc1)c1ccc(O)cc1O
REMARK SMILES IDX 4 1 3 2 5 3 6 4 7 5 8 6 11 7 10 8 9 9 2 11 1 12 12 13 18 14
REMARK SMILES IDX 13 15 17 16 14 17 15 18 19 19 16 21
REMARK H PARENT 9 10 19 20 16 22
REMARK Flexibility Score: inf
ROOT
ATOM      1  C   UNL     1      37.479 -78.604  39.205  1.00  0.00     0.012 C 
ATOM      2  C   UNL     1      36.740 -78.756  38.097  1.00  0.00     0.053 C 
ENDROOT
BRANCH   1   3
ATOM      3  C   UNL     1      38.588 -79.513  39.587  1.00  0.00    -0.025 A 
ATOM      4  C   UNL     1      39.538 -79.860  38.612  1.00  0.00     0.012 A 
ATOM      5  C   UNL     1      40.594 -80.721  38.924  1.00  0.00     0.047 A 
ATOM      6  C   UNL     1      40.710 -81.257  40.210  1.00  0.00     0.115 A 
ATOM      7  C   UNL     1      38.701 -80.070  40.877  1.00  0.00     0.012 A 
ATOM      8  C   UNL     1      39.759 -80.931  41.185  1.00  0.00     0.047 A 
BRANCH   6   9
ATOM      9  O   UNL     1      41.768 -82.114  40.506  1.00  0.00    -0.508 OA
ATOM     10  H   UNL     1      41.611 -83.090  40.730  1.00  0.00     0.293 HD
ENDBRANCH   6   9
ENDBRANCH   1   3
BRANCH   2  11
ATOM     11  C   UNL     1      35.633 -77.838  37.755  1.00  0.00     0.189 C 
ATOM     12  O   UNL     1      35.172 -77.048  38.624  1.00  0.00    -0.289 OA
BRANCH  11  13
ATOM     13  C   UNL     1      35.076 -77.816  36.383  1.00  0.00     0.064 A 
ATOM     14  C   UNL     1      33.696 -78.016  36.132  1.00  0.00     0.130 A 
ATOM     15  C   UNL     1      35.934 -77.549  35.302  1.00  0.00     0.020 A 
ATOM     16  C   UNL     1      33.207 -77.911  34.824  1.00  0.00     0.093 A 
ATOM     17  C   UNL     1      35.436 -77.462  34.001  1.00  0.00     0.047 A 
ATOM     18  C   UNL     1      34.069 -77.639  33.760  1.00  0.00     0.119 A 
BRANCH  14  19
ATOM     19  O   UNL     1      32.793 -78.345  37.145  1.00  0.00    -0.507 OA
ATOM     20  H   UNL     1      33.066 -78.481  38.110  1.00  0.00     0.293 HD
ENDBRANCH  14  19
BRANCH  18  21
ATOM     21  O   UNL     1      33.559 -77.546  32.467  1.00  0.00    -0.508 OA
ATOM     22  H   UNL     1      32.608 -77.239  32.293  1.00  0.00     0.293 HD
ENDBRANCH  18  21
ENDBRANCH  11  13
ENDBRANCH   2  11
TORSDOF 6
ENDMDL
MODEL 6
REMARK VINA RESULT:    -5.313     15.772     16.807
REMARK INTER + INTRA:          -7.393
REMARK INTER:                  -6.971
REMARK INTRA:                  -0.422
REMARK UNBOUND:                -0.682
REMARK SMILES O=C(C=Cc1ccc(O)cc1)c1ccc(O)cc1O
REMARK SMILES IDX 4 1 3 2 5 3 6 4 7 5 8 6 11 7 10 8 9 9 2 11 1 12 12 13 18 14
REMARK SMILES IDX 13 15 17 16 14 17 15 18 19 19 16 21
REMARK H PARENT 9 10 19 20 16 22
REMARK Flexibility Score: inf
ROOT
ATOM      1  C   UNL     1      35.734 -77.223  38.132  1.00  0.00     0.012 C 
ATOM      2  C   UNL     1      36.455 -78.237  38.630  1.00  0.00     0.053 C 
ENDROOT
BRANCH   1   3
ATOM      3  C   UNL     1      34.476 -77.405  37.366  1.00  0.00    -0.025 A 
ATOM      4  C   UNL     1      33.253 -77.152  38.011  1.00  0.00     0.012 A 
ATOM      5  C   UNL     1      32.043 -77.320  37.332  1.00  0.00     0.047 A 
ATOM      6  C   UNL     1      32.036 -77.754  36.004  1.00  0.00     0.115 A 
ATOM      7  C   UNL     1      34.460 -77.859  36.032  1.00  0.00     0.012 A 
ATOM      8  C   UNL     1      33.247 -78.026  35.356  1.00  0.00     0.047 A 
BRANCH   6   9
ATOM      9  O   UNL     1      30.822 -77.917  35.340  1.00  0.00    -0.508 OA
ATOM     10  H   UNL     1      30.314 -77.124  34.963  1.00  0.00     0.293 HD
ENDBRANCH   6   9
ENDBRANCH   1   3
BRANCH   2  11
ATOM     11  C   UNL     1      37.713 -78.018  39.377  1.00  0.00     0.189 C 
ATOM     12  O   UNL     1      37.987 -76.876  39.836  1.00  0.00    -0.289 OA
BRANCH  11  13
ATOM     13  C   UNL     1      38.644 -79.143  39.619  1.00  0.00     0.064 A 
ATOM     14  C   UNL     1      39.624 -79.521  38.669  1.00  0.00     0.130 A 
ATOM     15  C   UNL     1      38.582 -79.830  40.844  1.00  0.00     0.020 A 
ATOM     16  C   UNL     1      40.531 -80.543  38.975  1.00  0.00     0.093 A 
ATOM     17  C   UNL     1      39.482 -80.858  41.131  1.00  0.00     0.047 A 
ATOM     18  C   UNL     1      40.462 -81.213  40.199  1.00  0.00     0.119 A 
BRANCH  14  19
ATOM     19  O   UNL     1      39.709 -78.927  37.407  1.00  0.00    -0.507 OA
ATOM     20  H   UNL     1      39.403 -79.382  36.558  1.00  0.00     0.293 HD
ENDBRANCH  14  19
BRANCH  18  21
ATOM     21  O   UNL     1      41.372 -82.231  40.478  1.00  0.00    -0.508 OA
ATOM     22  H   UNL     1      41.415 -83.072  39.913  1.00  0.00     0.293 HD
ENDBRANCH  18  21
ENDBRANCH  11  13
ENDBRANCH   2  11
TORSDOF 6
ENDMDL
MODEL 7
REMARK VINA RESULT:    -5.217     16.531     18.937
REMARK INTER + INTRA:          -7.271
REMARK INTER:                  -6.641
REMARK INTRA:                  -0.630
REMARK UNBOUND:                -0.682
REMARK SMILES O=C(C=Cc1ccc(O)cc1)c1ccc(O)cc1O
REMARK SMILES IDX 4 1 3 2 5 3 6 4 7 5 8 6 11 7 10 8 9 9 2 11 1 12 12 13 18 14
REMARK SMILES IDX 13 15 17 16 14 17 15 18 19 19 16 21
REMARK H PARENT 9 10 19 20 16 22
REMARK Flexibility Score: inf
ROOT
ATOM      1  C   UNL     1      41.117 -78.738  37.366  1.00  0.00     0.012 C 
ATOM      2  C   UNL     1      40.630 -77.710  36.657  1.00  0.00     0.053 C 
ENDROOT
BRANCH   1   3
ATOM      3  C   UNL     1      40.569 -79.169  38.675  1.00  0.00    -0.025 A 
ATOM      4  C   UNL     1      40.006 -78.198  39.521  1.00  0.00     0.012 A 
ATOM      5  C   UNL     1      39.486 -78.557  40.768  1.00  0.00     0.047 A 
ATOM      6  C   UNL     1      39.533 -79.887  41.194  1.00  0.00     0.115 A 
ATOM      7  C   UNL     1      40.627 -80.506  39.119  1.00  0.00     0.012 A 
ATOM      8  C   UNL     1      40.107 -80.860  40.368  1.00  0.00     0.047 A 
BRANCH   6   9
ATOM      9  O   UNL     1      39.011 -80.229  42.440  1.00  0.00    -0.508 OA
ATOM     10  H   UNL     1      39.237 -81.113  42.884  1.00  0.00     0.293 HD
ENDBRANCH   6   9
ENDBRANCH   1   3
BRANCH   2  11
ATOM     11  C   UNL     1      41.210 -77.300  35.361  1.00  0.00     0.189 C 
ATOM     12  O   UNL     1      42.402 -76.890  35.300  1.00  0.00    -0.289 OA
BRANCH  11  13
ATOM     13  C   UNL     1      40.410 -77.395  34.119  1.00  0.00     0.064 A 
ATOM     14  C   UNL     1      41.010 -77.629  32.858  1.00  0.00     0.130 A 
ATOM     15  C   UNL     1      39.010 -77.291  34.199  1.00  0.00     0.020 A 
ATOM     16  C   UNL     1      40.204 -77.785  31.723  1.00  0.00     0.093 A 
ATOM     17  C   UNL     1      38.218 -77.433  33.058  1.00  0.00     0.047 A 
ATOM     18  C   UNL     1      38.814 -77.686  31.818  1.00  0.00     0.119 A 
BRANCH  14  19
ATOM     19  O   UNL     1      42.395 -77.684  32.689  1.00  0.00    -0.507 OA
ATOM     20  H   UNL     1      43.027 -76.981  33.050  1.00  0.00     0.293 HD
ENDBRANCH  14  19
BRANCH  18  21
ATOM     21  O   UNL     1      38.034 -77.839  30.674  1.00  0.00    -0.508 OA
ATOM     22  H   UNL     1      37.745 -77.041  30.119  1.00  0.00     0.293 HD
ENDBRANCH  18  21
ENDBRANCH  11  13
ENDBRANCH   2  11
TORSDOF 6
ENDMDL
MODEL 8
REMARK VINA RESULT:    -5.150      1.898      3.279
REMARK INTER + INTRA:          -7.187
REMARK INTER:                  -6.791
REMARK INTRA:                  -0.397
REMARK UNBOUND:                -0.682
REMARK SMILES O=C(C=Cc1ccc(O)cc1)c1ccc(O)cc1O
REMARK SMILES IDX 4 1 3 2 5 3 6 4 7 5 8 6 11 7 10 8 9 9 2 11 1 12 12 13 18 14
REMARK SMILES IDX 13 15 17 16 14 17 15 18 19 19 16 21
REMARK H PARENT 9 10 19 20 16 22
REMARK Flexibility Score: inf
ROOT
ATOM      1  C   UNL     1      30.924 -91.554  36.651  1.00  0.00     0.012 C 
ATOM      2  C   UNL     1      30.151 -92.244  37.501  1.00  0.00     0.053 C 
ENDROOT
BRANCH   1   3
ATOM      3  C   UNL     1      31.090 -90.080  36.700  1.00  0.00    -0.025 A 
ATOM      4  C   UNL     1      32.151 -89.499  35.985  1.00  0.00     0.012 A 
ATOM      5  C   UNL     1      32.352 -88.116  36.011  1.00  0.00     0.047 A 
ATOM      6  C   UNL     1      31.503 -87.295  36.759  1.00  0.00     0.115 A 
ATOM      7  C   UNL     1      30.248 -89.247  37.465  1.00  0.00     0.012 A 
ATOM      8  C   UNL     1      30.453 -87.865  37.488  1.00  0.00     0.047 A 
BRANCH   6   9
ATOM      9  O   UNL     1      31.716 -85.918  36.775  1.00  0.00    -0.508 OA
ATOM     10  H   UNL     1      31.090 -85.280  36.295  1.00  0.00     0.293 HD
ENDBRANCH   6   9
ENDBRANCH   1   3
BRANCH   2  11
ATOM     11  C   UNL     1      29.998 -93.713  37.413  1.00  0.00     0.189 C 
ATOM     12  O   UNL     1      28.951 -94.213  36.920  1.00  0.00    -0.289 OA
BRANCH  11  13
ATOM     13  C   UNL     1      31.084 -94.606  37.875  1.00  0.00     0.064 A 
ATOM     14  C   UNL     1      30.838 -95.947  38.258  1.00  0.00     0.130 A 
ATOM     15  C   UNL     1      32.405 -94.122  37.895  1.00  0.00     0.020 A 
ATOM     16  C   UNL     1      31.910 -96.775  38.616  1.00  0.00     0.093 A 
ATOM     17  C   UNL     1      33.462 -94.954  38.269  1.00  0.00     0.047 A 
ATOM     18  C   UNL     1      33.217 -96.284  38.625  1.00  0.00     0.119 A 
BRANCH  14  19
ATOM     19  O   UNL     1      29.549 -96.481  38.322  1.00  0.00    -0.507 OA
ATOM     20  H   UNL     1      29.083 -96.905  37.531  1.00  0.00     0.293 HD
ENDBRANCH  14  19
BRANCH  18  21
ATOM     21  O   UNL     1      34.266 -97.125  38.992  1.00  0.00    -0.508 OA
ATOM     22  H   UNL     1      35.233 -96.834  38.908  1.00  0.00     0.293 HD
ENDBRANCH  18  21
ENDBRANCH  11  13
ENDBRANCH   2  11
TORSDOF 6
ENDMDL
MODEL 9
REMARK VINA RESULT:    -5.097     15.872     16.945
REMARK INTER + INTRA:          -7.121
REMARK INTER:                  -6.524
REMARK INTRA:                  -0.597
REMARK UNBOUND:                -0.682
REMARK SMILES O=C(C=Cc1ccc(O)cc1)c1ccc(O)cc1O
REMARK SMILES IDX 4 1 3 2 5 3 6 4 7 5 8 6 11 7 10 8 9 9 2 11 1 12 12 13 18 14
REMARK SMILES IDX 13 15 17 16 14 17 15 18 19 19 16 21
REMARK H PARENT 9 10 19 20 16 22
REMARK Flexibility Score: inf
ROOT
ATOM      1  C   UNL     1      36.749 -78.848  37.526  1.00  0.00     0.012 C 
ATOM      2  C   UNL     1      36.912 -78.515  38.815  1.00  0.00     0.053 C 
ENDROOT
BRANCH   1   3
ATOM      3  C   UNL     1      35.637 -78.348  36.681  1.00  0.00    -0.025 A 
ATOM      4  C   UNL     1      35.904 -78.028  35.338  1.00  0.00     0.012 A 
ATOM      5  C   UNL     1      34.890 -77.544  34.507  1.00  0.00     0.047 A 
ATOM      6  C   UNL     1      33.597 -77.363  35.007  1.00  0.00     0.115 A 
ATOM      7  C   UNL     1      34.335 -78.147  37.181  1.00  0.00     0.012 A 
ATOM      8  C   UNL     1      33.323 -77.663  36.347  1.00  0.00     0.047 A 
BRANCH   6   9
ATOM      9  O   UNL     1      32.596 -76.880  34.167  1.00  0.00    -0.508 OA
ATOM     10  H   UNL     1      32.696 -76.901  33.158  1.00  0.00     0.293 HD
ENDBRANCH   6   9
ENDBRANCH   1   3
BRANCH   2  11
ATOM     11  C   UNL     1      38.025 -79.044  39.631  1.00  0.00     0.189 C 
ATOM     12  O   UNL     1      37.856 -79.278  40.859  1.00  0.00    -0.289 OA
BRANCH  11  13
ATOM     13  C   UNL     1      39.338 -79.330  39.010  1.00  0.00     0.064 A 
ATOM     14  C   UNL     1      39.972 -80.590  39.146  1.00  0.00     0.130 A 
ATOM     15  C   UNL     1      39.954 -78.338  38.227  1.00  0.00     0.020 A 
ATOM     16  C   UNL     1      41.177 -80.836  38.478  1.00  0.00     0.093 A 
ATOM     17  C   UNL     1      41.164 -78.592  37.578  1.00  0.00     0.047 A 
ATOM     18  C   UNL     1      41.776 -79.844  37.698  1.00  0.00     0.119 A 
BRANCH  14  19
ATOM     19  O   UNL     1      39.452 -81.603  39.955  1.00  0.00    -0.507 OA
ATOM     20  H   UNL     1      38.718 -82.231  39.656  1.00  0.00     0.293 HD
ENDBRANCH  14  19
BRANCH  18  21
ATOM     21  O   UNL     1      42.978 -80.112  37.048  1.00  0.00    -0.508 OA
ATOM     22  H   UNL     1      43.192 -79.711  36.142  1.00  0.00     0.293 HD
ENDBRANCH  18  21
ENDBRANCH  11  13
ENDBRANCH   2  11
TORSDOF 6
ENDMDL
