MODEL 1
REMARK VINA RESULT:    -3.997      0.000      0.000
REMARK INTER + INTRA:          -4.893
REMARK INTER:                  -4.815
REMARK INTRA:                  -0.078
REMARK UNBOUND:                -0.078
REMARK SMILES CC[C@@H](C)[C@H]([NH3+])C(=O)[O-]
REMARK SMILES IDX 3 1 4 2 5 3 6 4 7 8 8 9 9 10 2 11 1 12
REMARK H PARENT 6 5 6 6 6 7
REMARK Flexibility Score: inf
ROOT
ATOM      1  C   UNL     1     -38.169  19.629 -28.965  1.00  0.00     0.050 C 
ATOM      2  C   UNL     1     -37.957  18.625 -27.814  1.00  0.00     0.014 C 
ENDROOT
BRANCH   1   3
ATOM      3  C   UNL     1     -37.703  19.071 -30.346  1.00  0.00     0.230 C 
BRANCH   3   4
ATOM      4  N   UNL     1     -38.312  19.779 -31.484  1.00  0.00    -0.350 N 
ATOM      5  H   UNL     1     -38.711  19.109 -32.181  1.00  0.00     0.345 HD
ATOM      6  H   UNL     1     -37.585  20.360 -31.961  1.00  0.00     0.345 HD
ATOM      7  H   UNL     1     -39.064  20.423 -31.152  1.00  0.00     0.345 HD
ENDBRANCH   3   4
BRANCH   3   8
ATOM      8  C   UNL     1     -37.941  17.583 -30.441  1.00  0.00     0.099 C 
ATOM      9  O   UNL     1     -36.990  16.766 -30.318  1.00  0.00    -0.544 OA
ATOM     10  O   UNL     1     -39.217  17.107 -30.711  1.00  0.00    -0.544 OA
ENDBRANCH   3   8
ENDBRANCH   1   3
BRANCH   1  11
ATOM     11  C   UNL     1     -39.638  20.113 -29.022  1.00  0.00     0.006 C 
ATOM     12  C   UNL     1     -40.575  19.275 -28.150  1.00  0.00     0.004 C 
ENDBRANCH   1  11
TORSDOF 4
ENDMDL
MODEL 2
REMARK VINA RESULT:    -3.946      1.646      1.854
REMARK INTER + INTRA:          -4.831
REMARK INTER:                  -4.692
REMARK INTRA:                  -0.139
REMARK UNBOUND:                -0.078
REMARK SMILES CC[C@@H](C)[C@H]([NH3+])C(=O)[O-]
REMARK SMILES IDX 3 1 4 2 5 3 6 4 7 8 8 9 9 10 2 11 1 12
REMARK H PARENT 6 5 6 6 6 7
REMARK Flexibility Score: inf
ROOT
ATOM      1  C   UNL     1     -38.448  19.851 -29.166  1.00  0.00     0.050 C 
ATOM      2  C   UNL     1     -37.367  20.857 -28.721  1.00  0.00     0.014 C 
ENDROOT
BRANCH   1   3
ATOM      3  C   UNL     1     -38.199  18.414 -28.611  1.00  0.00     0.230 C 
BRANCH   3   4
ATOM      4  N   UNL     1     -37.271  18.394 -27.468  1.00  0.00    -0.350 N 
ATOM      5  H   UNL     1     -36.748  17.489 -27.417  1.00  0.00     0.345 HD
ATOM      6  H   UNL     1     -37.810  18.517 -26.580  1.00  0.00     0.345 HD
ATOM      7  H   UNL     1     -36.590  19.183 -27.538  1.00  0.00     0.345 HD
ENDBRANCH   3   4
BRANCH   3   8
ATOM      8  C   UNL     1     -37.736  17.481 -29.704  1.00  0.00     0.099 C 
ATOM      9  O   UNL     1     -36.511  17.242 -29.874  1.00  0.00    -0.544 OA
ATOM     10  O   UNL     1     -38.667  16.913 -30.563  1.00  0.00    -0.544 OA
ENDBRANCH   3   8
ENDBRANCH   1   3
BRANCH   1  11
ATOM     11  C   UNL     1     -39.866  20.356 -28.802  1.00  0.00     0.006 C 
ATOM     12  C   UNL     1     -40.724  19.282 -28.131  1.00  0.00     0.004 C 
ENDBRANCH   1  11
TORSDOF 4
ENDMDL
MODEL 3
REMARK VINA RESULT:    -3.883      2.445      3.571
REMARK INTER + INTRA:          -4.755
REMARK INTER:                  -4.713
REMARK INTRA:                  -0.042
REMARK UNBOUND:                -0.078
REMARK SMILES CC[C@@H](C)[C@H]([NH3+])C(=O)[O-]
REMARK SMILES IDX 3 1 4 2 5 3 6 4 7 8 8 9 9 10 2 11 1 12
REMARK H PARENT 6 5 6 6 6 7
REMARK Flexibility Score: inf
ROOT
ATOM      1  C   UNL     1     -37.540  18.592 -29.949  1.00  0.00     0.050 C 
ATOM      2  C   UNL     1     -38.143  19.397 -31.117  1.00  0.00     0.014 C 
ENDROOT
BRANCH   1   3
ATOM      3  C   UNL     1     -37.894  19.196 -28.554  1.00  0.00     0.230 C 
BRANCH   3   4
ATOM      4  N   UNL     1     -37.670  18.250 -27.448  1.00  0.00    -0.350 N 
ATOM      5  H   UNL     1     -38.522  17.673 -27.262  1.00  0.00     0.345 HD
ATOM      6  H   UNL     1     -37.433  18.782 -26.579  1.00  0.00     0.345 HD
ATOM      7  H   UNL     1     -36.865  17.621 -27.663  1.00  0.00     0.345 HD
ENDBRANCH   3   4
BRANCH   3   8
ATOM      8  C   UNL     1     -39.304  19.733 -28.535  1.00  0.00     0.099 C 
ATOM      9  O   UNL     1     -40.290  18.958 -28.413  1.00  0.00    -0.544 OA
ATOM     10  O   UNL     1     -39.523  21.094 -28.698  1.00  0.00    -0.544 OA
ENDBRANCH   3   8
ENDBRANCH   1   3
BRANCH   1  11
ATOM     11  C   UNL     1     -37.942  17.098 -30.032  1.00  0.00     0.006 C 
ATOM     12  C   UNL     1     -39.114  16.850 -30.983  1.00  0.00     0.004 C 
ENDBRANCH   1  11
TORSDOF 4
ENDMDL
MODEL 4
REMARK VINA RESULT:    -3.874      1.004      2.029
REMARK INTER + INTRA:          -4.744
REMARK INTER:                  -4.654
REMARK INTRA:                  -0.090
REMARK UNBOUND:                -0.078
REMARK SMILES CC[C@@H](C)[C@H]([NH3+])C(=O)[O-]
REMARK SMILES IDX 3 1 4 2 5 3 6 4 7 8 8 9 9 10 2 11 1 12
REMARK H PARENT 6 5 6 6 6 7
REMARK Flexibility Score: inf
ROOT
ATOM      1  C   UNL     1     -38.464  18.985 -28.849  1.00  0.00     0.050 C 
ATOM      2  C   UNL     1     -38.707  20.507 -28.821  1.00  0.00     0.014 C 
ENDROOT
BRANCH   1   3
ATOM      3  C   UNL     1     -37.905  18.487 -30.218  1.00  0.00     0.230 C 
BRANCH   3   4
ATOM      4  N   UNL     1     -38.316  19.339 -31.347  1.00  0.00    -0.350 N 
ATOM      5  H   UNL     1     -38.044  18.915 -32.264  1.00  0.00     0.345 HD
ATOM      6  H   UNL     1     -37.854  20.274 -31.264  1.00  0.00     0.345 HD
ATOM      7  H   UNL     1     -39.349  19.493 -31.330  1.00  0.00     0.345 HD
ENDBRANCH   3   4
BRANCH   3   8
ATOM      8  C   UNL     1     -38.272  17.044 -30.464  1.00  0.00     0.099 C 
ATOM      9  O   UNL     1     -37.551  16.109 -30.025  1.00  0.00    -0.544 OA
ATOM     10  O   UNL     1     -39.395  16.740 -31.223  1.00  0.00    -0.544 OA
ENDBRANCH   3   8
ENDBRANCH   1   3
BRANCH   1  11
ATOM     11  C   UNL     1     -37.553  18.542 -27.677  1.00  0.00     0.006 C 
ATOM     12  C   UNL     1     -36.072  18.824 -27.936  1.00  0.00     0.004 C 
ENDBRANCH   1  11
TORSDOF 4
ENDMDL
MODEL 5
REMARK VINA RESULT:    -3.853      2.674      3.361
REMARK INTER + INTRA:          -4.719
REMARK INTER:                  -4.639
REMARK INTRA:                  -0.080
REMARK UNBOUND:                -0.078
REMARK SMILES CC[C@@H](C)[C@H]([NH3+])C(=O)[O-]
REMARK SMILES IDX 3 1 4 2 5 3 6 4 7 8 8 9 9 10 2 11 1 12
REMARK H PARENT 6 5 6 6 6 7
REMARK Flexibility Score: inf
ROOT
ATOM      1  C   UNL     1     -39.486  19.493 -29.184  1.00  0.00     0.050 C 
ATOM      2  C   UNL     1     -40.620  19.270 -28.165  1.00  0.00     0.014 C 
ENDROOT
BRANCH   1   3
ATOM      3  C   UNL     1     -38.720  20.833 -28.951  1.00  0.00     0.230 C 
BRANCH   3   4
ATOM      4  N   UNL     1     -39.612  21.945 -28.581  1.00  0.00    -0.350 N 
ATOM      5  H   UNL     1     -39.743  22.611 -29.377  1.00  0.00     0.345 HD
ATOM      6  H   UNL     1     -39.199  22.468 -27.775  1.00  0.00     0.345 HD
ATOM      7  H   UNL     1     -40.543  21.580 -28.278  1.00  0.00     0.345 HD
ENDBRANCH   3   4
BRANCH   3   8
ATOM      8  C   UNL     1     -37.873  21.191 -30.148  1.00  0.00     0.099 C 
ATOM      9  O   UNL     1     -36.818  21.868 -30.015  1.00  0.00    -0.544 OA
ATOM     10  O   UNL     1     -38.282  20.810 -31.419  1.00  0.00    -0.544 OA
ENDBRANCH   3   8
ENDBRANCH   1   3
BRANCH   1  11
ATOM     11  C   UNL     1     -38.513  18.288 -29.213  1.00  0.00     0.006 C 
ATOM     12  C   UNL     1     -38.688  17.414 -30.456  1.00  0.00     0.004 C 
ENDBRANCH   1  11
TORSDOF 4
ENDMDL
MODEL 6
REMARK VINA RESULT:    -3.849      2.250      3.189
REMARK INTER + INTRA:          -4.714
REMARK INTER:                  -4.571
REMARK INTRA:                  -0.143
REMARK UNBOUND:                -0.078
REMARK SMILES CC[C@@H](C)[C@H]([NH3+])C(=O)[O-]
REMARK SMILES IDX 3 1 4 2 5 3 6 4 7 8 8 9 9 10 2 11 1 12
REMARK H PARENT 6 5 6 6 6 7
REMARK Flexibility Score: inf
ROOT
ATOM      1  C   UNL     1     -37.732  18.258 -29.775  1.00  0.00     0.050 C 
ATOM      2  C   UNL     1     -36.263  18.673 -29.988  1.00  0.00     0.014 C 
ENDROOT
BRANCH   1   3
ATOM      3  C   UNL     1     -38.743  19.299 -30.351  1.00  0.00     0.230 C 
BRANCH   3   4
ATOM      4  N   UNL     1     -38.137  20.192 -31.352  1.00  0.00    -0.350 N 
ATOM      5  H   UNL     1     -37.623  20.982 -30.897  1.00  0.00     0.345 HD
ATOM      6  H   UNL     1     -38.887  20.591 -31.962  1.00  0.00     0.345 HD
ATOM      7  H   UNL     1     -37.480  19.660 -31.965  1.00  0.00     0.345 HD
ENDBRANCH   3   4
BRANCH   3   8
ATOM      8  C   UNL     1     -39.402  20.087 -29.245  1.00  0.00     0.099 C 
ATOM      9  O   UNL     1     -39.023  21.257 -28.971  1.00  0.00    -0.544 OA
ATOM     10  O   UNL     1     -40.409  19.502 -28.489  1.00  0.00    -0.544 OA
ENDBRANCH   3   8
ENDBRANCH   1   3
BRANCH   1  11
ATOM     11  C   UNL     1     -38.002  16.842 -30.339  1.00  0.00     0.006 C 
ATOM     12  C   UNL     1     -39.323  16.749 -31.104  1.00  0.00     0.004 C 
ENDBRANCH   1  11
TORSDOF 4
ENDMDL
MODEL 7
REMARK VINA RESULT:    -3.797      2.431      2.876
REMARK INTER + INTRA:          -4.652
REMARK INTER:                  -4.541
REMARK INTRA:                  -0.111
REMARK UNBOUND:                -0.078
REMARK SMILES CC[C@@H](C)[C@H]([NH3+])C(=O)[O-]
REMARK SMILES IDX 3 1 4 2 5 3 6 4 7 8 8 9 9 10 2 11 1 12
REMARK H PARENT 6 5 6 6 6 7
REMARK Flexibility Score: inf
ROOT
ATOM      1  C   UNL     1     -38.374  18.001 -29.998  1.00  0.00     0.050 C 
ATOM      2  C   UNL     1     -39.129  17.038 -30.936  1.00  0.00     0.014 C 
ENDROOT
BRANCH   1   3
ATOM      3  C   UNL     1     -36.831  17.771 -30.013  1.00  0.00     0.230 C 
BRANCH   3   4
ATOM      4  N   UNL     1     -36.462  16.385 -30.350  1.00  0.00    -0.350 N 
ATOM      5  H   UNL     1     -36.986  15.697 -29.763  1.00  0.00     0.345 HD
ATOM      6  H   UNL     1     -35.437  16.249 -30.187  1.00  0.00     0.345 HD
ATOM      7  H   UNL     1     -36.650  16.194 -31.359  1.00  0.00     0.345 HD
ENDBRANCH   3   4
BRANCH   3   8
ATOM      8  C   UNL     1     -36.204  18.198 -28.708  1.00  0.00     0.099 C 
ATOM      9  O   UNL     1     -34.971  18.445 -28.633  1.00  0.00    -0.544 OA
ATOM     10  O   UNL     1     -36.986  18.279 -27.564  1.00  0.00    -0.544 OA
ENDBRANCH   3   8
ENDBRANCH   1   3
BRANCH   1  11
ATOM     11  C   UNL     1     -38.725  19.476 -30.310  1.00  0.00     0.006 C 
ATOM     12  C   UNL     1     -39.512  20.150 -29.184  1.00  0.00     0.004 C 
ENDBRANCH   1  11
TORSDOF 4
ENDMDL
MODEL 8
REMARK VINA RESULT:    -3.771      2.670      3.478
REMARK INTER + INTRA:          -4.620
REMARK INTER:                  -4.526
REMARK INTRA:                  -0.094
REMARK UNBOUND:                -0.078
REMARK SMILES CC[C@@H](C)[C@H]([NH3+])C(=O)[O-]
REMARK SMILES IDX 3 1 4 2 5 3 6 4 7 8 8 9 9 10 2 11 1 12
REMARK H PARENT 6 5 6 6 6 7
REMARK Flexibility Score: inf
ROOT
ATOM      1  C   UNL     1     -38.738  18.581 -29.514  1.00  0.00     0.050 C 
ATOM      2  C   UNL     1     -37.996  18.573 -28.163  1.00  0.00     0.014 C 
ENDROOT
BRANCH   1   3
ATOM      3  C   UNL     1     -38.613  19.944 -30.263  1.00  0.00     0.230 C 
BRANCH   3   4
ATOM      4  N   UNL     1     -37.240  20.224 -30.717  1.00  0.00    -0.350 N 
ATOM      5  H   UNL     1     -37.051  19.793 -31.651  1.00  0.00     0.345 HD
ATOM      6  H   UNL     1     -36.559  19.833 -30.027  1.00  0.00     0.345 HD
ATOM      7  H   UNL     1     -37.078  21.255 -30.772  1.00  0.00     0.345 HD
ENDBRANCH   3   4
BRANCH   3   8
ATOM      8  C   UNL     1     -39.150  21.078 -29.424  1.00  0.00     0.099 C 
ATOM      9  O   UNL     1     -40.390  21.233 -29.263  1.00  0.00    -0.544 OA
ATOM     10  O   UNL     1     -38.270  21.991 -28.857  1.00  0.00    -0.544 OA
ENDBRANCH   3   8
ENDBRANCH   1   3
BRANCH   1  11
ATOM     11  C   UNL     1     -38.281  17.404 -30.411  1.00  0.00     0.006 C 
ATOM     12  C   UNL     1     -39.431  16.779 -31.202  1.00  0.00     0.004 C 
ENDBRANCH   1  11
TORSDOF 4
ENDMDL
MODEL 9
REMARK VINA RESULT:    -3.757      2.776      3.191
REMARK INTER + INTRA:          -4.603
REMARK INTER:                  -4.471
REMARK INTRA:                  -0.133
REMARK UNBOUND:                -0.078
REMARK SMILES CC[C@@H](C)[C@H]([NH3+])C(=O)[O-]
REMARK SMILES IDX 3 1 4 2 5 3 6 4 7 8 8 9 9 10 2 11 1 12
REMARK H PARENT 6 5 6 6 6 7
REMARK Flexibility Score: inf
ROOT
ATOM      1  C   UNL     1     -38.461  19.110 -29.449  1.00  0.00     0.050 C 
ATOM      2  C   UNL     1     -38.756  17.931 -30.397  1.00  0.00     0.014 C 
ENDROOT
BRANCH   1   3
ATOM      3  C   UNL     1     -38.767  20.497 -30.097  1.00  0.00     0.230 C 
BRANCH   3   4
ATOM      4  N   UNL     1     -38.415  20.552 -31.526  1.00  0.00    -0.350 N 
ATOM      5  H   UNL     1     -37.378  20.527 -31.664  1.00  0.00     0.345 HD
ATOM      6  H   UNL     1     -38.784  21.437 -31.941  1.00  0.00     0.345 HD
ATOM      7  H   UNL     1     -38.852  19.754 -32.039  1.00  0.00     0.345 HD
ENDBRANCH   3   4
BRANCH   3   8
ATOM      8  C   UNL     1     -38.104  21.615 -29.330  1.00  0.00     0.099 C 
ATOM      9  O   UNL     1     -36.860  21.803 -29.406  1.00  0.00    -0.544 OA
ATOM     10  O   UNL     1     -38.865  22.420 -28.493  1.00  0.00    -0.544 OA
ENDBRANCH   3   8
ENDBRANCH   1   3
BRANCH   1  11
ATOM     11  C   UNL     1     -39.205  18.944 -28.101  1.00  0.00     0.006 C 
ATOM     12  C   UNL     1     -40.698  19.257 -28.204  1.00  0.00     0.004 C 
ENDBRANCH   1  11
TORSDOF 4
ENDMDL
