MODEL 1
REMARK VINA RESULT:    -4.902      0.000      0.000
REMARK INTER + INTRA:          -6.080
REMARK INTER:                  -5.762
REMARK INTRA:                  -0.319
REMARK UNBOUND:                -0.319
REMARK SMILES O=c1c(O)c(-c2ccc(O)c(O)c2)oc2cc(O)ccc12
REMARK SMILES IDX 5 1 3 2 2 3 1 4 21 5 15 6 14 7 16 8 17 9 19 10 20 11 6 12
REMARK SMILES IDX 7 13 8 14 9 15 13 16 11 17 10 18 12 20 4 22 18 24
REMARK H PARENT 10 19 12 21 4 23 18 25
REMARK Flexibility Score: inf
ROOT
ATOM      1  C   UNL     1     -99.741  42.258   9.011  1.00  0.00     0.180 A 
ATOM      2  C   UNL     1    -100.254  40.986   9.337  1.00  0.00     0.208 A 
ATOM      3  C   UNL     1    -100.136  40.527  10.658  1.00  0.00     0.235 A 
ATOM      4  O   UNL     1    -100.578  39.387  10.971  1.00  0.00    -0.285 OA
ATOM      5  C   UNL     1     -99.531  41.347  11.622  1.00  0.00     0.069 A 
ATOM      6  C   UNL     1     -99.063  42.617  11.222  1.00  0.00     0.142 A 
ATOM      7  O   UNL     1     -99.187  43.011   9.959  1.00  0.00    -0.452 OA
ATOM      8  C   UNL     1     -98.463  43.469  12.157  1.00  0.00     0.094 A 
ATOM      9  C   UNL     1     -98.321  43.067  13.488  1.00  0.00     0.119 A 
ATOM     10  C   UNL     1     -98.783  41.806  13.890  1.00  0.00     0.047 A 
ATOM     11  C   UNL     1     -99.385  40.948  12.963  1.00  0.00     0.020 A 
ENDROOT
BRANCH   1  12
ATOM     12  C   UNL     1     -99.810  42.807   7.637  1.00  0.00     0.025 A 
ATOM     13  C   UNL     1     -98.842  42.481   6.670  1.00  0.00     0.016 A 
ATOM     14  C   UNL     1     -98.915  43.029   5.386  1.00  0.00     0.051 A 
ATOM     15  C   UNL     1     -99.945  43.919   5.056  1.00  0.00     0.157 A 
ATOM     16  C   UNL     1    -100.828  43.716   7.306  1.00  0.00     0.062 A 
ATOM     17  C   UNL     1    -100.901  44.265   6.018  1.00  0.00     0.158 A 
BRANCH  15  18
ATOM     18  O   UNL     1    -100.021  44.467   3.776  1.00  0.00    -0.504 OA
ATOM     19  H   UNL     1     -99.899  45.461   3.617  1.00  0.00     0.293 HD
ENDBRANCH  15  18
BRANCH  17  20
ATOM     20  O   UNL     1    -101.921  45.157   5.689  1.00  0.00    -0.504 OA
ATOM     21  H   UNL     1    -101.727  46.039   5.229  1.00  0.00     0.293 HD
ENDBRANCH  17  20
ENDBRANCH   1  12
BRANCH   2  22
ATOM     22  O   UNL     1    -100.895  40.212   8.366  1.00  0.00    -0.502 OA
ATOM     23  H   UNL     1    -101.144  40.583   7.456  1.00  0.00     0.293 HD
ENDBRANCH   2  22
BRANCH   9  24
ATOM     24  O   UNL     1     -97.721  43.927  14.405  1.00  0.00    -0.508 OA
ATOM     25  H   UNL     1     -98.199  44.217  15.250  1.00  0.00     0.293 HD
ENDBRANCH   9  24
TORSDOF 5
ENDMDL
MODEL 2
REMARK VINA RESULT:    -4.866      1.659      6.796
REMARK INTER + INTRA:          -6.037
REMARK INTER:                  -5.715
REMARK INTRA:                  -0.323
REMARK UNBOUND:                -0.319
REMARK SMILES O=c1c(O)c(-c2ccc(O)c(O)c2)oc2cc(O)ccc12
REMARK SMILES IDX 5 1 3 2 2 3 1 4 21 5 15 6 14 7 16 8 17 9 19 10 20 11 6 12
REMARK SMILES IDX 7 13 8 14 9 15 13 16 11 17 10 18 12 20 4 22 18 24
REMARK H PARENT 10 19 12 21 4 23 18 25
REMARK Flexibility Score: inf
ROOT
ATOM      1  C   UNL     1     -99.978  42.697   9.216  1.00  0.00     0.180 A 
ATOM      2  C   UNL     1    -101.382  42.797   9.134  1.00  0.00     0.208 A 
ATOM      3  C   UNL     1    -101.969  43.086   7.892  1.00  0.00     0.235 A 
ATOM      4  O   UNL     1    -103.223  43.191   7.796  1.00  0.00    -0.285 OA
ATOM      5  C   UNL     1    -101.151  43.249   6.764  1.00  0.00     0.069 A 
ATOM      6  C   UNL     1     -99.755  43.111   6.923  1.00  0.00     0.142 A 
ATOM      7  O   UNL     1     -99.239  42.845   8.118  1.00  0.00    -0.452 OA
ATOM      8  C   UNL     1     -98.906  43.256   5.820  1.00  0.00     0.094 A 
ATOM      9  C   UNL     1     -99.434  43.541   4.557  1.00  0.00     0.119 A 
ATOM     10  C   UNL     1    -100.819  43.680   4.394  1.00  0.00     0.047 A 
ATOM     11  C   UNL     1    -101.676  43.536   5.490  1.00  0.00     0.020 A 
ENDROOT
BRANCH   1  12
ATOM     12  C   UNL     1     -99.282  42.413  10.492  1.00  0.00     0.025 A 
ATOM     13  C   UNL     1     -98.913  43.448  11.370  1.00  0.00     0.016 A 
ATOM     14  C   UNL     1     -98.236  43.158  12.557  1.00  0.00     0.051 A 
ATOM     15  C   UNL     1     -97.907  41.834  12.877  1.00  0.00     0.157 A 
ATOM     16  C   UNL     1     -98.931  41.091  10.808  1.00  0.00     0.062 A 
ATOM     17  C   UNL     1     -98.252  40.800  12.000  1.00  0.00     0.158 A 
BRANCH  15  18
ATOM     18  O   UNL     1     -97.233  41.541  14.061  1.00  0.00    -0.504 OA
ATOM     19  H   UNL     1     -96.600  40.752  14.129  1.00  0.00     0.293 HD
ENDBRANCH  15  18
BRANCH  17  20
ATOM     20  O   UNL     1     -97.916  39.484  12.317  1.00  0.00    -0.504 OA
ATOM     21  H   UNL     1     -97.649  39.216  13.256  1.00  0.00     0.293 HD
ENDBRANCH  17  20
ENDBRANCH   1  12
BRANCH   2  22
ATOM     22  O   UNL     1    -102.174  42.581  10.265  1.00  0.00    -0.502 OA
ATOM     23  H   UNL     1    -102.003  41.815  10.907  1.00  0.00     0.293 HD
ENDBRANCH   2  22
BRANCH   9  24
ATOM     24  O   UNL     1     -98.575  43.682   3.470  1.00  0.00    -0.508 OA
ATOM     25  H   UNL     1     -98.212  42.877   2.973  1.00  0.00     0.293 HD
ENDBRANCH   9  24
TORSDOF 5
ENDMDL
MODEL 3
REMARK VINA RESULT:    -4.707      1.919      7.147
REMARK INTER + INTRA:          -5.851
REMARK INTER:                  -5.551
REMARK INTRA:                  -0.301
REMARK UNBOUND:                -0.319
REMARK SMILES O=c1c(O)c(-c2ccc(O)c(O)c2)oc2cc(O)ccc12
REMARK SMILES IDX 5 1 3 2 2 3 1 4 21 5 15 6 14 7 16 8 17 9 19 10 20 11 6 12
REMARK SMILES IDX 7 13 8 14 9 15 13 16 11 17 10 18 12 20 4 22 18 24
REMARK H PARENT 10 19 12 21 4 23 18 25
REMARK Flexibility Score: inf
ROOT
ATOM      1  C   UNL     1    -100.438  43.312   7.567  1.00  0.00     0.180 A 
ATOM      2  C   UNL     1    -101.832  43.380   7.364  1.00  0.00     0.208 A 
ATOM      3  C   UNL     1    -102.315  43.659   6.077  1.00  0.00     0.235 A 
ATOM      4  O   UNL     1    -103.558  43.737   5.873  1.00  0.00    -0.285 OA
ATOM      5  C   UNL     1    -101.407  43.843   5.023  1.00  0.00     0.069 A 
ATOM      6  C   UNL     1    -100.028  43.735   5.302  1.00  0.00     0.142 A 
ATOM      7  O   UNL     1     -99.611  43.478   6.537  1.00  0.00    -0.452 OA
ATOM      8  C   UNL     1     -99.090  43.901   4.276  1.00  0.00     0.094 A 
ATOM      9  C   UNL     1     -99.513  44.177   2.972  1.00  0.00     0.119 A 
ATOM     10  C   UNL     1    -100.882  44.285   2.691  1.00  0.00     0.047 A 
ATOM     11  C   UNL     1    -101.826  44.120   3.709  1.00  0.00     0.020 A 
ENDROOT
BRANCH   1  12
ATOM     12  C   UNL     1     -99.849  43.041   8.898  1.00  0.00     0.025 A 
ATOM     13  C   UNL     1     -99.739  44.052   9.870  1.00  0.00     0.016 A 
ATOM     14  C   UNL     1     -99.158  43.779  11.111  1.00  0.00     0.051 A 
ATOM     15  C   UNL     1     -98.666  42.498  11.393  1.00  0.00     0.157 A 
ATOM     16  C   UNL     1     -99.335  41.765   9.180  1.00  0.00     0.062 A 
ATOM     17  C   UNL     1     -98.752  41.491  10.425  1.00  0.00     0.158 A 
BRANCH  15  18
ATOM     18  O   UNL     1     -98.087  42.221  12.630  1.00  0.00    -0.504 OA
ATOM     19  H   UNL     1     -98.087  42.904  13.380  1.00  0.00     0.293 HD
ENDBRANCH  15  18
BRANCH  17  20
ATOM     20  O   UNL     1     -98.255  40.218  10.706  1.00  0.00    -0.504 OA
ATOM     21  H   UNL     1     -98.564  39.695  11.516  1.00  0.00     0.293 HD
ENDBRANCH  17  20
ENDBRANCH   1  12
BRANCH   2  22
ATOM     22  O   UNL     1    -102.713  43.145   8.423  1.00  0.00    -0.502 OA
ATOM     23  H   UNL     1    -103.160  43.898   8.932  1.00  0.00     0.293 HD
ENDBRANCH   2  22
BRANCH   9  24
ATOM     24  O   UNL     1     -98.567  44.339   1.963  1.00  0.00    -0.508 OA
ATOM     25  H   UNL     1     -97.592  44.102   2.108  1.00  0.00     0.293 HD
ENDBRANCH   9  24
TORSDOF 5
ENDMDL
MODEL 4
REMARK VINA RESULT:    -4.652      9.375     11.852
REMARK INTER + INTRA:          -5.786
REMARK INTER:                  -5.688
REMARK INTRA:                  -0.098
REMARK UNBOUND:                -0.319
REMARK SMILES O=c1c(O)c(-c2ccc(O)c(O)c2)oc2cc(O)ccc12
REMARK SMILES IDX 5 1 3 2 2 3 1 4 21 5 15 6 14 7 16 8 17 9 19 10 20 11 6 12
REMARK SMILES IDX 7 13 8 14 9 15 13 16 11 17 10 18 12 20 4 22 18 24
REMARK H PARENT 10 19 12 21 4 23 18 25
REMARK Flexibility Score: inf
ROOT
ATOM      1  C   UNL     1    -100.113  50.517  14.829  1.00  0.00     0.180 A 
ATOM      2  C   UNL     1    -101.418  50.074  14.533  1.00  0.00     0.208 A 
ATOM      3  C   UNL     1    -102.121  50.692  13.487  1.00  0.00     0.235 A 
ATOM      4  O   UNL     1    -103.295  50.322  13.211  1.00  0.00    -0.285 OA
ATOM      5  C   UNL     1    -101.505  51.716  12.752  1.00  0.00     0.069 A 
ATOM      6  C   UNL     1    -100.186  52.086  13.094  1.00  0.00     0.142 A 
ATOM      7  O   UNL     1     -99.559  51.482  14.097  1.00  0.00    -0.452 OA
ATOM      8  C   UNL     1     -99.533  53.096  12.378  1.00  0.00     0.094 A 
ATOM      9  C   UNL     1    -100.182  53.744  11.323  1.00  0.00     0.119 A 
ATOM     10  C   UNL     1    -101.492  53.381  10.980  1.00  0.00     0.047 A 
ATOM     11  C   UNL     1    -102.152  52.372  11.689  1.00  0.00     0.020 A 
ENDROOT
BRANCH   1  12
ATOM     12  C   UNL     1     -99.312  49.929  15.928  1.00  0.00     0.025 A 
ATOM     13  C   UNL     1     -98.996  48.559  15.951  1.00  0.00     0.016 A 
ATOM     14  C   UNL     1     -98.260  48.022  17.011  1.00  0.00     0.051 A 
ATOM     15  C   UNL     1     -97.841  48.842  18.066  1.00  0.00     0.157 A 
ATOM     16  C   UNL     1     -98.908  50.742  17.000  1.00  0.00     0.062 A 
ATOM     17  C   UNL     1     -98.168  50.203  18.062  1.00  0.00     0.158 A 
BRANCH  15  18
ATOM     18  O   UNL     1     -97.105  48.311  19.124  1.00  0.00    -0.504 OA
ATOM     19  H   UNL     1     -96.464  47.537  18.987  1.00  0.00     0.293 HD
ENDBRANCH  15  18
BRANCH  17  20
ATOM     20  O   UNL     1     -97.757  51.016  19.118  1.00  0.00    -0.504 OA
ATOM     21  H   UNL     1     -97.866  52.023  19.086  1.00  0.00     0.293 HD
ENDBRANCH  17  20
ENDBRANCH   1  12
BRANCH   2  22
ATOM     22  O   UNL     1    -101.988  49.019  15.251  1.00  0.00    -0.502 OA
ATOM     23  H   UNL     1    -101.478  48.168  15.457  1.00  0.00     0.293 HD
ENDBRANCH   2  22
BRANCH   9  24
ATOM     24  O   UNL     1     -99.518  54.747  10.621  1.00  0.00    -0.508 OA
ATOM     25  H   UNL     1     -99.156  55.570  11.088  1.00  0.00     0.293 HD
ENDBRANCH   9  24
TORSDOF 5
ENDMDL
MODEL 5
REMARK VINA RESULT:    -4.611      3.594      8.732
REMARK INTER + INTRA:          -5.738
REMARK INTER:                  -5.423
REMARK INTRA:                  -0.315
REMARK UNBOUND:                -0.319
REMARK SMILES O=c1c(O)c(-c2ccc(O)c(O)c2)oc2cc(O)ccc12
REMARK SMILES IDX 5 1 3 2 2 3 1 4 21 5 15 6 14 7 16 8 17 9 19 10 20 11 6 12
REMARK SMILES IDX 7 13 8 14 9 15 13 16 11 17 10 18 12 20 4 22 18 24
REMARK H PARENT 10 19 12 21 4 23 18 25
REMARK Flexibility Score: inf
ROOT
ATOM      1  C   UNL     1     -99.271  43.134   3.596  1.00  0.00     0.180 A 
ATOM      2  C   UNL     1     -99.755  42.040   2.849  1.00  0.00     0.208 A 
ATOM      3  C   UNL     1     -99.625  42.064   1.452  1.00  0.00     0.235 A 
ATOM      4  O   UNL     1    -100.060  41.102   0.762  1.00  0.00    -0.285 OA
ATOM      5  C   UNL     1     -99.001  43.160   0.836  1.00  0.00     0.069 A 
ATOM      6  C   UNL     1     -98.522  44.205   1.655  1.00  0.00     0.142 A 
ATOM      7  O   UNL     1     -98.673  44.148   2.973  1.00  0.00    -0.452 OA
ATOM      8  C   UNL     1     -97.886  45.311   1.079  1.00  0.00     0.094 A 
ATOM      9  C   UNL     1     -97.723  45.387  -0.308  1.00  0.00     0.119 A 
ATOM     10  C   UNL     1     -98.199  44.352  -1.125  1.00  0.00     0.047 A 
ATOM     11  C   UNL     1     -98.835  43.243  -0.558  1.00  0.00     0.020 A 
ENDROOT
BRANCH   1  12
ATOM     12  C   UNL     1     -99.387  43.193   5.071  1.00  0.00     0.025 A 
ATOM     13  C   UNL     1     -98.366  42.705   5.906  1.00  0.00     0.016 A 
ATOM     14  C   UNL     1     -98.508  42.750   7.295  1.00  0.00     0.051 A 
ATOM     15  C   UNL     1     -99.675  43.270   7.870  1.00  0.00     0.157 A 
ATOM     16  C   UNL     1    -100.564  43.694   5.653  1.00  0.00     0.062 A 
ATOM     17  C   UNL     1    -100.705  43.740   7.047  1.00  0.00     0.158 A 
BRANCH  15  18
ATOM     18  O   UNL     1     -99.819  43.318   9.255  1.00  0.00    -0.504 OA
ATOM     19  H   UNL     1    -100.206  44.132   9.720  1.00  0.00     0.293 HD
ENDBRANCH  15  18
BRANCH  17  20
ATOM     20  O   UNL     1    -101.869  44.250   7.621  1.00  0.00    -0.504 OA
ATOM     21  H   UNL     1    -102.163  43.982   8.553  1.00  0.00     0.293 HD
ENDBRANCH  17  20
ENDBRANCH   1  12
BRANCH   2  22
ATOM     22  O   UNL     1    -100.327  40.941   3.495  1.00  0.00    -0.502 OA
ATOM     23  H   UNL     1    -100.145  40.730   4.469  1.00  0.00     0.293 HD
ENDBRANCH   2  22
BRANCH   9  24
ATOM     24  O   UNL     1     -97.088  46.495  -0.864  1.00  0.00    -0.508 OA
ATOM     25  H   UNL     1     -96.135  46.443  -1.204  1.00  0.00     0.293 HD
ENDBRANCH   9  24
TORSDOF 5
ENDMDL
MODEL 6
REMARK VINA RESULT:    -4.610      1.957      2.992
REMARK INTER + INTRA:          -5.737
REMARK INTER:                  -5.437
REMARK INTRA:                  -0.300
REMARK UNBOUND:                -0.319
REMARK SMILES O=c1c(O)c(-c2ccc(O)c(O)c2)oc2cc(O)ccc12
REMARK SMILES IDX 5 1 3 2 2 3 1 4 21 5 15 6 14 7 16 8 17 9 19 10 20 11 6 12
REMARK SMILES IDX 7 13 8 14 9 15 13 16 11 17 10 18 12 20 4 22 18 24
REMARK H PARENT 10 19 12 21 4 23 18 25
REMARK Flexibility Score: inf
ROOT
ATOM      1  C   UNL     1     -99.548  42.760  11.098  1.00  0.00     0.180 A 
ATOM      2  C   UNL     1    -100.690  43.026  11.881  1.00  0.00     0.208 A 
ATOM      3  C   UNL     1    -100.585  42.948  13.279  1.00  0.00     0.235 A 
ATOM      4  O   UNL     1    -101.596  43.170  14.000  1.00  0.00    -0.285 OA
ATOM      5  C   UNL     1     -99.349  42.629  13.862  1.00  0.00     0.069 A 
ATOM      6  C   UNL     1     -98.247  42.400  13.010  1.00  0.00     0.142 A 
ATOM      7  O   UNL     1     -98.390  42.475  11.692  1.00  0.00    -0.452 OA
ATOM      8  C   UNL     1     -96.995  42.089  13.554  1.00  0.00     0.094 A 
ATOM      9  C   UNL     1     -96.829  42.002  14.939  1.00  0.00     0.119 A 
ATOM     10  C   UNL     1     -97.921  42.227  15.788  1.00  0.00     0.047 A 
ATOM     11  C   UNL     1     -99.176  42.539  15.255  1.00  0.00     0.020 A 
ENDROOT
BRANCH   1  12
ATOM     12  C   UNL     1     -99.580  42.803   9.619  1.00  0.00     0.025 A 
ATOM     13  C   UNL     1     -99.190  43.955   8.912  1.00  0.00     0.016 A 
ATOM     14  C   UNL     1     -99.251  43.981   7.516  1.00  0.00     0.051 A 
ATOM     15  C   UNL     1     -99.715  42.864   6.808  1.00  0.00     0.157 A 
ATOM     16  C   UNL     1    -100.064  41.695   8.905  1.00  0.00     0.062 A 
ATOM     17  C   UNL     1    -100.125  41.721   7.504  1.00  0.00     0.158 A 
BRANCH  15  18
ATOM     18  O   UNL     1     -99.776  42.886   5.416  1.00  0.00    -0.504 OA
ATOM     19  H   UNL     1    -100.358  42.235   4.901  1.00  0.00     0.293 HD
ENDBRANCH  15  18
BRANCH  17  20
ATOM     20  O   UNL     1    -100.593  40.613   6.798  1.00  0.00    -0.504 OA
ATOM     21  H   UNL     1    -100.927  40.694   5.845  1.00  0.00     0.293 HD
ENDBRANCH  17  20
ENDBRANCH   1  12
BRANCH   2  22
ATOM     22  O   UNL     1    -101.895  43.389  11.274  1.00  0.00    -0.502 OA
ATOM     23  H   UNL     1    -101.937  43.751  10.329  1.00  0.00     0.293 HD
ENDBRANCH   2  22
BRANCH   9  24
ATOM     24  O   UNL     1     -95.576  41.691  15.463  1.00  0.00    -0.508 OA
ATOM     25  H   UNL     1     -95.409  40.823  15.957  1.00  0.00     0.293 HD
ENDBRANCH   9  24
TORSDOF 5
ENDMDL
MODEL 7
REMARK VINA RESULT:    -4.585      1.694      6.670
REMARK INTER + INTRA:          -5.707
REMARK INTER:                  -5.400
REMARK INTRA:                  -0.308
REMARK UNBOUND:                -0.319
REMARK SMILES O=c1c(O)c(-c2ccc(O)c(O)c2)oc2cc(O)ccc12
REMARK SMILES IDX 5 1 3 2 2 3 1 4 21 5 15 6 14 7 16 8 17 9 19 10 20 11 6 12
REMARK SMILES IDX 7 13 8 14 9 15 13 16 11 17 10 18 12 20 4 22 18 24
REMARK H PARENT 10 19 12 21 4 23 18 25
REMARK Flexibility Score: inf
ROOT
ATOM      1  C   UNL     1     -99.557  42.374  10.393  1.00  0.00     0.180 A 
ATOM      2  C   UNL     1    -100.964  42.282  10.406  1.00  0.00     0.208 A 
ATOM      3  C   UNL     1    -101.661  42.406   9.194  1.00  0.00     0.235 A 
ATOM      4  O   UNL     1    -102.920  42.339   9.182  1.00  0.00    -0.285 OA
ATOM      5  C   UNL     1    -100.945  42.598   8.002  1.00  0.00     0.069 A 
ATOM      6  C   UNL     1     -99.536  42.656   8.070  1.00  0.00     0.142 A 
ATOM      7  O   UNL     1     -98.915  42.542   9.239  1.00  0.00    -0.452 OA
ATOM      8  C   UNL     1     -98.785  42.836   6.902  1.00  0.00     0.094 A 
ATOM      9  C   UNL     1     -99.425  42.962   5.666  1.00  0.00     0.119 A 
ATOM     10  C   UNL     1    -100.824  42.906   5.594  1.00  0.00     0.047 A 
ATOM     11  C   UNL     1    -101.582  42.726   6.755  1.00  0.00     0.020 A 
ENDROOT
BRANCH   1  12
ATOM     12  C   UNL     1     -98.750  42.271  11.631  1.00  0.00     0.025 A 
ATOM     13  C   UNL     1     -98.382  41.022  12.163  1.00  0.00     0.016 A 
ATOM     14  C   UNL     1     -97.640  40.950  13.345  1.00  0.00     0.051 A 
ATOM     15  C   UNL     1     -97.267  42.121  14.018  1.00  0.00     0.157 A 
ATOM     16  C   UNL     1     -98.392  43.441  12.321  1.00  0.00     0.062 A 
ATOM     17  C   UNL     1     -97.647  43.367  13.507  1.00  0.00     0.158 A 
BRANCH  15  18
ATOM     18  O   UNL     1     -96.526  42.052  15.196  1.00  0.00    -0.504 OA
ATOM     19  H   UNL     1     -95.615  42.490  15.275  1.00  0.00     0.293 HD
ENDBRANCH  15  18
BRANCH  17  20
ATOM     20  O   UNL     1     -97.281  44.531  14.183  1.00  0.00    -0.504 OA
ATOM     21  H   UNL     1     -96.682  45.227  13.756  1.00  0.00     0.293 HD
ENDBRANCH  17  20
ENDBRANCH   1  12
BRANCH   2  22
ATOM     22  O   UNL     1    -101.646  42.041  11.601  1.00  0.00    -0.502 OA
ATOM     23  H   UNL     1    -102.114  41.163  11.790  1.00  0.00     0.293 HD
ENDBRANCH   2  22
BRANCH   9  24
ATOM     24  O   UNL     1     -98.663  43.140   4.514  1.00  0.00    -0.508 OA
ATOM     25  H   UNL     1     -99.056  42.997   3.591  1.00  0.00     0.293 HD
ENDBRANCH   9  24
TORSDOF 5
ENDMDL
MODEL 8
REMARK VINA RESULT:    -4.553      3.617      9.029
REMARK INTER + INTRA:          -5.670
REMARK INTER:                  -5.381
REMARK INTRA:                  -0.289
REMARK UNBOUND:                -0.319
REMARK SMILES O=c1c(O)c(-c2ccc(O)c(O)c2)oc2cc(O)ccc12
REMARK SMILES IDX 5 1 3 2 2 3 1 4 21 5 15 6 14 7 16 8 17 9 19 10 20 11 6 12
REMARK SMILES IDX 7 13 8 14 9 15 13 16 11 17 10 18 12 20 4 22 18 24
REMARK H PARENT 10 19 12 21 4 23 18 25
REMARK Flexibility Score: inf
ROOT
ATOM      1  C   UNL     1     -99.983  44.043   3.531  1.00  0.00     0.180 A 
ATOM      2  C   UNL     1    -101.093  44.720   2.987  1.00  0.00     0.208 A 
ATOM      3  C   UNL     1    -100.950  45.371   1.752  1.00  0.00     0.235 A 
ATOM      4  O   UNL     1    -101.927  45.993   1.250  1.00  0.00    -0.285 OA
ATOM      5  C   UNL     1     -99.718  45.317   1.082  1.00  0.00     0.069 A 
ATOM      6  C   UNL     1     -98.661  44.599   1.681  1.00  0.00     0.142 A 
ATOM      7  O   UNL     1     -98.835  44.004   2.856  1.00  0.00    -0.452 OA
ATOM      8  C   UNL     1     -97.420  44.514   1.039  1.00  0.00     0.094 A 
ATOM      9  C   UNL     1     -97.220  45.139  -0.195  1.00  0.00     0.119 A 
ATOM     10  C   UNL     1     -98.267  45.854  -0.793  1.00  0.00     0.047 A 
ATOM     11  C   UNL     1     -99.511  45.944  -0.160  1.00  0.00     0.020 A 
ENDROOT
BRANCH   1  12
ATOM     12  C   UNL     1    -100.047  43.347   4.837  1.00  0.00     0.025 A 
ATOM     13  C   UNL     1    -100.261  41.959   4.916  1.00  0.00     0.016 A 
ATOM     14  C   UNL     1    -100.341  41.328   6.160  1.00  0.00     0.051 A 
ATOM     15  C   UNL     1    -100.222  42.074   7.340  1.00  0.00     0.157 A 
ATOM     16  C   UNL     1     -99.949  44.092   6.023  1.00  0.00     0.062 A 
ATOM     17  C   UNL     1    -100.029  43.458   7.271  1.00  0.00     0.158 A 
BRANCH  15  18
ATOM     18  O   UNL     1    -100.300  41.447   8.582  1.00  0.00    -0.504 OA
ATOM     19  H   UNL     1    -100.464  40.450   8.664  1.00  0.00     0.293 HD
ENDBRANCH  15  18
BRANCH  17  20
ATOM     20  O   UNL     1     -99.919  44.200   8.447  1.00  0.00    -0.504 OA
ATOM     21  H   UNL     1     -99.431  45.088   8.470  1.00  0.00     0.293 HD
ENDBRANCH  17  20
ENDBRANCH   1  12
BRANCH   2  22
ATOM     22  O   UNL     1    -102.321  44.714   3.654  1.00  0.00    -0.502 OA
ATOM     23  H   UNL     1    -103.205  44.725   3.159  1.00  0.00     0.293 HD
ENDBRANCH   2  22
BRANCH   9  24
ATOM     24  O   UNL     1     -95.979  45.044  -0.820  1.00  0.00    -0.508 OA
ATOM     25  H   UNL     1     -95.824  44.412  -1.596  1.00  0.00     0.293 HD
ENDBRANCH   9  24
TORSDOF 5
ENDMDL
MODEL 9
REMARK VINA RESULT:    -4.519      3.573      6.327
REMARK INTER + INTRA:          -5.631
REMARK INTER:                  -5.465
REMARK INTRA:                  -0.166
REMARK UNBOUND:                -0.319
REMARK SMILES O=c1c(O)c(-c2ccc(O)c(O)c2)oc2cc(O)ccc12
REMARK SMILES IDX 5 1 3 2 2 3 1 4 21 5 15 6 14 7 16 8 17 9 19 10 20 11 6 12
REMARK SMILES IDX 7 13 8 14 9 15 13 16 11 17 10 18 12 20 4 22 18 24
REMARK H PARENT 10 19 12 21 4 23 18 25
REMARK Flexibility Score: inf
ROOT
ATOM      1  C   UNL     1     -99.350  43.724   3.236  1.00  0.00     0.180 A 
ATOM      2  C   UNL     1     -99.647  42.358   3.048  1.00  0.00     0.208 A 
ATOM      3  C   UNL     1    -100.011  41.585   4.161  1.00  0.00     0.235 A 
ATOM      4  O   UNL     1    -100.270  40.358   4.019  1.00  0.00    -0.285 OA
ATOM      5  C   UNL     1    -100.090  42.189   5.425  1.00  0.00     0.069 A 
ATOM      6  C   UNL     1     -99.800  43.567   5.528  1.00  0.00     0.142 A 
ATOM      7  O   UNL     1     -99.451  44.261   4.451  1.00  0.00    -0.452 OA
ATOM      8  C   UNL     1     -99.877  44.208   6.769  1.00  0.00     0.094 A 
ATOM      9  C   UNL     1    -100.239  43.490   7.913  1.00  0.00     0.119 A 
ATOM     10  C   UNL     1    -100.526  42.121   7.816  1.00  0.00     0.047 A 
ATOM     11  C   UNL     1    -100.453  41.472   6.579  1.00  0.00     0.020 A 
ENDROOT
BRANCH   1  12
ATOM     12  C   UNL     1     -98.941  44.602   2.117  1.00  0.00     0.025 A 
ATOM     13  C   UNL     1     -99.771  45.644   1.663  1.00  0.00     0.016 A 
ATOM     14  C   UNL     1     -99.374  46.445   0.589  1.00  0.00     0.051 A 
ATOM     15  C   UNL     1     -98.151  46.211  -0.053  1.00  0.00     0.157 A 
ATOM     16  C   UNL     1     -97.726  44.359   1.455  1.00  0.00     0.062 A 
ATOM     17  C   UNL     1     -97.328  45.164   0.378  1.00  0.00     0.158 A 
BRANCH  15  18
ATOM     18  O   UNL     1     -97.752  47.009  -1.123  1.00  0.00    -0.504 OA
ATOM     19  H   UNL     1     -98.368  47.193  -1.907  1.00  0.00     0.293 HD
ENDBRANCH  15  18
BRANCH  17  20
ATOM     20  O   UNL     1     -96.116  44.928  -0.268  1.00  0.00    -0.504 OA
ATOM     21  H   UNL     1     -95.235  44.947   0.232  1.00  0.00     0.293 HD
ENDBRANCH  17  20
ENDBRANCH   1  12
BRANCH   2  22
ATOM     22  O   UNL     1     -99.607  41.796   1.769  1.00  0.00    -0.502 OA
ATOM     23  H   UNL     1     -99.584  42.363   0.929  1.00  0.00     0.293 HD
ENDBRANCH   2  22
BRANCH   9  24
ATOM     24  O   UNL     1    -100.311  44.144   9.141  1.00  0.00    -0.508 OA
ATOM     25  H   UNL     1    -100.024  43.690  10.000  1.00  0.00     0.293 HD
ENDBRANCH   9  24
TORSDOF 5
ENDMDL
