MODEL 1
REMARK VINA RESULT:     1.516      0.000      0.000
REMARK INTER + INTRA:           4.073
REMARK INTER:                   3.998
REMARK INTRA:                   0.075
REMARK UNBOUND:                 0.075
REMARK SMILES CCCCCCCCCCCCCCCCCCCCCCCCCCCCCC(=O)[O-]
REMARK SMILES IDX 16 1 17 2 18 3 19 4 20 5 21 6 22 7 23 8 24 9 25 10 26 11
REMARK SMILES IDX 27 12 28 13 29 14 30 15 31 16 32 17 15 18 14 19 13 20 12 21
REMARK SMILES IDX 11 22 10 23 9 24 8 25 7 26 6 27 5 28 4 29 3 30 2 31 1 32
REMARK H PARENT
REMARK Flexibility Score: inf
ROOT
ATOM      1  C   UNL     1      -4.077   8.535  -3.319  1.00  0.00     0.000 C 
ENDROOT
BRANCH   1   2
ATOM      2  C   UNL     1      -3.212   8.025  -2.154  1.00  0.00     0.000 C 
BRANCH   2   3
ATOM      3  C   UNL     1      -1.948   8.878  -1.934  1.00  0.00     0.000 C 
BRANCH   3   4
ATOM      4  C   UNL     1      -1.880   9.483  -0.516  1.00  0.00     0.000 C 
BRANCH   4   5
ATOM      5  C   UNL     1      -1.524   8.465   0.581  1.00  0.00     0.000 C 
BRANCH   5   6
ATOM      6  C   UNL     1      -0.875   9.119   1.813  1.00  0.00     0.000 C 
BRANCH   6   7
ATOM      7  C   UNL     1      -1.298  10.584   2.007  1.00  0.00     0.000 C 
BRANCH   7   8
ATOM      8  C   UNL     1      -2.288  10.770   3.170  1.00  0.00     0.000 C 
BRANCH   8   9
ATOM      9  C   UNL     1      -3.719  11.071   2.690  1.00  0.00     0.000 C 
BRANCH   9  10
ATOM     10  C   UNL     1      -4.810  10.868   3.760  1.00  0.00     0.000 C 
BRANCH  10  11
ATOM     11  C   UNL     1      -5.837   9.773   3.398  1.00  0.00     0.000 C 
BRANCH  11  12
ATOM     12  C   UNL     1      -7.222  10.050   4.012  1.00  0.00     0.000 C 
BRANCH  12  13
ATOM     13  C   UNL     1      -8.092   8.784   4.094  1.00  0.00     0.006 C 
BRANCH  13  14
ATOM     14  C   UNL     1      -7.268   7.543   4.464  1.00  0.00     0.053 C 
BRANCH  14  15
ATOM     15  C   UNL     1      -8.168   6.378   4.730  1.00  0.00     0.041 C 
ATOM     16  O   UNL     1      -8.872   6.345   5.774  1.00  0.00    -0.550 OA
ATOM     17  O   UNL     1      -8.260   5.345   3.805  1.00  0.00    -0.550 OA
ENDBRANCH  14  15
ENDBRANCH  13  14
ENDBRANCH  12  13
ENDBRANCH  11  12
ENDBRANCH  10  11
ENDBRANCH   9  10
ENDBRANCH   8   9
ENDBRANCH   7   8
ENDBRANCH   6   7
ENDBRANCH   5   6
ENDBRANCH   4   5
ENDBRANCH   3   4
ENDBRANCH   2   3
ENDBRANCH   1   2
BRANCH   1  18
ATOM     18  C   UNL     1      -3.336   8.505  -4.667  1.00  0.00     0.000 C 
BRANCH  18  19
ATOM     19  C   UNL     1      -2.322   9.649  -4.818  1.00  0.00     0.000 C 
BRANCH  19  20
ATOM     20  C   UNL     1      -1.403   9.469  -6.036  1.00  0.00     0.000 C 
BRANCH  20  21
ATOM     21  C   UNL     1      -1.545  10.645  -7.014  1.00  0.00     0.000 C 
BRANCH  21  22
ATOM     22  C   UNL     1      -1.062  10.305  -8.433  1.00  0.00     0.000 C 
BRANCH  22  23
ATOM     23  C   UNL     1      -1.779  11.066  -9.563  1.00  0.00     0.000 C 
BRANCH  23  24
ATOM     24  C   UNL     1      -0.987  11.112 -10.886  1.00  0.00    -0.000 C 
BRANCH  24  25
ATOM     25  C   UNL     1      -0.882   9.731 -11.556  1.00  0.00    -0.000 C 
BRANCH  25  26
ATOM     26  C   UNL     1      -1.825   9.596 -12.764  1.00  0.00    -0.000 C 
BRANCH  26  27
ATOM     27  C   UNL     1      -2.782  10.793 -12.894  1.00  0.00    -0.000 C 
BRANCH  27  28
ATOM     28  C   UNL     1      -4.225  10.441 -12.497  1.00  0.00    -0.000 C 
BRANCH  28  29
ATOM     29  C   UNL     1      -4.700   9.121 -13.125  1.00  0.00    -0.000 C 
BRANCH  29  30
ATOM     30  C   UNL     1      -3.816   7.950 -12.673  1.00  0.00    -0.000 C 
BRANCH  30  31
ATOM     31  C   UNL     1      -4.420   6.585 -13.036  1.00  0.00    -0.003 C 
ATOM     32  C   UNL     1      -3.418   5.439 -12.900  1.00  0.00     0.004 C 
ENDBRANCH  30  31
ENDBRANCH  29  30
ENDBRANCH  28  29
ENDBRANCH  27  28
ENDBRANCH  26  27
ENDBRANCH  25  26
ENDBRANCH  24  25
ENDBRANCH  23  24
ENDBRANCH  22  23
ENDBRANCH  21  22
ENDBRANCH  20  21
ENDBRANCH  19  20
ENDBRANCH  18  19
ENDBRANCH   1  18
TORSDOF 28
ENDMDL
MODEL 2
REMARK VINA RESULT:     2.595      4.511     13.351
REMARK INTER + INTRA:           6.918
REMARK INTER:                   5.836
REMARK INTRA:                   1.083
REMARK UNBOUND:                 0.075
REMARK SMILES CCCCCCCCCCCCCCCCCCCCCCCCCCCCCC(=O)[O-]
REMARK SMILES IDX 16 1 17 2 18 3 19 4 20 5 21 6 22 7 23 8 24 9 25 10 26 11
REMARK SMILES IDX 27 12 28 13 29 14 30 15 31 16 32 17 15 18 14 19 13 20 12 21
REMARK SMILES IDX 11 22 10 23 9 24 8 25 7 26 6 27 5 28 4 29 3 30 2 31 1 32
REMARK H PARENT
REMARK Flexibility Score: inf
ROOT
ATOM      1  C   UNL     1      -4.479   7.620  -4.703  1.00  0.00     0.000 C 
ENDROOT
BRANCH   1   2
ATOM      2  C   UNL     1      -3.233   7.594  -5.603  1.00  0.00     0.000 C 
BRANCH   2   3
ATOM      3  C   UNL     1      -1.935   7.343  -4.813  1.00  0.00     0.000 C 
BRANCH   3   4
ATOM      4  C   UNL     1      -0.907   6.513  -5.609  1.00  0.00     0.000 C 
BRANCH   4   5
ATOM      5  C   UNL     1      -1.350   6.177  -7.044  1.00  0.00     0.000 C 
BRANCH   5   6
ATOM      6  C   UNL     1      -0.878   7.218  -8.073  1.00  0.00     0.000 C 
BRANCH   6   7
ATOM      7  C   UNL     1      -1.773   8.468  -8.115  1.00  0.00     0.000 C 
BRANCH   7   8
ATOM      8  C   UNL     1      -1.003   9.763  -7.797  1.00  0.00     0.000 C 
BRANCH   8   9
ATOM      9  C   UNL     1      -0.921  10.716  -9.002  1.00  0.00     0.000 C 
BRANCH   9  10
ATOM     10  C   UNL     1      -1.463  10.130 -10.320  1.00  0.00     0.000 C 
BRANCH  10  11
ATOM     11  C   UNL     1      -0.902   8.729 -10.653  1.00  0.00     0.000 C 
BRANCH  11  12
ATOM     12  C   UNL     1      -1.097   8.363 -12.135  1.00  0.00     0.000 C 
BRANCH  12  13
ATOM     13  C   UNL     1      -2.577   8.172 -12.504  1.00  0.00     0.006 C 
BRANCH  13  14
ATOM     14  C   UNL     1      -2.842   6.793 -13.124  1.00  0.00     0.053 C 
BRANCH  14  15
ATOM     15  C   UNL     1      -3.917   6.078 -12.367  1.00  0.00     0.041 C 
ATOM     16  O   UNL     1      -3.619   5.185 -11.532  1.00  0.00    -0.550 OA
ATOM     17  O   UNL     1      -5.249   6.425 -12.558  1.00  0.00    -0.550 OA
ENDBRANCH  14  15
ENDBRANCH  13  14
ENDBRANCH  12  13
ENDBRANCH  11  12
ENDBRANCH  10  11
ENDBRANCH   9  10
ENDBRANCH   8   9
ENDBRANCH   7   8
ENDBRANCH   6   7
ENDBRANCH   5   6
ENDBRANCH   4   5
ENDBRANCH   3   4
ENDBRANCH   2   3
ENDBRANCH   1   2
BRANCH   1  18
ATOM     18  C   UNL     1      -4.196   8.217  -3.313  1.00  0.00     0.000 C 
BRANCH  18  19
ATOM     19  C   UNL     1      -3.100   9.292  -3.336  1.00  0.00     0.000 C 
BRANCH  19  20
ATOM     20  C   UNL     1      -3.042  10.108  -2.035  1.00  0.00     0.000 C 
BRANCH  20  21
ATOM     21  C   UNL     1      -1.592  10.290  -1.560  1.00  0.00     0.000 C 
BRANCH  21  22
ATOM     22  C   UNL     1      -1.493  10.980  -0.191  1.00  0.00     0.000 C 
BRANCH  22  23
ATOM     23  C   UNL     1      -2.162  10.221   0.969  1.00  0.00     0.000 C 
BRANCH  23  24
ATOM     24  C   UNL     1      -3.114  11.090   1.817  1.00  0.00    -0.000 C 
BRANCH  24  25
ATOM     25  C   UNL     1      -4.058  10.247   2.692  1.00  0.00    -0.000 C 
BRANCH  25  26
ATOM     26  C   UNL     1      -4.934  11.115   3.610  1.00  0.00    -0.000 C 
BRANCH  26  27
ATOM     27  C   UNL     1      -5.486  10.323   4.809  1.00  0.00    -0.000 C 
BRANCH  27  28
ATOM     28  C   UNL     1      -6.899   9.773   4.554  1.00  0.00    -0.000 C 
BRANCH  28  29
ATOM     29  C   UNL     1      -6.931   8.237   4.510  1.00  0.00    -0.000 C 
BRANCH  29  30
ATOM     30  C   UNL     1      -8.252   7.733   3.912  1.00  0.00    -0.000 C 
BRANCH  30  31
ATOM     31  C   UNL     1      -8.992   6.770   4.852  1.00  0.00    -0.003 C 
ATOM     32  C   UNL     1      -8.162   5.538   5.212  1.00  0.00     0.004 C 
ENDBRANCH  30  31
ENDBRANCH  29  30
ENDBRANCH  28  29
ENDBRANCH  27  28
ENDBRANCH  26  27
ENDBRANCH  25  26
ENDBRANCH  24  25
ENDBRANCH  23  24
ENDBRANCH  22  23
ENDBRANCH  21  22
ENDBRANCH  20  21
ENDBRANCH  19  20
ENDBRANCH  18  19
ENDBRANCH   1  18
TORSDOF 28
ENDMDL
MODEL 3
REMARK VINA RESULT:     2.688      4.635     13.443
REMARK INTER + INTRA:           7.163
REMARK INTER:                   5.827
REMARK INTRA:                   1.336
REMARK UNBOUND:                 0.075
REMARK SMILES CCCCCCCCCCCCCCCCCCCCCCCCCCCCCC(=O)[O-]
REMARK SMILES IDX 16 1 17 2 18 3 19 4 20 5 21 6 22 7 23 8 24 9 25 10 26 11
REMARK SMILES IDX 27 12 28 13 29 14 30 15 31 16 32 17 15 18 14 19 13 20 12 21
REMARK SMILES IDX 11 22 10 23 9 24 8 25 7 26 6 27 5 28 4 29 3 30 2 31 1 32
REMARK H PARENT
REMARK Flexibility Score: inf
ROOT
ATOM      1  C   UNL     1      -4.937   7.505  -1.789  1.00  0.00     0.000 C 
ENDROOT
BRANCH   1   2
ATOM      2  C   UNL     1      -4.288   7.256  -3.160  1.00  0.00     0.000 C 
BRANCH   2   3
ATOM      3  C   UNL     1      -3.703   8.539  -3.782  1.00  0.00     0.000 C 
BRANCH   3   4
ATOM      4  C   UNL     1      -2.437   8.267  -4.621  1.00  0.00     0.000 C 
BRANCH   4   5
ATOM      5  C   UNL     1      -1.959   9.477  -5.442  1.00  0.00     0.000 C 
BRANCH   5   6
ATOM      6  C   UNL     1      -0.876   9.110  -6.471  1.00  0.00     0.000 C 
BRANCH   6   7
ATOM      7  C   UNL     1      -1.309   9.382  -7.920  1.00  0.00     0.000 C 
BRANCH   7   8
ATOM      8  C   UNL     1      -1.278  10.878  -8.281  1.00  0.00     0.000 C 
BRANCH   8   9
ATOM      9  C   UNL     1      -1.001  11.123  -9.774  1.00  0.00     0.000 C 
BRANCH   9  10
ATOM     10  C   UNL     1      -1.181   9.883 -10.672  1.00  0.00     0.000 C 
BRANCH  10  11
ATOM     11  C   UNL     1      -2.638   9.660 -11.136  1.00  0.00     0.000 C 
BRANCH  11  12
ATOM     12  C   UNL     1      -2.778   9.741 -12.667  1.00  0.00     0.000 C 
BRANCH  12  13
ATOM     13  C   UNL     1      -3.657  10.919 -13.115  1.00  0.00     0.006 C 
BRANCH  13  14
ATOM     14  C   UNL     1      -5.126  10.727 -12.711  1.00  0.00     0.053 C 
BRANCH  14  15
ATOM     15  C   UNL     1      -5.487   9.275 -12.729  1.00  0.00     0.041 C 
ATOM     16  O   UNL     1      -6.679   8.915 -12.547  1.00  0.00    -0.550 OA
ATOM     17  O   UNL     1      -4.511   8.320 -12.984  1.00  0.00    -0.550 OA
ENDBRANCH  14  15
ENDBRANCH  13  14
ENDBRANCH  12  13
ENDBRANCH  11  12
ENDBRANCH  10  11
ENDBRANCH   9  10
ENDBRANCH   8   9
ENDBRANCH   7   8
ENDBRANCH   6   7
ENDBRANCH   5   6
ENDBRANCH   4   5
ENDBRANCH   3   4
ENDBRANCH   2   3
ENDBRANCH   1   2
BRANCH   1  18
ATOM     18  C   UNL     1      -4.105   8.444  -0.898  1.00  0.00     0.000 C 
BRANCH  18  19
ATOM     19  C   UNL     1      -2.701   7.897  -0.601  1.00  0.00     0.000 C 
BRANCH  19  20
ATOM     20  C   UNL     1      -2.068   8.532   0.646  1.00  0.00     0.000 C 
BRANCH  20  21
ATOM     21  C   UNL     1      -1.400   9.873   0.306  1.00  0.00     0.000 C 
BRANCH  21  22
ATOM     22  C   UNL     1      -0.881  10.615   1.548  1.00  0.00     0.000 C 
BRANCH  22  23
ATOM     23  C   UNL     1      -1.972  11.080   2.530  1.00  0.00     0.000 C 
BRANCH  23  24
ATOM     24  C   UNL     1      -3.320  10.347   2.358  1.00  0.00    -0.000 C 
BRANCH  24  25
ATOM     25  C   UNL     1      -4.005  10.055   3.705  1.00  0.00    -0.000 C 
BRANCH  25  26
ATOM     26  C   UNL     1      -5.078  11.101   4.053  1.00  0.00    -0.000 C 
BRANCH  26  27
ATOM     27  C   UNL     1      -6.505  10.540   3.920  1.00  0.00    -0.000 C 
BRANCH  27  28
ATOM     28  C   UNL     1      -6.687   9.208   4.666  1.00  0.00    -0.000 C 
BRANCH  28  29
ATOM     29  C   UNL     1      -7.663   8.263   3.949  1.00  0.00    -0.000 C 
BRANCH  29  30
ATOM     30  C   UNL     1      -7.644   6.867   4.588  1.00  0.00    -0.000 C 
BRANCH  30  31
ATOM     31  C   UNL     1      -8.805   5.984   4.103  1.00  0.00    -0.003 C 
ATOM     32  C   UNL     1      -8.407   5.066   2.948  1.00  0.00     0.004 C 
ENDBRANCH  30  31
ENDBRANCH  29  30
ENDBRANCH  28  29
ENDBRANCH  27  28
ENDBRANCH  26  27
ENDBRANCH  25  26
ENDBRANCH  24  25
ENDBRANCH  23  24
ENDBRANCH  22  23
ENDBRANCH  21  22
ENDBRANCH  20  21
ENDBRANCH  19  20
ENDBRANCH  18  19
ENDBRANCH   1  18
TORSDOF 28
ENDMDL
MODEL 4
REMARK VINA RESULT:     2.779      1.285      2.326
REMARK INTER + INTRA:           7.404
REMARK INTER:                   5.598
REMARK INTRA:                   1.806
REMARK UNBOUND:                 0.075
REMARK SMILES CCCCCCCCCCCCCCCCCCCCCCCCCCCCCC(=O)[O-]
REMARK SMILES IDX 16 1 17 2 18 3 19 4 20 5 21 6 22 7 23 8 24 9 25 10 26 11
REMARK SMILES IDX 27 12 28 13 29 14 30 15 31 16 32 17 15 18 14 19 13 20 12 21
REMARK SMILES IDX 11 22 10 23 9 24 8 25 7 26 6 27 5 28 4 29 3 30 2 31 1 32
REMARK H PARENT
REMARK Flexibility Score: inf
ROOT
ATOM      1  C   UNL     1      -4.439   8.158  -2.903  1.00  0.00     0.000 C 
ENDROOT
BRANCH   1   2
ATOM      2  C   UNL     1      -4.169   8.323  -1.399  1.00  0.00     0.000 C 
BRANCH   2   3
ATOM      3  C   UNL     1      -2.755   7.863  -0.995  1.00  0.00     0.000 C 
BRANCH   3   4
ATOM      4  C   UNL     1      -2.306   8.449   0.360  1.00  0.00     0.000 C 
BRANCH   4   5
ATOM      5  C   UNL     1      -3.132   9.661   0.822  1.00  0.00     0.000 C 
BRANCH   5   6
ATOM      6  C   UNL     1      -2.429  11.002   0.549  1.00  0.00     0.000 C 
BRANCH   6   7
ATOM      7  C   UNL     1      -0.994  11.050   1.099  1.00  0.00     0.000 C 
BRANCH   7   8
ATOM      8  C   UNL     1      -0.907  10.621   2.575  1.00  0.00     0.000 C 
BRANCH   8   9
ATOM      9  C   UNL     1      -2.150  11.026   3.385  1.00  0.00     0.000 C 
BRANCH   9  10
ATOM     10  C   UNL     1      -3.485  10.513   2.810  1.00  0.00     0.000 C 
BRANCH  10  11
ATOM     11  C   UNL     1      -4.688  10.718   3.759  1.00  0.00     0.000 C 
BRANCH  11  12
ATOM     12  C   UNL     1      -5.755   9.622   3.587  1.00  0.00     0.000 C 
BRANCH  12  13
ATOM     13  C   UNL     1      -6.841   9.685   4.674  1.00  0.00     0.006 C 
BRANCH  13  14
ATOM     14  C   UNL     1      -7.350   8.288   5.059  1.00  0.00     0.053 C 
BRANCH  14  15
ATOM     15  C   UNL     1      -8.427   7.847   4.119  1.00  0.00     0.041 C 
ATOM     16  O   UNL     1      -8.709   8.540   3.107  1.00  0.00    -0.550 OA
ATOM     17  O   UNL     1      -9.093   6.648   4.340  1.00  0.00    -0.550 OA
ENDBRANCH  14  15
ENDBRANCH  13  14
ENDBRANCH  12  13
ENDBRANCH  11  12
ENDBRANCH  10  11
ENDBRANCH   9  10
ENDBRANCH   8   9
ENDBRANCH   7   8
ENDBRANCH   6   7
ENDBRANCH   5   6
ENDBRANCH   4   5
ENDBRANCH   3   4
ENDBRANCH   2   3
ENDBRANCH   1   2
BRANCH   1  18
ATOM     18  C   UNL     1      -4.773   9.491  -3.598  1.00  0.00     0.000 C 
BRANCH  18  19
ATOM     19  C   UNL     1      -4.213  10.710  -2.851  1.00  0.00     0.000 C 
BRANCH  19  20
ATOM     20  C   UNL     1      -2.729  10.965  -3.159  1.00  0.00     0.000 C 
BRANCH  20  21
ATOM     21  C   UNL     1      -2.275  10.165  -4.390  1.00  0.00     0.000 C 
BRANCH  21  22
ATOM     22  C   UNL     1      -2.338  10.982  -5.690  1.00  0.00     0.000 C 
BRANCH  22  23
ATOM     23  C   UNL     1      -1.090  10.873  -6.586  1.00  0.00     0.000 C 
BRANCH  23  24
ATOM     24  C   UNL     1      -0.943   9.507  -7.289  1.00  0.00    -0.000 C 
BRANCH  24  25
ATOM     25  C   UNL     1      -1.164   9.602  -8.809  1.00  0.00    -0.000 C 
BRANCH  25  26
ATOM     26  C   UNL     1      -2.232  10.645  -9.180  1.00  0.00    -0.000 C 
BRANCH  26  27
ATOM     27  C   UNL     1      -2.098  11.125 -10.636  1.00  0.00    -0.000 C 
BRANCH  27  28
ATOM     28  C   UNL     1      -1.329  10.128 -11.518  1.00  0.00    -0.000 C 
BRANCH  28  29
ATOM     29  C   UNL     1      -1.989   9.930 -12.891  1.00  0.00    -0.000 C 
BRANCH  29  30
ATOM     30  C   UNL     1      -3.049   8.820 -12.836  1.00  0.00    -0.000 C 
BRANCH  30  31
ATOM     31  C   UNL     1      -2.607   7.630 -11.970  1.00  0.00    -0.003 C 
ATOM     32  C   UNL     1      -3.285   6.321 -12.374  1.00  0.00     0.004 C 
ENDBRANCH  30  31
ENDBRANCH  29  30
ENDBRANCH  28  29
ENDBRANCH  27  28
ENDBRANCH  26  27
ENDBRANCH  25  26
ENDBRANCH  24  25
ENDBRANCH  23  24
ENDBRANCH  22  23
ENDBRANCH  21  22
ENDBRANCH  20  21
ENDBRANCH  19  20
ENDBRANCH  18  19
ENDBRANCH   1  18
TORSDOF 28
ENDMDL
MODEL 5
REMARK VINA RESULT:     3.393      3.283      4.544
REMARK INTER + INTRA:           9.021
REMARK INTER:                   5.921
REMARK INTRA:                   3.100
REMARK UNBOUND:                 0.075
REMARK SMILES CCCCCCCCCCCCCCCCCCCCCCCCCCCCCC(=O)[O-]
REMARK SMILES IDX 16 1 17 2 18 3 19 4 20 5 21 6 22 7 23 8 24 9 25 10 26 11
REMARK SMILES IDX 27 12 28 13 29 14 30 15 31 16 32 17 15 18 14 19 13 20 12 21
REMARK SMILES IDX 11 22 10 23 9 24 8 25 7 26 6 27 5 28 4 29 3 30 2 31 1 32
REMARK H PARENT
REMARK Flexibility Score: inf
ROOT
ATOM      1  C   UNL     1      -4.662   8.071  -2.643  1.00  0.00     0.000 C 
ENDROOT
BRANCH   1   2
ATOM      2  C   UNL     1      -4.277   8.374  -1.186  1.00  0.00     0.000 C 
BRANCH   2   3
ATOM      3  C   UNL     1      -2.844   7.922  -0.844  1.00  0.00     0.000 C 
BRANCH   3   4
ATOM      4  C   UNL     1      -2.356   8.473   0.512  1.00  0.00     0.000 C 
BRANCH   4   5
ATOM      5  C   UNL     1      -3.182   9.659   1.039  1.00  0.00     0.000 C 
BRANCH   5   6
ATOM      6  C   UNL     1      -2.423  10.995   0.966  1.00  0.00     0.000 C 
BRANCH   6   7
ATOM      7  C   UNL     1      -1.067  10.954   1.690  1.00  0.00     0.000 C 
BRANCH   7   8
ATOM      8  C   UNL     1      -1.200  10.616   3.186  1.00  0.00     0.000 C 
BRANCH   8   9
ATOM      9  C   UNL     1      -2.517  11.125   3.795  1.00  0.00     0.000 C 
BRANCH   9  10
ATOM     10  C   UNL     1      -3.766  10.865   2.930  1.00  0.00     0.000 C 
BRANCH  10  11
ATOM     11  C   UNL     1      -4.765   9.872   3.566  1.00  0.00     0.000 C 
BRANCH  11  12
ATOM     12  C   UNL     1      -6.047  10.571   4.054  1.00  0.00     0.000 C 
BRANCH  12  13
ATOM     13  C   UNL     1      -7.003   9.607   4.776  1.00  0.00     0.006 C 
BRANCH  13  14
ATOM     14  C   UNL     1      -6.910   8.179   4.217  1.00  0.00     0.053 C 
BRANCH  14  15
ATOM     15  C   UNL     1      -8.231   7.487   4.331  1.00  0.00     0.041 C 
ATOM     16  O   UNL     1      -8.425   6.633   5.235  1.00  0.00    -0.550 OA
ATOM     17  O   UNL     1      -9.263   7.813   3.459  1.00  0.00    -0.550 OA
ENDBRANCH  14  15
ENDBRANCH  13  14
ENDBRANCH  12  13
ENDBRANCH  11  12
ENDBRANCH  10  11
ENDBRANCH   9  10
ENDBRANCH   8   9
ENDBRANCH   7   8
ENDBRANCH   6   7
ENDBRANCH   5   6
ENDBRANCH   4   5
ENDBRANCH   3   4
ENDBRANCH   2   3
ENDBRANCH   1   2
BRANCH   1  18
ATOM     18  C   UNL     1      -5.122   9.323  -3.410  1.00  0.00     0.000 C 
BRANCH  18  19
ATOM     19  C   UNL     1      -4.611  10.629  -2.783  1.00  0.00     0.000 C 
BRANCH  19  20
ATOM     20  C   UNL     1      -3.303  11.120  -3.421  1.00  0.00     0.000 C 
BRANCH  20  21
ATOM     21  C   UNL     1      -2.751  10.088  -4.417  1.00  0.00     0.000 C 
BRANCH  21  22
ATOM     22  C   UNL     1      -3.478  10.115  -5.770  1.00  0.00     0.000 C 
BRANCH  22  23
ATOM     23  C   UNL     1      -2.743  10.879  -6.887  1.00  0.00     0.000 C 
BRANCH  23  24
ATOM     24  C   UNL     1      -1.319  10.355  -7.168  1.00  0.00    -0.000 C 
BRANCH  24  25
ATOM     25  C   UNL     1      -0.986   9.093  -6.355  1.00  0.00    -0.000 C 
BRANCH  25  26
ATOM     26  C   UNL     1      -1.530   7.814  -7.014  1.00  0.00    -0.000 C 
BRANCH  26  27
ATOM     27  C   UNL     1      -0.954   6.537  -6.375  1.00  0.00    -0.000 C 
BRANCH  27  28
ATOM     28  C   UNL     1      -1.658   6.166  -5.060  1.00  0.00    -0.000 C 
BRANCH  28  29
ATOM     29  C   UNL     1      -1.361   4.723  -4.623  1.00  0.00    -0.000 C 
BRANCH  29  30
ATOM     30  C   UNL     1      -0.881   3.878  -5.813  1.00  0.00    -0.000 C 
BRANCH  30  31
ATOM     31  C   UNL     1      -1.540   2.490  -5.851  1.00  0.00    -0.003 C 
ATOM     32  C   UNL     1      -1.516   1.786  -4.494  1.00  0.00     0.004 C 
ENDBRANCH  30  31
ENDBRANCH  29  30
ENDBRANCH  28  29
ENDBRANCH  27  28
ENDBRANCH  26  27
ENDBRANCH  25  26
ENDBRANCH  24  25
ENDBRANCH  23  24
ENDBRANCH  22  23
ENDBRANCH  21  22
ENDBRANCH  20  21
ENDBRANCH  19  20
ENDBRANCH  18  19
ENDBRANCH   1  18
TORSDOF 28
ENDMDL
