MODEL 1
REMARK VINA RESULT:    -3.790      0.000      0.000
REMARK INTER + INTRA:          -4.725
REMARK INTER:                  -4.677
REMARK INTRA:                  -0.048
REMARK UNBOUND:                -0.048
REMARK SMILES CCCCCC(C)=O
REMARK SMILES IDX 4 1 3 2 2 3 1 4 5 5 6 6 8 7 7 8
REMARK H PARENT
REMARK Flexibility Score: inf
ROOT
ATOM      1  C   UNL     1      25.938  57.186  -9.313  1.00  0.00     0.008 C 
ENDROOT
BRANCH   1   2
ATOM      2  C   UNL     1      26.241  58.658  -9.659  1.00  0.00     0.000 C 
BRANCH   2   3
ATOM      3  C   UNL     1      27.398  58.864 -10.654  1.00  0.00    -0.003 C 
ATOM      4  C   UNL     1      27.766  60.335 -10.847  1.00  0.00     0.004 C 
ENDBRANCH   2   3
ENDBRANCH   1   2
BRANCH   1   5
ATOM      5  C   UNL     1      24.599  56.970  -8.589  1.00  0.00     0.075 C 
BRANCH   5   6
ATOM      6  C   UNL     1      24.429  55.549  -8.120  1.00  0.00     0.129 C 
ATOM      7  O   UNL     1      25.396  54.803  -8.079  1.00  0.00    -0.300 OA
ATOM      8  C   UNL     1      23.085  55.046  -7.688  1.00  0.00     0.087 C 
ENDBRANCH   5   6
ENDBRANCH   1   5
TORSDOF 4
ENDMDL
MODEL 2
REMARK VINA RESULT:    -3.762      2.332      5.131
REMARK INTER + INTRA:          -4.690
REMARK INTER:                  -4.610
REMARK INTRA:                  -0.079
REMARK UNBOUND:                -0.048
REMARK SMILES CCCCCC(C)=O
REMARK SMILES IDX 4 1 3 2 2 3 1 4 5 5 6 6 8 7 7 8
REMARK H PARENT
REMARK Flexibility Score: inf
ROOT
ATOM      1  C   UNL     1      25.865  57.308  -9.383  1.00  0.00     0.008 C 
ENDROOT
BRANCH   1   2
ATOM      2  C   UNL     1      25.002  56.676  -8.272  1.00  0.00     0.000 C 
BRANCH   2   3
ATOM      3  C   UNL     1      24.348  55.333  -8.645  1.00  0.00    -0.003 C 
ATOM      4  C   UNL     1      23.092  55.032  -7.828  1.00  0.00     0.004 C 
ENDBRANCH   2   3
ENDBRANCH   1   2
BRANCH   1   5
ATOM      5  C   UNL     1      25.850  58.845  -9.398  1.00  0.00     0.075 C 
BRANCH   5   6
ATOM      6  C   UNL     1      27.022  59.418 -10.151  1.00  0.00     0.129 C 
ATOM      7  O   UNL     1      27.443  60.529  -9.863  1.00  0.00    -0.300 OA
ATOM      8  C   UNL     1      27.685  58.631 -11.240  1.00  0.00     0.087 C 
ENDBRANCH   5   6
ENDBRANCH   1   5
TORSDOF 4
ENDMDL
MODEL 3
REMARK VINA RESULT:    -3.643      1.634      2.464
REMARK INTER + INTRA:          -4.542
REMARK INTER:                  -4.489
REMARK INTRA:                  -0.054
REMARK UNBOUND:                -0.048
REMARK SMILES CCCCCC(C)=O
REMARK SMILES IDX 4 1 3 2 2 3 1 4 5 5 6 6 8 7 7 8
REMARK H PARENT
REMARK Flexibility Score: inf
ROOT
ATOM      1  C   UNL     1      24.107  55.966  -8.622  1.00  0.00     0.008 C 
ENDROOT
BRANCH   1   2
ATOM      2  C   UNL     1      25.499  56.507  -9.006  1.00  0.00     0.000 C 
BRANCH   2   3
ATOM      3  C   UNL     1      25.565  58.030  -9.220  1.00  0.00    -0.003 C 
ATOM      4  C   UNL     1      26.746  58.461 -10.089  1.00  0.00     0.004 C 
ENDBRANCH   2   3
ENDBRANCH   1   2
BRANCH   1   5
ATOM      5  C   UNL     1      23.997  55.477  -7.168  1.00  0.00     0.075 C 
BRANCH   5   6
ATOM      6  C   UNL     1      22.762  54.647  -6.939  1.00  0.00     0.129 C 
ATOM      7  O   UNL     1      22.118  54.239  -7.894  1.00  0.00    -0.300 OA
ATOM      8  C   UNL     1      22.323  54.306  -5.547  1.00  0.00     0.087 C 
ENDBRANCH   5   6
ENDBRANCH   1   5
TORSDOF 4
ENDMDL
MODEL 4
REMARK VINA RESULT:    -3.610     16.564     18.364
REMARK INTER + INTRA:          -4.502
REMARK INTER:                  -4.240
REMARK INTRA:                  -0.263
REMARK UNBOUND:                -0.048
REMARK SMILES CCCCCC(C)=O
REMARK SMILES IDX 4 1 3 2 2 3 1 4 5 5 6 6 8 7 7 8
REMARK H PARENT
REMARK Flexibility Score: inf
ROOT
ATOM      1  C   UNL     1      17.000  43.699   1.124  1.00  0.00     0.008 C 
ENDROOT
BRANCH   1   2
ATOM      2  C   UNL     1      15.855  44.554   1.706  1.00  0.00     0.000 C 
BRANCH   2   3
ATOM      3  C   UNL     1      15.022  45.316   0.661  1.00  0.00    -0.003 C 
ATOM      4  C   UNL     1      15.691  45.375  -0.712  1.00  0.00     0.004 C 
ENDBRANCH   2   3
ENDBRANCH   1   2
BRANCH   1   5
ATOM      5  C   UNL     1      18.363  43.923   1.800  1.00  0.00     0.075 C 
BRANCH   5   6
ATOM      6  C   UNL     1      19.474  44.093   0.798  1.00  0.00     0.129 C 
ATOM      7  O   UNL     1      20.454  43.364   0.848  1.00  0.00    -0.300 OA
ATOM      8  C   UNL     1      19.381  45.141  -0.269  1.00  0.00     0.087 C 
ENDBRANCH   5   6
ENDBRANCH   1   5
TORSDOF 4
ENDMDL
MODEL 5
REMARK VINA RESULT:    -3.532     15.371     16.899
REMARK INTER + INTRA:          -4.405
REMARK INTER:                  -4.278
REMARK INTRA:                  -0.127
REMARK UNBOUND:                -0.048
REMARK SMILES CCCCCC(C)=O
REMARK SMILES IDX 4 1 3 2 2 3 1 4 5 5 6 6 8 7 7 8
REMARK H PARENT
REMARK Flexibility Score: inf
ROOT
ATOM      1  C   UNL     1      31.508  44.718   1.789  1.00  0.00     0.008 C 
ENDROOT
BRANCH   1   2
ATOM      2  C   UNL     1      32.627  45.708   2.173  1.00  0.00     0.000 C 
BRANCH   2   3
ATOM      3  C   UNL     1      32.600  46.177   3.639  1.00  0.00    -0.003 C 
ATOM      4  C   UNL     1      32.016  47.579   3.808  1.00  0.00     0.004 C 
ENDBRANCH   2   3
ENDBRANCH   1   2
BRANCH   1   5
ATOM      5  C   UNL     1      30.184  45.386   1.386  1.00  0.00     0.075 C 
BRANCH   5   6
ATOM      6  C   UNL     1      29.704  44.929   0.033  1.00  0.00     0.129 C 
ATOM      7  O   UNL     1      30.344  44.091  -0.586  1.00  0.00    -0.300 OA
ATOM      8  C   UNL     1      28.442  45.483  -0.554  1.00  0.00     0.087 C 
ENDBRANCH   5   6
ENDBRANCH   1   5
TORSDOF 4
ENDMDL
MODEL 6
REMARK VINA RESULT:    -3.510      4.148      6.566
REMARK INTER + INTRA:          -4.379
REMARK INTER:                  -4.241
REMARK INTRA:                  -0.138
REMARK UNBOUND:                -0.048
REMARK SMILES CCCCCC(C)=O
REMARK SMILES IDX 4 1 3 2 2 3 1 4 5 5 6 6 8 7 7 8
REMARK H PARENT
REMARK Flexibility Score: inf
ROOT
ATOM      1  C   UNL     1      29.659  59.183 -12.765  1.00  0.00     0.008 C 
ENDROOT
BRANCH   1   2
ATOM      2  C   UNL     1      28.775  59.615 -11.578  1.00  0.00     0.000 C 
BRANCH   2   3
ATOM      3  C   UNL     1      27.652  58.627 -11.213  1.00  0.00    -0.003 C 
ATOM      4  C   UNL     1      26.791  59.105 -10.044  1.00  0.00     0.004 C 
ENDBRANCH   2   3
ENDBRANCH   1   2
BRANCH   1   5
ATOM      5  C   UNL     1      29.494  57.709 -13.172  1.00  0.00     0.075 C 
BRANCH   5   6
ATOM      6  C   UNL     1      30.818  57.036 -13.419  1.00  0.00     0.129 C 
ATOM      7  O   UNL     1      30.916  55.823 -13.294  1.00  0.00    -0.300 OA
ATOM      8  C   UNL     1      32.015  57.838 -13.831  1.00  0.00     0.087 C 
ENDBRANCH   5   6
ENDBRANCH   1   5
TORSDOF 4
ENDMDL
MODEL 7
REMARK VINA RESULT:    -3.497     16.927     18.469
REMARK INTER + INTRA:          -4.362
REMARK INTER:                  -4.065
REMARK INTRA:                  -0.297
REMARK UNBOUND:                -0.048
REMARK SMILES CCCCCC(C)=O
REMARK SMILES IDX 4 1 3 2 2 3 1 4 5 5 6 6 8 7 7 8
REMARK H PARENT
REMARK Flexibility Score: inf
ROOT
ATOM      1  C   UNL     1      17.730  44.924  -0.143  1.00  0.00     0.008 C 
ENDROOT
BRANCH   1   2
ATOM      2  C   UNL     1      17.038  43.546  -0.139  1.00  0.00     0.000 C 
BRANCH   2   3
ATOM      3  C   UNL     1      16.076  43.309   1.040  1.00  0.00    -0.003 C 
ATOM      4  C   UNL     1      15.712  44.594   1.783  1.00  0.00     0.004 C 
ENDBRANCH   2   3
ENDBRANCH   1   2
BRANCH   1   5
ATOM      5  C   UNL     1      19.266  44.860  -0.102  1.00  0.00     0.075 C 
BRANCH   5   6
ATOM      6  C   UNL     1      19.770  44.015   1.039  1.00  0.00     0.129 C 
ATOM      7  O   UNL     1      19.444  44.287   2.185  1.00  0.00    -0.300 OA
ATOM      8  C   UNL     1      20.656  42.835   0.778  1.00  0.00     0.087 C 
ENDBRANCH   5   6
ENDBRANCH   1   5
TORSDOF 4
ENDMDL
MODEL 8
REMARK VINA RESULT:    -3.465      4.602      6.351
REMARK INTER + INTRA:          -4.323
REMARK INTER:                  -4.163
REMARK INTRA:                  -0.160
REMARK UNBOUND:                -0.048
REMARK SMILES CCCCCC(C)=O
REMARK SMILES IDX 4 1 3 2 2 3 1 4 5 5 6 6 8 7 7 8
REMARK H PARENT
REMARK Flexibility Score: inf
ROOT
ATOM      1  C   UNL     1      30.084  58.626 -13.168  1.00  0.00     0.008 C 
ENDROOT
BRANCH   1   2
ATOM      2  C   UNL     1      30.175  57.107 -13.421  1.00  0.00     0.000 C 
BRANCH   2   3
ATOM      3  C   UNL     1      31.579  56.596 -13.793  1.00  0.00    -0.003 C 
ATOM      4  C   UNL     1      32.513  57.708 -14.268  1.00  0.00     0.004 C 
ENDBRANCH   2   3
ENDBRANCH   1   2
BRANCH   1   5
ATOM      5  C   UNL     1      29.897  59.011 -11.691  1.00  0.00     0.075 C 
BRANCH   5   6
ATOM      6  C   UNL     1      28.513  59.534 -11.410  1.00  0.00     0.129 C 
ATOM      7  O   UNL     1      28.248  60.705 -11.640  1.00  0.00    -0.300 OA
ATOM      8  C   UNL     1      27.453  58.626 -10.864  1.00  0.00     0.087 C 
ENDBRANCH   5   6
ENDBRANCH   1   5
TORSDOF 4
ENDMDL
MODEL 9
REMARK VINA RESULT:    -3.461     17.612     18.833
REMARK INTER + INTRA:          -4.318
REMARK INTER:                  -3.945
REMARK INTRA:                  -0.373
REMARK UNBOUND:                -0.048
REMARK SMILES CCCCCC(C)=O
REMARK SMILES IDX 4 1 3 2 2 3 1 4 5 5 6 6 8 7 7 8
REMARK H PARENT
REMARK Flexibility Score: inf
ROOT
ATOM      1  C   UNL     1      17.440  43.864   1.495  1.00  0.00     0.008 C 
ENDROOT
BRANCH   1   2
ATOM      2  C   UNL     1      16.938  42.491   1.004  1.00  0.00     0.000 C 
BRANCH   2   3
ATOM      3  C   UNL     1      16.690  42.397  -0.513  1.00  0.00    -0.003 C 
ATOM      4  C   UNL     1      17.647  41.436  -1.217  1.00  0.00     0.004 C 
ENDBRANCH   2   3
ENDBRANCH   1   2
BRANCH   1   5
ATOM      5  C   UNL     1      18.932  43.898   1.861  1.00  0.00     0.075 C 
BRANCH   5   6
ATOM      6  C   UNL     1      19.819  43.821   0.646  1.00  0.00     0.129 C 
ATOM      7  O   UNL     1      19.721  44.667  -0.231  1.00  0.00    -0.300 OA
ATOM      8  C   UNL     1      20.830  42.724   0.510  1.00  0.00     0.087 C 
ENDBRANCH   5   6
ENDBRANCH   1   5
TORSDOF 4
ENDMDL
