MODEL 1
REMARK VINA RESULT:     0.107      0.000      0.000
REMARK INTER + INTRA:           0.634
REMARK INTER:                   0.135
REMARK INTRA:                   0.498
REMARK UNBOUND:                 0.498
REMARK SMILES O[C@@H]1OC[C@H](Cc2ccc3c(c2)OCO3)[C@H]1Cc1ccc2c(c1)OCO2
REMARK SMILES IDX 4 1 5 2 16 3 2 4 3 5 6 6 7 7 12 8 8 9 11 10 9 11 10 12 13 13
REMARK SMILES IDX 15 14 14 15 17 16 18 17 23 18 19 19 22 20 20 21 21 22 24 23
REMARK SMILES IDX 26 24 25 25 1 26
REMARK H PARENT 1 27
REMARK Flexibility Score: inf
ROOT
ATOM      1  C   UNL     1     -19.621 -37.100 -13.966  1.00  0.00     0.168 C 
ATOM      2  C   UNL     1     -18.683 -37.125 -12.765  1.00  0.00     0.028 C 
ATOM      3  C   UNL     1     -17.493 -36.285 -13.234  1.00  0.00     0.055 C 
ATOM      4  C   UNL     1     -17.931 -35.760 -14.612  1.00  0.00     0.250 C 
ATOM      5  O   UNL     1     -19.318 -35.967 -14.739  1.00  0.00    -0.352 OA
ENDROOT
BRANCH   2   6
ATOM      6  C   UNL     1     -19.362 -36.545 -11.503  1.00  0.00     0.042 C 
BRANCH   6   7
ATOM      7  C   UNL     1     -18.420 -36.525 -10.323  1.00  0.00    -0.044 A 
ATOM      8  C   UNL     1     -18.917 -36.302  -9.018  1.00  0.00     0.054 A 
ATOM      9  C   UNL     1     -17.024 -36.690 -10.523  1.00  0.00     0.008 A 
ATOM     10  C   UNL     1     -18.002 -36.254  -7.969  1.00  0.00     0.166 A 
ATOM     11  C   UNL     1     -16.135 -36.643  -9.431  1.00  0.00     0.051 A 
ATOM     12  C   UNL     1     -16.669 -36.416  -8.166  1.00  0.00     0.165 A 
ATOM     13  O   UNL     1     -18.246 -36.033  -6.626  1.00  0.00    -0.454 OA
ATOM     14  O   UNL     1     -16.007 -36.299  -6.960  1.00  0.00    -0.454 OA
ATOM     15  C   UNL     1     -16.989 -36.080  -5.934  1.00  0.00     0.468 C 
ENDBRANCH   6   7
ENDBRANCH   2   6
BRANCH   3  16
ATOM     16  C   UNL     1     -16.196 -37.124 -13.289  1.00  0.00     0.044 C 
BRANCH  16  17
ATOM     17  C   UNL     1     -15.035 -36.330 -13.825  1.00  0.00    -0.044 A 
ATOM     18  C   UNL     1     -14.870 -34.979 -13.439  1.00  0.00     0.054 A 
ATOM     19  C   UNL     1     -14.106 -36.925 -14.718  1.00  0.00     0.008 A 
ATOM     20  C   UNL     1     -13.773 -34.286 -13.941  1.00  0.00     0.166 A 
ATOM     21  C   UNL     1     -13.014 -36.187 -15.207  1.00  0.00     0.051 A 
ATOM     22  C   UNL     1     -12.883 -34.867 -14.786  1.00  0.00     0.165 A 
ATOM     23  O   UNL     1     -13.391 -32.980 -13.694  1.00  0.00    -0.454 OA
ATOM     24  O   UNL     1     -11.896 -33.956 -15.112  1.00  0.00    -0.454 OA
ATOM     25  C   UNL     1     -12.178 -32.730 -14.419  1.00  0.00     0.468 C 
ENDBRANCH  16  17
ENDBRANCH   3  16
BRANCH   4  26
ATOM     26  O   UNL     1     -17.673 -34.381 -14.723  1.00  0.00    -0.368 OA
ATOM     27  H   UNL     1     -18.518 -33.957 -15.030  1.00  0.00     0.213 HD
ENDBRANCH   4  26
TORSDOF 5
ENDMDL
MODEL 2
REMARK VINA RESULT:     2.082      0.639      6.657
REMARK INTER + INTRA:           3.127
REMARK INTER:                   0.934
REMARK INTRA:                   2.193
REMARK UNBOUND:                 0.498
REMARK SMILES O[C@@H]1OC[C@H](Cc2ccc3c(c2)OCO3)[C@H]1Cc1ccc2c(c1)OCO2
REMARK SMILES IDX 4 1 5 2 16 3 2 4 3 5 6 6 7 7 12 8 8 9 11 10 9 11 10 12 13 13
REMARK SMILES IDX 15 14 14 15 17 16 18 17 23 18 19 19 22 20 20 21 21 22 24 23
REMARK SMILES IDX 26 24 25 25 1 26
REMARK H PARENT 1 27
REMARK Flexibility Score: inf
ROOT
ATOM      1  C   UNL     1     -17.022 -35.074 -13.616  1.00  0.00     0.168 C 
ATOM      2  C   UNL     1     -16.911 -36.283 -12.696  1.00  0.00     0.028 C 
ATOM      3  C   UNL     1     -18.213 -37.044 -12.960  1.00  0.00     0.055 C 
ATOM      4  C   UNL     1     -18.876 -36.254 -14.101  1.00  0.00     0.250 C 
ATOM      5  O   UNL     1     -17.913 -35.390 -14.655  1.00  0.00    -0.352 OA
ENDROOT
BRANCH   2   6
ATOM      6  C   UNL     1     -15.654 -37.124 -13.013  1.00  0.00     0.042 C 
BRANCH   6   7
ATOM      7  C   UNL     1     -14.586 -36.297 -13.689  1.00  0.00    -0.044 A 
ATOM      8  C   UNL     1     -14.336 -34.971 -13.267  1.00  0.00     0.054 A 
ATOM      9  C   UNL     1     -13.854 -36.834 -14.781  1.00  0.00     0.008 A 
ATOM     10  C   UNL     1     -13.368 -34.238 -13.948  1.00  0.00     0.166 A 
ATOM     11  C   UNL     1     -12.876 -36.060 -15.437  1.00  0.00     0.051 A 
ATOM     12  C   UNL     1     -12.669 -34.759 -14.989  1.00  0.00     0.165 A 
ATOM     13  O   UNL     1     -12.968 -32.933 -13.731  1.00  0.00    -0.454 OA
ATOM     14  O   UNL     1     -11.800 -33.806 -15.483  1.00  0.00    -0.454 OA
ATOM     15  C   UNL     1     -11.938 -32.621 -14.682  1.00  0.00     0.468 C 
ENDBRANCH   6   7
ENDBRANCH   2   6
BRANCH   3  16
ATOM     16  C   UNL     1     -19.088 -37.125 -11.689  1.00  0.00     0.044 C 
BRANCH  16  17
ATOM     17  C   UNL     1     -18.309 -36.785 -10.448  1.00  0.00    -0.044 A 
ATOM     18  C   UNL     1     -18.992 -36.377  -9.278  1.00  0.00     0.054 A 
ATOM     19  C   UNL     1     -16.891 -36.867 -10.443  1.00  0.00     0.008 A 
ATOM     20  C   UNL     1     -18.234 -36.091  -8.146  1.00  0.00     0.166 A 
ATOM     21  C   UNL     1     -16.164 -36.563  -9.278  1.00  0.00     0.051 A 
ATOM     22  C   UNL     1     -16.880 -36.183  -8.147  1.00  0.00     0.165 A 
ATOM     23  O   UNL     1     -18.670 -35.700  -6.893  1.00  0.00    -0.454 OA
ATOM     24  O   UNL     1     -16.396 -35.855  -6.895  1.00  0.00    -0.454 OA
ATOM     25  C   UNL     1     -17.518 -35.549  -6.052  1.00  0.00     0.468 C 
ENDBRANCH  16  17
ENDBRANCH   3  16
BRANCH   4  26
ATOM     26  O   UNL     1     -19.328 -37.125 -15.110  1.00  0.00    -0.368 OA
ATOM     27  H   UNL     1     -18.624 -37.137 -15.812  1.00  0.00     0.213 HD
ENDBRANCH   4  26
TORSDOF 5
ENDMDL
