MODEL 1
REMARK VINA RESULT:    -3.492      0.000      0.000
REMARK INTER + INTRA:          -5.353
REMARK INTER:                  -5.124
REMARK INTRA:                  -0.228
REMARK UNBOUND:                -0.228
REMARK SMILES O=C([O-])CCCCCCCC(=O)[O-]
REMARK SMILES IDX 7 1 6 2 5 3 4 4 2 5 1 6 3 7 8 8 9 9 10 10 11 11 12 12 13 13
REMARK H PARENT
REMARK Flexibility Score: inf
ROOT
ATOM      1  C   UNL     1      11.301  -2.779   9.776  1.00  0.00     0.000 C 
ENDROOT
BRANCH   1   2
ATOM      2  C   UNL     1      11.673  -2.729  11.267  1.00  0.00     0.000 C 
BRANCH   2   3
ATOM      3  C   UNL     1      13.195  -2.704  11.499  1.00  0.00     0.006 C 
BRANCH   3   4
ATOM      4  C   UNL     1      13.720  -1.282  11.735  1.00  0.00     0.053 C 
BRANCH   4   5
ATOM      5  C   UNL     1      15.020  -1.287  12.481  1.00  0.00     0.041 C 
ATOM      6  O   UNL     1      15.657  -0.213  12.650  1.00  0.00    -0.550 OA
ATOM      7  O   UNL     1      15.546  -2.481  12.957  1.00  0.00    -0.550 OA
ENDBRANCH   4   5
ENDBRANCH   3   4
ENDBRANCH   2   3
ENDBRANCH   1   2
BRANCH   1   8
ATOM      8  C   UNL     1      10.400  -3.978   9.433  1.00  0.00     0.000 C 
BRANCH   8   9
ATOM      9  C   UNL     1      10.145  -4.118   7.921  1.00  0.00     0.006 C 
BRANCH   9  10
ATOM     10  C   UNL     1      11.125  -3.330   7.036  1.00  0.00     0.053 C 
BRANCH  10  11
ATOM     11  C   UNL     1      11.199  -3.886   5.647  1.00  0.00     0.041 C 
ATOM     12  O   UNL     1      10.144  -4.125   5.003  1.00  0.00    -0.550 OA
ATOM     13  O   UNL     1      12.434  -4.110   5.052  1.00  0.00    -0.550 OA
ENDBRANCH  10  11
ENDBRANCH   9  10
ENDBRANCH   8   9
ENDBRANCH   1   8
TORSDOF 8
ENDMDL
MODEL 2
REMARK VINA RESULT:    -3.016      2.685      6.975
REMARK INTER + INTRA:          -4.654
REMARK INTER:                  -4.331
REMARK INTRA:                  -0.323
REMARK UNBOUND:                -0.228
REMARK SMILES O=C([O-])CCCCCCCC(=O)[O-]
REMARK SMILES IDX 7 1 6 2 5 3 4 4 2 5 1 6 3 7 8 8 9 9 10 10 11 11 12 12 13 13
REMARK H PARENT
REMARK Flexibility Score: inf
ROOT
ATOM      1  C   UNL     1      13.830  -0.862  11.980  1.00  0.00     0.000 C 
ENDROOT
BRANCH   1   2
ATOM      2  C   UNL     1      12.757  -1.485  11.071  1.00  0.00     0.000 C 
BRANCH   2   3
ATOM      3  C   UNL     1      12.064  -2.698  11.717  1.00  0.00     0.006 C 
BRANCH   3   4
ATOM      4  C   UNL     1      11.655  -3.750  10.678  1.00  0.00     0.053 C 
BRANCH   4   5
ATOM      5  C   UNL     1      10.476  -3.302   9.868  1.00  0.00     0.041 C 
ATOM      6  O   UNL     1       9.806  -2.298  10.226  1.00  0.00    -0.550 OA
ATOM      7  O   UNL     1      10.097  -4.015   8.738  1.00  0.00    -0.550 OA
ENDBRANCH   4   5
ENDBRANCH   3   4
ENDBRANCH   2   3
ENDBRANCH   1   2
BRANCH   1   8
ATOM      8  C   UNL     1      15.259  -1.216  11.533  1.00  0.00     0.000 C 
BRANCH   8   9
ATOM      9  C   UNL     1      16.125  -1.761  12.684  1.00  0.00     0.006 C 
BRANCH   9  10
ATOM     10  C   UNL     1      16.066  -3.288  12.856  1.00  0.00     0.053 C 
BRANCH  10  11
ATOM     11  C   UNL     1      15.457  -3.683  14.165  1.00  0.00     0.041 C 
ATOM     12  O   UNL     1      16.124  -3.590  15.229  1.00  0.00    -0.550 OA
ATOM     13  O   UNL     1      14.141  -4.125  14.216  1.00  0.00    -0.550 OA
ENDBRANCH  10  11
ENDBRANCH   9  10
ENDBRANCH   8   9
ENDBRANCH   1   8
TORSDOF 8
ENDMDL
MODEL 3
REMARK VINA RESULT:    -2.885      0.400      6.764
REMARK INTER + INTRA:          -4.463
REMARK INTER:                  -4.214
REMARK INTRA:                  -0.248
REMARK UNBOUND:                -0.228
REMARK SMILES O=C([O-])CCCCCCCC(=O)[O-]
REMARK SMILES IDX 7 1 6 2 5 3 4 4 2 5 1 6 3 7 8 8 9 9 10 10 11 11 12 12 13 13
REMARK H PARENT
REMARK Flexibility Score: inf
ROOT
ATOM      1  C   UNL     1      11.282  -3.034   9.921  1.00  0.00     0.000 C 
ENDROOT
BRANCH   1   2
ATOM      2  C   UNL     1      10.286  -4.119   9.480  1.00  0.00     0.000 C 
BRANCH   2   3
ATOM      3  C   UNL     1      10.050  -4.125   7.959  1.00  0.00     0.006 C 
BRANCH   3   4
ATOM      4  C   UNL     1      11.152  -3.374   7.200  1.00  0.00     0.053 C 
BRANCH   4   5
ATOM      5  C   UNL     1      11.192  -3.760   5.753  1.00  0.00     0.041 C 
ATOM      6  O   UNL     1      10.139  -4.124   5.166  1.00  0.00    -0.550 OA
ATOM      7  O   UNL     1      12.397  -3.753   5.063  1.00  0.00    -0.550 OA
ENDBRANCH   4   5
ENDBRANCH   3   4
ENDBRANCH   2   3
ENDBRANCH   1   2
BRANCH   1   8
ATOM      8  C   UNL     1      11.462  -2.985  11.449  1.00  0.00     0.000 C 
BRANCH   8   9
ATOM      9  C   UNL     1      12.941  -3.024  11.875  1.00  0.00     0.006 C 
BRANCH   9  10
ATOM     10  C   UNL     1      13.682  -1.685  11.722  1.00  0.00     0.053 C 
BRANCH  10  11
ATOM     11  C   UNL     1      15.096  -1.766  12.208  1.00  0.00     0.041 C 
ATOM     12  O   UNL     1      15.825  -0.740  12.211  1.00  0.00    -0.550 OA
ATOM     13  O   UNL     1      15.599  -2.968  12.690  1.00  0.00    -0.550 OA
ENDBRANCH  10  11
ENDBRANCH   9  10
ENDBRANCH   8   9
ENDBRANCH   1   8
TORSDOF 8
ENDMDL
MODEL 4
REMARK VINA RESULT:    -2.745      2.380      3.739
REMARK INTER + INTRA:          -4.257
REMARK INTER:                  -4.460
REMARK INTRA:                   0.203
REMARK UNBOUND:                -0.228
REMARK SMILES O=C([O-])CCCCCCCC(=O)[O-]
REMARK SMILES IDX 7 1 6 2 5 3 4 4 2 5 1 6 3 7 8 8 9 9 10 10 11 11 12 12 13 13
REMARK H PARENT
REMARK Flexibility Score: inf
ROOT
ATOM      1  C   UNL     1      13.917  -4.117  12.609  1.00  0.00     0.000 C 
ENDROOT
BRANCH   1   2
ATOM      2  C   UNL     1      14.791  -3.917  13.857  1.00  0.00     0.000 C 
BRANCH   2   3
ATOM      3  C   UNL     1      16.119  -3.205  13.544  1.00  0.00     0.006 C 
BRANCH   3   4
ATOM      4  C   UNL     1      16.120  -1.747  14.021  1.00  0.00     0.053 C 
BRANCH   4   5
ATOM      5  C   UNL     1      16.064  -0.787  12.872  1.00  0.00     0.041 C 
ATOM      6  O   UNL     1      15.928   0.448  13.084  1.00  0.00    -0.550 OA
ATOM      7  O   UNL     1      16.125  -1.258  11.567  1.00  0.00    -0.550 OA
ENDBRANCH   4   5
ENDBRANCH   3   4
ENDBRANCH   2   3
ENDBRANCH   1   2
BRANCH   1   8
ATOM      8  C   UNL     1      13.588  -2.791  11.901  1.00  0.00     0.000 C 
BRANCH   8   9
ATOM      9  C   UNL     1      12.112  -2.696  11.471  1.00  0.00     0.006 C 
BRANCH   9  10
ATOM     10  C   UNL     1      11.668  -3.782  10.478  1.00  0.00     0.053 C 
BRANCH  10  11
ATOM     11  C   UNL     1      10.436  -3.386   9.725  1.00  0.00     0.041 C 
ATOM     12  O   UNL     1      10.148  -3.952   8.638  1.00  0.00    -0.550 OA
ATOM     13  O   UNL     1       9.588  -2.413  10.239  1.00  0.00    -0.550 OA
ENDBRANCH  10  11
ENDBRANCH   9  10
ENDBRANCH   8   9
ENDBRANCH   1   8
TORSDOF 8
ENDMDL
MODEL 5
REMARK VINA RESULT:    -2.595      2.549      3.993
REMARK INTER + INTRA:          -4.037
REMARK INTER:                  -4.762
REMARK INTRA:                   0.725
REMARK UNBOUND:                -0.228
REMARK SMILES O=C([O-])CCCCCCCC(=O)[O-]
REMARK SMILES IDX 7 1 6 2 5 3 4 4 2 5 1 6 3 7 8 8 9 9 10 10 11 11 12 12 13 13
REMARK H PARENT
REMARK Flexibility Score: inf
ROOT
ATOM      1  C   UNL     1      13.980  -0.903  12.546  1.00  0.00     0.000 C 
ENDROOT
BRANCH   1   2
ATOM      2  C   UNL     1      15.511  -0.995  12.648  1.00  0.00     0.000 C 
BRANCH   2   3
ATOM      3  C   UNL     1      16.079  -2.236  11.937  1.00  0.00     0.006 C 
BRANCH   3   4
ATOM      4  C   UNL     1      15.569  -3.543  12.558  1.00  0.00     0.053 C 
BRANCH   4   5
ATOM      5  C   UNL     1      15.374  -3.416  14.039  1.00  0.00     0.041 C 
ATOM      6  O   UNL     1      14.508  -4.116  14.626  1.00  0.00    -0.550 OA
ATOM      7  O   UNL     1      16.124  -2.498  14.764  1.00  0.00    -0.550 OA
ENDBRANCH   4   5
ENDBRANCH   3   4
ENDBRANCH   2   3
ENDBRANCH   1   2
BRANCH   1   8
ATOM      8  C   UNL     1      13.448  -1.405  11.192  1.00  0.00     0.000 C 
BRANCH   8   9
ATOM      9  C   UNL     1      11.941  -1.723  11.225  1.00  0.00     0.006 C 
BRANCH   9  10
ATOM     10  C   UNL     1      11.581  -3.145  10.765  1.00  0.00     0.053 C 
BRANCH  10  11
ATOM     11  C   UNL     1      10.376  -3.160   9.876  1.00  0.00     0.041 C 
ATOM     12  O   UNL     1       9.448  -2.328  10.054  1.00  0.00    -0.550 OA
ATOM     13  O   UNL     1      10.293  -4.071   8.832  1.00  0.00    -0.550 OA
ENDBRANCH  10  11
ENDBRANCH   9  10
ENDBRANCH   8   9
ENDBRANCH   1   8
TORSDOF 8
ENDMDL
MODEL 6
REMARK VINA RESULT:    -2.563      1.111      1.458
REMARK INTER + INTRA:          -3.990
REMARK INTER:                  -4.171
REMARK INTRA:                   0.181
REMARK UNBOUND:                -0.228
REMARK SMILES O=C([O-])CCCCCCCC(=O)[O-]
REMARK SMILES IDX 7 1 6 2 5 3 4 4 2 5 1 6 3 7 8 8 9 9 10 10 11 11 12 12 13 13
REMARK H PARENT
REMARK Flexibility Score: inf
ROOT
ATOM      1  C   UNL     1      11.318  -2.186  10.891  1.00  0.00     0.000 C 
ENDROOT
BRANCH   1   2
ATOM      2  C   UNL     1      12.779  -2.471  11.276  1.00  0.00     0.000 C 
BRANCH   2   3
ATOM      3  C   UNL     1      13.478  -1.249  11.898  1.00  0.00     0.006 C 
BRANCH   3   4
ATOM      4  C   UNL     1      14.985  -1.474  12.077  1.00  0.00     0.053 C 
BRANCH   4   5
ATOM      5  C   UNL     1      15.271  -2.696  12.895  1.00  0.00     0.041 C 
ATOM      6  O   UNL     1      15.756  -2.585  14.052  1.00  0.00    -0.550 OA
ATOM      7  O   UNL     1      15.037  -3.959  12.366  1.00  0.00    -0.550 OA
ENDBRANCH   4   5
ENDBRANCH   3   4
ENDBRANCH   2   3
ENDBRANCH   1   2
BRANCH   1   8
ATOM      8  C   UNL     1      10.655  -3.374  10.173  1.00  0.00     0.000 C 
BRANCH   8   9
ATOM      9  C   UNL     1      11.207  -3.594   8.752  1.00  0.00     0.006 C 
BRANCH   9  10
ATOM     10  C   UNL     1      10.143  -3.964   7.707  1.00  0.00     0.053 C 
BRANCH  10  11
ATOM     11  C   UNL     1      10.639  -3.772   6.307  1.00  0.00     0.041 C 
ATOM     12  O   UNL     1       9.921  -4.109   5.329  1.00  0.00    -0.550 OA
ATOM     13  O   UNL     1      11.879  -3.190   6.081  1.00  0.00    -0.550 OA
ENDBRANCH  10  11
ENDBRANCH   9  10
ENDBRANCH   8   9
ENDBRANCH   1   8
TORSDOF 8
ENDMDL
MODEL 7
REMARK VINA RESULT:    -2.289     11.907     15.783
REMARK INTER + INTRA:          -3.587
REMARK INTER:                  -3.134
REMARK INTRA:                  -0.454
REMARK UNBOUND:                -0.228
REMARK SMILES O=C([O-])CCCCCCCC(=O)[O-]
REMARK SMILES IDX 7 1 6 2 5 3 4 4 2 5 1 6 3 7 8 8 9 9 10 10 11 11 12 12 13 13
REMARK H PARENT
REMARK Flexibility Score: inf
ROOT
ATOM      1  C   UNL     1      -0.013  -1.903   1.343  1.00  0.00     0.000 C 
ENDROOT
BRANCH   1   2
ATOM      2  C   UNL     1      -0.398  -3.389   1.252  1.00  0.00     0.000 C 
BRANCH   2   3
ATOM      3  C   UNL     1      -0.010  -4.021  -0.096  1.00  0.00     0.006 C 
BRANCH   3   4
ATOM      4  C   UNL     1      -1.153  -3.951  -1.118  1.00  0.00     0.053 C 
BRANCH   4   5
ATOM      5  C   UNL     1      -0.855  -2.979  -2.218  1.00  0.00     0.041 C 
ATOM      6  O   UNL     1      -0.035  -3.280  -3.125  1.00  0.00    -0.550 OA
ATOM      7  O   UNL     1      -1.456  -1.726  -2.222  1.00  0.00    -0.550 OA
ENDBRANCH   4   5
ENDBRANCH   3   4
ENDBRANCH   2   3
ENDBRANCH   1   2
BRANCH   1   8
ATOM      8  C   UNL     1       1.317  -1.594   0.633  1.00  0.00     0.000 C 
BRANCH   8   9
ATOM      9  C   UNL     1       2.067  -0.407   1.265  1.00  0.00     0.006 C 
BRANCH   9  10
ATOM     10  C   UNL     1       3.364  -0.791   1.995  1.00  0.00     0.053 C 
BRANCH  10  11
ATOM     11  C   UNL     1       4.505  -0.992   1.046  1.00  0.00     0.041 C 
ATOM     12  O   UNL     1       4.504  -0.419  -0.076  1.00  0.00    -0.550 OA
ATOM     13  O   UNL     1       5.585  -1.785   1.412  1.00  0.00    -0.550 OA
ENDBRANCH  10  11
ENDBRANCH   9  10
ENDBRANCH   8   9
ENDBRANCH   1   8
TORSDOF 8
ENDMDL
MODEL 8
REMARK VINA RESULT:    -1.749     12.032     14.730
REMARK INTER + INTRA:          -2.795
REMARK INTER:                  -2.407
REMARK INTRA:                  -0.389
REMARK UNBOUND:                -0.228
REMARK SMILES O=C([O-])CCCCCCCC(=O)[O-]
REMARK SMILES IDX 7 1 6 2 5 3 4 4 2 5 1 6 3 7 8 8 9 9 10 10 11 11 12 12 13 13
REMARK H PARENT
REMARK Flexibility Score: inf
ROOT
ATOM      1  C   UNL     1      -0.363  -1.731   1.212  1.00  0.00     0.000 C 
ENDROOT
BRANCH   1   2
ATOM      2  C   UNL     1       1.040  -1.163   0.945  1.00  0.00     0.000 C 
BRANCH   2   3
ATOM      3  C   UNL     1       2.059  -1.567   2.026  1.00  0.00     0.006 C 
BRANCH   3   4
ATOM      4  C   UNL     1       3.215  -0.563   2.134  1.00  0.00     0.053 C 
BRANCH   4   5
ATOM      5  C   UNL     1       4.270  -0.817   1.102  1.00  0.00     0.041 C 
ATOM      6  O   UNL     1       4.109  -0.414  -0.081  1.00  0.00    -0.550 OA
ATOM      7  O   UNL     1       5.414  -1.530   1.436  1.00  0.00    -0.550 OA
ENDBRANCH   4   5
ENDBRANCH   3   4
ENDBRANCH   2   3
ENDBRANCH   1   2
BRANCH   1   8
ATOM      8  C   UNL     1      -0.371  -3.267   1.298  1.00  0.00     0.000 C 
BRANCH   8   9
ATOM      9  C   UNL     1      -0.000  -3.940  -0.036  1.00  0.00     0.006 C 
BRANCH   9  10
ATOM     10  C   UNL     1      -1.121  -3.928  -1.088  1.00  0.00     0.053 C 
BRANCH  10  11
ATOM     11  C   UNL     1      -0.778  -3.068  -2.265  1.00  0.00     0.041 C 
ATOM     12  O   UNL     1       0.048  -3.471  -3.125  1.00  0.00    -0.550 OA
ATOM     13  O   UNL     1      -1.396  -1.835  -2.430  1.00  0.00    -0.550 OA
ENDBRANCH  10  11
ENDBRANCH   9  10
ENDBRANCH   8   9
ENDBRANCH   1   8
TORSDOF 8
ENDMDL
