MODEL 1
REMARK VINA RESULT:    -3.312      0.000      0.000
REMARK INTER + INTRA:          -4.007
REMARK INTER:                  -3.893
REMARK INTRA:                  -0.114
REMARK UNBOUND:                -0.114
REMARK SMILES O=C([O-])CCC(=O)[O-]
REMARK SMILES IDX 4 1 2 2 1 3 3 4 5 5 6 6 7 7 8 8
REMARK H PARENT
REMARK Flexibility Score: inf
ROOT
ATOM      1  C   UNL     1     -27.909 -21.399 -28.317  1.00  0.00     0.059 C 
ENDROOT
BRANCH   1   2
ATOM      2  C   UNL     1     -26.552 -21.243 -28.933  1.00  0.00     0.042 C 
ATOM      3  O   UNL     1     -26.029 -20.102 -29.033  1.00  0.00    -0.550 OA
ATOM      4  O   UNL     1     -25.849 -22.363 -29.361  1.00  0.00    -0.550 OA
ENDBRANCH   1   2
BRANCH   1   5
ATOM      5  C   UNL     1     -28.537 -20.041 -27.985  1.00  0.00     0.059 C 
BRANCH   5   6
ATOM      6  C   UNL     1     -28.662 -19.838 -26.506  1.00  0.00     0.042 C 
ATOM      7  O   UNL     1     -29.799 -19.742 -25.973  1.00  0.00    -0.550 OA
ATOM      8  O   UNL     1     -27.522 -19.715 -25.722  1.00  0.00    -0.550 OA
ENDBRANCH   5   6
ENDBRANCH   1   5
TORSDOF 3
ENDMDL
MODEL 2
REMARK VINA RESULT:    -3.269      0.835      3.871
REMARK INTER + INTRA:          -3.957
REMARK INTER:                  -3.837
REMARK INTRA:                  -0.120
REMARK UNBOUND:                -0.114
REMARK SMILES O=C([O-])CCC(=O)[O-]
REMARK SMILES IDX 4 1 2 2 1 3 3 4 5 5 6 6 7 7 8 8
REMARK H PARENT
REMARK Flexibility Score: inf
ROOT
ATOM      1  C   UNL     1     -28.075 -20.065 -28.096  1.00  0.00     0.059 C 
ENDROOT
BRANCH   1   2
ATOM      2  C   UNL     1     -28.427 -19.819 -26.661  1.00  0.00     0.042 C 
ATOM      3  O   UNL     1     -29.634 -19.747 -26.308  1.00  0.00    -0.550 OA
ATOM      4  O   UNL     1     -27.423 -19.710 -25.707  1.00  0.00    -0.550 OA
ENDBRANCH   1   2
BRANCH   1   5
ATOM      5  C   UNL     1     -27.789 -21.547 -28.361  1.00  0.00     0.059 C 
BRANCH   5   6
ATOM      6  C   UNL     1     -26.341 -21.784 -28.665  1.00  0.00     0.042 C 
ATOM      7  O   UNL     1     -25.992 -22.199 -29.801  1.00  0.00    -0.550 OA
ATOM      8  O   UNL     1     -25.383 -21.583 -27.680  1.00  0.00    -0.550 OA
ENDBRANCH   5   6
ENDBRANCH   1   5
TORSDOF 3
ENDMDL
MODEL 3
REMARK VINA RESULT:    -3.019     13.492     14.602
REMARK INTER + INTRA:          -3.663
REMARK INTER:                  -3.562
REMARK INTRA:                  -0.101
REMARK UNBOUND:                -0.114
REMARK SMILES O=C([O-])CCC(=O)[O-]
REMARK SMILES IDX 4 1 2 2 1 3 3 4 5 5 6 6 7 7 8 8
REMARK H PARENT
REMARK Flexibility Score: inf
ROOT
ATOM      1  C   UNL     1     -23.095 -12.239 -16.032  1.00  0.00     0.059 C 
ENDROOT
BRANCH   1   2
ATOM      2  C   UNL     1     -22.846 -12.708 -17.433  1.00  0.00     0.042 C 
ATOM      3  O   UNL     1     -22.584 -11.877 -18.342  1.00  0.00    -0.550 OA
ATOM      4  O   UNL     1     -22.863 -14.066 -17.726  1.00  0.00    -0.550 OA
ENDBRANCH   1   2
BRANCH   1   5
ATOM      5  C   UNL     1     -22.855 -13.358 -15.011  1.00  0.00     0.059 C 
BRANCH   5   6
ATOM      6  C   UNL     1     -24.141 -13.860 -14.431  1.00  0.00     0.042 C 
ATOM      7  O   UNL     1     -24.519 -15.040 -14.652  1.00  0.00    -0.550 OA
ATOM      8  O   UNL     1     -24.942 -13.011 -13.678  1.00  0.00    -0.550 OA
ENDBRANCH   5   6
ENDBRANCH   1   5
TORSDOF 3
ENDMDL
MODEL 4
REMARK VINA RESULT:    -3.018     13.789     15.067
REMARK INTER + INTRA:          -3.662
REMARK INTER:                  -3.606
REMARK INTRA:                  -0.056
REMARK UNBOUND:                -0.114
REMARK SMILES O=C([O-])CCC(=O)[O-]
REMARK SMILES IDX 4 1 2 2 1 3 3 4 5 5 6 6 7 7 8 8
REMARK H PARENT
REMARK Flexibility Score: inf
ROOT
ATOM      1  C   UNL     1     -22.745 -13.376 -14.787  1.00  0.00     0.059 C 
ENDROOT
BRANCH   1   2
ATOM      2  C   UNL     1     -23.891 -14.232 -14.342  1.00  0.00     0.042 C 
ATOM      3  O   UNL     1     -23.783 -15.487 -14.342  1.00  0.00    -0.550 OA
ATOM      4  O   UNL     1     -25.065 -13.643 -13.890  1.00  0.00    -0.550 OA
ENDBRANCH   1   2
BRANCH   1   5
ATOM      5  C   UNL     1     -23.155 -12.428 -15.919  1.00  0.00     0.059 C 
BRANCH   5   6
ATOM      6  C   UNL     1     -22.484 -12.786 -17.209  1.00  0.00     0.042 C 
ATOM      7  O   UNL     1     -23.057 -12.559 -18.307  1.00  0.00    -0.550 OA
ATOM      8  O   UNL     1     -21.242 -13.408 -17.197  1.00  0.00    -0.550 OA
ENDBRANCH   5   6
ENDBRANCH   1   5
TORSDOF 3
ENDMDL
MODEL 5
REMARK VINA RESULT:    -2.989     13.812     15.068
REMARK INTER + INTRA:          -3.628
REMARK INTER:                  -3.553
REMARK INTRA:                  -0.075
REMARK UNBOUND:                -0.114
REMARK SMILES O=C([O-])CCC(=O)[O-]
REMARK SMILES IDX 4 1 2 2 1 3 3 4 5 5 6 6 7 7 8 8
REMARK H PARENT
REMARK Flexibility Score: inf
ROOT
ATOM      1  C   UNL     1     -22.791 -13.363 -14.717  1.00  0.00     0.059 C 
ENDROOT
BRANCH   1   2
ATOM      2  C   UNL     1     -23.891 -14.322 -14.377  1.00  0.00     0.042 C 
ATOM      3  O   UNL     1     -23.696 -15.564 -14.456  1.00  0.00    -0.550 OA
ATOM      4  O   UNL     1     -25.118 -13.845 -13.934  1.00  0.00    -0.550 OA
ENDBRANCH   1   2
BRANCH   1   5
ATOM      5  C   UNL     1     -23.182 -12.448 -15.883  1.00  0.00     0.059 C 
BRANCH   5   6
ATOM      6  C   UNL     1     -22.471 -12.829 -17.145  1.00  0.00     0.042 C 
ATOM      7  O   UNL     1     -21.371 -13.439 -17.095  1.00  0.00    -0.550 OA
ATOM      8  O   UNL     1     -23.007 -12.476 -18.377  1.00  0.00    -0.550 OA
ENDBRANCH   5   6
ENDBRANCH   1   5
TORSDOF 3
ENDMDL
MODEL 6
REMARK VINA RESULT:    -2.955     16.615     17.531
REMARK INTER + INTRA:          -3.588
REMARK INTER:                  -3.555
REMARK INTRA:                  -0.032
REMARK UNBOUND:                -0.114
REMARK SMILES O=C([O-])CCC(=O)[O-]
REMARK SMILES IDX 4 1 2 2 1 3 3 4 5 5 6 6 7 7 8 8
REMARK H PARENT
REMARK Flexibility Score: inf
ROOT
ATOM      1  C   UNL     1     -19.553 -22.887 -12.002  1.00  0.00     0.059 C 
ENDROOT
BRANCH   1   2
ATOM      2  C   UNL     1     -20.089 -23.895 -12.973  1.00  0.00     0.042 C 
ATOM      3  O   UNL     1     -19.695 -23.894 -14.169  1.00  0.00    -0.550 OA
ATOM      4  O   UNL     1     -20.995 -24.859 -12.547  1.00  0.00    -0.550 OA
ENDBRANCH   1   2
BRANCH   1   5
ATOM      5  C   UNL     1     -20.683 -22.140 -11.284  1.00  0.00     0.059 C 
BRANCH   5   6
ATOM      6  C   UNL     1     -20.392 -20.674 -11.175  1.00  0.00     0.042 C 
ATOM      7  O   UNL     1     -20.898 -19.865 -11.996  1.00  0.00    -0.550 OA
ATOM      8  O   UNL     1     -19.531 -20.208 -10.191  1.00  0.00    -0.550 OA
ENDBRANCH   5   6
ENDBRANCH   1   5
TORSDOF 3
ENDMDL
MODEL 7
REMARK VINA RESULT:    -2.936     16.536     17.808
REMARK INTER + INTRA:          -3.566
REMARK INTER:                  -3.498
REMARK INTRA:                  -0.067
REMARK UNBOUND:                -0.114
REMARK SMILES O=C([O-])CCC(=O)[O-]
REMARK SMILES IDX 4 1 2 2 1 3 3 4 5 5 6 6 7 7 8 8
REMARK H PARENT
REMARK Flexibility Score: inf
ROOT
ATOM      1  C   UNL     1     -20.387 -22.346 -11.001  1.00  0.00     0.059 C 
ENDROOT
BRANCH   1   2
ATOM      2  C   UNL     1     -20.347 -20.852 -11.109  1.00  0.00     0.042 C 
ATOM      3  O   UNL     1     -21.037 -20.261 -11.981  1.00  0.00    -0.550 OA
ATOM      4  O   UNL     1     -19.580 -20.110 -10.219  1.00  0.00    -0.550 OA
ENDBRANCH   1   2
BRANCH   1   5
ATOM      5  C   UNL     1     -19.555 -23.013 -12.102  1.00  0.00     0.059 C 
BRANCH   5   6
ATOM      6  C   UNL     1     -20.383 -23.947 -12.930  1.00  0.00     0.042 C 
ATOM      7  O   UNL     1     -21.435 -24.450 -12.458  1.00  0.00    -0.550 OA
ATOM      8  O   UNL     1     -19.969 -24.292 -14.211  1.00  0.00    -0.550 OA
ENDBRANCH   5   6
ENDBRANCH   1   5
TORSDOF 3
ENDMDL
MODEL 8
REMARK VINA RESULT:    -2.873     12.770     13.563
REMARK INTER + INTRA:          -3.492
REMARK INTER:                  -3.383
REMARK INTRA:                  -0.108
REMARK UNBOUND:                -0.114
REMARK SMILES O=C([O-])CCC(=O)[O-]
REMARK SMILES IDX 4 1 2 2 1 3 3 4 5 5 6 6 7 7 8 8
REMARK H PARENT
REMARK Flexibility Score: inf
ROOT
ATOM      1  C   UNL     1     -20.507 -32.024 -22.008  1.00  0.00     0.059 C 
ENDROOT
BRANCH   1   2
ATOM      2  C   UNL     1     -19.790 -31.618 -23.259  1.00  0.00     0.042 C 
ATOM      3  O   UNL     1     -20.393 -31.626 -24.365  1.00  0.00    -0.550 OA
ATOM      4  O   UNL     1     -18.469 -31.192 -23.198  1.00  0.00    -0.550 OA
ENDBRANCH   1   2
BRANCH   1   5
ATOM      5  C   UNL     1     -22.026 -31.893 -22.160  1.00  0.00     0.059 C 
BRANCH   5   6
ATOM      6  C   UNL     1     -22.535 -30.625 -21.544  1.00  0.00     0.042 C 
ATOM      7  O   UNL     1     -23.223 -30.664 -20.491  1.00  0.00    -0.550 OA
ATOM      8  O   UNL     1     -22.282 -29.405 -22.157  1.00  0.00    -0.550 OA
ENDBRANCH   5   6
ENDBRANCH   1   5
TORSDOF 3
ENDMDL
MODEL 9
REMARK VINA RESULT:    -2.866     13.082     14.349
REMARK INTER + INTRA:          -3.484
REMARK INTER:                  -3.457
REMARK INTRA:                  -0.027
REMARK UNBOUND:                -0.114
REMARK SMILES O=C([O-])CCC(=O)[O-]
REMARK SMILES IDX 4 1 2 2 1 3 3 4 5 5 6 6 7 7 8 8
REMARK H PARENT
REMARK Flexibility Score: inf
ROOT
ATOM      1  C   UNL     1     -22.112 -31.406 -22.237  1.00  0.00     0.059 C 
ENDROOT
BRANCH   1   2
ATOM      2  C   UNL     1     -22.862 -30.957 -21.020  1.00  0.00     0.042 C 
ATOM      3  O   UNL     1     -23.358 -31.806 -20.233  1.00  0.00    -0.550 OA
ATOM      4  O   UNL     1     -22.978 -29.603 -20.735  1.00  0.00    -0.550 OA
ENDBRANCH   1   2
BRANCH   1   5
ATOM      5  C   UNL     1     -20.728 -31.957 -21.876  1.00  0.00     0.059 C 
BRANCH   5   6
ATOM      6  C   UNL     1     -19.733 -31.706 -22.967  1.00  0.00     0.042 C 
ATOM      7  O   UNL     1     -18.664 -31.087 -22.721  1.00  0.00    -0.550 OA
ATOM      8  O   UNL     1     -20.004 -32.122 -24.264  1.00  0.00    -0.550 OA
ENDBRANCH   5   6
ENDBRANCH   1   5
TORSDOF 3
ENDMDL
