MODEL 1
REMARK VINA RESULT:    -1.021      0.000      0.000
REMARK INTER + INTRA:          -2.148
REMARK INTER:                  -1.439
REMARK INTRA:                  -0.709
REMARK UNBOUND:                -0.709
REMARK SMILES O=c1cc(-c2ccc(O)c(O)c2)oc2cc(O)c([C@@H]3O[C@H](CO)[C@H](O)[C@H](O)[C@@H]3O)c(O)c12
REMARK SMILES IDX 4 1 3 2 2 3 1 4 32 5 14 6 13 7 15 8 16 9 18 10 30 11 5 12
REMARK SMILES IDX 6 13 7 14 8 15 12 16 10 17 9 18 11 20 31 22 17 24 19 26
REMARK SMILES IDX 28 27 20 28 26 29 21 30 24 31 29 32 27 34 22 36 23 37 25 39
REMARK H PARENT 9 19 11 21 31 23 17 25 29 33 27 35 23 38 25 40
REMARK Flexibility Score: inf
ROOT
ATOM      1  C   UNL     1      -5.355 -18.067 -18.337  1.00  0.00     0.138 A 
ATOM      2  C   UNL     1      -5.390 -18.888 -17.200  1.00  0.00     0.100 A 
ATOM      3  C   UNL     1      -5.511 -20.270 -17.354  1.00  0.00     0.197 A 
ATOM      4  O   UNL     1      -5.537 -20.993 -16.322  1.00  0.00    -0.289 OA
ATOM      5  C   UNL     1      -5.591 -20.826 -18.650  1.00  0.00     0.107 A 
ATOM      6  C   UNL     1      -5.540 -19.933 -19.742  1.00  0.00     0.146 A 
ATOM      7  O   UNL     1      -5.425 -18.624 -19.544  1.00  0.00    -0.456 OA
ATOM      8  C   UNL     1      -5.618 -20.413 -21.043  1.00  0.00     0.094 A 
ATOM      9  C   UNL     1      -5.732 -21.781 -21.298  1.00  0.00     0.128 A 
ATOM     10  C   UNL     1      -5.750 -22.712 -20.228  1.00  0.00     0.068 A 
ATOM     11  C   UNL     1      -5.723 -22.218 -18.890  1.00  0.00     0.140 A 
ENDROOT
BRANCH   1  12
ATOM     12  C   UNL     1      -5.226 -16.593 -18.237  1.00  0.00     0.021 A 
ATOM     13  C   UNL     1      -5.014 -15.836 -19.403  1.00  0.00     0.016 A 
ATOM     14  C   UNL     1      -4.897 -14.445 -19.337  1.00  0.00     0.051 A 
ATOM     15  C   UNL     1      -4.997 -13.785 -18.110  1.00  0.00     0.157 A 
ATOM     16  C   UNL     1      -5.340 -15.920 -17.004  1.00  0.00     0.062 A 
ATOM     17  C   UNL     1      -5.224 -14.524 -16.938  1.00  0.00     0.158 A 
BRANCH  15  18
ATOM     18  O   UNL     1      -4.875 -12.397 -18.075  1.00  0.00    -0.504 OA
ATOM     19  H   UNL     1      -4.220 -11.929 -17.461  1.00  0.00     0.293 HD
ENDBRANCH  15  18
BRANCH  17  20
ATOM     20  O   UNL     1      -5.337 -13.870 -15.711  1.00  0.00    -0.504 OA
ATOM     21  H   UNL     1      -6.150 -13.988 -15.119  1.00  0.00     0.293 HD
ENDBRANCH  17  20
ENDBRANCH   1  12
BRANCH  11  22
ATOM     22  O   UNL     1      -5.835 -23.077 -17.789  1.00  0.00    -0.506 OA
ATOM     23  H   UNL     1      -5.161 -23.154 -17.042  1.00  0.00     0.293 HD
ENDBRANCH  11  22
BRANCH   9  24
ATOM     24  O   UNL     1      -5.829 -22.209 -22.623  1.00  0.00    -0.507 OA
ATOM     25  H   UNL     1      -5.604 -21.599 -23.401  1.00  0.00     0.293 HD
ENDBRANCH   9  24
BRANCH  10  26
ATOM     26  C   UNL     1      -5.843 -24.213 -20.506  1.00  0.00     0.188 C 
ATOM     27  C   UNL     1      -7.249 -24.755 -20.135  1.00  0.00     0.179 C 
ATOM     28  O   UNL     1      -5.533 -24.500 -21.862  1.00  0.00    -0.362 OA
ATOM     29  C   UNL     1      -7.349 -26.262 -20.466  1.00  0.00     0.177 C 
ATOM     30  C   UNL     1      -5.434 -25.900 -22.072  1.00  0.00     0.176 C 
ATOM     31  C   UNL     1      -6.810 -26.580 -21.876  1.00  0.00     0.177 C 
BRANCH  27  32
ATOM     32  O   UNL     1      -8.282 -24.022 -20.749  1.00  0.00    -0.387 OA
ATOM     33  H   UNL     1      -7.969 -23.734 -21.643  1.00  0.00     0.211 HD
ENDBRANCH  27  32
BRANCH  29  34
ATOM     34  O   UNL     1      -8.675 -26.711 -20.344  1.00  0.00    -0.387 OA
ATOM     35  H   UNL     1      -9.059 -26.722 -21.260  1.00  0.00     0.211 HD
ENDBRANCH  29  34
BRANCH  30  36
ATOM     36  C   UNL     1      -4.876 -26.143 -23.484  1.00  0.00     0.191 C 
BRANCH  36  37
ATOM     37  O   UNL     1      -5.005 -27.490 -23.853  1.00  0.00    -0.394 OA
ATOM     38  H   UNL     1      -5.974 -27.701 -23.821  1.00  0.00     0.210 HD
ENDBRANCH  36  37
ENDBRANCH  30  36
BRANCH  31  39
ATOM     39  O   UNL     1      -7.709 -26.143 -22.865  1.00  0.00    -0.388 OA
ATOM     40  H   UNL     1      -8.611 -26.465 -22.601  1.00  0.00     0.211 HD
ENDBRANCH  31  39
ENDBRANCH  10  26
TORSDOF 11
ENDMDL
