MODEL 1
REMARK VINA RESULT:    -5.373      0.000      0.000
REMARK INTER + INTRA:          -6.996
REMARK INTER:                  -6.472
REMARK INTRA:                  -0.524
REMARK UNBOUND:                -0.524
REMARK SMILES CCCCc1oc(O)c2ccccc12
REMARK SMILES IDX 4 1 5 2 7 3 6 4 9 5 14 6 10 7 13 8 11 9 12 10 8 11 3 13 2 14
REMARK SMILES IDX 1 15
REMARK H PARENT 8 12
REMARK Flexibility Score: inf
ROOT
ATOM      1  C   UNL     1       9.051 -16.170  -4.501  1.00  0.00     0.076 C 
ENDROOT
BRANCH   1   2
ATOM      2  C   UNL     1       7.939 -15.675  -5.374  1.00  0.00     0.116 A 
ATOM      3  C   UNL     1       6.877 -15.098  -7.146  1.00  0.00     0.290 A 
ATOM      4  O   UNL     1       8.010 -15.596  -6.690  1.00  0.00    -0.430 OA
ATOM      5  C   UNL     1       6.029 -14.834  -6.091  1.00  0.00     0.066 A 
ATOM      6  C   UNL     1       6.707 -15.200  -4.959  1.00  0.00     0.027 A 
ATOM      7  C   UNL     1       4.741 -14.303  -6.040  1.00  0.00     0.016 A 
ATOM      8  C   UNL     1       6.146 -15.058  -3.689  1.00  0.00     0.012 A 
ATOM      9  C   UNL     1       4.147 -14.151  -4.773  1.00  0.00     0.001 A 
ATOM     10  C   UNL     1       4.846 -14.525  -3.604  1.00  0.00     0.001 A 
BRANCH   3  11
ATOM     11  O   UNL     1       6.613 -14.881  -8.495  1.00  0.00    -0.480 OA
ATOM     12  H   UNL     1       7.302 -14.457  -9.103  1.00  0.00     0.297 HD
ENDBRANCH   3  11
ENDBRANCH   1   2
BRANCH   1  13
ATOM     13  C   UNL     1      10.281 -15.263  -4.635  1.00  0.00     0.008 C 
BRANCH  13  14
ATOM     14  C   UNL     1      10.104 -13.922  -3.908  1.00  0.00    -0.003 C 
ATOM     15  C   UNL     1       9.711 -14.092  -2.441  1.00  0.00     0.004 C 
ENDBRANCH  13  14
ENDBRANCH   1  13
TORSDOF 4
ENDMDL
MODEL 2
REMARK VINA RESULT:    -5.177      2.038      4.719
REMARK INTER + INTRA:          -6.760
REMARK INTER:                  -6.239
REMARK INTRA:                  -0.521
REMARK UNBOUND:                -0.524
REMARK SMILES CCCCc1oc(O)c2ccccc12
REMARK SMILES IDX 4 1 5 2 7 3 6 4 9 5 14 6 10 7 13 8 11 9 12 10 8 11 3 13 2 14
REMARK SMILES IDX 1 15
REMARK H PARENT 8 12
REMARK Flexibility Score: inf
ROOT
ATOM      1  C   UNL     1       6.166 -14.269  -3.765  1.00  0.00     0.076 C 
ENDROOT
BRANCH   1   2
ATOM      2  C   UNL     1       7.511 -14.719  -4.248  1.00  0.00     0.116 A 
ATOM      3  C   UNL     1       9.527 -15.450  -4.193  1.00  0.00     0.290 A 
ATOM      4  O   UNL     1       8.471 -15.163  -3.456  1.00  0.00    -0.430 OA
ATOM      5  C   UNL     1       9.255 -15.182  -5.518  1.00  0.00     0.066 A 
ATOM      6  C   UNL     1       7.969 -14.713  -5.554  1.00  0.00     0.027 A 
ATOM      7  C   UNL     1      10.027 -15.305  -6.672  1.00  0.00     0.016 A 
ATOM      8  C   UNL     1       7.360 -14.328  -6.749  1.00  0.00     0.012 A 
ATOM      9  C   UNL     1       9.440 -14.928  -7.894  1.00  0.00     0.001 A 
ATOM     10  C   UNL     1       8.114 -14.441  -7.933  1.00  0.00     0.001 A 
BRANCH   3  11
ATOM     11  O   UNL     1      10.721 -15.944  -3.676  1.00  0.00    -0.480 OA
ATOM     12  H   UNL     1      10.727 -16.669  -2.969  1.00  0.00     0.297 HD
ENDBRANCH   3  11
ENDBRANCH   1   2
BRANCH   1  13
ATOM     13  C   UNL     1       5.197 -15.457  -3.697  1.00  0.00     0.008 C 
BRANCH  13  14
ATOM     14  C   UNL     1       4.264 -15.525  -4.914  1.00  0.00    -0.003 C 
ATOM     15  C   UNL     1       3.895 -14.144  -5.454  1.00  0.00     0.004 C 
ENDBRANCH  13  14
ENDBRANCH   1  13
TORSDOF 4
ENDMDL
MODEL 3
REMARK VINA RESULT:    -5.150      1.483      4.745
REMARK INTER + INTRA:          -6.728
REMARK INTER:                  -6.539
REMARK INTRA:                  -0.188
REMARK UNBOUND:                -0.524
REMARK SMILES CCCCc1oc(O)c2ccccc12
REMARK SMILES IDX 4 1 5 2 7 3 6 4 9 5 14 6 10 7 13 8 11 9 12 10 8 11 3 13 2 14
REMARK SMILES IDX 1 15
REMARK H PARENT 8 12
REMARK Flexibility Score: inf
ROOT
ATOM      1  C   UNL     1       5.469 -13.159  -4.347  1.00  0.00     0.076 C 
ENDROOT
BRANCH   1   2
ATOM      2  C   UNL     1       6.532 -14.180  -4.610  1.00  0.00     0.116 A 
ATOM      3  C   UNL     1       7.512 -15.895  -5.448  1.00  0.00     0.290 A 
ATOM      4  O   UNL     1       6.412 -15.167  -5.479  1.00  0.00    -0.430 OA
ATOM      5  C   UNL     1       8.388 -15.372  -4.521  1.00  0.00     0.066 A 
ATOM      6  C   UNL     1       7.763 -14.278  -3.983  1.00  0.00     0.027 A 
ATOM      7  C   UNL     1       9.659 -15.770  -4.110  1.00  0.00     0.016 A 
ATOM      8  C   UNL     1       8.364 -13.502  -2.991  1.00  0.00     0.012 A 
ATOM      9  C   UNL     1      10.293 -15.005  -3.113  1.00  0.00     0.001 A 
ATOM     10  C   UNL     1       9.648 -13.878  -2.555  1.00  0.00     0.001 A 
BRANCH   3  11
ATOM     11  O   UNL     1       7.720 -17.019  -6.243  1.00  0.00    -0.480 OA
ATOM     12  H   UNL     1       7.490 -17.014  -7.229  1.00  0.00     0.297 HD
ENDBRANCH   3  11
ENDBRANCH   1   2
BRANCH   1  13
ATOM     13  C   UNL     1       4.480 -13.102  -5.519  1.00  0.00     0.008 C 
BRANCH  13  14
ATOM     14  C   UNL     1       3.208 -13.922  -5.255  1.00  0.00    -0.003 C 
ATOM     15  C   UNL     1       2.019 -13.053  -4.848  1.00  0.00     0.004 C 
ENDBRANCH  13  14
ENDBRANCH   1  13
TORSDOF 4
ENDMDL
MODEL 4
REMARK VINA RESULT:    -4.954      2.478      5.174
REMARK INTER + INTRA:          -6.491
REMARK INTER:                  -6.217
REMARK INTRA:                  -0.275
REMARK UNBOUND:                -0.524
REMARK SMILES CCCCc1oc(O)c2ccccc12
REMARK SMILES IDX 4 1 5 2 7 3 6 4 9 5 14 6 10 7 13 8 11 9 12 10 8 11 3 13 2 14
REMARK SMILES IDX 1 15
REMARK H PARENT 8 12
REMARK Flexibility Score: inf
ROOT
ATOM      1  C   UNL     1       5.886 -13.078  -4.564  1.00  0.00     0.076 C 
ENDROOT
BRANCH   1   2
ATOM      2  C   UNL     1       7.291 -13.467  -4.221  1.00  0.00     0.116 A 
ATOM      3  C   UNL     1       9.057 -13.805  -3.050  1.00  0.00     0.290 A 
ATOM      4  O   UNL     1       7.794 -13.424  -3.001  1.00  0.00    -0.430 OA
ATOM      5  C   UNL     1       9.400 -14.104  -4.351  1.00  0.00     0.066 A 
ATOM      6  C   UNL     1       8.274 -13.887  -5.100  1.00  0.00     0.027 A 
ATOM      7  C   UNL     1      10.595 -14.536  -4.925  1.00  0.00     0.016 A 
ATOM      8  C   UNL     1       8.262 -14.082  -6.482  1.00  0.00     0.012 A 
ATOM      9  C   UNL     1      10.613 -14.745  -6.317  1.00  0.00     0.001 A 
ATOM     10  C   UNL     1       9.454 -14.519  -7.091  1.00  0.00     0.001 A 
BRANCH   3  11
ATOM     11  O   UNL     1       9.889 -13.877  -1.936  1.00  0.00    -0.480 OA
ATOM     12  H   UNL     1      10.393 -14.726  -1.712  1.00  0.00     0.297 HD
ENDBRANCH   3  11
ENDBRANCH   1   2
BRANCH   1  13
ATOM     13  C   UNL     1       4.941 -13.408  -3.400  1.00  0.00     0.008 C 
BRANCH  13  14
ATOM     14  C   UNL     1       3.857 -14.423  -3.792  1.00  0.00    -0.003 C 
ATOM     15  C   UNL     1       4.338 -15.870  -3.691  1.00  0.00     0.004 C 
ENDBRANCH  13  14
ENDBRANCH   1  13
TORSDOF 4
ENDMDL
MODEL 5
REMARK VINA RESULT:    -4.918      2.657      4.153
REMARK INTER + INTRA:          -6.448
REMARK INTER:                  -5.943
REMARK INTRA:                  -0.505
REMARK UNBOUND:                -0.524
REMARK SMILES CCCCc1oc(O)c2ccccc12
REMARK SMILES IDX 4 1 5 2 7 3 6 4 9 5 14 6 10 7 13 8 11 9 12 10 8 11 3 13 2 14
REMARK SMILES IDX 1 15
REMARK H PARENT 8 12
REMARK Flexibility Score: inf
ROOT
ATOM      1  C   UNL     1      10.940 -14.714  -6.590  1.00  0.00     0.076 C 
ENDROOT
BRANCH   1   2
ATOM      2  C   UNL     1      10.130 -14.582  -5.336  1.00  0.00     0.116 A 
ATOM      3  C   UNL     1       9.660 -14.251  -3.270  1.00  0.00     0.290 A 
ATOM      4  O   UNL     1      10.634 -14.254  -4.161  1.00  0.00    -0.430 OA
ATOM      5  C   UNL     1       8.473 -14.595  -3.880  1.00  0.00     0.066 A 
ATOM      6  C   UNL     1       8.771 -14.809  -5.199  1.00  0.00     0.027 A 
ATOM      7  C   UNL     1       7.178 -14.741  -3.384  1.00  0.00     0.016 A 
ATOM      8  C   UNL     1       7.796 -15.189  -6.121  1.00  0.00     0.012 A 
ATOM      9  C   UNL     1       6.170 -15.121  -4.291  1.00  0.00     0.001 A 
ATOM     10  C   UNL     1       6.477 -15.345  -5.652  1.00  0.00     0.001 A 
BRANCH   3  11
ATOM     11  O   UNL     1       9.842 -13.946  -1.924  1.00  0.00    -0.480 OA
ATOM     12  H   UNL     1       9.381 -13.152  -1.499  1.00  0.00     0.297 HD
ENDBRANCH   3  11
ENDBRANCH   1   2
BRANCH   1  13
ATOM     13  C   UNL     1      10.806 -13.450  -7.449  1.00  0.00     0.008 C 
BRANCH  13  14
ATOM     14  C   UNL     1      10.063 -13.711  -8.767  1.00  0.00    -0.003 C 
ATOM     15  C   UNL     1      10.147 -15.171  -9.214  1.00  0.00     0.004 C 
ENDBRANCH  13  14
ENDBRANCH   1  13
TORSDOF 4
ENDMDL
MODEL 6
REMARK VINA RESULT:    -4.904      1.889      2.757
REMARK INTER + INTRA:          -6.432
REMARK INTER:                  -6.078
REMARK INTRA:                  -0.354
REMARK UNBOUND:                -0.524
REMARK SMILES CCCCc1oc(O)c2ccccc12
REMARK SMILES IDX 4 1 5 2 7 3 6 4 9 5 14 6 10 7 13 8 11 9 12 10 8 11 3 13 2 14
REMARK SMILES IDX 1 15
REMARK H PARENT 8 12
REMARK Flexibility Score: inf
ROOT
ATOM      1  C   UNL     1       8.886 -16.086  -4.870  1.00  0.00     0.076 C 
ENDROOT
BRANCH   1   2
ATOM      2  C   UNL     1       7.608 -15.312  -4.767  1.00  0.00     0.116 A 
ATOM      3  C   UNL     1       5.791 -14.529  -3.937  1.00  0.00     0.290 A 
ATOM      4  O   UNL     1       6.850 -15.276  -3.686  1.00  0.00    -0.430 OA
ATOM      5  C   UNL     1       5.851 -14.061  -5.232  1.00  0.00     0.066 A 
ATOM      6  C   UNL     1       7.009 -14.561  -5.764  1.00  0.00     0.027 A 
ATOM      7  C   UNL     1       4.989 -13.253  -5.972  1.00  0.00     0.016 A 
ATOM      8  C   UNL     1       7.389 -14.294  -7.080  1.00  0.00     0.012 A 
ATOM      9  C   UNL     1       5.346 -12.963  -7.302  1.00  0.00     0.001 A 
ATOM     10  C   UNL     1       6.539 -13.481  -7.854  1.00  0.00     0.001 A 
BRANCH   3  11
ATOM     11  O   UNL     1       4.783 -14.278  -3.010  1.00  0.00    -0.480 OA
ATOM     12  H   UNL     1       4.667 -13.361  -2.597  1.00  0.00     0.297 HD
ENDBRANCH   3  11
ENDBRANCH   1   2
BRANCH   1  13
ATOM     13  C   UNL     1      10.092 -15.140  -4.779  1.00  0.00     0.008 C 
BRANCH  13  14
ATOM     14  C   UNL     1       9.972 -14.146  -3.614  1.00  0.00    -0.003 C 
ATOM     15  C   UNL     1      10.145 -14.811  -2.249  1.00  0.00     0.004 C 
ENDBRANCH  13  14
ENDBRANCH   1  13
TORSDOF 4
ENDMDL
MODEL 7
REMARK VINA RESULT:    -4.871      2.115      3.941
REMARK INTER + INTRA:          -6.392
REMARK INTER:                  -5.870
REMARK INTRA:                  -0.522
REMARK UNBOUND:                -0.524
REMARK SMILES CCCCc1oc(O)c2ccccc12
REMARK SMILES IDX 4 1 5 2 7 3 6 4 9 5 14 6 10 7 13 8 11 9 12 10 8 11 3 13 2 14
REMARK SMILES IDX 1 15
REMARK H PARENT 8 12
REMARK Flexibility Score: inf
ROOT
ATOM      1  C   UNL     1       8.073 -15.528  -4.548  1.00  0.00     0.076 C 
ENDROOT
BRANCH   1   2
ATOM      2  C   UNL     1       8.105 -15.160  -6.000  1.00  0.00     0.116 A 
ATOM      3  C   UNL     1       7.419 -14.805  -8.002  1.00  0.00     0.290 A 
ATOM      4  O   UNL     1       7.043 -15.147  -6.784  1.00  0.00    -0.430 OA
ATOM      5  C   UNL     1       8.781 -14.590  -8.022  1.00  0.00     0.066 A 
ATOM      6  C   UNL     1       9.221 -14.818  -6.745  1.00  0.00     0.027 A 
ATOM      7  C   UNL     1       9.653 -14.224  -9.047  1.00  0.00     0.016 A 
ATOM      8  C   UNL     1      10.567 -14.701  -6.399  1.00  0.00     0.012 A 
ATOM      9  C   UNL     1      11.017 -14.094  -8.729  1.00  0.00     0.001 A 
ATOM     10  C   UNL     1      11.473 -14.332  -7.413  1.00  0.00     0.001 A 
BRANCH   3  11
ATOM     11  O   UNL     1       6.547 -14.693  -9.080  1.00  0.00    -0.480 OA
ATOM     12  H   UNL     1       6.696 -15.219  -9.933  1.00  0.00     0.297 HD
ENDBRANCH   3  11
ENDBRANCH   1   2
BRANCH   1  13
ATOM     13  C   UNL     1       7.899 -14.273  -3.682  1.00  0.00     0.008 C 
BRANCH  13  14
ATOM     14  C   UNL     1       9.214 -13.821  -3.031  1.00  0.00    -0.003 C 
ATOM     15  C   UNL     1      10.136 -14.991  -2.688  1.00  0.00     0.004 C 
ENDBRANCH  13  14
ENDBRANCH   1  13
TORSDOF 4
ENDMDL
