MODEL 1
REMARK VINA RESULT:    -7.274      0.000      0.000
REMARK INTER + INTRA:          -9.260
REMARK INTER:                  -8.975
REMARK INTRA:                  -0.285
REMARK UNBOUND:                -0.285
REMARK SMILES Oc1cc(O)c2cc(O)c(-c3cc(O)c(O)c(O)c3)[o+]c2c1
REMARK SMILES IDX 10 1 20 2 21 3 22 4 2 5 3 6 4 7 6 8 7 9 8 10 11 11 12 12
REMARK SMILES IDX 13 13 19 14 15 15 17 16 14 17 16 19 18 21 9 23 1 25 5 27
REMARK H PARENT 14 18 16 20 18 22 9 24 1 26 5 28
REMARK Flexibility Score: inf
ROOT
ATOM      1  C   UNL     1      26.483 -26.520  28.132  1.00  0.00     0.402 A 
ATOM      2  O   UNL     1      25.208 -26.620  27.764  1.00  0.00    -0.202 OA
ATOM      3  C   UNL     1      24.688 -25.945  26.746  1.00  0.00     0.368 A 
ATOM      4  C   UNL     1      23.334 -26.115  26.439  1.00  0.00     0.162 A 
ATOM      5  C   UNL     1      22.760 -25.414  25.373  1.00  0.00     0.128 A 
ATOM      6  C   UNL     1      23.540 -24.540  24.614  1.00  0.00     0.093 A 
ATOM      7  C   UNL     1      24.898 -24.352  24.903  1.00  0.00     0.136 A 
ATOM      8  C   UNL     1      25.487 -25.062  25.980  1.00  0.00     0.125 A 
ATOM      9  C   UNL     1      26.842 -24.947  26.333  1.00  0.00     0.078 A 
ATOM     10  C   UNL     1      27.351 -25.683  27.407  1.00  0.00     0.223 A 
ENDROOT
BRANCH   1  11
ATOM     11  C   UNL     1      26.943 -27.317  29.292  1.00  0.00     0.091 A 
ATOM     12  C   UNL     1      26.569 -26.927  30.587  1.00  0.00     0.068 A 
ATOM     13  C   UNL     1      27.005 -27.649  31.704  1.00  0.00     0.162 A 
ATOM     14  C   UNL     1      27.794 -28.423  29.130  1.00  0.00     0.068 A 
ATOM     15  C   UNL     1      27.838 -28.767  31.535  1.00  0.00     0.200 A 
ATOM     16  C   UNL     1      28.238 -29.150  30.243  1.00  0.00     0.162 A 
BRANCH  13  17
ATOM     17  O   UNL     1      26.598 -27.238  32.973  1.00  0.00    -0.504 OA
ATOM     18  H   UNL     1      26.693 -27.833  33.788  1.00  0.00     0.293 HD
ENDBRANCH  13  17
BRANCH  15  19
ATOM     19  O   UNL     1      28.266 -29.483  32.654  1.00  0.00    -0.502 OA
ATOM     20  H   UNL     1      27.659 -30.125  33.149  1.00  0.00     0.293 HD
ENDBRANCH  15  19
BRANCH  16  21
ATOM     21  O   UNL     1      29.077 -30.249  30.070  1.00  0.00    -0.504 OA
ATOM     22  H   UNL     1      29.331 -30.852  30.845  1.00  0.00     0.293 HD
ENDBRANCH  16  21
ENDBRANCH   1  11
BRANCH  10  23
ATOM     23  O   UNL     1      28.708 -25.607  27.726  1.00  0.00    -0.500 OA
ATOM     24  H   UNL     1      29.420 -25.529  27.009  1.00  0.00     0.294 HD
ENDBRANCH  10  23
BRANCH   5  25
ATOM     25  O   UNL     1      21.412 -25.579  25.061  1.00  0.00    -0.507 OA
ATOM     26  H   UNL     1      20.821 -26.216  25.582  1.00  0.00     0.293 HD
ENDBRANCH   5  25
BRANCH   7  27
ATOM     27  O   UNL     1      25.609 -23.457  24.097  1.00  0.00    -0.507 OA
ATOM     28  H   UNL     1      26.439 -23.697  23.574  1.00  0.00     0.293 HD
ENDBRANCH   7  27
TORSDOF 7
ENDMDL
MODEL 2
REMARK VINA RESULT:    -7.245      0.219      1.807
REMARK INTER + INTRA:          -9.224
REMARK INTER:                  -8.958
REMARK INTRA:                  -0.266
REMARK UNBOUND:                -0.285
REMARK SMILES Oc1cc(O)c2cc(O)c(-c3cc(O)c(O)c(O)c3)[o+]c2c1
REMARK SMILES IDX 10 1 20 2 21 3 22 4 2 5 3 6 4 7 6 8 7 9 8 10 11 11 12 12
REMARK SMILES IDX 13 13 19 14 15 15 17 16 14 17 16 19 18 21 9 23 1 25 5 27
REMARK H PARENT 14 18 16 20 18 22 9 24 1 26 5 28
REMARK Flexibility Score: inf
ROOT
ATOM      1  C   UNL     1      26.677 -26.446  28.121  1.00  0.00     0.402 A 
ATOM      2  O   UNL     1      25.401 -26.512  27.752  1.00  0.00    -0.202 OA
ATOM      3  C   UNL     1      24.910 -25.862  26.703  1.00  0.00     0.368 A 
ATOM      4  C   UNL     1      23.552 -25.991  26.396  1.00  0.00     0.162 A 
ATOM      5  C   UNL     1      23.009 -25.316  25.298  1.00  0.00     0.128 A 
ATOM      6  C   UNL     1      23.826 -24.507  24.506  1.00  0.00     0.093 A 
ATOM      7  C   UNL     1      25.190 -24.360  24.793  1.00  0.00     0.136 A 
ATOM      8  C   UNL     1      25.747 -25.045  25.903  1.00  0.00     0.125 A 
ATOM      9  C   UNL     1      27.104 -24.968  26.257  1.00  0.00     0.078 A 
ATOM     10  C   UNL     1      27.580 -25.677  27.364  1.00  0.00     0.223 A 
ENDROOT
BRANCH   1  11
ATOM     11  C   UNL     1      27.101 -27.209  29.317  1.00  0.00     0.091 A 
ATOM     12  C   UNL     1      27.900 -28.352  29.157  1.00  0.00     0.068 A 
ATOM     13  C   UNL     1      28.300 -29.104  30.267  1.00  0.00     0.162 A 
ATOM     14  C   UNL     1      26.675 -26.847  30.606  1.00  0.00     0.068 A 
ATOM     15  C   UNL     1      27.889 -28.727  31.556  1.00  0.00     0.200 A 
ATOM     16  C   UNL     1      27.069 -27.597  31.723  1.00  0.00     0.162 A 
BRANCH  13  17
ATOM     17  O   UNL     1      29.106 -30.225  30.067  1.00  0.00    -0.504 OA
ATOM     18  H   UNL     1      28.836 -31.147  30.389  1.00  0.00     0.293 HD
ENDBRANCH  13  17
BRANCH  15  19
ATOM     19  O   UNL     1      28.295 -29.480  32.658  1.00  0.00    -0.502 OA
ATOM     20  H   UNL     1      28.739 -29.060  33.466  1.00  0.00     0.293 HD
ENDBRANCH  15  19
BRANCH  16  21
ATOM     21  O   UNL     1      26.646 -27.225  32.998  1.00  0.00    -0.504 OA
ATOM     22  H   UNL     1      25.672 -27.285  33.274  1.00  0.00     0.293 HD
ENDBRANCH  16  21
ENDBRANCH   1  11
BRANCH  10  23
ATOM     23  O   UNL     1      28.937 -25.641  27.687  1.00  0.00    -0.500 OA
ATOM     24  H   UNL     1      29.382 -24.795  28.025  1.00  0.00     0.294 HD
ENDBRANCH  10  23
BRANCH   5  25
ATOM     25  O   UNL     1      21.657 -25.440  24.987  1.00  0.00    -0.507 OA
ATOM     26  H   UNL     1      21.349 -25.713  24.061  1.00  0.00     0.293 HD
ENDBRANCH   5  25
BRANCH   7  27
ATOM     27  O   UNL     1      25.938 -23.530  23.953  1.00  0.00    -0.507 OA
ATOM     28  H   UNL     1      26.845 -23.153  24.184  1.00  0.00     0.293 HD
ENDBRANCH   7  27
TORSDOF 7
ENDMDL
MODEL 3
REMARK VINA RESULT:    -7.009      4.932      8.271
REMARK INTER + INTRA:          -8.932
REMARK INTER:                  -8.564
REMARK INTRA:                  -0.368
REMARK UNBOUND:                -0.285
REMARK SMILES Oc1cc(O)c2cc(O)c(-c3cc(O)c(O)c(O)c3)[o+]c2c1
REMARK SMILES IDX 10 1 20 2 21 3 22 4 2 5 3 6 4 7 6 8 7 9 8 10 11 11 12 12
REMARK SMILES IDX 13 13 19 14 15 15 17 16 14 17 16 19 18 21 9 23 1 25 5 27
REMARK H PARENT 14 18 16 20 18 22 9 24 1 26 5 28
REMARK Flexibility Score: inf
ROOT
ATOM      1  C   UNL     1      27.087 -28.688  35.620  1.00  0.00     0.402 A 
ATOM      2  O   UNL     1      26.219 -28.228  34.723  1.00  0.00    -0.202 OA
ATOM      3  C   UNL     1      26.395 -28.340  33.412  1.00  0.00     0.368 A 
ATOM      4  C   UNL     1      25.427 -27.821  32.548  1.00  0.00     0.162 A 
ATOM      5  C   UNL     1      25.589 -27.924  31.163  1.00  0.00     0.128 A 
ATOM      6  C   UNL     1      26.724 -28.546  30.640  1.00  0.00     0.093 A 
ATOM      7  C   UNL     1      27.710 -29.073  31.484  1.00  0.00     0.136 A 
ATOM      8  C   UNL     1      27.549 -28.975  32.891  1.00  0.00     0.125 A 
ATOM      9  C   UNL     1      28.477 -29.486  33.812  1.00  0.00     0.078 A 
ATOM     10  C   UNL     1      28.247 -29.355  35.185  1.00  0.00     0.223 A 
ENDROOT
BRANCH   1  11
ATOM     11  C   UNL     1      26.783 -28.492  37.056  1.00  0.00     0.091 A 
ATOM     12  C   UNL     1      26.124 -29.508  37.765  1.00  0.00     0.068 A 
ATOM     13  C   UNL     1      25.805 -29.344  39.118  1.00  0.00     0.162 A 
ATOM     14  C   UNL     1      27.088 -27.288  37.712  1.00  0.00     0.068 A 
ATOM     15  C   UNL     1      26.131 -28.146  39.775  1.00  0.00     0.200 A 
ATOM     16  C   UNL     1      26.770 -27.114  39.066  1.00  0.00     0.162 A 
BRANCH  13  17
ATOM     17  O   UNL     1      25.164 -30.384  39.790  1.00  0.00    -0.504 OA
ATOM     18  H   UNL     1      24.219 -30.671  39.563  1.00  0.00     0.293 HD
ENDBRANCH  13  17
BRANCH  15  19
ATOM     19  O   UNL     1      25.813 -27.991  41.125  1.00  0.00    -0.502 OA
ATOM     20  H   UNL     1      25.085 -28.534  41.574  1.00  0.00     0.293 HD
ENDBRANCH  15  19
BRANCH  16  21
ATOM     21  O   UNL     1      27.083 -25.917  39.709  1.00  0.00    -0.504 OA
ATOM     22  H   UNL     1      26.396 -25.411  40.256  1.00  0.00     0.293 HD
ENDBRANCH  16  21
ENDBRANCH   1  11
BRANCH  10  23
ATOM     23  O   UNL     1      29.144 -29.907  36.101  1.00  0.00    -0.500 OA
ATOM     24  H   UNL     1      29.393 -30.889  36.076  1.00  0.00     0.294 HD
ENDBRANCH  10  23
BRANCH   5  25
ATOM     25  O   UNL     1      24.628 -27.408  30.296  1.00  0.00    -0.507 OA
ATOM     26  H   UNL     1      23.641 -27.432  30.524  1.00  0.00     0.293 HD
ENDBRANCH   5  25
BRANCH   7  27
ATOM     27  O   UNL     1      28.817 -29.678  30.882  1.00  0.00    -0.507 OA
ATOM     28  H   UNL     1      29.429 -30.335  31.343  1.00  0.00     0.293 HD
ENDBRANCH   7  27
TORSDOF 7
ENDMDL
MODEL 4
REMARK VINA RESULT:    -6.991      5.461      8.291
REMARK INTER + INTRA:          -8.910
REMARK INTER:                  -8.530
REMARK INTRA:                  -0.380
REMARK UNBOUND:                -0.285
REMARK SMILES Oc1cc(O)c2cc(O)c(-c3cc(O)c(O)c(O)c3)[o+]c2c1
REMARK SMILES IDX 10 1 20 2 21 3 22 4 2 5 3 6 4 7 6 8 7 9 8 10 11 11 12 12
REMARK SMILES IDX 13 13 19 14 15 15 17 16 14 17 16 19 18 21 9 23 1 25 5 27
REMARK H PARENT 14 18 16 20 18 22 9 24 1 26 5 28
REMARK Flexibility Score: inf
ROOT
ATOM      1  C   UNL     1      23.541 -21.446  26.635  1.00  0.00     0.402 A 
ATOM      2  O   UNL     1      24.019 -21.910  25.483  1.00  0.00    -0.202 OA
ATOM      3  C   UNL     1      23.889 -23.173  25.095  1.00  0.00     0.368 A 
ATOM      4  C   UNL     1      24.430 -23.566  23.867  1.00  0.00     0.162 A 
ATOM      5  C   UNL     1      24.308 -24.891  23.435  1.00  0.00     0.128 A 
ATOM      6  C   UNL     1      23.646 -25.825  24.234  1.00  0.00     0.093 A 
ATOM      7  C   UNL     1      23.097 -25.457  25.469  1.00  0.00     0.136 A 
ATOM      8  C   UNL     1      23.214 -24.114  25.911  1.00  0.00     0.125 A 
ATOM      9  C   UNL     1      22.683 -23.651  27.126  1.00  0.00     0.078 A 
ATOM     10  C   UNL     1      22.835 -22.310  27.492  1.00  0.00     0.223 A 
ENDROOT
BRANCH   1  11
ATOM     11  C   UNL     1      23.760 -20.019  26.961  1.00  0.00     0.091 A 
ATOM     12  C   UNL     1      24.889 -19.647  27.708  1.00  0.00     0.068 A 
ATOM     13  C   UNL     1      25.112 -18.309  28.048  1.00  0.00     0.162 A 
ATOM     14  C   UNL     1      22.832 -19.031  26.589  1.00  0.00     0.068 A 
ATOM     15  C   UNL     1      24.192 -17.323  27.656  1.00  0.00     0.200 A 
ATOM     16  C   UNL     1      23.046 -17.688  26.929  1.00  0.00     0.162 A 
BRANCH  13  17
ATOM     17  O   UNL     1      26.254 -17.980  28.778  1.00  0.00    -0.504 OA
ATOM     18  H   UNL     1      26.372 -18.254  29.746  1.00  0.00     0.293 HD
ENDBRANCH  13  17
BRANCH  15  19
ATOM     19  O   UNL     1      24.422 -15.989  27.997  1.00  0.00    -0.502 OA
ATOM     20  H   UNL     1      24.565 -15.694  28.955  1.00  0.00     0.293 HD
ENDBRANCH  15  19
BRANCH  16  21
ATOM     21  O   UNL     1      22.121 -16.717  26.549  1.00  0.00    -0.504 OA
ATOM     22  H   UNL     1      21.953 -16.494  25.574  1.00  0.00     0.293 HD
ENDBRANCH  16  21
ENDBRANCH   1  11
BRANCH  10  23
ATOM     23  O   UNL     1      22.265 -21.839  28.675  1.00  0.00    -0.500 OA
ATOM     24  H   UNL     1      21.362 -21.377  28.684  1.00  0.00     0.294 HD
ENDBRANCH  10  23
BRANCH   5  25
ATOM     25  O   UNL     1      24.844 -25.290  22.213  1.00  0.00    -0.507 OA
ATOM     26  H   UNL     1      25.845 -25.318  22.056  1.00  0.00     0.293 HD
ENDBRANCH   5  25
BRANCH   7  27
ATOM     27  O   UNL     1      22.453 -26.452  26.210  1.00  0.00    -0.507 OA
ATOM     28  H   UNL     1      22.192 -27.355  25.844  1.00  0.00     0.293 HD
ENDBRANCH   7  27
TORSDOF 7
ENDMDL
MODEL 5
REMARK VINA RESULT:    -6.962      1.267      2.952
REMARK INTER + INTRA:          -8.874
REMARK INTER:                  -8.590
REMARK INTRA:                  -0.284
REMARK UNBOUND:                -0.285
REMARK SMILES Oc1cc(O)c2cc(O)c(-c3cc(O)c(O)c(O)c3)[o+]c2c1
REMARK SMILES IDX 10 1 20 2 21 3 22 4 2 5 3 6 4 7 6 8 7 9 8 10 11 11 12 12
REMARK SMILES IDX 13 13 19 14 15 15 17 16 14 17 16 19 18 21 9 23 1 25 5 27
REMARK H PARENT 14 18 16 20 18 22 9 24 1 26 5 28
REMARK Flexibility Score: inf
ROOT
ATOM      1  C   UNL     1      26.626 -26.516  28.113  1.00  0.00     0.402 A 
ATOM      2  O   UNL     1      27.550 -25.753  27.535  1.00  0.00    -0.202 OA
ATOM      3  C   UNL     1      27.311 -25.000  26.468  1.00  0.00     0.368 A 
ATOM      4  C   UNL     1      28.350 -24.234  25.929  1.00  0.00     0.162 A 
ATOM      5  C   UNL     1      28.126 -23.434  24.804  1.00  0.00     0.128 A 
ATOM      6  C   UNL     1      26.861 -23.402  24.214  1.00  0.00     0.093 A 
ATOM      7  C   UNL     1      25.805 -24.161  24.733  1.00  0.00     0.136 A 
ATOM      8  C   UNL     1      26.025 -24.972  25.877  1.00  0.00     0.125 A 
ATOM      9  C   UNL     1      25.023 -25.755  26.473  1.00  0.00     0.078 A 
ATOM     10  C   UNL     1      25.315 -26.525  27.603  1.00  0.00     0.223 A 
ENDROOT
BRANCH   1  11
ATOM     11  C   UNL     1      27.018 -27.319  29.293  1.00  0.00     0.091 A 
ATOM     12  C   UNL     1      26.581 -26.928  30.568  1.00  0.00     0.068 A 
ATOM     13  C   UNL     1      26.952 -27.656  31.705  1.00  0.00     0.162 A 
ATOM     14  C   UNL     1      27.865 -28.434  29.173  1.00  0.00     0.068 A 
ATOM     15  C   UNL     1      27.782 -28.782  31.577  1.00  0.00     0.200 A 
ATOM     16  C   UNL     1      28.243 -29.167  30.306  1.00  0.00     0.162 A 
BRANCH  13  17
ATOM     17  O   UNL     1      26.484 -27.243  32.952  1.00  0.00    -0.504 OA
ATOM     18  H   UNL     1      25.817 -27.789  33.485  1.00  0.00     0.293 HD
ENDBRANCH  13  17
BRANCH  15  19
ATOM     19  O   UNL     1      28.144 -29.505  32.714  1.00  0.00    -0.502 OA
ATOM     20  H   UNL     1      27.579 -29.506  33.556  1.00  0.00     0.293 HD
ENDBRANCH  15  19
BRANCH  16  21
ATOM     21  O   UNL     1      29.079 -30.275  30.174  1.00  0.00    -0.504 OA
ATOM     22  H   UNL     1      30.065 -30.228  30.405  1.00  0.00     0.293 HD
ENDBRANCH  16  21
ENDBRANCH   1  11
BRANCH  10  23
ATOM     23  O   UNL     1      24.308 -27.263  28.226  1.00  0.00    -0.500 OA
ATOM     24  H   UNL     1      23.438 -26.834  28.520  1.00  0.00     0.294 HD
ENDBRANCH  10  23
BRANCH   5  25
ATOM     25  O   UNL     1      29.156 -22.668  24.263  1.00  0.00    -0.507 OA
ATOM     26  H   UNL     1      28.969 -21.895  23.635  1.00  0.00     0.293 HD
ENDBRANCH   5  25
BRANCH   7  27
ATOM     27  O   UNL     1      24.570 -24.076  24.083  1.00  0.00    -0.507 OA
ATOM     28  H   UNL     1      23.756 -23.617  24.463  1.00  0.00     0.293 HD
ENDBRANCH   7  27
TORSDOF 7
ENDMDL
MODEL 6
REMARK VINA RESULT:    -6.925      1.808      7.482
REMARK INTER + INTRA:          -8.829
REMARK INTER:                  -8.536
REMARK INTRA:                  -0.293
REMARK UNBOUND:                -0.285
REMARK SMILES Oc1cc(O)c2cc(O)c(-c3cc(O)c(O)c(O)c3)[o+]c2c1
REMARK SMILES IDX 10 1 20 2 21 3 22 4 2 5 3 6 4 7 6 8 7 9 8 10 11 11 12 12
REMARK SMILES IDX 13 13 19 14 15 15 17 16 14 17 16 19 18 21 9 23 1 25 5 27
REMARK H PARENT 14 18 16 20 18 22 9 24 1 26 5 28
REMARK Flexibility Score: inf
ROOT
ATOM      1  C   UNL     1      24.751 -25.838  27.405  1.00  0.00     0.402 A 
ATOM      2  O   UNL     1      25.840 -26.565  27.636  1.00  0.00    -0.202 OA
ATOM      3  C   UNL     1      26.016 -27.285  28.739  1.00  0.00     0.368 A 
ATOM      4  C   UNL     1      27.198 -28.015  28.893  1.00  0.00     0.162 A 
ATOM      5  C   UNL     1      27.410 -28.780  30.045  1.00  0.00     0.128 A 
ATOM      6  C   UNL     1      26.437 -28.812  31.047  1.00  0.00     0.093 A 
ATOM      7  C   UNL     1      25.245 -28.088  30.917  1.00  0.00     0.136 A 
ATOM      8  C   UNL     1      25.023 -27.314  29.749  1.00  0.00     0.125 A 
ATOM      9  C   UNL     1      23.854 -26.568  29.526  1.00  0.00     0.078 A 
ATOM     10  C   UNL     1      23.706 -25.832  28.347  1.00  0.00     0.223 A 
ENDROOT
BRANCH   1  11
ATOM     11  C   UNL     1      24.677 -25.069  26.141  1.00  0.00     0.091 A 
ATOM     12  C   UNL     1      24.625 -25.756  24.919  1.00  0.00     0.068 A 
ATOM     13  C   UNL     1      24.574 -25.057  23.708  1.00  0.00     0.162 A 
ATOM     14  C   UNL     1      24.715 -23.664  26.135  1.00  0.00     0.068 A 
ATOM     15  C   UNL     1      24.591 -23.652  23.708  1.00  0.00     0.200 A 
ATOM     16  C   UNL     1      24.667 -22.956  24.927  1.00  0.00     0.162 A 
BRANCH  13  17
ATOM     17  O   UNL     1      24.508 -25.776  22.516  1.00  0.00    -0.504 OA
ATOM     18  H   UNL     1      25.339 -26.098  22.033  1.00  0.00     0.293 HD
ENDBRANCH  13  17
BRANCH  15  19
ATOM     19  O   UNL     1      24.537 -22.961  22.496  1.00  0.00    -0.502 OA
ATOM     20  H   UNL     1      23.977 -22.125  22.376  1.00  0.00     0.293 HD
ENDBRANCH  15  19
BRANCH  16  21
ATOM     21  O   UNL     1      24.699 -21.562  24.933  1.00  0.00    -0.504 OA
ATOM     22  H   UNL     1      25.572 -21.050  24.872  1.00  0.00     0.293 HD
ENDBRANCH  16  21
ENDBRANCH   1  11
BRANCH  10  23
ATOM     23  O   UNL     1      22.523 -25.132  28.103  1.00  0.00    -0.500 OA
ATOM     24  H   UNL     1      21.764 -25.540  27.570  1.00  0.00     0.294 HD
ENDBRANCH  10  23
BRANCH   5  25
ATOM     25  O   UNL     1      28.585 -29.510  30.205  1.00  0.00    -0.507 OA
ATOM     26  H   UNL     1      29.237 -29.640  29.440  1.00  0.00     0.293 HD
ENDBRANCH   5  25
BRANCH   7  27
ATOM     27  O   UNL     1      24.324 -28.171  31.965  1.00  0.00    -0.507 OA
ATOM     28  H   UNL     1      24.499 -28.639  32.842  1.00  0.00     0.293 HD
ENDBRANCH   7  27
TORSDOF 7
ENDMDL
MODEL 7
REMARK VINA RESULT:    -6.894      5.060      7.325
REMARK INTER + INTRA:          -8.790
REMARK INTER:                  -8.412
REMARK INTRA:                  -0.378
REMARK UNBOUND:                -0.285
REMARK SMILES Oc1cc(O)c2cc(O)c(-c3cc(O)c(O)c(O)c3)[o+]c2c1
REMARK SMILES IDX 10 1 20 2 21 3 22 4 2 5 3 6 4 7 6 8 7 9 8 10 11 11 12 12
REMARK SMILES IDX 13 13 19 14 15 15 17 16 14 17 16 19 18 21 9 23 1 25 5 27
REMARK H PARENT 14 18 16 20 18 22 9 24 1 26 5 28
REMARK Flexibility Score: inf
ROOT
ATOM      1  C   UNL     1      24.417 -21.857  26.305  1.00  0.00     0.402 A 
ATOM      2  O   UNL     1      23.517 -20.892  26.140  1.00  0.00    -0.202 OA
ATOM      3  C   UNL     1      23.638 -19.682  26.674  1.00  0.00     0.368 A 
ATOM      4  C   UNL     1      22.635 -18.735  26.447  1.00  0.00     0.162 A 
ATOM      5  C   UNL     1      22.736 -17.454  26.999  1.00  0.00     0.128 A 
ATOM      6  C   UNL     1      23.843 -17.120  27.783  1.00  0.00     0.093 A 
ATOM      7  C   UNL     1      24.860 -18.051  28.027  1.00  0.00     0.136 A 
ATOM      8  C   UNL     1      24.764 -19.351  27.466  1.00  0.00     0.125 A 
ATOM      9  C   UNL     1      25.742 -20.344  27.645  1.00  0.00     0.078 A 
ATOM     10  C   UNL     1      25.579 -21.602  27.057  1.00  0.00     0.223 A 
ENDROOT
BRANCH   1  11
ATOM     11  C   UNL     1      24.164 -23.169  25.667  1.00  0.00     0.091 A 
ATOM     12  C   UNL     1      23.552 -24.190  26.410  1.00  0.00     0.068 A 
ATOM     13  C   UNL     1      23.319 -25.446  25.841  1.00  0.00     0.162 A 
ATOM     14  C   UNL     1      24.575 -23.435  24.350  1.00  0.00     0.068 A 
ATOM     15  C   UNL     1      23.712 -25.700  24.516  1.00  0.00     0.200 A 
ATOM     16  C   UNL     1      24.348 -24.691  23.772  1.00  0.00     0.162 A 
BRANCH  13  17
ATOM     17  O   UNL     1      22.694 -26.429  26.608  1.00  0.00    -0.504 OA
ATOM     18  H   UNL     1      23.219 -27.142  27.100  1.00  0.00     0.293 HD
ENDBRANCH  13  17
BRANCH  15  19
ATOM     19  O   UNL     1      23.473 -26.955  23.954  1.00  0.00    -0.502 OA
ATOM     20  H   UNL     1      23.540 -27.122  22.957  1.00  0.00     0.293 HD
ENDBRANCH  15  19
BRANCH  16  21
ATOM     21  O   UNL     1      24.754 -24.941  22.462  1.00  0.00    -0.504 OA
ATOM     22  H   UNL     1      24.742 -25.877  22.071  1.00  0.00     0.293 HD
ENDBRANCH  16  21
ENDBRANCH   1  11
BRANCH  10  23
ATOM     23  O   UNL     1      26.573 -22.571  27.193  1.00  0.00    -0.500 OA
ATOM     24  H   UNL     1      27.129 -22.878  26.403  1.00  0.00     0.294 HD
ENDBRANCH  10  23
BRANCH   5  25
ATOM     25  O   UNL     1      21.741 -16.505  26.777  1.00  0.00    -0.507 OA
ATOM     26  H   UNL     1      21.730 -15.934  25.940  1.00  0.00     0.293 HD
ENDBRANCH   5  25
BRANCH   7  27
ATOM     27  O   UNL     1      25.932 -17.640  28.824  1.00  0.00    -0.507 OA
ATOM     28  H   UNL     1      26.532 -18.266  29.340  1.00  0.00     0.293 HD
ENDBRANCH   7  27
TORSDOF 7
ENDMDL
MODEL 8
REMARK VINA RESULT:    -6.879      5.170      7.958
REMARK INTER + INTRA:          -8.773
REMARK INTER:                  -8.394
REMARK INTRA:                  -0.379
REMARK UNBOUND:                -0.285
REMARK SMILES Oc1cc(O)c2cc(O)c(-c3cc(O)c(O)c(O)c3)[o+]c2c1
REMARK SMILES IDX 10 1 20 2 21 3 22 4 2 5 3 6 4 7 6 8 7 9 8 10 11 11 12 12
REMARK SMILES IDX 13 13 19 14 15 15 17 16 14 17 16 19 18 21 9 23 1 25 5 27
REMARK H PARENT 14 18 16 20 18 22 9 24 1 26 5 28
REMARK Flexibility Score: inf
ROOT
ATOM      1  C   UNL     1      23.522 -21.629  26.583  1.00  0.00     0.402 A 
ATOM      2  O   UNL     1      24.569 -21.234  27.304  1.00  0.00    -0.202 OA
ATOM      3  C   UNL     1      24.643 -20.045  27.890  1.00  0.00     0.368 A 
ATOM      4  C   UNL     1      25.788 -19.720  28.624  1.00  0.00     0.162 A 
ATOM      5  C   UNL     1      25.893 -18.474  29.251  1.00  0.00     0.128 A 
ATOM      6  C   UNL     1      24.853 -17.549  29.140  1.00  0.00     0.093 A 
ATOM      7  C   UNL     1      23.697 -17.851  28.409  1.00  0.00     0.136 A 
ATOM      8  C   UNL     1      23.582 -19.115  27.774  1.00  0.00     0.125 A 
ATOM      9  C   UNL     1      22.456 -19.508  27.033  1.00  0.00     0.078 A 
ATOM     10  C   UNL     1      22.414 -20.773  26.440  1.00  0.00     0.223 A 
ENDROOT
BRANCH   1  11
ATOM     11  C   UNL     1      23.562 -22.976  25.969  1.00  0.00     0.091 A 
ATOM     12  C   UNL     1      24.006 -23.117  24.646  1.00  0.00     0.068 A 
ATOM     13  C   UNL     1      24.035 -24.374  24.032  1.00  0.00     0.162 A 
ATOM     14  C   UNL     1      23.109 -24.111  26.663  1.00  0.00     0.068 A 
ATOM     15  C   UNL     1      23.602 -25.509  24.737  1.00  0.00     0.200 A 
ATOM     16  C   UNL     1      23.133 -25.374  26.056  1.00  0.00     0.162 A 
BRANCH  13  17
ATOM     17  O   UNL     1      24.498 -24.474  22.720  1.00  0.00    -0.504 OA
ATOM     18  H   UNL     1      25.021 -25.278  22.393  1.00  0.00     0.293 HD
ENDBRANCH  13  17
BRANCH  15  19
ATOM     19  O   UNL     1      23.637 -26.761  24.120  1.00  0.00    -0.502 OA
ATOM     20  H   UNL     1      23.583 -27.624  24.647  1.00  0.00     0.293 HD
ENDBRANCH  15  19
BRANCH  16  21
ATOM     21  O   UNL     1      22.688 -26.494  26.756  1.00  0.00    -0.504 OA
ATOM     22  H   UNL     1      22.373 -27.331  26.277  1.00  0.00     0.293 HD
ENDBRANCH  16  21
ENDBRANCH   1  11
BRANCH  10  23
ATOM     23  O   UNL     1      21.275 -21.184  25.746  1.00  0.00    -0.500 OA
ATOM     24  H   UNL     1      21.281 -21.311  24.741  1.00  0.00     0.294 HD
ENDBRANCH  10  23
BRANCH   5  25
ATOM     25  O   UNL     1      27.031 -18.143  29.984  1.00  0.00    -0.507 OA
ATOM     26  H   UNL     1      27.063 -18.254  30.991  1.00  0.00     0.293 HD
ENDBRANCH   5  25
BRANCH   7  27
ATOM     27  O   UNL     1      22.702 -16.870  28.344  1.00  0.00    -0.507 OA
ATOM     28  H   UNL     1      21.844 -16.962  27.822  1.00  0.00     0.293 HD
ENDBRANCH   7  27
TORSDOF 7
ENDMDL
MODEL 9
REMARK VINA RESULT:    -6.847      5.232      8.047
REMARK INTER + INTRA:          -8.733
REMARK INTER:                  -8.355
REMARK INTRA:                  -0.378
REMARK UNBOUND:                -0.285
REMARK SMILES Oc1cc(O)c2cc(O)c(-c3cc(O)c(O)c(O)c3)[o+]c2c1
REMARK SMILES IDX 10 1 20 2 21 3 22 4 2 5 3 6 4 7 6 8 7 9 8 10 11 11 12 12
REMARK SMILES IDX 13 13 19 14 15 15 17 16 14 17 16 19 18 21 9 23 1 25 5 27
REMARK H PARENT 14 18 16 20 18 22 9 24 1 26 5 28
REMARK Flexibility Score: inf
ROOT
ATOM      1  C   UNL     1      24.398 -20.866  26.206  1.00  0.00     0.402 A 
ATOM      2  O   UNL     1      23.774 -21.924  26.718  1.00  0.00    -0.202 OA
ATOM      3  C   UNL     1      23.736 -23.109  26.120  1.00  0.00     0.368 A 
ATOM      4  C   UNL     1      23.052 -24.160  26.736  1.00  0.00     0.162 A 
ATOM      5  C   UNL     1      22.994 -25.418  26.126  1.00  0.00     0.128 A 
ATOM      6  C   UNL     1      23.621 -25.624  24.896  1.00  0.00     0.093 A 
ATOM      7  C   UNL     1      24.312 -24.586  24.257  1.00  0.00     0.136 A 
ATOM      8  C   UNL     1      24.377 -23.309  24.872  1.00  0.00     0.125 A 
ATOM      9  C   UNL     1      25.058 -22.215  24.313  1.00  0.00     0.078 A 
ATOM     10  C   UNL     1      25.081 -20.988  24.982  1.00  0.00     0.223 A 
ENDROOT
BRANCH   1  11
ATOM     11  C   UNL     1      24.361 -19.595  26.964  1.00  0.00     0.091 A 
ATOM     12  C   UNL     1      23.326 -18.678  26.722  1.00  0.00     0.068 A 
ATOM     13  C   UNL     1      23.276 -17.460  27.409  1.00  0.00     0.162 A 
ATOM     14  C   UNL     1      25.371 -19.259  27.881  1.00  0.00     0.068 A 
ATOM     15  C   UNL     1      24.277 -17.138  28.340  1.00  0.00     0.200 A 
ATOM     16  C   UNL     1      25.330 -18.040  28.572  1.00  0.00     0.162 A 
BRANCH  13  17
ATOM     17  O   UNL     1      22.223 -16.583  27.151  1.00  0.00    -0.504 OA
ATOM     18  H   UNL     1      22.314 -15.581  27.271  1.00  0.00     0.293 HD
ENDBRANCH  13  17
BRANCH  15  19
ATOM     19  O   UNL     1      24.218 -15.922  29.024  1.00  0.00    -0.502 OA
ATOM     20  H   UNL     1      23.758 -15.829  29.922  1.00  0.00     0.293 HD
ENDBRANCH  15  19
BRANCH  16  21
ATOM     21  O   UNL     1      26.334 -17.720  29.484  1.00  0.00    -0.504 OA
ATOM     22  H   UNL     1      26.122 -17.309  30.387  1.00  0.00     0.293 HD
ENDBRANCH  16  21
ENDBRANCH   1  11
BRANCH  10  23
ATOM     23  O   UNL     1      25.800 -19.915  24.451  1.00  0.00    -0.500 OA
ATOM     24  H   UNL     1      25.725 -19.656  23.474  1.00  0.00     0.294 HD
ENDBRANCH  10  23
BRANCH   5  25
ATOM     25  O   UNL     1      22.314 -26.470  26.735  1.00  0.00    -0.507 OA
ATOM     26  H   UNL     1      21.671 -27.057  26.216  1.00  0.00     0.293 HD
ENDBRANCH   5  25
BRANCH   7  27
ATOM     27  O   UNL     1      24.909 -24.872  23.026  1.00  0.00    -0.507 OA
ATOM     28  H   UNL     1      25.614 -24.298  22.587  1.00  0.00     0.293 HD
ENDBRANCH   7  27
TORSDOF 7
ENDMDL
