MODEL 1
REMARK VINA RESULT:    -4.207      0.000      0.000
REMARK INTER + INTRA:          -6.442
REMARK INTER:                  -6.421
REMARK INTRA:                  -0.021
REMARK UNBOUND:                -0.021
REMARK SMILES CC1=CCC[C@@H](C)C(=O)C[C@H](C(C)C)C(=O)C1
REMARK SMILES IDX 8 1 9 2 6 3 7 4 5 5 4 6 3 7 2 8 1 9 10 11 11 12 15 13 16 14
REMARK SMILES IDX 17 15 12 17 13 18 14 19
REMARK H PARENT
REMARK Flexibility Score: 70.00
ROOT
ATOM      1  C   UNL     1      52.716  31.780  32.042  1.00  0.00     0.136 C 
ATOM      2  O   UNL     1      53.446  30.825  31.825  1.00  0.00    -0.299 OA
ENDROOT
BRANCH   1   3
ATOM      3  C   UNL     1      51.248  31.657  31.635  1.00  0.00     0.053 C 
ATOM      4  C   UNL     1      51.174  31.479  30.112  1.00  0.00     0.016 C 
BRANCH   3   5
ATOM      5  C   UNL     1      50.305  32.810  32.070  1.00  0.00     0.015 C 
BRANCH   5   6
ATOM      6  C   UNL     1      50.228  33.985  31.065  1.00  0.00     0.028 C 
BRANCH   6   7
ATOM      7  C   UNL     1      50.395  35.316  31.763  1.00  0.00    -0.028 C 
ATOM      8  C   UNL     1      51.462  36.140  31.646  1.00  0.00    -0.070 CG0
ATOM      9  C   UNL     1      51.418  37.459  32.375  1.00  0.00     0.039 C 
ATOM     10  G   UNL     1      52.696  35.791  30.835  1.00  0.00     0.000 G0
ENDBRANCH   6   7
ENDBRANCH   5   6
ENDBRANCH   3   5
ENDBRANCH   1   3
BRANCH   1  11
ATOM     11  C   UNL     1      53.340  33.021  32.652  1.00  0.00     0.087 C 
BRANCH  11  12
ATOM     12  C   UNL     1      54.247  33.819  31.672  1.00  0.00     0.066 C 
BRANCH  12  13
ATOM     13  C   UNL     1      53.843  35.285  31.672  1.00  0.00     0.140 C 
ATOM     14  O   UNL     1      54.466  36.085  32.356  1.00  0.00    -0.299 OA
BRANCH  13  15
ATOM     15  C   UNL     1      52.708  35.791  30.823  1.00  0.00     0.106 CG0
ATOM     16  G   UNL     1      51.477  36.129  31.642  1.00  0.00     0.000 G0
ENDBRANCH  13  15
ENDBRANCH  12  13
BRANCH  12  17
ATOM     17  C   UNL     1      55.784  33.655  31.921  1.00  0.00    -0.006 C 
ATOM     18  C   UNL     1      56.330  32.428  31.166  1.00  0.00     0.008 C 
ATOM     19  C   UNL     1      56.130  33.512  33.414  1.00  0.00     0.008 C 
ENDBRANCH  12  17
ENDBRANCH  11  12
ENDBRANCH   1  11
TORSDOF 1
ENDMDL
MODEL 2
REMARK VINA RESULT:    -4.144      1.753      3.907
REMARK INTER + INTRA:          -6.345
REMARK INTER:                  -6.382
REMARK INTRA:                   0.037
REMARK UNBOUND:                -0.021
REMARK SMILES CC1=CCC[C@@H](C)C(=O)C[C@H](C(C)C)C(=O)C1
REMARK SMILES IDX 8 1 9 2 6 3 7 4 5 5 4 6 3 7 2 8 1 9 10 11 11 12 15 13 16 14
REMARK SMILES IDX 17 15 12 17 13 18 14 19
REMARK H PARENT
REMARK Flexibility Score: 70.00
ROOT
ATOM      1  C   UNL     1      53.942  34.987  32.166  1.00  0.00     0.136 C 
ATOM      2  O   UNL     1      54.649  34.785  33.142  1.00  0.00    -0.299 OA
ENDROOT
BRANCH   1   3
ATOM      3  C   UNL     1      53.523  36.428  31.881  1.00  0.00     0.053 C 
ATOM      4  C   UNL     1      53.670  37.247  33.172  1.00  0.00     0.016 C 
BRANCH   3   5
ATOM      5  C   UNL     1      52.103  36.639  31.292  1.00  0.00     0.015 C 
BRANCH   5   6
ATOM      6  C   UNL     1      50.950  36.328  32.277  1.00  0.00     0.028 C 
BRANCH   6   7
ATOM      7  C   UNL     1      49.893  35.461  31.629  1.00  0.00    -0.028 C 
ATOM      8  C   UNL     1      49.683  34.149  31.884  1.00  0.00    -0.070 CG0
ATOM      9  C   UNL     1      48.536  33.468  31.180  1.00  0.00     0.039 C 
ATOM     10  G   UNL     1      50.552  33.336  32.825  1.00  0.00     0.000 G0
ENDBRANCH   6   7
ENDBRANCH   5   6
ENDBRANCH   3   5
ENDBRANCH   1   3
BRANCH   1  11
ATOM     11  C   UNL     1      53.503  33.785  31.350  1.00  0.00     0.087 C 
BRANCH  11  12
ATOM     12  C   UNL     1      53.026  32.579  32.209  1.00  0.00     0.066 C 
BRANCH  12  13
ATOM     13  C   UNL     1      51.520  32.414  32.077  1.00  0.00     0.140 C 
ATOM     14  O   UNL     1      51.067  31.516  31.381  1.00  0.00    -0.299 OA
BRANCH  13  15
ATOM     15  C   UNL     1      50.560  33.314  32.809  1.00  0.00     0.106 CG0
ATOM     16  G   UNL     1      49.682  34.115  31.866  1.00  0.00     0.000 G0
ENDBRANCH  13  15
ENDBRANCH  12  13
BRANCH  12  17
ATOM     17  C   UNL     1      53.771  31.233  31.918  1.00  0.00    -0.006 C 
ATOM     18  C   UNL     1      53.631  30.264  33.108  1.00  0.00     0.008 C 
ATOM     19  C   UNL     1      55.267  31.437  31.619  1.00  0.00     0.008 C 
ENDBRANCH  12  17
ENDBRANCH  11  12
ENDBRANCH   1  11
TORSDOF 1
ENDMDL
MODEL 3
REMARK VINA RESULT:    -4.008      1.882      4.359
REMARK INTER + INTRA:          -6.137
REMARK INTER:                  -6.026
REMARK INTRA:                  -0.111
REMARK UNBOUND:                -0.021
REMARK SMILES CC1=CCC[C@@H](C)C(=O)C[C@H](C(C)C)C(=O)C1
REMARK SMILES IDX 8 1 9 2 6 3 7 4 5 5 4 6 3 7 2 8 1 9 10 11 11 12 15 13 16 14
REMARK SMILES IDX 17 15 12 17 13 18 14 19
REMARK H PARENT
REMARK Flexibility Score: 70.00
ROOT
ATOM      1  C   UNL     1      52.640  32.616  31.709  1.00  0.00     0.136 C 
ATOM      2  O   UNL     1      51.663  32.353  32.394  1.00  0.00    -0.299 OA
ENDROOT
BRANCH   1   3
ATOM      3  C   UNL     1      53.724  31.546  31.581  1.00  0.00     0.053 C 
ATOM      4  C   UNL     1      53.588  30.566  32.754  1.00  0.00     0.016 C 
BRANCH   3   5
ATOM      5  C   UNL     1      55.190  32.046  31.489  1.00  0.00     0.015 C 
BRANCH   5   6
ATOM      6  C   UNL     1      55.663  32.866  32.713  1.00  0.00     0.028 C 
BRANCH   6   7
ATOM      7  C   UNL     1      56.517  34.041  32.291  1.00  0.00    -0.028 C 
ATOM      8  C   UNL     1      56.220  35.346  32.495  1.00  0.00    -0.070 CG0
ATOM      9  C   UNL     1      57.230  36.376  32.055  1.00  0.00     0.039 C 
ATOM     10  G   UNL     1      54.922  35.813  33.125  1.00  0.00     0.000 G0
ENDBRANCH   6   7
ENDBRANCH   5   6
ENDBRANCH   3   5
ENDBRANCH   1   3
BRANCH   1  11
ATOM     11  C   UNL     1      52.715  33.997  31.086  1.00  0.00     0.087 C 
BRANCH  11  12
ATOM     12  C   UNL     1      52.556  35.161  32.106  1.00  0.00     0.066 C 
BRANCH  12  13
ATOM     13  C   UNL     1      53.810  36.022  32.107  1.00  0.00     0.140 C 
ATOM     14  O   UNL     1      53.931  36.915  31.281  1.00  0.00    -0.299 OA
BRANCH  13  15
ATOM     15  C   UNL     1      54.902  35.824  33.124  1.00  0.00     0.106 CG0
ATOM     16  G   UNL     1      56.197  35.343  32.498  1.00  0.00     0.000 G0
ENDBRANCH  13  15
ENDBRANCH  12  13
BRANCH  12  17
ATOM     17  C   UNL     1      51.270  36.032  31.912  1.00  0.00    -0.006 C 
ATOM     18  C   UNL     1      50.449  36.090  33.213  1.00  0.00     0.008 C 
ATOM     19  C   UNL     1      50.368  35.510  30.779  1.00  0.00     0.008 C 
ENDBRANCH  12  17
ENDBRANCH  11  12
ENDBRANCH   1  11
TORSDOF 1
ENDMDL
MODEL 4
REMARK VINA RESULT:    -3.888      2.042      4.394
REMARK INTER + INTRA:          -5.955
REMARK INTER:                  -5.674
REMARK INTRA:                  -0.281
REMARK UNBOUND:                -0.021
REMARK SMILES CC1=CCC[C@@H](C)C(=O)C[C@H](C(C)C)C(=O)C1
REMARK SMILES IDX 8 1 9 2 6 3 7 4 5 5 4 6 3 7 2 8 1 9 10 11 11 12 15 13 16 14
REMARK SMILES IDX 17 15 12 17 13 18 14 19
REMARK H PARENT
REMARK Flexibility Score: 70.00
ROOT
ATOM      1  C   UNL     1      53.297  33.610  31.232  1.00  0.00     0.136 C 
ATOM      2  O   UNL     1      52.663  32.574  31.363  1.00  0.00    -0.299 OA
ENDROOT
BRANCH   1   3
ATOM      3  C   UNL     1      54.711  33.654  31.811  1.00  0.00     0.053 C 
ATOM      4  C   UNL     1      55.449  32.371  31.402  1.00  0.00     0.016 C 
BRANCH   3   5
ATOM      5  C   UNL     1      54.831  33.855  33.345  1.00  0.00     0.015 C 
BRANCH   5   6
ATOM      6  C   UNL     1      54.730  35.329  33.805  1.00  0.00     0.028 C 
BRANCH   6   7
ATOM      7  C   UNL     1      55.541  36.241  32.913  1.00  0.00    -0.028 C 
ATOM      8  C   UNL     1      55.083  37.357  32.299  1.00  0.00    -0.070 CG0
ATOM      9  C   UNL     1      56.064  38.173  31.495  1.00  0.00     0.039 C 
ATOM     10  G   UNL     1      53.637  37.809  32.369  1.00  0.00     0.000 G0
ENDBRANCH   6   7
ENDBRANCH   5   6
ENDBRANCH   3   5
ENDBRANCH   1   3
BRANCH   1  11
ATOM     11  C   UNL     1      52.610  34.777  30.549  1.00  0.00     0.087 C 
BRANCH  11  12
ATOM     12  C   UNL     1      52.070  35.856  31.531  1.00  0.00     0.066 C 
BRANCH  12  13
ATOM     13  C   UNL     1      52.780  37.179  31.288  1.00  0.00     0.140 C 
ATOM     14  O   UNL     1      52.637  37.755  30.218  1.00  0.00    -0.299 OA
BRANCH  13  15
ATOM     15  C   UNL     1      53.637  37.820  32.345  1.00  0.00     0.106 CG0
ATOM     16  G   UNL     1      55.074  37.335  32.301  1.00  0.00     0.000 G0
ENDBRANCH  13  15
ENDBRANCH  12  13
BRANCH  12  17
ATOM     17  C   UNL     1      50.515  36.036  31.515  1.00  0.00    -0.006 C 
ATOM     18  C   UNL     1      50.030  36.705  32.816  1.00  0.00     0.008 C 
ATOM     19  C   UNL     1      49.767  34.703  31.335  1.00  0.00     0.008 C 
ENDBRANCH  12  17
ENDBRANCH  11  12
ENDBRANCH   1  11
TORSDOF 1
ENDMDL
MODEL 5
REMARK VINA RESULT:    -3.864      2.138      3.238
REMARK INTER + INTRA:          -5.918
REMARK INTER:                  -5.748
REMARK INTRA:                  -0.170
REMARK UNBOUND:                -0.021
REMARK SMILES CC1=CCC[C@@H](C)C(=O)C[C@H](C(C)C)C(=O)C1
REMARK SMILES IDX 8 1 9 2 6 3 7 4 5 5 4 6 3 7 2 8 1 9 10 11 11 12 15 13 16 14
REMARK SMILES IDX 17 15 12 17 13 18 14 19
REMARK H PARENT
REMARK Flexibility Score: 70.00
ROOT
ATOM      1  C   UNL     1      51.942  34.383  31.548  1.00  0.00     0.136 C 
ATOM      2  O   UNL     1      51.749  33.924  30.433  1.00  0.00    -0.299 OA
ENDROOT
BRANCH   1   3
ATOM      3  C   UNL     1      51.269  35.710  31.895  1.00  0.00     0.053 C 
ATOM      4  C   UNL     1      49.758  35.473  32.031  1.00  0.00     0.016 C 
BRANCH   3   5
ATOM      5  C   UNL     1      51.522  36.896  30.926  1.00  0.00     0.015 C 
BRANCH   5   6
ATOM      6  C   UNL     1      52.997  37.361  30.859  1.00  0.00     0.028 C 
BRANCH   6   7
ATOM      7  C   UNL     1      53.509  37.764  32.224  1.00  0.00    -0.028 C 
ATOM      8  C   UNL     1      54.586  37.236  32.851  1.00  0.00    -0.070 CG0
ATOM      9  C   UNL     1      54.978  37.813  34.187  1.00  0.00     0.039 C 
ATOM     10  G   UNL     1      55.398  36.088  32.280  1.00  0.00     0.000 G0
ENDBRANCH   6   7
ENDBRANCH   5   6
ENDBRANCH   3   5
ENDBRANCH   1   3
BRANCH   1  11
ATOM     11  C   UNL     1      52.872  33.621  32.474  1.00  0.00     0.087 C 
BRANCH  11  12
ATOM     12  C   UNL     1      54.369  33.680  32.056  1.00  0.00     0.066 C 
BRANCH  12  13
ATOM     13  C   UNL     1      55.088  34.754  32.859  1.00  0.00     0.140 C 
ATOM     14  O   UNL     1      55.431  34.522  34.010  1.00  0.00    -0.299 OA
BRANCH  13  15
ATOM     15  C   UNL     1      55.419  36.096  32.263  1.00  0.00     0.106 CG0
ATOM     16  G   UNL     1      54.592  37.217  32.864  1.00  0.00     0.000 G0
ENDBRANCH  13  15
ENDBRANCH  12  13
BRANCH  12  17
ATOM     17  C   UNL     1      55.126  32.312  32.134  1.00  0.00    -0.006 C 
ATOM     18  C   UNL     1      56.385  32.334  31.247  1.00  0.00     0.008 C 
ATOM     19  C   UNL     1      54.244  31.123  31.713  1.00  0.00     0.008 C 
ENDBRANCH  12  17
ENDBRANCH  11  12
ENDBRANCH   1  11
TORSDOF 1
ENDMDL
MODEL 6
REMARK VINA RESULT:    -3.836      1.816      4.320
REMARK INTER + INTRA:          -5.874
REMARK INTER:                  -5.923
REMARK INTRA:                   0.048
REMARK UNBOUND:                -0.021
REMARK SMILES CC1=CCC[C@@H](C)C(=O)C[C@H](C(C)C)C(=O)C1
REMARK SMILES IDX 8 1 9 2 6 3 7 4 5 5 4 6 3 7 2 8 1 9 10 11 11 12 15 13 16 14
REMARK SMILES IDX 17 15 12 17 13 18 14 19
REMARK H PARENT
REMARK Flexibility Score: 70.00
ROOT
ATOM      1  C   UNL     1      51.994  32.684  31.546  1.00  0.00     0.136 C 
ATOM      2  O   UNL     1      51.342  32.161  32.437  1.00  0.00    -0.299 OA
ENDROOT
BRANCH   1   3
ATOM      3  C   UNL     1      53.485  32.356  31.472  1.00  0.00     0.053 C 
ATOM      4  C   UNL     1      53.772  31.165  32.398  1.00  0.00     0.016 C 
BRANCH   3   5
ATOM      5  C   UNL     1      54.471  33.510  31.792  1.00  0.00     0.015 C 
BRANCH   5   6
ATOM      6  C   UNL     1      53.989  34.473  32.904  1.00  0.00     0.028 C 
BRANCH   6   7
ATOM      7  C   UNL     1      54.010  35.910  32.435  1.00  0.00    -0.028 C 
ATOM      8  C   UNL     1      52.945  36.745  32.401  1.00  0.00    -0.070 CG0
ATOM      9  C   UNL     1      53.178  38.167  31.957  1.00  0.00     0.039 C 
ATOM     10  G   UNL     1      51.539  36.313  32.770  1.00  0.00     0.000 G0
ENDBRANCH   6   7
ENDBRANCH   5   6
ENDBRANCH   3   5
ENDBRANCH   1   3
BRANCH   1  11
ATOM     11  C   UNL     1      51.278  33.651  30.621  1.00  0.00     0.087 C 
BRANCH  11  12
ATOM     12  C   UNL     1      50.202  34.523  31.329  1.00  0.00     0.066 C 
BRANCH  12  13
ATOM     13  C   UNL     1      50.733  35.933  31.536  1.00  0.00     0.140 C 
ATOM     14  O   UNL     1      50.488  36.800  30.708  1.00  0.00    -0.299 OA
BRANCH  13  15
ATOM     15  C   UNL     1      51.533  36.304  32.755  1.00  0.00     0.106 CG0
ATOM     16  G   UNL     1      52.940  36.756  32.410  1.00  0.00     0.000 G0
ENDBRANCH  13  15
ENDBRANCH  12  13
BRANCH  12  17
ATOM     17  C   UNL     1      48.805  34.541  30.622  1.00  0.00    -0.006 C 
ATOM     18  C   UNL     1      47.722  35.095  31.568  1.00  0.00     0.008 C 
ATOM     19  C   UNL     1      48.371  33.148  30.134  1.00  0.00     0.008 C 
ENDBRANCH  12  17
ENDBRANCH  11  12
ENDBRANCH   1  11
TORSDOF 1
ENDMDL
MODEL 7
REMARK VINA RESULT:    -3.830      2.427      4.384
REMARK INTER + INTRA:          -5.866
REMARK INTER:                  -5.659
REMARK INTRA:                  -0.206
REMARK UNBOUND:                -0.021
REMARK SMILES CC1=CCC[C@@H](C)C(=O)C[C@H](C(C)C)C(=O)C1
REMARK SMILES IDX 8 1 9 2 6 3 7 4 5 5 4 6 3 7 2 8 1 9 10 11 11 12 15 13 16 14
REMARK SMILES IDX 17 15 12 17 13 18 14 19
REMARK H PARENT
REMARK Flexibility Score: 70.00
ROOT
ATOM      1  C   UNL     1      52.471  34.198  31.679  1.00  0.00     0.136 C 
ATOM      2  O   UNL     1      51.740  34.489  32.613  1.00  0.00    -0.299 OA
ENDROOT
BRANCH   1   3
ATOM      3  C   UNL     1      52.110  32.962  30.856  1.00  0.00     0.053 C 
ATOM      4  C   UNL     1      50.684  33.132  30.313  1.00  0.00     0.016 C 
BRANCH   3   5
ATOM      5  C   UNL     1      52.234  31.588  31.568  1.00  0.00     0.015 C 
BRANCH   5   6
ATOM      6  C   UNL     1      53.407  31.493  32.573  1.00  0.00     0.028 C 
BRANCH   6   7
ATOM      7  C   UNL     1      54.734  31.364  31.859  1.00  0.00    -0.028 C 
ATOM      8  C   UNL     1      55.861  32.050  32.158  1.00  0.00    -0.070 CG0
ATOM      9  C   UNL     1      57.108  31.738  31.369  1.00  0.00     0.039 C 
ATOM     10  G   UNL     1      55.922  33.120  33.232  1.00  0.00     0.000 G0
ENDBRANCH   6   7
ENDBRANCH   5   6
ENDBRANCH   3   5
ENDBRANCH   1   3
BRANCH   1  11
ATOM     11  C   UNL     1      53.699  35.058  31.447  1.00  0.00     0.087 C 
BRANCH  11  12
ATOM     12  C   UNL     1      54.534  35.328  32.732  1.00  0.00     0.066 C 
BRANCH  12  13
ATOM     13  C   UNL     1      55.831  34.535  32.681  1.00  0.00     0.140 C 
ATOM     14  O   UNL     1      56.832  35.043  32.195  1.00  0.00    -0.299 OA
BRANCH  13  15
ATOM     15  C   UNL     1      55.927  33.142  33.243  1.00  0.00     0.106 CG0
ATOM     16  G   UNL     1      55.857  32.076  32.166  1.00  0.00     0.000 G0
ENDBRANCH  13  15
ENDBRANCH  12  13
BRANCH  12  17
ATOM     17  C   UNL     1      54.805  36.840  33.032  1.00  0.00    -0.006 C 
ATOM     18  C   UNL     1      55.126  37.051  34.524  1.00  0.00     0.008 C 
ATOM     19  C   UNL     1      53.617  37.741  32.648  1.00  0.00     0.008 C 
ENDBRANCH  12  17
ENDBRANCH  11  12
ENDBRANCH   1  11
TORSDOF 1
ENDMDL
MODEL 8
REMARK VINA RESULT:    -3.768      3.057      4.350
REMARK INTER + INTRA:          -5.771
REMARK INTER:                  -5.830
REMARK INTRA:                   0.060
REMARK UNBOUND:                -0.021
REMARK SMILES CC1=CCC[C@@H](C)C(=O)C[C@H](C(C)C)C(=O)C1
REMARK SMILES IDX 8 1 9 2 6 3 7 4 5 5 4 6 3 7 2 8 1 9 10 11 11 12 15 13 16 14
REMARK SMILES IDX 17 15 12 17 13 18 14 19
REMARK H PARENT
REMARK Flexibility Score: 70.00
ROOT
ATOM      1  C   UNL     1      47.929  33.926  31.184  1.00  0.00     0.136 C 
ATOM      2  O   UNL     1      47.916  33.307  30.131  1.00  0.00    -0.299 OA
ENDROOT
BRANCH   1   3
ATOM      3  C   UNL     1      46.604  34.497  31.686  1.00  0.00     0.053 C 
ATOM      4  C   UNL     1      45.459  33.863  30.883  1.00  0.00     0.016 C 
BRANCH   3   5
ATOM      5  C   UNL     1      46.457  36.042  31.666  1.00  0.00     0.015 C 
BRANCH   5   6
ATOM      6  C   UNL     1      47.236  36.743  30.527  1.00  0.00     0.028 C 
BRANCH   6   7
ATOM      7  C   UNL     1      47.889  38.018  31.011  1.00  0.00    -0.028 C 
ATOM      8  C   UNL     1      49.007  38.094  31.769  1.00  0.00    -0.070 CG0
ATOM      9  C   UNL     1      49.543  39.464  32.102  1.00  0.00     0.039 C 
ATOM     10  G   UNL     1      49.729  36.873  32.309  1.00  0.00     0.000 G0
ENDBRANCH   6   7
ENDBRANCH   5   6
ENDBRANCH   3   5
ENDBRANCH   1   3
BRANCH   1  11
ATOM     11  C   UNL     1      49.265  34.114  31.878  1.00  0.00     0.087 C 
BRANCH  11  12
ATOM     12  C   UNL     1      50.376  34.701  30.961  1.00  0.00     0.066 C 
BRANCH  12  13
ATOM     13  C   UNL     1      50.580  36.175  31.275  1.00  0.00     0.140 C 
ATOM     14  O   UNL     1      51.417  36.817  30.655  1.00  0.00    -0.299 OA
BRANCH  13  15
ATOM     15  C   UNL     1      49.753  36.882  32.315  1.00  0.00     0.106 CG0
ATOM     16  G   UNL     1      49.004  38.074  31.749  1.00  0.00     0.000 G0
ENDBRANCH  13  15
ENDBRANCH  12  13
BRANCH  12  17
ATOM     17  C   UNL     1      51.733  33.922  30.994  1.00  0.00    -0.006 C 
ATOM     18  C   UNL     1      51.545  32.478  30.490  1.00  0.00     0.008 C 
ATOM     19  C   UNL     1      52.357  33.878  32.400  1.00  0.00     0.008 C 
ENDBRANCH  12  17
ENDBRANCH  11  12
ENDBRANCH   1  11
TORSDOF 1
ENDMDL
MODEL 9
REMARK VINA RESULT:    -3.648      1.860      2.667
REMARK INTER + INTRA:          -5.588
REMARK INTER:                  -5.881
REMARK INTRA:                   0.293
REMARK UNBOUND:                -0.021
REMARK SMILES CC1=CCC[C@@H](C)C(=O)C[C@H](C(C)C)C(=O)C1
REMARK SMILES IDX 8 1 9 2 6 3 7 4 5 5 4 6 3 7 2 8 1 9 10 11 11 12 15 13 16 14
REMARK SMILES IDX 17 15 12 17 13 18 14 19
REMARK H PARENT
REMARK Flexibility Score: 70.00
ROOT
ATOM      1  C   UNL     1      52.749  32.183  32.488  1.00  0.00     0.136 C 
ATOM      2  O   UNL     1      51.999  31.220  32.428  1.00  0.00    -0.299 OA
ENDROOT
BRANCH   1   3
ATOM      3  C   UNL     1      52.140  33.569  32.278  1.00  0.00     0.053 C 
ATOM      4  C   UNL     1      50.679  33.541  32.751  1.00  0.00     0.016 C 
BRANCH   3   5
ATOM      5  C   UNL     1      52.209  34.152  30.842  1.00  0.00     0.015 C 
BRANCH   5   6
ATOM      6  C   UNL     1      53.069  35.432  30.713  1.00  0.00     0.028 C 
BRANCH   6   7
ATOM      7  C   UNL     1      53.252  36.109  32.053  1.00  0.00    -0.028 C 
ATOM      8  C   UNL     1      54.396  36.135  32.774  1.00  0.00    -0.070 CG0
ATOM      9  C   UNL     1      54.400  36.916  34.064  1.00  0.00     0.039 C 
ATOM     10  G   UNL     1      55.659  35.406  32.355  1.00  0.00     0.000 G0
ENDBRANCH   6   7
ENDBRANCH   5   6
ENDBRANCH   3   5
ENDBRANCH   1   3
BRANCH   1  11
ATOM     11  C   UNL     1      54.224  31.917  32.718  1.00  0.00     0.087 C 
BRANCH  11  12
ATOM     12  C   UNL     1      55.169  32.851  31.908  1.00  0.00     0.066 C 
BRANCH  12  13
ATOM     13  C   UNL     1      55.686  33.965  32.805  1.00  0.00     0.140 C 
ATOM     14  O   UNL     1      56.149  33.693  33.904  1.00  0.00    -0.299 OA
BRANCH  13  15
ATOM     15  C   UNL     1      55.674  35.404  32.363  1.00  0.00     0.106 CG0
ATOM     16  G   UNL     1      54.401  36.124  32.769  1.00  0.00     0.000 G0
ENDBRANCH  13  15
ENDBRANCH  12  13
BRANCH  12  17
ATOM     17  C   UNL     1      56.344  32.120  31.176  1.00  0.00    -0.006 C 
ATOM     18  C   UNL     1      56.622  30.751  31.824  1.00  0.00     0.008 C 
ATOM     19  C   UNL     1      57.645  32.942  31.178  1.00  0.00     0.008 C 
ENDBRANCH  12  17
ENDBRANCH  11  12
ENDBRANCH   1  11
TORSDOF 1
ENDMDL
