MODEL 1
REMARK VINA RESULT:    -3.406      0.000      0.000
REMARK INTER + INTRA:          -4.295
REMARK INTER:                  -4.202
REMARK INTRA:                  -0.093
REMARK UNBOUND:                -0.093
REMARK SMILES CCCCCC(=O)[O-]
REMARK SMILES IDX 4 1 5 2 6 3 7 4 8 5 3 6 2 7 1 8
REMARK H PARENT
REMARK Flexibility Score: inf
ROOT
ATOM      1  C   UNL     1       0.501   4.619   6.799  1.00  0.00     0.006 C 
ENDROOT
BRANCH   1   2
ATOM      2  C   UNL     1      -0.454   5.776   6.477  1.00  0.00     0.053 C 
BRANCH   2   3
ATOM      3  C   UNL     1      -0.524   6.043   5.004  1.00  0.00     0.041 C 
ATOM      4  O   UNL     1      -0.022   5.228   4.186  1.00  0.00    -0.550 OA
ATOM      5  O   UNL     1      -1.172   7.178   4.533  1.00  0.00    -0.550 OA
ENDBRANCH   2   3
ENDBRANCH   1   2
BRANCH   1   6
ATOM      6  C   UNL     1       0.259   4.038   8.200  1.00  0.00     0.000 C 
BRANCH   6   7
ATOM      7  C   UNL     1       0.865   2.636   8.325  1.00  0.00    -0.003 C 
ATOM      8  C   UNL     1       1.568   2.221   7.035  1.00  0.00     0.004 C 
ENDBRANCH   6   7
ENDBRANCH   1   6
TORSDOF 4
ENDMDL
MODEL 2
REMARK VINA RESULT:    -3.349      0.316      1.187
REMARK INTER + INTRA:          -4.225
REMARK INTER:                  -4.097
REMARK INTRA:                  -0.128
REMARK UNBOUND:                -0.093
REMARK SMILES CCCCCC(=O)[O-]
REMARK SMILES IDX 4 1 5 2 6 3 7 4 8 5 3 6 2 7 1 8
REMARK H PARENT
REMARK Flexibility Score: inf
ROOT
ATOM      1  C   UNL     1       0.470   5.105   7.009  1.00  0.00     0.006 C 
ENDROOT
BRANCH   1   2
ATOM      2  C   UNL     1      -0.693   5.980   6.524  1.00  0.00     0.053 C 
BRANCH   2   3
ATOM      3  C   UNL     1      -0.680   6.144   5.035  1.00  0.00     0.041 C 
ATOM      4  O   UNL     1      -1.233   7.142   4.502  1.00  0.00    -0.550 OA
ATOM      5  O   UNL     1      -0.028   5.212   4.238  1.00  0.00    -0.550 OA
ENDBRANCH   2   3
ENDBRANCH   1   2
BRANCH   1   6
ATOM      6  C   UNL     1       0.071   4.208   8.190  1.00  0.00     0.000 C 
BRANCH   6   7
ATOM      7  C   UNL     1       0.881   2.907   8.190  1.00  0.00    -0.003 C 
ATOM      8  C   UNL     1       1.425   2.595   6.798  1.00  0.00     0.004 C 
ENDBRANCH   6   7
ENDBRANCH   1   6
TORSDOF 4
ENDMDL
MODEL 3
REMARK VINA RESULT:    -3.243      1.158      1.755
REMARK INTER + INTRA:          -4.094
REMARK INTER:                  -4.005
REMARK INTRA:                  -0.089
REMARK UNBOUND:                -0.093
REMARK SMILES CCCCCC(=O)[O-]
REMARK SMILES IDX 4 1 5 2 6 3 7 4 8 5 3 6 2 7 1 8
REMARK H PARENT
REMARK Flexibility Score: inf
ROOT
ATOM      1  C   UNL     1       0.334   4.945   6.371  1.00  0.00     0.006 C 
ENDROOT
BRANCH   1   2
ATOM      2  C   UNL     1      -0.215   5.431   5.023  1.00  0.00     0.053 C 
BRANCH   2   3
ATOM      3  C   UNL     1      -1.051   6.664   5.177  1.00  0.00     0.041 C 
ATOM      4  O   UNL     1      -1.113   7.509   4.246  1.00  0.00    -0.550 OA
ATOM      5  O   UNL     1      -1.789   6.864   6.337  1.00  0.00    -0.550 OA
ENDBRANCH   2   3
ENDBRANCH   1   2
BRANCH   1   6
ATOM      6  C   UNL     1       1.303   3.765   6.213  1.00  0.00     0.000 C 
BRANCH   6   7
ATOM      7  C   UNL     1       1.208   2.812   7.411  1.00  0.00    -0.003 C 
ATOM      8  C   UNL     1       0.356   3.411   8.526  1.00  0.00     0.004 C 
ENDBRANCH   6   7
ENDBRANCH   1   6
TORSDOF 4
ENDMDL
MODEL 4
REMARK VINA RESULT:    -3.071      6.829      7.687
REMARK INTER + INTRA:          -3.882
REMARK INTER:                  -3.772
REMARK INTRA:                  -0.110
REMARK UNBOUND:                -0.093
REMARK SMILES CCCCCC(=O)[O-]
REMARK SMILES IDX 4 1 5 2 6 3 7 4 8 5 3 6 2 7 1 8
REMARK H PARENT
REMARK Flexibility Score: inf
ROOT
ATOM      1  C   UNL     1      -0.119  -2.449   6.133  1.00  0.00     0.006 C 
ENDROOT
BRANCH   1   2
ATOM      2  C   UNL     1       0.662  -1.461   5.257  1.00  0.00     0.053 C 
BRANCH   2   3
ATOM      3  C   UNL     1       2.139  -1.568   5.483  1.00  0.00     0.041 C 
ATOM      4  O   UNL     1       2.664  -1.054   6.505  1.00  0.00    -0.550 OA
ATOM      5  O   UNL     1       2.933  -2.264   4.580  1.00  0.00    -0.550 OA
ENDBRANCH   2   3
ENDBRANCH   1   2
BRANCH   1   6
ATOM      6  C   UNL     1      -1.573  -2.614   5.668  1.00  0.00     0.000 C 
BRANCH   6   7
ATOM      7  C   UNL     1      -1.802  -1.916   4.322  1.00  0.00    -0.003 C 
ATOM      8  C   UNL     1      -3.264  -1.511   4.152  1.00  0.00     0.004 C 
ENDBRANCH   6   7
ENDBRANCH   1   6
TORSDOF 4
ENDMDL
MODEL 5
REMARK VINA RESULT:    -2.990     12.036     12.818
REMARK INTER + INTRA:          -3.782
REMARK INTER:                  -3.678
REMARK INTRA:                  -0.104
REMARK UNBOUND:                -0.093
REMARK SMILES CCCCCC(=O)[O-]
REMARK SMILES IDX 4 1 5 2 6 3 7 4 8 5 3 6 2 7 1 8
REMARK H PARENT
REMARK Flexibility Score: inf
ROOT
ATOM      1  C   UNL     1      -0.955  -3.562  -2.288  1.00  0.00     0.006 C 
ENDROOT
BRANCH   1   2
ATOM      2  C   UNL     1      -0.676  -3.454  -3.793  1.00  0.00     0.053 C 
BRANCH   2   3
ATOM      3  C   UNL     1      -1.286  -2.220  -4.382  1.00  0.00     0.041 C 
ATOM      4  O   UNL     1      -2.275  -2.307  -5.156  1.00  0.00    -0.550 OA
ATOM      5  O   UNL     1      -0.781  -0.968  -4.052  1.00  0.00    -0.550 OA
ENDBRANCH   2   3
ENDBRANCH   1   2
BRANCH   1   6
ATOM      6  C   UNL     1      -0.478  -4.899  -1.702  1.00  0.00     0.000 C 
BRANCH   6   7
ATOM      7  C   UNL     1       0.880  -5.302  -2.290  1.00  0.00    -0.003 C 
ATOM      8  C   UNL     1       0.992  -6.818  -2.430  1.00  0.00     0.004 C 
ENDBRANCH   6   7
ENDBRANCH   1   6
TORSDOF 4
ENDMDL
MODEL 6
REMARK VINA RESULT:    -2.983      6.556      7.403
REMARK INTER + INTRA:          -3.773
REMARK INTER:                  -3.653
REMARK INTRA:                  -0.120
REMARK UNBOUND:                -0.093
REMARK SMILES CCCCCC(=O)[O-]
REMARK SMILES IDX 4 1 5 2 6 3 7 4 8 5 3 6 2 7 1 8
REMARK H PARENT
REMARK Flexibility Score: inf
ROOT
ATOM      1  C   UNL     1      -0.266  -2.603   5.815  1.00  0.00     0.006 C 
ENDROOT
BRANCH   1   2
ATOM      2  C   UNL     1      -1.788  -2.532   5.639  1.00  0.00     0.053 C 
BRANCH   2   3
ATOM      3  C   UNL     1      -2.175  -2.405   4.198  1.00  0.00     0.041 C 
ATOM      4  O   UNL     1      -1.970  -3.357   3.399  1.00  0.00    -0.550 OA
ATOM      5  O   UNL     1      -2.793  -1.247   3.742  1.00  0.00    -0.550 OA
ENDBRANCH   2   3
ENDBRANCH   1   2
BRANCH   1   6
ATOM      6  C   UNL     1       0.446  -1.378   5.222  1.00  0.00     0.000 C 
BRANCH   6   7
ATOM      7  C   UNL     1       1.870  -1.251   5.773  1.00  0.00    -0.003 C 
ATOM      8  C   UNL     1       2.809  -2.259   5.117  1.00  0.00     0.004 C 
ENDBRANCH   6   7
ENDBRANCH   1   6
TORSDOF 4
ENDMDL
MODEL 7
REMARK VINA RESULT:    -2.981      6.694      7.450
REMARK INTER + INTRA:          -3.771
REMARK INTER:                  -3.663
REMARK INTRA:                  -0.109
REMARK UNBOUND:                -0.093
REMARK SMILES CCCCCC(=O)[O-]
REMARK SMILES IDX 4 1 5 2 6 3 7 4 8 5 3 6 2 7 1 8
REMARK H PARENT
REMARK Flexibility Score: inf
ROOT
ATOM      1  C   UNL     1      -1.600  -2.795   5.249  1.00  0.00     0.006 C 
ENDROOT
BRANCH   1   2
ATOM      2  C   UNL     1      -1.882  -1.780   4.133  1.00  0.00     0.053 C 
BRANCH   2   3
ATOM      3  C   UNL     1      -3.313  -1.825   3.692  1.00  0.00     0.041 C 
ATOM      4  O   UNL     1      -3.786  -2.871   3.176  1.00  0.00    -0.550 OA
ATOM      5  O   UNL     1      -4.134  -0.721   3.881  1.00  0.00    -0.550 OA
ENDBRANCH   2   3
ENDBRANCH   1   2
BRANCH   1   6
ATOM      6  C   UNL     1      -0.357  -2.425   6.070  1.00  0.00     0.000 C 
BRANCH   6   7
ATOM      7  C   UNL     1       0.551  -1.467   5.291  1.00  0.00    -0.003 C 
ATOM      8  C   UNL     1       1.989  -1.978   5.251  1.00  0.00     0.004 C 
ENDBRANCH   6   7
ENDBRANCH   1   6
TORSDOF 4
ENDMDL
MODEL 8
REMARK VINA RESULT:    -2.963      8.136      8.642
REMARK INTER + INTRA:          -3.749
REMARK INTER:                  -3.674
REMARK INTRA:                  -0.074
REMARK UNBOUND:                -0.093
REMARK SMILES CCCCCC(=O)[O-]
REMARK SMILES IDX 4 1 5 2 6 3 7 4 8 5 3 6 2 7 1 8
REMARK H PARENT
REMARK Flexibility Score: inf
ROOT
ATOM      1  C   UNL     1      -4.455  -0.959   4.441  1.00  0.00     0.006 C 
ENDROOT
BRANCH   1   2
ATOM      2  C   UNL     1      -3.085  -1.554   4.094  1.00  0.00     0.053 C 
BRANCH   2   3
ATOM      3  C   UNL     1      -3.214  -2.799   3.270  1.00  0.00     0.041 C 
ATOM      4  O   UNL     1      -2.185  -3.390   2.848  1.00  0.00    -0.550 OA
ATOM      5  O   UNL     1      -4.470  -3.324   2.995  1.00  0.00    -0.550 OA
ENDBRANCH   2   3
ENDBRANCH   1   2
BRANCH   1   6
ATOM      6  C   UNL     1      -4.832  -1.185   5.912  1.00  0.00     0.000 C 
BRANCH   6   7
ATOM      7  C   UNL     1      -5.645  -0.006   6.459  1.00  0.00    -0.003 C 
ATOM      8  C   UNL     1      -6.116  -0.274   7.885  1.00  0.00     0.004 C 
ENDBRANCH   6   7
ENDBRANCH   1   6
TORSDOF 4
ENDMDL
MODEL 9
REMARK VINA RESULT:    -2.943      7.499      8.261
REMARK INTER + INTRA:          -3.724
REMARK INTER:                  -3.589
REMARK INTRA:                  -0.134
REMARK UNBOUND:                -0.093
REMARK SMILES CCCCCC(=O)[O-]
REMARK SMILES IDX 4 1 5 2 6 3 7 4 8 5 3 6 2 7 1 8
REMARK H PARENT
REMARK Flexibility Score: inf
ROOT
ATOM      1  C   UNL     1      -3.991  -1.951   4.163  1.00  0.00     0.006 C 
ENDROOT
BRANCH   1   2
ATOM      2  C   UNL     1      -2.498  -1.846   3.830  1.00  0.00     0.053 C 
BRANCH   2   3
ATOM      3  C   UNL     1      -1.643  -2.394   4.931  1.00  0.00     0.041 C 
ATOM      4  O   UNL     1      -2.074  -3.320   5.668  1.00  0.00    -0.550 OA
ATOM      5  O   UNL     1      -0.357  -1.906   5.124  1.00  0.00    -0.550 OA
ENDBRANCH   2   3
ENDBRANCH   1   2
BRANCH   1   6
ATOM      6  C   UNL     1      -4.512  -0.709   4.899  1.00  0.00     0.000 C 
BRANCH   6   7
ATOM      7  C   UNL     1      -5.104  -1.086   6.262  1.00  0.00    -0.003 C 
ATOM      8  C   UNL     1      -5.938   0.056   6.837  1.00  0.00     0.004 C 
ENDBRANCH   6   7
ENDBRANCH   1   6
TORSDOF 4
ENDMDL
