MODEL 1
REMARK VINA RESULT:    -5.497      0.000      0.000
REMARK INTER + INTRA:          -6.906
REMARK INTER:                  -6.622
REMARK INTRA:                  -0.284
REMARK UNBOUND:                -0.284
REMARK SMILES O=c1c(O)c(-c2ccc(O)c(O)c2)oc2cc(O)cc(O)c12
REMARK SMILES IDX 5 1 3 2 2 3 1 4 22 5 20 6 19 7 17 8 16 9 15 10 14 11 6 12
REMARK SMILES IDX 7 13 8 14 9 15 13 16 11 17 10 18 12 20 4 22 21 24 18 26
REMARK H PARENT 10 19 12 21 4 23 21 25 18 27
REMARK Flexibility Score: inf
ROOT
ATOM      1  C   UNL     1      -6.731  23.057  -9.037  1.00  0.00     0.180 A 
ATOM      2  C   UNL     1      -6.933  21.773  -9.570  1.00  0.00     0.208 A 
ATOM      3  C   UNL     1      -6.124  20.715  -9.124  1.00  0.00     0.238 A 
ATOM      4  O   UNL     1      -6.274  19.579  -9.646  1.00  0.00    -0.285 OA
ATOM      5  C   UNL     1      -5.135  20.951  -8.139  1.00  0.00     0.111 A 
ATOM      6  C   UNL     1      -4.288  19.945  -7.585  1.00  0.00     0.134 A 
ATOM      7  C   UNL     1      -3.257  20.315  -6.712  1.00  0.00     0.093 A 
ATOM      8  C   UNL     1      -3.086  21.642  -6.322  1.00  0.00     0.123 A 
ATOM      9  C   UNL     1      -3.946  22.625  -6.811  1.00  0.00     0.094 A 
ATOM     10  C   UNL     1      -4.961  22.293  -7.712  1.00  0.00     0.146 A 
ATOM     11  O   UNL     1      -5.751  23.260  -8.162  1.00  0.00    -0.452 OA
ENDROOT
BRANCH   1  12
ATOM     12  C   UNL     1      -7.559  24.217  -9.438  1.00  0.00     0.025 A 
ATOM     13  C   UNL     1      -7.006  25.207 -10.266  1.00  0.00     0.016 A 
ATOM     14  C   UNL     1      -7.764  26.321 -10.640  1.00  0.00     0.051 A 
ATOM     15  C   UNL     1      -9.079  26.468 -10.181  1.00  0.00     0.157 A 
ATOM     16  C   UNL     1      -8.873  24.379  -8.962  1.00  0.00     0.062 A 
ATOM     17  C   UNL     1      -9.633  25.494  -9.333  1.00  0.00     0.158 A 
BRANCH  15  18
ATOM     18  O   UNL     1      -9.833  27.578 -10.557  1.00  0.00    -0.504 OA
ATOM     19  H   UNL     1      -9.921  27.856 -11.528  1.00  0.00     0.293 HD
ENDBRANCH  15  18
BRANCH  17  20
ATOM     20  O   UNL     1     -10.934  25.618  -8.847  1.00  0.00    -0.504 OA
ATOM     21  H   UNL     1     -11.426  24.842  -8.420  1.00  0.00     0.293 HD
ENDBRANCH  17  20
ENDBRANCH   1  12
BRANCH   2  22
ATOM     22  O   UNL     1      -7.900  21.567 -10.559  1.00  0.00    -0.502 OA
ATOM     23  H   UNL     1      -7.967  20.703 -11.082  1.00  0.00     0.293 HD
ENDBRANCH   2  22
BRANCH   6  24
ATOM     24  O   UNL     1      -4.432  18.578  -7.836  1.00  0.00    -0.507 OA
ATOM     25  H   UNL     1      -5.259  18.039  -7.628  1.00  0.00     0.293 HD
ENDBRANCH   6  24
BRANCH   8  26
ATOM     26  O   UNL     1      -2.059  21.973  -5.439  1.00  0.00    -0.508 OA
ATOM     27  H   UNL     1      -1.143  21.546  -5.507  1.00  0.00     0.293 HD
ENDBRANCH   8  26
TORSDOF 6
ENDMDL
MODEL 2
REMARK VINA RESULT:    -5.490      0.768      1.495
REMARK INTER + INTRA:          -6.898
REMARK INTER:                  -6.592
REMARK INTRA:                  -0.306
REMARK UNBOUND:                -0.284
REMARK SMILES O=c1c(O)c(-c2ccc(O)c(O)c2)oc2cc(O)cc(O)c12
REMARK SMILES IDX 5 1 3 2 2 3 1 4 22 5 20 6 19 7 17 8 16 9 15 10 14 11 6 12
REMARK SMILES IDX 7 13 8 14 9 15 13 16 11 17 10 18 12 20 4 22 21 24 18 26
REMARK H PARENT 10 19 12 21 4 23 21 25 18 27
REMARK Flexibility Score: inf
ROOT
ATOM      1  C   UNL     1      -7.151  22.735  -8.548  1.00  0.00     0.180 A 
ATOM      2  C   UNL     1      -7.288  21.497  -9.198  1.00  0.00     0.208 A 
ATOM      3  C   UNL     1      -6.329  20.498  -8.969  1.00  0.00     0.238 A 
ATOM      4  O   UNL     1      -6.427  19.411  -9.596  1.00  0.00    -0.285 OA
ATOM      5  C   UNL     1      -5.254  20.743  -8.079  1.00  0.00     0.111 A 
ATOM      6  C   UNL     1      -4.248  19.789  -7.742  1.00  0.00     0.134 A 
ATOM      7  C   UNL     1      -3.160  20.182  -6.953  1.00  0.00     0.093 A 
ATOM      8  C   UNL     1      -3.076  21.474  -6.437  1.00  0.00     0.123 A 
ATOM      9  C   UNL     1      -4.084  22.398  -6.711  1.00  0.00     0.094 A 
ATOM     10  C   UNL     1      -5.164  22.046  -7.525  1.00  0.00     0.146 A 
ATOM     11  O   UNL     1      -6.097  22.958  -7.771  1.00  0.00    -0.452 OA
ENDROOT
BRANCH   1  12
ATOM     12  C   UNL     1      -8.135  23.829  -8.720  1.00  0.00     0.025 A 
ATOM     13  C   UNL     1      -9.179  23.970  -7.792  1.00  0.00     0.016 A 
ATOM     14  C   UNL     1     -10.131  24.982  -7.947  1.00  0.00     0.051 A 
ATOM     15  C   UNL     1     -10.061  25.858  -9.037  1.00  0.00     0.157 A 
ATOM     16  C   UNL     1      -8.080  24.697  -9.825  1.00  0.00     0.062 A 
ATOM     17  C   UNL     1      -9.032  25.710  -9.983  1.00  0.00     0.158 A 
BRANCH  15  18
ATOM     18  O   UNL     1     -11.009  26.868  -9.188  1.00  0.00    -0.504 OA
ATOM     19  H   UNL     1     -11.801  26.763  -9.812  1.00  0.00     0.293 HD
ENDBRANCH  15  18
BRANCH  17  20
ATOM     20  O   UNL     1      -8.943  26.557 -11.088  1.00  0.00    -0.504 OA
ATOM     21  H   UNL     1      -9.732  26.728 -11.701  1.00  0.00     0.293 HD
ENDBRANCH  17  20
ENDBRANCH   1  12
BRANCH   2  22
ATOM     22  O   UNL     1      -8.344  21.285 -10.089  1.00  0.00    -0.502 OA
ATOM     23  H   UNL     1      -9.243  21.739  -9.986  1.00  0.00     0.293 HD
ENDBRANCH   2  22
BRANCH   6  24
ATOM     24  O   UNL     1      -4.285  18.446  -8.129  1.00  0.00    -0.507 OA
ATOM     25  H   UNL     1      -5.017  18.027  -8.683  1.00  0.00     0.293 HD
ENDBRANCH   6  24
BRANCH   8  26
ATOM     26  O   UNL     1      -1.986  21.827  -5.642  1.00  0.00    -0.508 OA
ATOM     27  H   UNL     1      -1.422  21.128  -5.175  1.00  0.00     0.293 HD
ENDBRANCH   8  26
TORSDOF 6
ENDMDL
MODEL 3
REMARK VINA RESULT:    -5.471      1.639      7.104
REMARK INTER + INTRA:          -6.874
REMARK INTER:                  -6.567
REMARK INTRA:                  -0.307
REMARK UNBOUND:                -0.284
REMARK SMILES O=c1c(O)c(-c2ccc(O)c(O)c2)oc2cc(O)cc(O)c12
REMARK SMILES IDX 5 1 3 2 2 3 1 4 22 5 20 6 19 7 17 8 16 9 15 10 14 11 6 12
REMARK SMILES IDX 7 13 8 14 9 15 13 16 11 17 10 18 12 20 4 22 21 24 18 26
REMARK H PARENT 10 19 12 21 4 23 21 25 18 27
REMARK Flexibility Score: inf
ROOT
ATOM      1  C   UNL     1      -7.504  23.144  -8.955  1.00  0.00     0.180 A 
ATOM      2  C   UNL     1      -8.550  23.320  -8.034  1.00  0.00     0.208 A 
ATOM      3  C   UNL     1      -9.373  24.452  -8.147  1.00  0.00     0.238 A 
ATOM      4  O   UNL     1     -10.274  24.633  -7.286  1.00  0.00    -0.285 OA
ATOM      5  C   UNL     1      -9.150  25.385  -9.189  1.00  0.00     0.111 A 
ATOM      6  C   UNL     1      -9.947  26.546  -9.421  1.00  0.00     0.134 A 
ATOM      7  C   UNL     1      -9.555  27.468 -10.400  1.00  0.00     0.093 A 
ATOM      8  C   UNL     1      -8.435  27.238 -11.197  1.00  0.00     0.123 A 
ATOM      9  C   UNL     1      -7.683  26.077 -11.018  1.00  0.00     0.094 A 
ATOM     10  C   UNL     1      -8.027  25.157 -10.025  1.00  0.00     0.146 A 
ATOM     11  O   UNL     1      -7.278  24.070  -9.881  1.00  0.00    -0.452 OA
ENDROOT
BRANCH   1  12
ATOM     12  C   UNL     1      -6.610  21.964  -8.916  1.00  0.00     0.025 A 
ATOM     13  C   UNL     1      -7.036  20.756  -9.493  1.00  0.00     0.016 A 
ATOM     14  C   UNL     1      -6.217  19.624  -9.449  1.00  0.00     0.051 A 
ATOM     15  C   UNL     1      -4.969  19.678  -8.817  1.00  0.00     0.157 A 
ATOM     16  C   UNL     1      -5.365  22.009  -8.264  1.00  0.00     0.062 A 
ATOM     17  C   UNL     1      -4.544  20.876  -8.218  1.00  0.00     0.158 A 
BRANCH  15  18
ATOM     18  O   UNL     1      -4.153  18.549  -8.777  1.00  0.00    -0.504 OA
ATOM     19  H   UNL     1      -4.391  17.742  -8.211  1.00  0.00     0.293 HD
ENDBRANCH  15  18
BRANCH  17  20
ATOM     20  O   UNL     1      -3.313  20.959  -7.568  1.00  0.00    -0.504 OA
ATOM     21  H   UNL     1      -2.874  21.848  -7.357  1.00  0.00     0.293 HD
ENDBRANCH  17  20
ENDBRANCH   1  12
BRANCH   2  22
ATOM     22  O   UNL     1      -8.739  22.398  -7.000  1.00  0.00    -0.502 OA
ATOM     23  H   UNL     1      -8.357  22.536  -6.072  1.00  0.00     0.293 HD
ENDBRANCH   2  22
BRANCH   6  24
ATOM     24  O   UNL     1     -11.137  26.824  -8.743  1.00  0.00    -0.507 OA
ATOM     25  H   UNL     1     -11.995  26.303  -8.849  1.00  0.00     0.293 HD
ENDBRANCH   6  24
BRANCH   8  26
ATOM     26  O   UNL     1      -8.083  28.169 -12.172  1.00  0.00    -0.508 OA
ATOM     27  H   UNL     1      -8.727  28.890 -12.475  1.00  0.00     0.293 HD
ENDBRANCH   8  26
TORSDOF 6
ENDMDL
MODEL 4
REMARK VINA RESULT:    -5.210      2.745      6.966
REMARK INTER + INTRA:          -6.560
REMARK INTER:                  -6.273
REMARK INTRA:                  -0.288
REMARK UNBOUND:                -0.284
REMARK SMILES O=c1c(O)c(-c2ccc(O)c(O)c2)oc2cc(O)cc(O)c12
REMARK SMILES IDX 5 1 3 2 2 3 1 4 22 5 20 6 19 7 17 8 16 9 15 10 14 11 6 12
REMARK SMILES IDX 7 13 8 14 9 15 13 16 11 17 10 18 12 20 4 22 21 24 18 26
REMARK H PARENT 10 19 12 21 4 23 21 25 18 27
REMARK Flexibility Score: inf
ROOT
ATOM      1  C   UNL     1      -5.792  21.976  -6.551  1.00  0.00     0.180 A 
ATOM      2  C   UNL     1      -6.744  21.815  -5.530  1.00  0.00     0.208 A 
ATOM      3  C   UNL     1      -8.105  21.757  -5.871  1.00  0.00     0.238 A 
ATOM      4  O   UNL     1      -8.956  21.668  -4.947  1.00  0.00    -0.285 OA
ATOM      5  C   UNL     1      -8.496  21.844  -7.229  1.00  0.00     0.111 A 
ATOM      6  C   UNL     1      -9.843  21.756  -7.691  1.00  0.00     0.134 A 
ATOM      7  C   UNL     1     -10.125  21.986  -9.043  1.00  0.00     0.093 A 
ATOM      8  C   UNL     1      -9.104  22.235  -9.959  1.00  0.00     0.123 A 
ATOM      9  C   UNL     1      -7.778  22.263  -9.528  1.00  0.00     0.094 A 
ATOM     10  C   UNL     1      -7.468  22.074  -8.180  1.00  0.00     0.146 A 
ATOM     11  O   UNL     1      -6.194  22.120  -7.809  1.00  0.00    -0.452 OA
ENDROOT
BRANCH   1  12
ATOM     12  C   UNL     1      -4.338  22.020  -6.273  1.00  0.00     0.025 A 
ATOM     13  C   UNL     1      -3.657  23.245  -6.354  1.00  0.00     0.016 A 
ATOM     14  C   UNL     1      -2.281  23.306  -6.116  1.00  0.00     0.051 A 
ATOM     15  C   UNL     1      -1.564  22.143  -5.809  1.00  0.00     0.157 A 
ATOM     16  C   UNL     1      -3.612  20.851  -5.985  1.00  0.00     0.062 A 
ATOM     17  C   UNL     1      -2.233  20.909  -5.748  1.00  0.00     0.158 A 
BRANCH  15  18
ATOM     18  O   UNL     1      -0.193  22.207  -5.570  1.00  0.00    -0.504 OA
ATOM     19  H   UNL     1       0.177  22.496  -4.671  1.00  0.00     0.293 HD
ENDBRANCH  15  18
BRANCH  17  20
ATOM     20  O   UNL     1      -1.546  19.730  -5.459  1.00  0.00    -0.504 OA
ATOM     21  H   UNL     1      -0.695  19.470  -5.944  1.00  0.00     0.293 HD
ENDBRANCH  17  20
ENDBRANCH   1  12
BRANCH   2  22
ATOM     22  O   UNL     1      -6.338  21.754  -4.194  1.00  0.00    -0.502 OA
ATOM     23  H   UNL     1      -6.045  20.891  -3.753  1.00  0.00     0.293 HD
ENDBRANCH   2  22
BRANCH   6  24
ATOM     24  O   UNL     1     -10.928  21.422  -6.876  1.00  0.00    -0.507 OA
ATOM     25  H   UNL     1     -10.852  21.048  -5.941  1.00  0.00     0.293 HD
ENDBRANCH   6  24
BRANCH   8  26
ATOM     26  O   UNL     1      -9.420  22.444 -11.301  1.00  0.00    -0.508 OA
ATOM     27  H   UNL     1      -8.740  22.289 -12.036  1.00  0.00     0.293 HD
ENDBRANCH   8  26
TORSDOF 6
ENDMDL
MODEL 5
REMARK VINA RESULT:    -5.200      1.578      7.132
REMARK INTER + INTRA:          -6.548
REMARK INTER:                  -6.396
REMARK INTRA:                  -0.152
REMARK UNBOUND:                -0.284
REMARK SMILES O=c1c(O)c(-c2ccc(O)c(O)c2)oc2cc(O)cc(O)c12
REMARK SMILES IDX 5 1 3 2 2 3 1 4 22 5 20 6 19 7 17 8 16 9 15 10 14 11 6 12
REMARK SMILES IDX 7 13 8 14 9 15 13 16 11 17 10 18 12 20 4 22 21 24 18 26
REMARK H PARENT 10 19 12 21 4 23 21 25 18 27
REMARK Flexibility Score: inf
ROOT
ATOM      1  C   UNL     1      -5.961  23.229  -9.083  1.00  0.00     0.180 A 
ATOM      2  C   UNL     1      -5.140  24.272  -9.547  1.00  0.00     0.208 A 
ATOM      3  C   UNL     1      -5.712  25.531  -9.790  1.00  0.00     0.238 A 
ATOM      4  O   UNL     1      -4.983  26.446 -10.256  1.00  0.00    -0.285 OA
ATOM      5  C   UNL     1      -7.092  25.737  -9.550  1.00  0.00     0.111 A 
ATOM      6  C   UNL     1      -7.767  26.982  -9.724  1.00  0.00     0.134 A 
ATOM      7  C   UNL     1      -9.159  27.038  -9.583  1.00  0.00     0.093 A 
ATOM      8  C   UNL     1      -9.891  25.911  -9.212  1.00  0.00     0.123 A 
ATOM      9  C   UNL     1      -9.234  24.703  -8.982  1.00  0.00     0.094 A 
ATOM     10  C   UNL     1      -7.850  24.607  -9.150  1.00  0.00     0.146 A 
ATOM     11  O   UNL     1      -7.265  23.435  -8.931  1.00  0.00    -0.452 OA
ENDROOT
BRANCH   1  12
ATOM     12  C   UNL     1      -5.427  21.881  -8.781  1.00  0.00     0.025 A 
ATOM     13  C   UNL     1      -5.954  20.764  -9.448  1.00  0.00     0.016 A 
ATOM     14  C   UNL     1      -5.480  19.481  -9.163  1.00  0.00     0.051 A 
ATOM     15  C   UNL     1      -4.483  19.294  -8.197  1.00  0.00     0.157 A 
ATOM     16  C   UNL     1      -4.441  21.688  -7.797  1.00  0.00     0.062 A 
ATOM     17  C   UNL     1      -3.966  20.404  -7.508  1.00  0.00     0.158 A 
BRANCH  15  18
ATOM     18  O   UNL     1      -4.010  18.014  -7.916  1.00  0.00    -0.504 OA
ATOM     19  H   UNL     1      -3.641  17.773  -7.003  1.00  0.00     0.293 HD
ENDBRANCH  15  18
BRANCH  17  20
ATOM     20  O   UNL     1      -2.983  20.250  -6.530  1.00  0.00    -0.504 OA
ATOM     21  H   UNL     1      -2.463  19.388  -6.420  1.00  0.00     0.293 HD
ENDBRANCH  17  20
ENDBRANCH   1  12
BRANCH   2  22
ATOM     22  O   UNL     1      -3.785  24.041  -9.797  1.00  0.00    -0.502 OA
ATOM     23  H   UNL     1      -3.220  24.669 -10.356  1.00  0.00     0.293 HD
ENDBRANCH   2  22
BRANCH   6  24
ATOM     24  O   UNL     1      -7.120  28.189 -10.005  1.00  0.00    -0.507 OA
ATOM     25  H   UNL     1      -7.203  29.029  -9.451  1.00  0.00     0.293 HD
ENDBRANCH   6  24
BRANCH   8  26
ATOM     26  O   UNL     1     -11.274  26.006  -9.066  1.00  0.00    -0.508 OA
ATOM     27  H   UNL     1     -11.791  26.803  -9.419  1.00  0.00     0.293 HD
ENDBRANCH   8  26
TORSDOF 6
ENDMDL
MODEL 6
REMARK VINA RESULT:    -5.184      1.780      2.498
REMARK INTER + INTRA:          -6.529
REMARK INTER:                  -6.376
REMARK INTRA:                  -0.152
REMARK UNBOUND:                -0.284
REMARK SMILES O=c1c(O)c(-c2ccc(O)c(O)c2)oc2cc(O)cc(O)c12
REMARK SMILES IDX 5 1 3 2 2 3 1 4 22 5 20 6 19 7 17 8 16 9 15 10 14 11 6 12
REMARK SMILES IDX 7 13 8 14 9 15 13 16 11 17 10 18 12 20 4 22 21 24 18 26
REMARK H PARENT 10 19 12 21 4 23 21 25 18 27
REMARK Flexibility Score: inf
ROOT
ATOM      1  C   UNL     1      -7.933  24.139  -9.591  1.00  0.00     0.180 A 
ATOM      2  C   UNL     1      -8.562  22.883  -9.601  1.00  0.00     0.208 A 
ATOM      3  C   UNL     1      -7.783  21.730  -9.417  1.00  0.00     0.238 A 
ATOM      4  O   UNL     1      -8.344  20.605  -9.482  1.00  0.00    -0.285 OA
ATOM      5  C   UNL     1      -6.387  21.848  -9.209  1.00  0.00     0.111 A 
ATOM      6  C   UNL     1      -5.508  20.749  -8.972  1.00  0.00     0.134 A 
ATOM      7  C   UNL     1      -4.127  20.971  -8.910  1.00  0.00     0.093 A 
ATOM      8  C   UNL     1      -3.600  22.258  -9.009  1.00  0.00     0.123 A 
ATOM      9  C   UNL     1      -4.455  23.346  -9.182  1.00  0.00     0.094 A 
ATOM     10  C   UNL     1      -5.835  23.153  -9.284  1.00  0.00     0.146 A 
ATOM     11  O   UNL     1      -6.613  24.214  -9.458  1.00  0.00    -0.452 OA
ENDROOT
BRANCH   1  12
ATOM     12  C   UNL     1      -8.691  25.402  -9.752  1.00  0.00     0.025 A 
ATOM     13  C   UNL     1      -9.650  25.759  -8.792  1.00  0.00     0.016 A 
ATOM     14  C   UNL     1     -10.391  26.935  -8.936  1.00  0.00     0.051 A 
ATOM     15  C   UNL     1     -10.194  27.763 -10.048  1.00  0.00     0.157 A 
ATOM     16  C   UNL     1      -8.510  26.225 -10.878  1.00  0.00     0.062 A 
ATOM     17  C   UNL     1      -9.252  27.402 -11.026  1.00  0.00     0.158 A 
BRANCH  15  18
ATOM     18  O   UNL     1     -10.933  28.937 -10.188  1.00  0.00    -0.504 OA
ATOM     19  H   UNL     1     -10.593  29.823  -9.832  1.00  0.00     0.293 HD
ENDBRANCH  15  18
BRANCH  17  20
ATOM     20  O   UNL     1      -9.043  28.198 -12.152  1.00  0.00    -0.504 OA
ATOM     21  H   UNL     1      -9.242  29.191 -12.154  1.00  0.00     0.293 HD
ENDBRANCH  17  20
ENDBRANCH   1  12
BRANCH   2  22
ATOM     22  O   UNL     1      -9.938  22.788  -9.831  1.00  0.00    -0.502 OA
ATOM     23  H   UNL     1     -10.609  23.393  -9.373  1.00  0.00     0.293 HD
ENDBRANCH   2  22
BRANCH   6  24
ATOM     24  O   UNL     1      -5.938  19.435  -8.765  1.00  0.00    -0.507 OA
ATOM     25  H   UNL     1      -6.160  18.780  -9.499  1.00  0.00     0.293 HD
ENDBRANCH   6  24
BRANCH   8  26
ATOM     26  O   UNL     1      -2.221  22.445  -8.928  1.00  0.00    -0.508 OA
ATOM     27  H   UNL     1      -1.581  21.950  -9.538  1.00  0.00     0.293 HD
ENDBRANCH   8  26
TORSDOF 6
ENDMDL
MODEL 7
REMARK VINA RESULT:    -5.140      2.444      3.397
REMARK INTER + INTRA:          -6.476
REMARK INTER:                  -6.247
REMARK INTRA:                  -0.229
REMARK UNBOUND:                -0.284
REMARK SMILES O=c1c(O)c(-c2ccc(O)c(O)c2)oc2cc(O)cc(O)c12
REMARK SMILES IDX 5 1 3 2 2 3 1 4 22 5 20 6 19 7 17 8 16 9 15 10 14 11 6 12
REMARK SMILES IDX 7 13 8 14 9 15 13 16 11 17 10 18 12 20 4 22 21 24 18 26
REMARK H PARENT 10 19 12 21 4 23 21 25 18 27
REMARK Flexibility Score: inf
ROOT
ATOM      1  C   UNL     1      -6.352  21.541  -7.671  1.00  0.00     0.180 A 
ATOM      2  C   UNL     1      -5.539  20.442  -7.998  1.00  0.00     0.208 A 
ATOM      3  C   UNL     1      -4.286  20.314  -7.377  1.00  0.00     0.238 A 
ATOM      4  O   UNL     1      -3.540  19.358  -7.714  1.00  0.00    -0.285 OA
ATOM      5  C   UNL     1      -3.869  21.276  -6.426  1.00  0.00     0.111 A 
ATOM      6  C   UNL     1      -2.637  21.223  -5.707  1.00  0.00     0.134 A 
ATOM      7  C   UNL     1      -2.269  22.298  -4.887  1.00  0.00     0.093 A 
ATOM      8  C   UNL     1      -3.116  23.390  -4.710  1.00  0.00     0.123 A 
ATOM      9  C   UNL     1      -4.349  23.425  -5.362  1.00  0.00     0.094 A 
ATOM     10  C   UNL     1      -4.728  22.386  -6.215  1.00  0.00     0.146 A 
ATOM     11  O   UNL     1      -5.905  22.462  -6.824  1.00  0.00    -0.452 OA
ENDROOT
BRANCH   1  12
ATOM     12  C   UNL     1      -7.695  21.731  -8.265  1.00  0.00     0.025 A 
ATOM     13  C   UNL     1      -8.836  21.483  -7.484  1.00  0.00     0.016 A 
ATOM     14  C   UNL     1     -10.114  21.636  -8.030  1.00  0.00     0.051 A 
ATOM     15  C   UNL     1     -10.269  22.025  -9.366  1.00  0.00     0.157 A 
ATOM     16  C   UNL     1      -7.855  22.101  -9.612  1.00  0.00     0.062 A 
ATOM     17  C   UNL     1      -9.134  22.253 -10.162  1.00  0.00     0.158 A 
BRANCH  15  18
ATOM     18  O   UNL     1     -11.544  22.179  -9.908  1.00  0.00    -0.504 OA
ATOM     19  H   UNL     1     -12.287  21.517  -9.714  1.00  0.00     0.293 HD
ENDBRANCH  15  18
BRANCH  17  20
ATOM     20  O   UNL     1      -9.255  22.628 -11.500  1.00  0.00    -0.504 OA
ATOM     21  H   UNL     1      -9.447  21.954 -12.232  1.00  0.00     0.293 HD
ENDBRANCH  17  20
ENDBRANCH   1  12
BRANCH   2  22
ATOM     22  O   UNL     1      -5.961  19.516  -8.956  1.00  0.00    -0.502 OA
ATOM     23  H   UNL     1      -6.937  19.384  -9.193  1.00  0.00     0.293 HD
ENDBRANCH   2  22
BRANCH   6  24
ATOM     24  O   UNL     1      -1.760  20.135  -5.740  1.00  0.00    -0.507 OA
ATOM     25  H   UNL     1      -1.992  19.220  -6.096  1.00  0.00     0.293 HD
ENDBRANCH   6  24
BRANCH   8  26
ATOM     26  O   UNL     1      -2.725  24.435  -3.875  1.00  0.00    -0.508 OA
ATOM     27  H   UNL     1      -3.149  24.574  -2.965  1.00  0.00     0.293 HD
ENDBRANCH   8  26
TORSDOF 6
ENDMDL
MODEL 8
REMARK VINA RESULT:    -5.033      2.730      6.695
REMARK INTER + INTRA:          -6.347
REMARK INTER:                  -6.023
REMARK INTRA:                  -0.323
REMARK UNBOUND:                -0.284
REMARK SMILES O=c1c(O)c(-c2ccc(O)c(O)c2)oc2cc(O)cc(O)c12
REMARK SMILES IDX 5 1 3 2 2 3 1 4 22 5 20 6 19 7 17 8 16 9 15 10 14 11 6 12
REMARK SMILES IDX 7 13 8 14 9 15 13 16 11 17 10 18 12 20 4 22 21 24 18 26
REMARK H PARENT 10 19 12 21 4 23 21 25 18 27
REMARK Flexibility Score: inf
ROOT
ATOM      1  C   UNL     1      -5.279  22.047  -7.616  1.00  0.00     0.180 A 
ATOM      2  C   UNL     1      -5.235  22.170  -9.014  1.00  0.00     0.208 A 
ATOM      3  C   UNL     1      -6.438  22.157  -9.738  1.00  0.00     0.238 A 
ATOM      4  O   UNL     1      -6.389  22.213 -10.995  1.00  0.00    -0.285 OA
ATOM      5  C   UNL     1      -7.671  22.036  -9.052  1.00  0.00     0.111 A 
ATOM      6  C   UNL     1      -8.952  22.052  -9.681  1.00  0.00     0.134 A 
ATOM      7  C   UNL     1     -10.099  21.794  -8.919  1.00  0.00     0.093 A 
ATOM      8  C   UNL     1     -10.016  21.587  -7.543  1.00  0.00     0.123 A 
ATOM      9  C   UNL     1      -8.775  21.629  -6.908  1.00  0.00     0.094 A 
ATOM     10  C   UNL     1      -7.610  21.848  -7.647  1.00  0.00     0.146 A 
ATOM     11  O   UNL     1      -6.447  21.870  -7.007  1.00  0.00    -0.452 OA
ENDROOT
BRANCH   1  12
ATOM     12  C   UNL     1      -4.055  22.078  -6.782  1.00  0.00     0.025 A 
ATOM     13  C   UNL     1      -3.553  23.312  -6.340  1.00  0.00     0.016 A 
ATOM     14  C   UNL     1      -2.387  23.366  -5.570  1.00  0.00     0.051 A 
ATOM     15  C   UNL     1      -1.701  22.190  -5.244  1.00  0.00     0.157 A 
ATOM     16  C   UNL     1      -3.352  20.901  -6.471  1.00  0.00     0.062 A 
ATOM     17  C   UNL     1      -2.184  20.952  -5.701  1.00  0.00     0.158 A 
BRANCH  15  18
ATOM     18  O   UNL     1      -0.540  22.246  -4.474  1.00  0.00    -0.504 OA
ATOM     19  H   UNL     1      -0.355  23.023  -3.849  1.00  0.00     0.293 HD
ENDBRANCH  15  18
BRANCH  17  20
ATOM     20  O   UNL     1      -1.515  19.764  -5.405  1.00  0.00    -0.504 OA
ATOM     21  H   UNL     1      -1.789  19.171  -4.631  1.00  0.00     0.293 HD
ENDBRANCH  17  20
ENDBRANCH   1  12
BRANCH   2  22
ATOM     22  O   UNL     1      -4.005  22.265  -9.673  1.00  0.00    -0.502 OA
ATOM     23  H   UNL     1      -3.862  21.912 -10.611  1.00  0.00     0.293 HD
ENDBRANCH   2  22
BRANCH   6  24
ATOM     24  O   UNL     1      -9.155  22.340 -11.034  1.00  0.00    -0.507 OA
ATOM     25  H   UNL     1     -10.058  22.400 -11.480  1.00  0.00     0.293 HD
ENDBRANCH   6  24
BRANCH   8  26
ATOM     26  O   UNL     1     -11.179  21.349  -6.812  1.00  0.00    -0.508 OA
ATOM     27  H   UNL     1     -11.172  21.314  -5.800  1.00  0.00     0.293 HD
ENDBRANCH   8  26
TORSDOF 6
ENDMDL
MODEL 9
REMARK VINA RESULT:    -5.005      1.406      6.966
REMARK INTER + INTRA:          -6.313
REMARK INTER:                  -5.986
REMARK INTRA:                  -0.327
REMARK UNBOUND:                -0.284
REMARK SMILES O=c1c(O)c(-c2ccc(O)c(O)c2)oc2cc(O)cc(O)c12
REMARK SMILES IDX 5 1 3 2 2 3 1 4 22 5 20 6 19 7 17 8 16 9 15 10 14 11 6 12
REMARK SMILES IDX 7 13 8 14 9 15 13 16 11 17 10 18 12 20 4 22 21 24 18 26
REMARK H PARENT 10 19 12 21 4 23 21 25 18 27
REMARK Flexibility Score: inf
ROOT
ATOM      1  C   UNL     1      -6.557  23.061  -7.836  1.00  0.00     0.180 A 
ATOM      2  C   UNL     1      -7.817  23.054  -7.215  1.00  0.00     0.208 A 
ATOM      3  C   UNL     1      -8.825  23.897  -7.710  1.00  0.00     0.238 A 
ATOM      4  O   UNL     1      -9.934  23.927  -7.115  1.00  0.00    -0.285 OA
ATOM      5  C   UNL     1      -8.565  24.723  -8.830  1.00  0.00     0.111 A 
ATOM      6  C   UNL     1      -9.525  25.586  -9.440  1.00  0.00     0.134 A 
ATOM      7  C   UNL     1      -9.122  26.455 -10.461  1.00  0.00     0.093 A 
ATOM      8  C   UNL     1      -7.812  26.445 -10.939  1.00  0.00     0.123 A 
ATOM      9  C   UNL     1      -6.881  25.564 -10.391  1.00  0.00     0.094 A 
ATOM     10  C   UNL     1      -7.243  24.711  -9.345  1.00  0.00     0.146 A 
ATOM     11  O   UNL     1      -6.324  23.895  -8.844  1.00  0.00    -0.452 OA
ENDROOT
BRANCH   1  12
ATOM     12  C   UNL     1      -5.452  22.183  -7.388  1.00  0.00     0.025 A 
ATOM     13  C   UNL     1      -4.460  22.700  -6.539  1.00  0.00     0.016 A 
ATOM     14  C   UNL     1      -3.397  21.894  -6.121  1.00  0.00     0.051 A 
ATOM     15  C   UNL     1      -3.303  20.566  -6.555  1.00  0.00     0.157 A 
ATOM     16  C   UNL     1      -5.343  20.855  -7.839  1.00  0.00     0.062 A 
ATOM     17  C   UNL     1      -4.278  20.047  -7.422  1.00  0.00     0.158 A 
BRANCH  15  18
ATOM     18  O   UNL     1      -2.243  19.764  -6.134  1.00  0.00    -0.504 OA
ATOM     19  H   UNL     1      -2.104  19.539  -5.156  1.00  0.00     0.293 HD
ENDBRANCH  15  18
BRANCH  17  20
ATOM     20  O   UNL     1      -4.205  18.733  -7.885  1.00  0.00    -0.504 OA
ATOM     21  H   UNL     1      -3.322  18.248  -7.991  1.00  0.00     0.293 HD
ENDBRANCH  17  20
ENDBRANCH   1  12
BRANCH   2  22
ATOM     22  O   UNL     1      -8.044  22.248  -6.096  1.00  0.00    -0.502 OA
ATOM     23  H   UNL     1      -7.735  21.284  -6.048  1.00  0.00     0.293 HD
ENDBRANCH   2  22
BRANCH   6  24
ATOM     24  O   UNL     1     -10.881  25.608  -9.101  1.00  0.00    -0.507 OA
ATOM     25  H   UNL     1     -11.406  26.443  -8.885  1.00  0.00     0.293 HD
ENDBRANCH   6  24
BRANCH   8  26
ATOM     26  O   UNL     1      -7.449  27.313 -11.968  1.00  0.00    -0.508 OA
ATOM     27  H   UNL     1      -6.488  27.396 -12.276  1.00  0.00     0.293 HD
ENDBRANCH   8  26
TORSDOF 6
ENDMDL
