MODEL 1
REMARK VINA RESULT:    -4.704      0.000      0.000
REMARK INTER + INTRA:          -5.289
REMARK INTER:                  -4.979
REMARK INTRA:                  -0.310
REMARK UNBOUND:                -0.310
REMARK SMILES C=C1CC[C@]2(C(C)C)C[C@H]12
REMARK SMILES IDX 5 1 4 2 3 3 2 4 1 5 10 6 9 7 6 8 7 9 8 10
REMARK H PARENT
REMARK Flexibility Score: inf
ROOT
ATOM      1  C   UNL     1     102.243 106.048 127.380  1.00  0.00    -0.020 C 
ATOM      2  C   UNL     1     101.657 104.841 128.135  1.00  0.00     0.012 C 
ATOM      3  C   UNL     1     100.647 105.386 129.146  1.00  0.00     0.031 C 
ATOM      4  C   UNL     1     100.735 106.869 129.021  1.00  0.00    -0.074 C 
ATOM      5  C   UNL     1     100.038 107.711 129.788  1.00  0.00     0.008 C 
ATOM      6  C   UNL     1     101.679 107.331 127.969  1.00  0.00     0.021 C 
ATOM      7  C   UNL     1     103.147 106.978 128.184  1.00  0.00     0.016 C 
ENDROOT
BRANCH   1   8
ATOM      8  C   UNL     1     102.451 106.025 125.846  1.00  0.00    -0.011 C 
ATOM      9  C   UNL     1     102.700 104.593 125.364  1.00  0.00     0.008 C 
ATOM     10  C   UNL     1     101.260 106.648 125.105  1.00  0.00     0.008 C 
ENDBRANCH   1   8
TORSDOF 1
ENDMDL
MODEL 2
REMARK VINA RESULT:    -4.665      5.413      6.802
REMARK INTER + INTRA:          -5.248
REMARK INTER:                  -4.939
REMARK INTRA:                  -0.308
REMARK UNBOUND:                -0.310
REMARK SMILES C=C1CC[C@]2(C(C)C)C[C@H]12
REMARK SMILES IDX 5 1 4 2 3 3 2 4 1 5 10 6 9 7 6 8 7 9 8 10
REMARK H PARENT
REMARK Flexibility Score: inf
ROOT
ATOM      1  C   UNL     1     106.126 110.217 127.399  1.00  0.00    -0.020 C 
ATOM      2  C   UNL     1     104.925 110.764 128.190  1.00  0.00     0.012 C 
ATOM      3  C   UNL     1     105.472 111.754 129.219  1.00  0.00     0.031 C 
ATOM      4  C   UNL     1     106.953 111.692 129.065  1.00  0.00    -0.074 C 
ATOM      5  C   UNL     1     107.799 112.382 129.836  1.00  0.00     0.008 C 
ATOM      6  C   UNL     1     107.411 110.785 127.980  1.00  0.00     0.021 C 
ATOM      7  C   UNL     1     107.084 109.306 128.161  1.00  0.00     0.016 C 
ENDROOT
BRANCH   1   8
ATOM      8  C   UNL     1     106.078 110.051 125.860  1.00  0.00    -0.011 C 
ATOM      9  C   UNL     1     104.639 109.804 125.396  1.00  0.00     0.008 C 
ATOM     10  C   UNL     1     106.679 111.265 125.141  1.00  0.00     0.008 C 
ENDBRANCH   1   8
TORSDOF 1
ENDMDL
MODEL 3
REMARK VINA RESULT:    -4.662      5.412      6.758
REMARK INTER + INTRA:          -5.244
REMARK INTER:                  -4.932
REMARK INTRA:                  -0.312
REMARK UNBOUND:                -0.310
REMARK SMILES C=C1CC[C@]2(C(C)C)C[C@H]12
REMARK SMILES IDX 5 1 4 2 3 3 2 4 1 5 10 6 9 7 6 8 7 9 8 10
REMARK H PARENT
REMARK Flexibility Score: inf
ROOT
ATOM      1  C   UNL     1     106.445 102.275 127.367  1.00  0.00    -0.020 C 
ATOM      2  C   UNL     1     107.665 101.658 128.074  1.00  0.00     0.012 C 
ATOM      3  C   UNL     1     107.136 100.637 129.083  1.00  0.00     0.031 C 
ATOM      4  C   UNL     1     105.652 100.749 129.004  1.00  0.00    -0.074 C 
ATOM      5  C   UNL     1     104.823 100.049 129.783  1.00  0.00     0.008 C 
ATOM      6  C   UNL     1     105.172 101.719 127.984  1.00  0.00     0.021 C 
ATOM      7  C   UNL     1     105.553 103.178 128.215  1.00  0.00     0.016 C 
ENDROOT
BRANCH   1   8
ATOM      8  C   UNL     1     106.425 102.512 125.837  1.00  0.00    -0.011 C 
ATOM      9  C   UNL     1     107.841 102.790 125.323  1.00  0.00     0.008 C 
ATOM     10  C   UNL     1     105.800 101.326 125.090  1.00  0.00     0.008 C 
ENDBRANCH   1   8
TORSDOF 1
ENDMDL
MODEL 4
REMARK VINA RESULT:    -4.606      7.985      9.550
REMARK INTER + INTRA:          -5.185
REMARK INTER:                  -4.873
REMARK INTRA:                  -0.312
REMARK UNBOUND:                -0.310
REMARK SMILES C=C1CC[C@]2(C(C)C)C[C@H]12
REMARK SMILES IDX 5 1 4 2 3 3 2 4 1 5 10 6 9 7 6 8 7 9 8 10
REMARK H PARENT
REMARK Flexibility Score: inf
ROOT
ATOM      1  C   UNL     1     110.237 106.453 127.257  1.00  0.00    -0.020 C 
ATOM      2  C   UNL     1     110.907 107.678 127.903  1.00  0.00     0.012 C 
ATOM      3  C   UNL     1     111.900 107.157 128.943  1.00  0.00     0.031 C 
ATOM      4  C   UNL     1     111.721 105.677 128.941  1.00  0.00    -0.074 C 
ATOM      5  C   UNL     1     112.380 104.858 129.765  1.00  0.00     0.008 C 
ATOM      6  C   UNL     1     110.733 105.190 127.941  1.00  0.00     0.021 C 
ATOM      7  C   UNL     1     109.292 105.648 128.145  1.00  0.00     0.016 C 
ENDROOT
BRANCH   1   8
ATOM      8  C   UNL     1     110.004 106.364 125.729  1.00  0.00    -0.011 C 
ATOM      9  C   UNL     1     109.694 107.751 125.156  1.00  0.00     0.008 C 
ATOM     10  C   UNL     1     111.206 105.737 125.009  1.00  0.00     0.008 C 
ENDBRANCH   1   8
TORSDOF 1
ENDMDL
MODEL 5
REMARK VINA RESULT:    -4.510      7.917      9.806
REMARK INTER + INTRA:          -5.083
REMARK INTER:                  -4.855
REMARK INTRA:                  -0.228
REMARK UNBOUND:                -0.310
REMARK SMILES C=C1CC[C@]2(C(C)C)C[C@H]12
REMARK SMILES IDX 5 1 4 2 3 3 2 4 1 5 10 6 9 7 6 8 7 9 8 10
REMARK H PARENT
REMARK Flexibility Score: inf
ROOT
ATOM      1  C   UNL     1     111.040 106.840 127.397  1.00  0.00    -0.020 C 
ATOM      2  C   UNL     1     109.520 107.012 127.569  1.00  0.00     0.012 C 
ATOM      3  C   UNL     1     108.843 106.145 126.507  1.00  0.00     0.031 C 
ATOM      4  C   UNL     1     109.961 105.575 125.702  1.00  0.00    -0.074 C 
ATOM      5  C   UNL     1     109.772 104.798 124.632  1.00  0.00     0.008 C 
ATOM      6  C   UNL     1     111.313 105.955 126.193  1.00  0.00     0.021 C 
ATOM      7  C   UNL     1     111.653 107.440 126.135  1.00  0.00     0.016 C 
ENDROOT
BRANCH   1   8
ATOM      8  C   UNL     1     111.981 106.661 128.614  1.00  0.00    -0.011 C 
ATOM      9  C   UNL     1     111.818 107.830 129.590  1.00  0.00     0.008 C 
ATOM     10  C   UNL     1     111.737 105.323 129.324  1.00  0.00     0.008 C 
ENDBRANCH   1   8
TORSDOF 1
ENDMDL
MODEL 6
REMARK VINA RESULT:    -4.492      0.829      3.922
REMARK INTER + INTRA:          -5.064
REMARK INTER:                  -4.755
REMARK INTRA:                  -0.309
REMARK UNBOUND:                -0.310
REMARK SMILES C=C1CC[C@]2(C(C)C)C[C@H]12
REMARK SMILES IDX 5 1 4 2 3 3 2 4 1 5 10 6 9 7 6 8 7 9 8 10
REMARK H PARENT
REMARK Flexibility Score: inf
ROOT
ATOM      1  C   UNL     1     102.026 106.376 127.825  1.00  0.00    -0.020 C 
ATOM      2  C   UNL     1     101.340 107.088 126.646  1.00  0.00     0.012 C 
ATOM      3  C   UNL     1     101.666 106.290 125.383  1.00  0.00     0.031 C 
ATOM      4  C   UNL     1     102.587 105.209 125.835  1.00  0.00    -0.074 C 
ATOM      5  C   UNL     1     103.143 104.325 125.002  1.00  0.00     0.008 C 
ATOM      6  C   UNL     1     102.841 105.205 127.300  1.00  0.00     0.021 C 
ATOM      7  C   UNL     1     103.551 106.433 127.860  1.00  0.00     0.016 C 
ENDROOT
BRANCH   1   8
ATOM      8  C   UNL     1     101.304 106.163 129.178  1.00  0.00    -0.011 C 
ATOM      9  C   UNL     1     100.418 107.369 129.504  1.00  0.00     0.008 C 
ATOM     10  C   UNL     1     100.480 104.868 129.181  1.00  0.00     0.008 C 
ENDBRANCH   1   8
TORSDOF 1
ENDMDL
MODEL 7
REMARK VINA RESULT:    -4.433      5.041      7.090
REMARK INTER + INTRA:          -5.002
REMARK INTER:                  -4.694
REMARK INTRA:                  -0.308
REMARK UNBOUND:                -0.310
REMARK SMILES C=C1CC[C@]2(C(C)C)C[C@H]12
REMARK SMILES IDX 5 1 4 2 3 3 2 4 1 5 10 6 9 7 6 8 7 9 8 10
REMARK H PARENT
REMARK Flexibility Score: inf
ROOT
ATOM      1  C   UNL     1     106.400 110.416 127.794  1.00  0.00    -0.020 C 
ATOM      2  C   UNL     1     107.073 111.154 126.623  1.00  0.00     0.012 C 
ATOM      3  C   UNL     1     106.263 110.839 125.364  1.00  0.00     0.031 C 
ATOM      4  C   UNL     1     105.217 109.874 125.809  1.00  0.00    -0.074 C 
ATOM      5  C   UNL     1     104.335 109.314 124.975  1.00  0.00     0.008 C 
ATOM      6  C   UNL     1     105.245 109.582 127.266  1.00  0.00     0.021 C 
ATOM      7  C   UNL     1     106.502 108.893 127.787  1.00  0.00     0.016 C 
ENDROOT
BRANCH   1   8
ATOM      8  C   UNL     1     106.189 111.096 129.169  1.00  0.00    -0.011 C 
ATOM      9  C   UNL     1     107.380 111.999 129.505  1.00  0.00     0.008 C 
ATOM     10  C   UNL     1     104.877 111.890 129.212  1.00  0.00     0.008 C 
ENDBRANCH   1   8
TORSDOF 1
ENDMDL
MODEL 8
REMARK VINA RESULT:    -4.398      5.448      7.028
REMARK INTER + INTRA:          -4.965
REMARK INTER:                  -4.654
REMARK INTRA:                  -0.311
REMARK UNBOUND:                -0.310
REMARK SMILES C=C1CC[C@]2(C(C)C)C[C@H]12
REMARK SMILES IDX 5 1 4 2 3 3 2 4 1 5 10 6 9 7 6 8 7 9 8 10
REMARK H PARENT
REMARK Flexibility Score: inf
ROOT
ATOM      1  C   UNL     1     106.388 101.971 126.722  1.00  0.00    -0.020 C 
ATOM      2  C   UNL     1     105.131 101.648 127.548  1.00  0.00     0.012 C 
ATOM      3  C   UNL     1     105.600 101.028 128.865  1.00  0.00     0.031 C 
ATOM      4  C   UNL     1     107.082 100.924 128.737  1.00  0.00    -0.074 C 
ATOM      5  C   UNL     1     107.861 100.375 129.673  1.00  0.00     0.008 C 
ATOM      6  C   UNL     1     107.619 101.480 127.467  1.00  0.00     0.021 C 
ATOM      7  C   UNL     1     107.176 100.778 126.188  1.00  0.00     0.016 C 
ENDROOT
BRANCH   1   8
ATOM      8  C   UNL     1     106.535 103.306 125.951  1.00  0.00    -0.011 C 
ATOM      9  C   UNL     1     105.166 103.793 125.466  1.00  0.00     0.008 C 
ATOM     10  C   UNL     1     107.221 104.380 126.806  1.00  0.00     0.008 C 
ENDBRANCH   1   8
TORSDOF 1
ENDMDL
MODEL 9
REMARK VINA RESULT:    -4.343      1.692      3.352
REMARK INTER + INTRA:          -4.906
REMARK INTER:                  -4.595
REMARK INTRA:                  -0.311
REMARK UNBOUND:                -0.310
REMARK SMILES C=C1CC[C@]2(C(C)C)C[C@H]12
REMARK SMILES IDX 5 1 4 2 3 3 2 4 1 5 10 6 9 7 6 8 7 9 8 10
REMARK H PARENT
REMARK Flexibility Score: inf
ROOT
ATOM      1  C   UNL     1     102.638 105.752 128.384  1.00  0.00    -0.020 C 
ATOM      2  C   UNL     1     102.445 107.049 129.190  1.00  0.00     0.012 C 
ATOM      3  C   UNL     1     103.286 108.133 128.514  1.00  0.00     0.031 C 
ATOM      4  C   UNL     1     104.003 107.434 127.410  1.00  0.00    -0.074 C 
ATOM      5  C   UNL     1     104.889 108.039 126.614  1.00  0.00     0.008 C 
ATOM      6  C   UNL     1     103.652 105.995 127.277  1.00  0.00     0.021 C 
ATOM      7  C   UNL     1     104.018 105.104 128.460  1.00  0.00     0.016 C 
ENDROOT
BRANCH   1   8
ATOM      8  C   UNL     1     101.448 104.824 128.038  1.00  0.00    -0.011 C 
ATOM      9  C   UNL     1     100.383 104.893 129.137  1.00  0.00     0.008 C 
ATOM     10  C   UNL     1     100.840 105.169 126.672  1.00  0.00     0.008 C 
ENDBRANCH   1   8
TORSDOF 1
ENDMDL
