MODEL 1
REMARK VINA RESULT:    -4.612      0.000      0.000
REMARK INTER + INTRA:          -6.997
REMARK INTER:                  -7.038
REMARK INTRA:                   0.041
REMARK UNBOUND:                 0.041
REMARK SMILES CC1=CCC[C@H](C)C(=O)C[C@@H](C(C)C)C(=O)C1
REMARK SMILES IDX 8 1 9 2 6 3 7 4 5 5 4 6 3 7 2 8 1 9 10 11 11 12 15 13 16 14
REMARK SMILES IDX 17 15 12 17 13 18 14 19
REMARK H PARENT
REMARK Flexibility Score: 70.00
ROOT
ATOM      1  C   UNL     1      27.337  51.976   9.525  1.00  0.00     0.136 C 
ATOM      2  O   UNL     1      27.587  51.585   8.392  1.00  0.00    -0.299 OA
ENDROOT
BRANCH   1   3
ATOM      3  C   UNL     1      28.428  52.009  10.579  1.00  0.00     0.053 C 
ATOM      4  C   UNL     1      29.672  51.212  10.156  1.00  0.00     0.016 C 
BRANCH   3   5
ATOM      5  C   UNL     1      28.785  53.456  10.977  1.00  0.00     0.015 C 
BRANCH   5   6
ATOM      6  C   UNL     1      28.343  53.841  12.404  1.00  0.00     0.028 C 
BRANCH   6   7
ATOM      7  C   UNL     1      27.793  55.245  12.445  1.00  0.00    -0.028 C 
ATOM      8  C   UNL     1      26.518  55.584  12.138  1.00  0.00    -0.070 CG0
ATOM      9  C   UNL     1      26.120  57.032  12.270  1.00  0.00     0.039 C 
ATOM     10  G   UNL     1      25.482  54.578  11.660  1.00  0.00     0.000 G0
ENDBRANCH   6   7
ENDBRANCH   5   6
ENDBRANCH   3   5
ENDBRANCH   1   3
BRANCH   1  11
ATOM     11  C   UNL     1      25.930  52.421   9.849  1.00  0.00     0.087 C 
BRANCH  11  12
ATOM     12  C   UNL     1      25.564  53.756   9.150  1.00  0.00     0.066 C 
BRANCH  12  13
ATOM     13  C   UNL     1      25.107  54.765  10.191  1.00  0.00     0.140 C 
ATOM     14  O   UNL     1      24.524  55.779   9.833  1.00  0.00    -0.299 OA
BRANCH  13  15
ATOM     15  C   UNL     1      25.457  54.581  11.648  1.00  0.00     0.106 CG0
ATOM     16  G   UNL     1      26.517  55.563  12.122  1.00  0.00     0.000 G0
ENDBRANCH  13  15
ENDBRANCH  12  13
BRANCH  12  17
ATOM     17  C   UNL     1      24.475  53.578   8.043  1.00  0.00    -0.006 C 
ATOM     18  C   UNL     1      23.399  52.550   8.437  1.00  0.00     0.008 C 
ATOM     19  C   UNL     1      25.105  53.144   6.704  1.00  0.00     0.008 C 
ENDBRANCH  12  17
ENDBRANCH  11  12
ENDBRANCH   1  11
TORSDOF 1
ENDMDL
MODEL 2
REMARK VINA RESULT:    -4.575      6.373      8.344
REMARK INTER + INTRA:          -6.941
REMARK INTER:                  -6.601
REMARK INTRA:                  -0.340
REMARK UNBOUND:                 0.041
REMARK SMILES CC1=CCC[C@H](C)C(=O)C[C@@H](C(C)C)C(=O)C1
REMARK SMILES IDX 8 1 9 2 6 3 7 4 5 5 4 6 3 7 2 8 1 9 10 11 11 12 15 13 16 14
REMARK SMILES IDX 17 15 12 17 13 18 14 19
REMARK H PARENT
REMARK Flexibility Score: 70.00
ROOT
ATOM      1  C   UNL     1      25.516  53.661  16.888  1.00  0.00     0.136 C 
ATOM      2  O   UNL     1      24.769  54.492  17.388  1.00  0.00    -0.299 OA
ENDROOT
BRANCH   1   3
ATOM      3  C   UNL     1      26.911  54.060  16.441  1.00  0.00     0.053 C 
ATOM      4  C   UNL     1      27.915  54.070  17.605  1.00  0.00     0.016 C 
BRANCH   3   5
ATOM      5  C   UNL     1      27.402  53.184  15.271  1.00  0.00     0.015 C 
BRANCH   5   6
ATOM      6  C   UNL     1      28.542  52.215  15.648  1.00  0.00     0.028 C 
BRANCH   6   7
ATOM      7  C   UNL     1      28.393  50.894  14.937  1.00  0.00    -0.028 C 
ATOM      8  C   UNL     1      27.912  49.762  15.505  1.00  0.00    -0.070 CG0
ATOM      9  C   UNL     1      27.789  48.534  14.640  1.00  0.00     0.039 C 
ATOM     10  G   UNL     1      27.502  49.674  16.967  1.00  0.00     0.000 G0
ENDBRANCH   6   7
ENDBRANCH   5   6
ENDBRANCH   3   5
ENDBRANCH   1   3
BRANCH   1  11
ATOM     11  C   UNL     1      25.025  52.242  16.726  1.00  0.00     0.087 C 
BRANCH  11  12
ATOM     12  C   UNL     1      25.595  51.299  17.817  1.00  0.00     0.066 C 
BRANCH  12  13
ATOM     13  C   UNL     1      26.019  49.985  17.180  1.00  0.00     0.140 C 
ATOM     14  O   UNL     1      25.173  49.142  16.916  1.00  0.00    -0.299 OA
BRANCH  13  15
ATOM     15  C   UNL     1      27.479  49.668  16.970  1.00  0.00     0.106 CG0
ATOM     16  G   UNL     1      27.897  49.780  15.511  1.00  0.00     0.000 G0
ENDBRANCH  13  15
ENDBRANCH  12  13
BRANCH  12  17
ATOM     17  C   UNL     1      24.582  51.042  18.981  1.00  0.00    -0.006 C 
ATOM     18  C   UNL     1      23.126  51.324  18.566  1.00  0.00     0.008 C 
ATOM     19  C   UNL     1      24.920  51.904  20.214  1.00  0.00     0.008 C 
ENDBRANCH  12  17
ENDBRANCH  11  12
ENDBRANCH   1  11
TORSDOF 1
ENDMDL
MODEL 3
REMARK VINA RESULT:    -4.539      6.423      8.237
REMARK INTER + INTRA:          -6.885
REMARK INTER:                  -6.794
REMARK INTRA:                  -0.092
REMARK UNBOUND:                 0.041
REMARK SMILES CC1=CCC[C@H](C)C(=O)C[C@@H](C(C)C)C(=O)C1
REMARK SMILES IDX 8 1 9 2 6 3 7 4 5 5 4 6 3 7 2 8 1 9 10 11 11 12 15 13 16 14
REMARK SMILES IDX 17 15 12 17 13 18 14 19
REMARK H PARENT
REMARK Flexibility Score: 70.00
ROOT
ATOM      1  C   UNL     1      28.322  52.894  16.289  1.00  0.00     0.136 C 
ATOM      2  O   UNL     1      29.129  53.761  16.593  1.00  0.00    -0.299 OA
ENDROOT
BRANCH   1   3
ATOM      3  C   UNL     1      28.791  51.613  15.623  1.00  0.00     0.053 C 
ATOM      4  C   UNL     1      29.643  51.885  14.374  1.00  0.00     0.016 C 
BRANCH   3   5
ATOM      5  C   UNL     1      29.519  50.690  16.621  1.00  0.00     0.015 C 
BRANCH   5   6
ATOM      6  C   UNL     1      28.846  49.314  16.810  1.00  0.00     0.028 C 
BRANCH   6   7
ATOM      7  C   UNL     1      27.702  49.129  15.844  1.00  0.00    -0.028 C 
ATOM      8  C   UNL     1      26.402  49.383  16.129  1.00  0.00    -0.070 CG0
ATOM      9  C   UNL     1      25.387  49.184  15.034  1.00  0.00     0.039 C 
ATOM     10  G   UNL     1      25.926  49.847  17.498  1.00  0.00     0.000 G0
ENDBRANCH   6   7
ENDBRANCH   5   6
ENDBRANCH   3   5
ENDBRANCH   1   3
BRANCH   1  11
ATOM     11  C   UNL     1      26.859  53.121  16.591  1.00  0.00     0.087 C 
BRANCH  11  12
ATOM     12  C   UNL     1      26.408  52.393  17.883  1.00  0.00     0.066 C 
BRANCH  12  13
ATOM     13  C   UNL     1      25.438  51.279  17.526  1.00  0.00     0.140 C 
ATOM     14  O   UNL     1      24.257  51.544  17.345  1.00  0.00    -0.299 OA
BRANCH  13  15
ATOM     15  C   UNL     1      25.893  49.841  17.498  1.00  0.00     0.106 CG0
ATOM     16  G   UNL     1      26.389  49.411  16.126  1.00  0.00     0.000 G0
ENDBRANCH  13  15
ENDBRANCH  12  13
BRANCH  12  17
ATOM     17  C   UNL     1      25.769  53.363  18.930  1.00  0.00    -0.006 C 
ATOM     18  C   UNL     1      26.720  54.506  19.330  1.00  0.00     0.008 C 
ATOM     19  C   UNL     1      25.344  52.606  20.205  1.00  0.00     0.008 C 
ENDBRANCH  12  17
ENDBRANCH  11  12
ENDBRANCH   1  11
TORSDOF 1
ENDMDL
MODEL 4
REMARK VINA RESULT:    -4.511      6.655      8.584
REMARK INTER + INTRA:          -6.843
REMARK INTER:                  -6.835
REMARK INTRA:                  -0.008
REMARK UNBOUND:                 0.041
REMARK SMILES CC1=CCC[C@H](C)C(=O)C[C@@H](C(C)C)C(=O)C1
REMARK SMILES IDX 8 1 9 2 6 3 7 4 5 5 4 6 3 7 2 8 1 9 10 11 11 12 15 13 16 14
REMARK SMILES IDX 17 15 12 17 13 18 14 19
REMARK H PARENT
REMARK Flexibility Score: 70.00
ROOT
ATOM      1  C   UNL     1      27.470  54.073  17.993  1.00  0.00     0.136 C 
ATOM      2  O   UNL     1      27.821  54.402  19.117  1.00  0.00    -0.299 OA
ENDROOT
BRANCH   1   3
ATOM      3  C   UNL     1      28.479  54.033  16.859  1.00  0.00     0.053 C 
ATOM      4  C   UNL     1      29.746  54.841  17.178  1.00  0.00     0.016 C 
BRANCH   3   5
ATOM      5  C   UNL     1      28.813  52.584  16.450  1.00  0.00     0.015 C 
BRANCH   5   6
ATOM      6  C   UNL     1      28.039  52.087  15.211  1.00  0.00     0.028 C 
BRANCH   6   7
ATOM      7  C   UNL     1      27.521  50.686  15.417  1.00  0.00    -0.028 C 
ATOM      8  C   UNL     1      26.278  50.380  15.862  1.00  0.00    -0.070 CG0
ATOM      9  C   UNL     1      25.906  48.924  15.973  1.00  0.00     0.039 C 
ATOM     10  G   UNL     1      25.255  51.433  16.262  1.00  0.00     0.000 G0
ENDBRANCH   6   7
ENDBRANCH   5   6
ENDBRANCH   3   5
ENDBRANCH   1   3
BRANCH   1  11
ATOM     11  C   UNL     1      26.023  53.708  17.757  1.00  0.00     0.087 C 
BRANCH  11  12
ATOM     12  C   UNL     1      25.572  52.512  18.635  1.00  0.00     0.066 C 
BRANCH  12  13
ATOM     13  C   UNL     1      24.983  51.427  17.749  1.00  0.00     0.140 C 
ATOM     14  O   UNL     1      24.360  50.505  18.258  1.00  0.00    -0.299 OA
BRANCH  13  15
ATOM     15  C   UNL     1      25.249  51.416  16.264  1.00  0.00     0.106 CG0
ATOM     16  G   UNL     1      26.282  50.375  15.863  1.00  0.00     0.000 G0
ENDBRANCH  13  15
ENDBRANCH  12  13
BRANCH  12  17
ATOM     17  C   UNL     1      24.551  52.929  19.744  1.00  0.00    -0.006 C 
ATOM     18  C   UNL     1      24.180  54.422  19.670  1.00  0.00     0.008 C 
ATOM     19  C   UNL     1      25.102  52.627  21.152  1.00  0.00     0.008 C 
ENDBRANCH  12  17
ENDBRANCH  11  12
ENDBRANCH   1  11
TORSDOF 1
ENDMDL
MODEL 5
REMARK VINA RESULT:    -4.416      1.442      1.956
REMARK INTER + INTRA:          -6.698
REMARK INTER:                  -6.490
REMARK INTRA:                  -0.207
REMARK UNBOUND:                 0.041
REMARK SMILES CC1=CCC[C@H](C)C(=O)C[C@@H](C(C)C)C(=O)C1
REMARK SMILES IDX 8 1 9 2 6 3 7 4 5 5 4 6 3 7 2 8 1 9 10 11 11 12 15 13 16 14
REMARK SMILES IDX 17 15 12 17 13 18 14 19
REMARK H PARENT
REMARK Flexibility Score: 70.00
ROOT
ATOM      1  C   UNL     1      28.557  52.176  11.147  1.00  0.00     0.136 C 
ATOM      2  O   UNL     1      29.296  51.357  10.618  1.00  0.00    -0.299 OA
ENDROOT
BRANCH   1   3
ATOM      3  C   UNL     1      29.139  53.295  11.992  1.00  0.00     0.053 C 
ATOM      4  C   UNL     1      30.173  52.782  13.006  1.00  0.00     0.016 C 
BRANCH   3   5
ATOM      5  C   UNL     1      29.712  54.427  11.115  1.00  0.00     0.015 C 
BRANCH   5   6
ATOM      6  C   UNL     1      28.782  55.652  10.985  1.00  0.00     0.028 C 
BRANCH   6   7
ATOM      7  C   UNL     1      27.835  55.745  12.155  1.00  0.00    -0.028 C 
ATOM      8  C   UNL     1      26.490  55.604  12.072  1.00  0.00    -0.070 CG0
ATOM      9  C   UNL     1      25.691  55.685  13.348  1.00  0.00     0.039 C 
ATOM     10  G   UNL     1      25.756  55.382  10.758  1.00  0.00     0.000 G0
ENDBRANCH   6   7
ENDBRANCH   5   6
ENDBRANCH   3   5
ENDBRANCH   1   3
BRANCH   1  11
ATOM     11  C   UNL     1      27.065  52.053  10.943  1.00  0.00     0.087 C 
BRANCH  11  12
ATOM     12  C   UNL     1      26.541  53.031   9.861  1.00  0.00     0.066 C 
BRANCH  12  13
ATOM     13  C   UNL     1      25.462  53.919  10.460  1.00  0.00     0.140 C 
ATOM     14  O   UNL     1      24.336  53.470  10.628  1.00  0.00    -0.299 OA
BRANCH  13  15
ATOM     15  C   UNL     1      25.734  55.375  10.748  1.00  0.00     0.106 CG0
ATOM     16  G   UNL     1      26.483  55.581  12.056  1.00  0.00     0.000 G0
ENDBRANCH  13  15
ENDBRANCH  12  13
BRANCH  12  17
ATOM     17  C   UNL     1      26.002  52.295   8.591  1.00  0.00    -0.006 C 
ATOM     18  C   UNL     1      27.069  51.398   7.935  1.00  0.00     0.008 C 
ATOM     19  C   UNL     1      25.488  53.299   7.540  1.00  0.00     0.008 C 
ENDBRANCH  12  17
ENDBRANCH  11  12
ENDBRANCH   1  11
TORSDOF 1
ENDMDL
MODEL 6
REMARK VINA RESULT:    -4.220      1.949      4.306
REMARK INTER + INTRA:          -6.399
REMARK INTER:                  -6.581
REMARK INTRA:                   0.182
REMARK UNBOUND:                 0.041
REMARK SMILES CC1=CCC[C@H](C)C(=O)C[C@@H](C(C)C)C(=O)C1
REMARK SMILES IDX 8 1 9 2 6 3 7 4 5 5 4 6 3 7 2 8 1 9 10 11 11 12 15 13 16 14
REMARK SMILES IDX 17 15 12 17 13 18 14 19
REMARK H PARENT
REMARK Flexibility Score: 70.00
ROOT
ATOM      1  C   UNL     1      28.460  53.741  11.813  1.00  0.00     0.136 C 
ATOM      2  O   UNL     1      29.185  53.815  12.796  1.00  0.00    -0.299 OA
ENDROOT
BRANCH   1   3
ATOM      3  C   UNL     1      27.911  52.397  11.368  1.00  0.00     0.053 C 
ATOM      4  C   UNL     1      26.756  51.916  12.259  1.00  0.00     0.016 C 
BRANCH   3   5
ATOM      5  C   UNL     1      27.515  52.413   9.878  1.00  0.00     0.015 C 
BRANCH   5   6
ATOM      6  C   UNL     1      25.997  52.283   9.631  1.00  0.00     0.028 C 
BRANCH   6   7
ATOM      7  C   UNL     1      25.446  53.516   8.962  1.00  0.00    -0.028 C 
ATOM      8  C   UNL     1      25.108  54.659   9.607  1.00  0.00    -0.070 CG0
ATOM      9  C   UNL     1      24.608  55.816   8.780  1.00  0.00     0.039 C 
ATOM     10  G   UNL     1      25.200  54.820  11.116  1.00  0.00     0.000 G0
ENDBRANCH   6   7
ENDBRANCH   5   6
ENDBRANCH   3   5
ENDBRANCH   1   3
BRANCH   1  11
ATOM     11  C   UNL     1      28.123  55.005  11.057  1.00  0.00     0.087 C 
BRANCH  11  12
ATOM     12  C   UNL     1      27.382  56.037  11.945  1.00  0.00     0.066 C 
BRANCH  12  13
ATOM     13  C   UNL     1      25.913  56.078  11.556  1.00  0.00     0.140 C 
ATOM     14  O   UNL     1      25.288  57.124  11.667  1.00  0.00    -0.299 OA
BRANCH  13  15
ATOM     15  C   UNL     1      25.192  54.820  11.138  1.00  0.00     0.106 CG0
ATOM     16  G   UNL     1      25.095  54.676   9.627  1.00  0.00     0.000 G0
ENDBRANCH  13  15
ENDBRANCH  12  13
BRANCH  12  17
ATOM     17  C   UNL     1      28.011  57.466  11.862  1.00  0.00    -0.006 C 
ATOM     18  C   UNL     1      29.405  57.458  11.208  1.00  0.00     0.008 C 
ATOM     19  C   UNL     1      28.126  58.106  13.261  1.00  0.00     0.008 C 
ENDBRANCH  12  17
ENDBRANCH  11  12
ENDBRANCH   1  11
TORSDOF 1
ENDMDL
MODEL 7
REMARK VINA RESULT:    -4.202      1.889      3.689
REMARK INTER + INTRA:          -6.372
REMARK INTER:                  -6.206
REMARK INTRA:                  -0.166
REMARK UNBOUND:                 0.041
REMARK SMILES CC1=CCC[C@H](C)C(=O)C[C@@H](C(C)C)C(=O)C1
REMARK SMILES IDX 8 1 9 2 6 3 7 4 5 5 4 6 3 7 2 8 1 9 10 11 11 12 15 13 16 14
REMARK SMILES IDX 17 15 12 17 13 18 14 19
REMARK H PARENT
REMARK Flexibility Score: 70.00
ROOT
ATOM      1  C   UNL     1      26.345  56.185  10.805  1.00  0.00     0.136 C 
ATOM      2  O   UNL     1      25.641  57.063  11.288  1.00  0.00    -0.299 OA
ENDROOT
BRANCH   1   3
ATOM      3  C   UNL     1      27.780  56.016  11.271  1.00  0.00     0.053 C 
ATOM      4  C   UNL     1      28.721  57.058  10.649  1.00  0.00     0.016 C 
BRANCH   3   5
ATOM      5  C   UNL     1      27.877  56.005  12.810  1.00  0.00     0.015 C 
BRANCH   5   6
ATOM      6  C   UNL     1      27.286  54.740  13.467  1.00  0.00     0.028 C 
BRANCH   6   7
ATOM      7  C   UNL     1      28.059  53.508  13.070  1.00  0.00    -0.028 C 
ATOM      8  C   UNL     1      27.542  52.459  12.386  1.00  0.00    -0.070 CG0
ATOM      9  C   UNL     1      28.465  51.321  12.032  1.00  0.00     0.039 C 
ATOM     10  G   UNL     1      26.081  52.376  11.971  1.00  0.00     0.000 G0
ENDBRANCH   6   7
ENDBRANCH   5   6
ENDBRANCH   3   5
ENDBRANCH   1   3
BRANCH   1  11
ATOM     11  C   UNL     1      25.760  55.281   9.746  1.00  0.00     0.087 C 
BRANCH  11  12
ATOM     12  C   UNL     1      24.937  54.119  10.359  1.00  0.00     0.066 C 
BRANCH  12  13
ATOM     13  C   UNL     1      25.840  52.915  10.572  1.00  0.00     0.140 C 
ATOM     14  O   UNL     1      26.308  52.332   9.603  1.00  0.00    -0.299 OA
BRANCH  13  15
ATOM     15  C   UNL     1      26.079  52.368  11.958  1.00  0.00     0.106 CG0
ATOM     16  G   UNL     1      27.539  52.451  12.376  1.00  0.00     0.000 G0
ENDBRANCH  13  15
ENDBRANCH  12  13
BRANCH  12  17
ATOM     17  C   UNL     1      23.701  53.728   9.484  1.00  0.00    -0.006 C 
ATOM     18  C   UNL     1      22.800  54.936   9.168  1.00  0.00     0.008 C 
ATOM     19  C   UNL     1      22.849  52.645  10.176  1.00  0.00     0.008 C 
ENDBRANCH  12  17
ENDBRANCH  11  12
ENDBRANCH   1  11
TORSDOF 1
ENDMDL
MODEL 8
REMARK VINA RESULT:    -4.163      5.372      6.989
REMARK INTER + INTRA:          -6.312
REMARK INTER:                  -6.347
REMARK INTRA:                   0.035
REMARK UNBOUND:                 0.041
REMARK SMILES CC1=CCC[C@H](C)C(=O)C[C@@H](C(C)C)C(=O)C1
REMARK SMILES IDX 8 1 9 2 6 3 7 4 5 5 4 6 3 7 2 8 1 9 10 11 11 12 15 13 16 14
REMARK SMILES IDX 17 15 12 17 13 18 14 19
REMARK H PARENT
REMARK Flexibility Score: 70.00
ROOT
ATOM      1  C   UNL     1      29.316  51.870  15.608  1.00  0.00     0.136 C 
ATOM      2  O   UNL     1      30.164  51.748  14.735  1.00  0.00    -0.299 OA
ENDROOT
BRANCH   1   3
ATOM      3  C   UNL     1      28.804  53.248  15.988  1.00  0.00     0.053 C 
ATOM      4  C   UNL     1      29.832  54.046  16.804  1.00  0.00     0.016 C 
BRANCH   3   5
ATOM      5  C   UNL     1      28.324  54.033  14.750  1.00  0.00     0.015 C 
BRANCH   5   6
ATOM      6  C   UNL     1      26.807  53.924  14.488  1.00  0.00     0.028 C 
BRANCH   6   7
ATOM      7  C   UNL     1      26.062  53.540  15.741  1.00  0.00    -0.028 C 
ATOM      8  C   UNL     1      25.596  52.297  16.012  1.00  0.00    -0.070 CG0
ATOM      9  C   UNL     1      24.907  52.074  17.334  1.00  0.00     0.039 C 
ATOM     10  G   UNL     1      25.727  51.130  15.046  1.00  0.00     0.000 G0
ENDBRANCH   6   7
ENDBRANCH   5   6
ENDBRANCH   3   5
ENDBRANCH   1   3
BRANCH   1  11
ATOM     11  C   UNL     1      28.791  50.631  16.295  1.00  0.00     0.087 C 
BRANCH  11  12
ATOM     12  C   UNL     1      27.937  49.754  15.343  1.00  0.00     0.066 C 
BRANCH  12  13
ATOM     13  C   UNL     1      26.462  49.962  15.649  1.00  0.00     0.140 C 
ATOM     14  O   UNL     1      25.860  49.126  16.310  1.00  0.00    -0.299 OA
BRANCH  13  15
ATOM     15  C   UNL     1      25.710  51.129  15.059  1.00  0.00     0.106 CG0
ATOM     16  G   UNL     1      25.588  52.296  16.027  1.00  0.00     0.000 G0
ENDBRANCH  13  15
ENDBRANCH  12  13
BRANCH  12  17
ATOM     17  C   UNL     1      28.305  48.236  15.428  1.00  0.00    -0.006 C 
ATOM     18  C   UNL     1      29.683  48.002  16.076  1.00  0.00     0.008 C 
ATOM     19  C   UNL     1      28.299  47.582  14.032  1.00  0.00     0.008 C 
ENDBRANCH  12  17
ENDBRANCH  11  12
ENDBRANCH   1  11
TORSDOF 1
ENDMDL
MODEL 9
REMARK VINA RESULT:    -4.037      5.066      7.226
REMARK INTER + INTRA:          -6.120
REMARK INTER:                  -5.999
REMARK INTRA:                  -0.122
REMARK UNBOUND:                 0.041
REMARK SMILES CC1=CCC[C@H](C)C(=O)C[C@@H](C(C)C)C(=O)C1
REMARK SMILES IDX 8 1 9 2 6 3 7 4 5 5 4 6 3 7 2 8 1 9 10 11 11 12 15 13 16 14
REMARK SMILES IDX 17 15 12 17 13 18 14 19
REMARK H PARENT
REMARK Flexibility Score: 70.00
ROOT
ATOM      1  C   UNL     1      26.490  50.821  16.694  1.00  0.00     0.136 C 
ATOM      2  O   UNL     1      26.008  50.184  17.621  1.00  0.00    -0.299 OA
ENDROOT
BRANCH   1   3
ATOM      3  C   UNL     1      26.222  52.311  16.570  1.00  0.00     0.053 C 
ATOM      4  C   UNL     1      24.721  52.637  16.602  1.00  0.00     0.016 C 
BRANCH   3   5
ATOM      5  C   UNL     1      27.004  53.115  17.629  1.00  0.00     0.015 C 
BRANCH   5   6
ATOM      6  C   UNL     1      28.303  53.756  17.096  1.00  0.00     0.028 C 
BRANCH   6   7
ATOM      7  C   UNL     1      28.083  54.396  15.748  1.00  0.00    -0.028 C 
ATOM      8  C   UNL     1      28.666  53.987  14.595  1.00  0.00    -0.070 CG0
ATOM      9  C   UNL     1      28.305  54.713  13.325  1.00  0.00     0.039 C 
ATOM     10  G   UNL     1      29.668  52.845  14.529  1.00  0.00     0.000 G0
ENDBRANCH   6   7
ENDBRANCH   5   6
ENDBRANCH   3   5
ENDBRANCH   1   3
BRANCH   1  11
ATOM     11  C   UNL     1      27.352  50.101  15.683  1.00  0.00     0.087 C 
BRANCH  11  12
ATOM     12  C   UNL     1      28.807  50.638  15.669  1.00  0.00     0.066 C 
BRANCH  12  13
ATOM     13  C   UNL     1      29.022  51.483  14.424  1.00  0.00     0.140 C 
ATOM     14  O   UNL     1      28.740  51.022  13.326  1.00  0.00    -0.299 OA
BRANCH  13  15
ATOM     15  C   UNL     1      29.679  52.838  14.518  1.00  0.00     0.106 CG0
ATOM     16  G   UNL     1      28.669  53.972  14.602  1.00  0.00     0.000 G0
ENDBRANCH  13  15
ENDBRANCH  12  13
BRANCH  12  17
ATOM     17  C   UNL     1      29.872  49.495  15.747  1.00  0.00    -0.006 C 
ATOM     18  C   UNL     1      29.236  48.094  15.684  1.00  0.00     0.008 C 
ATOM     19  C   UNL     1      30.707  49.600  17.038  1.00  0.00     0.008 C 
ENDBRANCH  12  17
ENDBRANCH  11  12
ENDBRANCH   1  11
TORSDOF 1
ENDMDL
