MODEL 1
REMARK VINA RESULT:    -6.026      0.000      0.000
REMARK INTER + INTRA:          -7.637
REMARK INTER:                  -6.906
REMARK INTRA:                  -0.730
REMARK UNBOUND:                -0.730
REMARK SMILES C=C(C)[C@H]1CC[C@]2(C(=O)[O-])CC[C@]3(C)[C@@H](CC[C@@H]4[C@]5(C)CC[C@@H](O)C(C)(C)[C@H]5CC[C@]43C)[C@H]12
REMARK SMILES IDX 7 1 6 2 33 3 11 4 5 5 15 6 4 7 12 8 16 9 13 10 17 11 31 12
REMARK SMILES IDX 14 13 18 14 30 15 32 16 19 17 29 18 21 19 20 20 28 21 22 22
REMARK SMILES IDX 25 23 23 24 26 25 27 26 8 27 9 28 10 29 2 30 3 31 1 32 24 33
REMARK H PARENT 24 34
REMARK Flexibility Score: inf
ROOT
ATOM      1  C   UNL     1      12.818  47.298  14.967  1.00  0.00     0.014 C 
ATOM      2  C   UNL     1      12.050  46.598  16.131  1.00  0.00     0.014 C 
ATOM      3  C   UNL     1      12.142  46.753  13.675  1.00  0.00     0.012 C 
ATOM      4  C   UNL     1      12.687  48.848  15.110  1.00  0.00     0.014 C 
ATOM      5  C   UNL     1      10.963  45.716  15.512  1.00  0.00     0.009 C 
ATOM      6  C   UNL     1      12.201  47.671  12.400  1.00  0.00     0.000 C 
ATOM      7  C   UNL     1      10.756  46.245  14.096  1.00  0.00     0.018 C 
ATOM      8  C   UNL     1      12.840  49.646  13.795  1.00  0.00     0.008 C 
ATOM      9  C   UNL     1      13.603  47.432  11.730  1.00  0.00     0.005 C 
ATOM     10  C   UNL     1      11.886  49.206  12.617  1.00  0.00    -0.024 C 
ATOM     11  C   UNL     1      14.099  48.541  10.797  1.00  0.00     0.005 C 
ATOM     12  C   UNL     1      12.087  50.069  11.206  1.00  0.00    -0.024 C 
ATOM     13  C   UNL     1      10.420  49.419  13.124  1.00  0.00     0.012 C 
ATOM     14  C   UNL     1      12.909  49.243  10.147  1.00  0.00     0.002 C 
ATOM     15  C   UNL     1      10.712  50.403  10.463  1.00  0.00     0.008 C 
ATOM     16  C   UNL     1      12.795  51.421  11.579  1.00  0.00     0.012 C 
ATOM     17  C   UNL     1      13.189  49.868   8.702  1.00  0.00    -0.026 C 
ATOM     18  C   UNL     1      10.720  50.515   8.904  1.00  0.00     0.005 C 
ATOM     19  C   UNL     1      14.569  50.579   8.591  1.00  0.00     0.010 C 
ATOM     20  C   UNL     1      13.161  48.657   7.705  1.00  0.00     0.012 C 
ATOM     21  C   UNL     1      12.093  50.946   8.368  1.00  0.00     0.003 C 
ATOM     22  C   UNL     1      14.782  51.268   7.219  1.00  0.00     0.033 C 
ATOM     23  C   UNL     1      12.183  51.622   6.946  1.00  0.00    -0.006 C 
ATOM     24  C   UNL     1      13.631  52.222   6.809  1.00  0.00     0.120 C 
ATOM     25  C   UNL     1      11.822  50.668   5.776  1.00  0.00     0.014 C 
ATOM     26  C   UNL     1      11.186  52.816   6.868  1.00  0.00     0.014 C 
ENDROOT
BRANCH   1  27
ATOM     27  C   UNL     1      14.284  46.869  15.020  1.00  0.00     0.048 C 
ATOM     28  O   UNL     1      14.656  45.747  14.583  1.00  0.00    -0.550 OA
ATOM     29  O   UNL     1      15.233  47.710  15.591  1.00  0.00    -0.550 OA
ENDBRANCH   1  27
BRANCH   7  30
ATOM     30  C   UNL     1      10.164  45.207  13.144  1.00  0.00    -0.077 C 
ATOM     31  C   UNL     1       9.094  45.561  12.139  1.00  0.00     0.039 C 
ATOM     32  C   UNL     1      10.573  43.931  13.212  1.00  0.00     0.008 C 
ENDBRANCH   7  30
BRANCH  24  33
ATOM     33  O   UNL     1      13.856  52.758   5.527  1.00  0.00    -0.393 OA
ATOM     34  H   UNL     1      14.336  53.620   5.633  1.00  0.00     0.210 HD
ENDBRANCH  24  33
TORSDOF 3
ENDMDL
MODEL 2
REMARK VINA RESULT:    -5.953      4.305      6.970
REMARK INTER + INTRA:          -7.554
REMARK INTER:                  -6.877
REMARK INTRA:                  -0.676
REMARK UNBOUND:                -0.730
REMARK SMILES C=C(C)[C@H]1CC[C@]2(C(=O)[O-])CC[C@]3(C)[C@@H](CC[C@@H]4[C@]5(C)CC[C@@H](O)C(C)(C)[C@H]5CC[C@]43C)[C@H]12
REMARK SMILES IDX 7 1 6 2 33 3 11 4 5 5 15 6 4 7 12 8 16 9 13 10 17 11 31 12
REMARK SMILES IDX 14 13 18 14 30 15 32 16 19 17 29 18 21 19 20 20 28 21 22 22
REMARK SMILES IDX 25 23 23 24 26 25 27 26 8 27 9 28 10 29 2 30 3 31 1 32 24 33
REMARK H PARENT 24 34
REMARK Flexibility Score: inf
ROOT
ATOM      1  C   UNL     1      14.643  48.458   8.348  1.00  0.00     0.014 C 
ATOM      2  C   UNL     1      15.352  47.365   7.489  1.00  0.00     0.014 C 
ATOM      3  C   UNL     1      15.060  49.802   7.683  1.00  0.00     0.012 C 
ATOM      4  C   UNL     1      13.099  48.224   8.323  1.00  0.00     0.014 C 
ATOM      5  C   UNL     1      16.113  48.072   6.365  1.00  0.00     0.009 C 
ATOM      6  C   UNL     1      14.075  51.015   7.854  1.00  0.00     0.000 C 
ATOM      7  C   UNL     1      15.488  49.458   6.249  1.00  0.00     0.018 C 
ATOM      8  C   UNL     1      12.238  49.482   8.580  1.00  0.00     0.008 C 
ATOM      9  C   UNL     1      14.376  51.653   9.259  1.00  0.00     0.005 C 
ATOM     10  C   UNL     1      12.537  50.715   7.642  1.00  0.00    -0.024 C 
ATOM     11  C   UNL     1      13.254  52.499   9.866  1.00  0.00     0.005 C 
ATOM     12  C   UNL     1      11.609  52.063   7.956  1.00  0.00    -0.024 C 
ATOM     13  C   UNL     1      12.246  50.244   6.177  1.00  0.00     0.012 C 
ATOM     14  C   UNL     1      12.430  53.144   8.754  1.00  0.00     0.002 C 
ATOM     15  C   UNL     1      11.131  52.828   6.636  1.00  0.00     0.008 C 
ATOM     16  C   UNL     1      10.337  51.585   8.744  1.00  0.00     0.012 C 
ATOM     17  C   UNL     1      11.743  54.537   9.132  1.00  0.00    -0.026 C 
ATOM     18  C   UNL     1      10.929  54.376   6.709  1.00  0.00     0.005 C 
ATOM     19  C   UNL     1      11.130  54.561  10.561  1.00  0.00     0.010 C 
ATOM     20  C   UNL     1      12.888  55.607   9.054  1.00  0.00     0.012 C 
ATOM     21  C   UNL     1      10.570  54.841   8.129  1.00  0.00     0.003 C 
ATOM     22  C   UNL     1      10.379  55.880  10.874  1.00  0.00     0.033 C 
ATOM     23  C   UNL     1       9.819  56.215   8.318  1.00  0.00    -0.006 C 
ATOM     24  C   UNL     1       9.321  56.267   9.810  1.00  0.00     0.120 C 
ATOM     25  C   UNL     1      10.674  57.451   7.934  1.00  0.00     0.014 C 
ATOM     26  C   UNL     1       8.553  56.252   7.413  1.00  0.00     0.014 C 
ENDROOT
BRANCH   1  27
ATOM     27  C   UNL     1      15.181  48.384   9.776  1.00  0.00     0.048 C 
ATOM     28  O   UNL     1      16.347  48.771  10.060  1.00  0.00    -0.550 OA
ATOM     29  O   UNL     1      14.392  47.848  10.788  1.00  0.00    -0.550 OA
ENDBRANCH   1  27
BRANCH   7  30
ATOM     30  C   UNL     1      16.422  50.491   5.620  1.00  0.00    -0.077 C 
ATOM     31  C   UNL     1      15.898  51.696   4.876  1.00  0.00     0.039 C 
ATOM     32  C   UNL     1      17.751  50.319   5.693  1.00  0.00     0.008 C 
ENDBRANCH   7  30
BRANCH  24  33
ATOM     33  O   UNL     1       8.728  57.506  10.120  1.00  0.00    -0.393 OA
ATOM     34  H   UNL     1       9.185  57.875  10.919  1.00  0.00     0.210 HD
ENDBRANCH  24  33
TORSDOF 3
ENDMDL
MODEL 3
REMARK VINA RESULT:    -5.942      4.134      6.821
REMARK INTER + INTRA:          -7.541
REMARK INTER:                  -7.134
REMARK INTRA:                  -0.407
REMARK UNBOUND:                -0.730
REMARK SMILES C=C(C)[C@H]1CC[C@]2(C(=O)[O-])CC[C@]3(C)[C@@H](CC[C@@H]4[C@]5(C)CC[C@@H](O)C(C)(C)[C@H]5CC[C@]43C)[C@H]12
REMARK SMILES IDX 7 1 6 2 33 3 11 4 5 5 15 6 4 7 12 8 16 9 13 10 17 11 31 12
REMARK SMILES IDX 14 13 18 14 30 15 32 16 19 17 29 18 21 19 20 20 28 21 22 22
REMARK SMILES IDX 25 23 23 24 26 25 27 26 8 27 9 28 10 29 2 30 3 31 1 32 24 33
REMARK H PARENT 24 34
REMARK Flexibility Score: inf
ROOT
ATOM      1  C   UNL     1      11.349  52.432  18.231  1.00  0.00     0.014 C 
ATOM      2  C   UNL     1      12.049  53.249  19.363  1.00  0.00     0.014 C 
ATOM      3  C   UNL     1      11.994  52.963  16.917  1.00  0.00     0.012 C 
ATOM      4  C   UNL     1      11.600  50.907  18.454  1.00  0.00     0.014 C 
ATOM      5  C   UNL     1      13.069  54.181  18.706  1.00  0.00     0.009 C 
ATOM      6  C   UNL     1      12.020  51.980  15.691  1.00  0.00     0.000 C 
ATOM      7  C   UNL     1      13.331  53.599  17.321  1.00  0.00     0.018 C 
ATOM      8  C   UNL     1      11.524  50.034  17.181  1.00  0.00     0.008 C 
ATOM      9  C   UNL     1      10.611  52.073  15.001  1.00  0.00     0.005 C 
ATOM     10  C   UNL     1      12.452  50.487  15.988  1.00  0.00    -0.024 C 
ATOM     11  C   UNL     1      10.213  50.883  14.123  1.00  0.00     0.005 C 
ATOM     12  C   UNL     1      12.334  49.541  14.621  1.00  0.00    -0.024 C 
ATOM     13  C   UNL     1      13.925  50.417  16.514  1.00  0.00     0.012 C 
ATOM     14  C   UNL     1      11.461  50.246  13.517  1.00  0.00     0.002 C 
ATOM     15  C   UNL     1      13.739  49.279  13.905  1.00  0.00     0.008 C 
ATOM     16  C   UNL     1      11.731  48.158  15.059  1.00  0.00     0.012 C 
ATOM     17  C   UNL     1      11.246  49.528  12.104  1.00  0.00    -0.026 C 
ATOM     18  C   UNL     1      13.756  49.089  12.354  1.00  0.00     0.005 C 
ATOM     19  C   UNL     1       9.928  48.706  12.020  1.00  0.00     0.010 C 
ATOM     20  C   UNL     1      11.189  50.686  11.046  1.00  0.00     0.012 C 
ATOM     21  C   UNL     1      12.426  48.525  11.832  1.00  0.00     0.003 C 
ATOM     22  C   UNL     1       9.783  47.934  10.683  1.00  0.00     0.033 C 
ATOM     23  C   UNL     1      12.405  47.773  10.445  1.00  0.00    -0.006 C 
ATOM     24  C   UNL     1      11.010  47.055  10.331  1.00  0.00     0.120 C 
ATOM     25  C   UNL     1      12.701  48.692   9.231  1.00  0.00     0.014 C 
ATOM     26  C   UNL     1      13.493  46.659  10.435  1.00  0.00     0.014 C 
ENDROOT
BRANCH   1  27
ATOM     27  C   UNL     1       9.854  52.746  18.253  1.00  0.00     0.048 C 
ATOM     28  O   UNL     1       9.350  53.595  17.469  1.00  0.00    -0.550 OA
ATOM     29  O   UNL     1       9.026  52.115  19.175  1.00  0.00    -0.550 OA
ENDBRANCH   1  27
BRANCH   7  30
ATOM     30  C   UNL     1      13.850  54.631  16.320  1.00  0.00    -0.077 C 
ATOM     31  C   UNL     1      14.460  54.229  14.998  1.00  0.00     0.039 C 
ATOM     32  C   UNL     1      13.800  55.937  16.625  1.00  0.00     0.008 C 
ENDBRANCH   7  30
BRANCH  24  33
ATOM     33  O   UNL     1      10.840  46.438   9.076  1.00  0.00    -0.393 OA
ATOM     34  H   UNL     1      10.234  47.006   8.533  1.00  0.00     0.210 HD
ENDBRANCH  24  33
TORSDOF 3
ENDMDL
MODEL 4
REMARK VINA RESULT:    -5.768      5.188      9.440
REMARK INTER + INTRA:          -7.341
REMARK INTER:                  -6.617
REMARK INTRA:                  -0.724
REMARK UNBOUND:                -0.730
REMARK SMILES C=C(C)[C@H]1CC[C@]2(C(=O)[O-])CC[C@]3(C)[C@@H](CC[C@@H]4[C@]5(C)CC[C@@H](O)C(C)(C)[C@H]5CC[C@]43C)[C@H]12
REMARK SMILES IDX 7 1 6 2 33 3 11 4 5 5 15 6 4 7 12 8 16 9 13 10 17 11 31 12
REMARK SMILES IDX 14 13 18 14 30 15 32 16 19 17 29 18 21 19 20 20 28 21 22 22
REMARK SMILES IDX 25 23 23 24 26 25 27 26 8 27 9 28 10 29 2 30 3 31 1 32 24 33
REMARK H PARENT 24 34
REMARK Flexibility Score: inf
ROOT
ATOM      1  C   UNL     1      15.379  53.238   6.058  1.00  0.00     0.014 C 
ATOM      2  C   UNL     1      13.961  53.892   6.061  1.00  0.00     0.014 C 
ATOM      3  C   UNL     1      15.490  52.552   7.451  1.00  0.00     0.012 C 
ATOM      4  C   UNL     1      15.487  52.225   4.875  1.00  0.00     0.014 C 
ATOM      5  C   UNL     1      13.293  53.556   7.396  1.00  0.00     0.009 C 
ATOM      6  C   UNL     1      16.452  51.313   7.559  1.00  0.00     0.000 C 
ATOM      7  C   UNL     1      14.052  52.355   7.950  1.00  0.00     0.018 C 
ATOM      8  C   UNL     1      16.523  51.094   5.069  1.00  0.00     0.008 C 
ATOM      9  C   UNL     1      17.905  51.879   7.756  1.00  0.00     0.005 C 
ATOM     10  C   UNL     1      16.368  50.248   6.392  1.00  0.00    -0.024 C 
ATOM     11  C   UNL     1      19.050  50.931   7.388  1.00  0.00     0.005 C 
ATOM     12  C   UNL     1      17.511  49.051   6.585  1.00  0.00    -0.024 C 
ATOM     13  C   UNL     1      14.954  49.579   6.333  1.00  0.00     0.012 C 
ATOM     14  C   UNL     1      18.619  49.484   7.616  1.00  0.00     0.002 C 
ATOM     15  C   UNL     1      16.917  47.696   7.190  1.00  0.00     0.008 C 
ATOM     16  C   UNL     1      18.112  48.742   5.166  1.00  0.00     0.012 C 
ATOM     17  C   UNL     1      19.799  48.468   7.981  1.00  0.00    -0.026 C 
ATOM     18  C   UNL     1      17.850  46.810   8.078  1.00  0.00     0.005 C 
ATOM     19  C   UNL     1      21.091  48.690   7.143  1.00  0.00     0.010 C 
ATOM     20  C   UNL     1      20.125  48.725   9.494  1.00  0.00     0.012 C 
ATOM     21  C   UNL     1      19.331  46.991   7.711  1.00  0.00     0.003 C 
ATOM     22  C   UNL     1      22.188  47.635   7.435  1.00  0.00     0.033 C 
ATOM     23  C   UNL     1      20.356  45.850   8.078  1.00  0.00    -0.006 C 
ATOM     24  C   UNL     1      21.696  46.170   7.318  1.00  0.00     0.120 C 
ATOM     25  C   UNL     1      20.568  45.668   9.604  1.00  0.00     0.014 C 
ATOM     26  C   UNL     1      19.839  44.484   7.536  1.00  0.00     0.014 C 
ENDROOT
BRANCH   1  27
ATOM     27  C   UNL     1      16.427  54.342   5.926  1.00  0.00     0.048 C 
ATOM     28  O   UNL     1      17.164  54.430   4.907  1.00  0.00    -0.550 OA
ATOM     29  O   UNL     1      16.607  55.255   6.959  1.00  0.00    -0.550 OA
ENDBRANCH   1  27
BRANCH   7  30
ATOM     30  C   UNL     1      13.939  52.216   9.467  1.00  0.00    -0.077 C 
ATOM     31  C   UNL     1      13.547  50.914  10.126  1.00  0.00     0.039 C 
ATOM     32  C   UNL     1      14.158  53.283  10.252  1.00  0.00     0.008 C 
ENDBRANCH   7  30
BRANCH  24  33
ATOM     33  O   UNL     1      22.720  45.268   7.662  1.00  0.00    -0.393 OA
ATOM     34  H   UNL     1      23.566  45.592   7.257  1.00  0.00     0.210 HD
ENDBRANCH  24  33
TORSDOF 3
ENDMDL
MODEL 5
REMARK VINA RESULT:    -5.711      3.656      5.620
REMARK INTER + INTRA:          -7.277
REMARK INTER:                  -6.623
REMARK INTRA:                  -0.653
REMARK UNBOUND:                -0.730
REMARK SMILES C=C(C)[C@H]1CC[C@]2(C(=O)[O-])CC[C@]3(C)[C@@H](CC[C@@H]4[C@]5(C)CC[C@@H](O)C(C)(C)[C@H]5CC[C@]43C)[C@H]12
REMARK SMILES IDX 7 1 6 2 33 3 11 4 5 5 15 6 4 7 12 8 16 9 13 10 17 11 31 12
REMARK SMILES IDX 14 13 18 14 30 15 32 16 19 17 29 18 21 19 20 20 28 21 22 22
REMARK SMILES IDX 25 23 23 24 26 25 27 26 8 27 9 28 10 29 2 30 3 31 1 32 24 33
REMARK H PARENT 24 34
REMARK Flexibility Score: inf
ROOT
ATOM      1  C   UNL     1      11.089  44.665  14.504  1.00  0.00     0.014 C 
ATOM      2  C   UNL     1      10.825  44.992  16.007  1.00  0.00     0.014 C 
ATOM      3  C   UNL     1      11.519  46.027  13.883  1.00  0.00     0.012 C 
ATOM      4  C   UNL     1      12.199  43.572  14.392  1.00  0.00     0.014 C 
ATOM      5  C   UNL     1      11.127  46.475  16.225  1.00  0.00     0.009 C 
ATOM      6  C   UNL     1      12.444  45.969  12.613  1.00  0.00     0.000 C 
ATOM      7  C   UNL     1      12.004  46.898  15.051  1.00  0.00     0.018 C 
ATOM      8  C   UNL     1      12.989  43.570  13.063  1.00  0.00     0.008 C 
ATOM      9  C   UNL     1      11.505  45.736  11.375  1.00  0.00     0.005 C 
ATOM     10  C   UNL     1      13.650  44.945  12.661  1.00  0.00    -0.024 C 
ATOM     11  C   UNL     1      12.172  45.152  10.126  1.00  0.00     0.005 C 
ATOM     12  C   UNL     1      14.476  44.919  11.214  1.00  0.00    -0.024 C 
ATOM     13  C   UNL     1      14.658  45.308  13.802  1.00  0.00     0.012 C 
ATOM     14  C   UNL     1      13.633  45.590  10.066  1.00  0.00     0.002 C 
ATOM     15  C   UNL     1      15.837  45.756  11.244  1.00  0.00     0.008 C 
ATOM     16  C   UNL     1      14.819  43.419  10.897  1.00  0.00     0.012 C 
ATOM     17  C   UNL     1      14.253  45.706   8.596  1.00  0.00    -0.026 C 
ATOM     18  C   UNL     1      16.321  46.431   9.920  1.00  0.00     0.005 C 
ATOM     19  C   UNL     1      13.829  44.545   7.651  1.00  0.00     0.010 C 
ATOM     20  C   UNL     1      13.708  47.057   8.014  1.00  0.00     0.012 C 
ATOM     21  C   UNL     1      15.823  45.677   8.677  1.00  0.00     0.003 C 
ATOM     22  C   UNL     1      14.518  44.616   6.264  1.00  0.00     0.033 C 
ATOM     23  C   UNL     1      16.601  45.845   7.316  1.00  0.00    -0.006 C 
ATOM     24  C   UNL     1      16.061  44.739   6.335  1.00  0.00     0.120 C 
ATOM     25  C   UNL     1      16.504  47.271   6.713  1.00  0.00     0.014 C 
ATOM     26  C   UNL     1      18.116  45.558   7.537  1.00  0.00     0.014 C 
ENDROOT
BRANCH   1  27
ATOM     27  C   UNL     1       9.785  44.183  13.871  1.00  0.00     0.048 C 
ATOM     28  O   UNL     1       8.897  44.995  13.496  1.00  0.00    -0.550 OA
ATOM     29  O   UNL     1       9.544  42.820  13.732  1.00  0.00    -0.550 OA
ENDBRANCH   1  27
BRANCH   7  30
ATOM     30  C   UNL     1      11.950  48.398  14.765  1.00  0.00    -0.077 C 
ATOM     31  C   UNL     1      10.968  48.992  13.784  1.00  0.00     0.039 C 
ATOM     32  C   UNL     1      12.820  49.222  15.370  1.00  0.00     0.008 C 
ENDBRANCH   7  30
BRANCH  24  33
ATOM     33  O   UNL     1      16.614  44.867   5.047  1.00  0.00    -0.393 OA
ATOM     34  H   UNL     1      15.873  44.831   4.388  1.00  0.00     0.210 HD
ENDBRANCH  24  33
TORSDOF 3
ENDMDL
MODEL 6
REMARK VINA RESULT:    -5.646      2.589      8.436
REMARK INTER + INTRA:          -7.201
REMARK INTER:                  -6.487
REMARK INTRA:                  -0.714
REMARK UNBOUND:                -0.730
REMARK SMILES C=C(C)[C@H]1CC[C@]2(C(=O)[O-])CC[C@]3(C)[C@@H](CC[C@@H]4[C@]5(C)CC[C@@H](O)C(C)(C)[C@H]5CC[C@]43C)[C@H]12
REMARK SMILES IDX 7 1 6 2 33 3 11 4 5 5 15 6 4 7 12 8 16 9 13 10 17 11 31 12
REMARK SMILES IDX 14 13 18 14 30 15 32 16 19 17 29 18 21 19 20 20 28 21 22 22
REMARK SMILES IDX 25 23 23 24 26 25 27 26 8 27 9 28 10 29 2 30 3 31 1 32 24 33
REMARK H PARENT 24 34
REMARK Flexibility Score: inf
ROOT
ATOM      1  C   UNL     1      16.982  51.609   5.914  1.00  0.00     0.014 C 
ATOM      2  C   UNL     1      17.315  52.735   4.884  1.00  0.00     0.014 C 
ATOM      3  C   UNL     1      16.173  52.334   7.029  1.00  0.00     0.012 C 
ATOM      4  C   UNL     1      16.164  50.481   5.211  1.00  0.00     0.014 C 
ATOM      5  C   UNL     1      16.688  54.035   5.391  1.00  0.00     0.009 C 
ATOM      6  C   UNL     1      15.162  51.460   7.857  1.00  0.00     0.000 C 
ATOM      7  C   UNL     1      15.617  53.616   6.393  1.00  0.00     0.018 C 
ATOM      8  C   UNL     1      15.264  49.640   6.145  1.00  0.00     0.008 C 
ATOM      9  C   UNL     1      15.995  50.735   8.975  1.00  0.00     0.005 C 
ATOM     10  C   UNL     1      14.252  50.461   7.035  1.00  0.00    -0.024 C 
ATOM     11  C   UNL     1      15.362  49.475   9.573  1.00  0.00     0.005 C 
ATOM     12  C   UNL     1      13.309  49.531   8.047  1.00  0.00    -0.024 C 
ATOM     13  C   UNL     1      13.310  51.231   6.049  1.00  0.00     0.012 C 
ATOM     14  C   UNL     1      13.841  49.587   9.528  1.00  0.00     0.002 C 
ATOM     15  C   UNL     1      11.797  50.037   8.152  1.00  0.00     0.008 C 
ATOM     16  C   UNL     1      13.308  48.068   7.475  1.00  0.00     0.012 C 
ATOM     17  C   UNL     1      13.061  48.794  10.677  1.00  0.00    -0.026 C 
ATOM     18  C   UNL     1      11.028  49.804   9.492  1.00  0.00     0.005 C 
ATOM     19  C   UNL     1      13.651  47.383  10.967  1.00  0.00     0.010 C 
ATOM     20  C   UNL     1      13.199  49.675  11.967  1.00  0.00     0.012 C 
ATOM     21  C   UNL     1      11.562  48.581  10.253  1.00  0.00     0.003 C 
ATOM     22  C   UNL     1      12.825  46.587  12.009  1.00  0.00     0.033 C 
ATOM     23  C   UNL     1      10.628  47.865  11.304  1.00  0.00    -0.006 C 
ATOM     24  C   UNL     1      11.314  46.499  11.676  1.00  0.00     0.120 C 
ATOM     25  C   UNL     1      10.313  48.731  12.552  1.00  0.00     0.014 C 
ATOM     26  C   UNL     1       9.259  47.523  10.644  1.00  0.00     0.014 C 
ENDROOT
BRANCH   1  27
ATOM     27  C   UNL     1      18.291  51.060   6.480  1.00  0.00     0.048 C 
ATOM     28  O   UNL     1      18.895  51.643   7.420  1.00  0.00    -0.550 OA
ATOM     29  O   UNL     1      18.857  49.915   5.932  1.00  0.00    -0.550 OA
ENDBRANCH   1  27
BRANCH   7  30
ATOM     30  C   UNL     1      15.276  54.709   7.406  1.00  0.00    -0.077 C 
ATOM     31  C   UNL     1      16.321  55.318   8.310  1.00  0.00     0.039 C 
ATOM     32  C   UNL     1      14.007  55.127   7.532  1.00  0.00     0.008 C 
ENDBRANCH   7  30
BRANCH  24  33
ATOM     33  O   UNL     1      10.615  45.823  12.695  1.00  0.00    -0.393 OA
ATOM     34  H   UNL     1      10.718  44.848  12.545  1.00  0.00     0.210 HD
ENDBRANCH  24  33
TORSDOF 3
ENDMDL
MODEL 7
REMARK VINA RESULT:    -5.522      4.160      8.360
REMARK INTER + INTRA:          -7.059
REMARK INTER:                  -6.322
REMARK INTRA:                  -0.737
REMARK UNBOUND:                -0.730
REMARK SMILES C=C(C)[C@H]1CC[C@]2(C(=O)[O-])CC[C@]3(C)[C@@H](CC[C@@H]4[C@]5(C)CC[C@@H](O)C(C)(C)[C@H]5CC[C@]43C)[C@H]12
REMARK SMILES IDX 7 1 6 2 33 3 11 4 5 5 15 6 4 7 12 8 16 9 13 10 17 11 31 12
REMARK SMILES IDX 14 13 18 14 30 15 32 16 19 17 29 18 21 19 20 20 28 21 22 22
REMARK SMILES IDX 25 23 23 24 26 25 27 26 8 27 9 28 10 29 2 30 3 31 1 32 24 33
REMARK H PARENT 24 34
REMARK Flexibility Score: inf
ROOT
ATOM      1  C   UNL     1      14.059  43.726   6.621  1.00  0.00     0.014 C 
ATOM      2  C   UNL     1      14.681  43.928   5.204  1.00  0.00     0.014 C 
ATOM      3  C   UNL     1      15.126  44.302   7.597  1.00  0.00     0.012 C 
ATOM      4  C   UNL     1      12.693  44.477   6.707  1.00  0.00     0.014 C 
ATOM      5  C   UNL     1      16.033  44.622   5.381  1.00  0.00     0.009 C 
ATOM      6  C   UNL     1      14.607  44.842   8.980  1.00  0.00     0.000 C 
ATOM      7  C   UNL     1      15.997  45.255   6.767  1.00  0.00     0.018 C 
ATOM      8  C   UNL     1      12.255  44.889   8.131  1.00  0.00     0.008 C 
ATOM      9  C   UNL     1      14.457  43.598   9.928  1.00  0.00     0.005 C 
ATOM     10  C   UNL     1      13.305  45.740   8.946  1.00  0.00    -0.024 C 
ATOM     11  C   UNL     1      13.517  43.775  11.124  1.00  0.00     0.005 C 
ATOM     12  C   UNL     1      12.815  46.151  10.485  1.00  0.00    -0.024 C 
ATOM     13  C   UNL     1      13.543  47.056   8.133  1.00  0.00     0.012 C 
ATOM     14  C   UNL     1      13.507  45.236  11.564  1.00  0.00     0.002 C 
ATOM     15  C   UNL     1      13.226  47.637  10.907  1.00  0.00     0.008 C 
ATOM     16  C   UNL     1      11.250  46.035  10.527  1.00  0.00     0.012 C 
ATOM     17  C   UNL     1      13.207  45.482  13.116  1.00  0.00    -0.026 C 
ATOM     18  C   UNL     1      13.516  47.925  12.416  1.00  0.00     0.005 C 
ATOM     19  C   UNL     1      12.080  44.572  13.682  1.00  0.00     0.010 C 
ATOM     20  C   UNL     1      14.548  45.151  13.862  1.00  0.00     0.012 C 
ATOM     21  C   UNL     1      12.748  46.969  13.340  1.00  0.00     0.003 C 
ATOM     22  C   UNL     1      11.731  44.892  15.158  1.00  0.00     0.033 C 
ATOM     23  C   UNL     1      12.470  47.403  14.831  1.00  0.00    -0.006 C 
ATOM     24  C   UNL     1      11.421  46.388  15.420  1.00  0.00     0.120 C 
ATOM     25  C   UNL     1      13.750  47.505  15.701  1.00  0.00     0.014 C 
ATOM     26  C   UNL     1      11.804  48.810  14.854  1.00  0.00     0.014 C 
ENDROOT
BRANCH   1  27
ATOM     27  C   UNL     1      13.872  42.229   6.865  1.00  0.00     0.048 C 
ATOM     28  O   UNL     1      14.847  41.483   7.151  1.00  0.00    -0.550 OA
ATOM     29  O   UNL     1      12.611  41.657   6.737  1.00  0.00    -0.550 OA
ENDBRANCH   1  27
BRANCH   7  30
ATOM     30  C   UNL     1      17.385  45.494   7.359  1.00  0.00    -0.077 C 
ATOM     31  C   UNL     1      18.424  44.400   7.436  1.00  0.00     0.039 C 
ATOM     32  C   UNL     1      17.696  46.700   7.862  1.00  0.00     0.008 C 
ENDBRANCH   7  30
BRANCH  24  33
ATOM     33  O   UNL     1      11.181  46.618  16.787  1.00  0.00    -0.393 OA
ATOM     34  H   UNL     1      11.979  47.067  17.170  1.00  0.00     0.210 HD
ENDBRANCH  24  33
TORSDOF 3
ENDMDL
MODEL 8
REMARK VINA RESULT:    -5.444      4.715      7.154
REMARK INTER + INTRA:          -6.970
REMARK INTER:                  -6.588
REMARK INTRA:                  -0.383
REMARK UNBOUND:                -0.730
REMARK SMILES C=C(C)[C@H]1CC[C@]2(C(=O)[O-])CC[C@]3(C)[C@@H](CC[C@@H]4[C@]5(C)CC[C@@H](O)C(C)(C)[C@H]5CC[C@]43C)[C@H]12
REMARK SMILES IDX 7 1 6 2 33 3 11 4 5 5 15 6 4 7 12 8 16 9 13 10 17 11 31 12
REMARK SMILES IDX 14 13 18 14 30 15 32 16 19 17 29 18 21 19 20 20 28 21 22 22
REMARK SMILES IDX 25 23 23 24 26 25 27 26 8 27 9 28 10 29 2 30 3 31 1 32 24 33
REMARK H PARENT 24 34
REMARK Flexibility Score: inf
ROOT
ATOM      1  C   UNL     1      13.803  54.111  18.738  1.00  0.00     0.014 C 
ATOM      2  C   UNL     1      14.216  54.200  20.241  1.00  0.00     0.014 C 
ATOM      3  C   UNL     1      14.542  52.846  18.210  1.00  0.00     0.012 C 
ATOM      4  C   UNL     1      12.250  53.994  18.627  1.00  0.00     0.014 C 
ATOM      5  C   UNL     1      15.127  53.011  20.549  1.00  0.00     0.009 C 
ATOM      6  C   UNL     1      13.893  52.102  16.987  1.00  0.00     0.000 C 
ATOM      7  C   UNL     1      14.869  51.993  19.443  1.00  0.00     0.018 C 
ATOM      8  C   UNL     1      11.731  53.310  17.342  1.00  0.00     0.008 C 
ATOM      9  C   UNL     1      14.345  52.870  15.692  1.00  0.00     0.005 C 
ATOM     10  C   UNL     1      12.327  51.879  17.044  1.00  0.00    -0.024 C 
ATOM     11  C   UNL     1      13.471  52.668  14.451  1.00  0.00     0.005 C 
ATOM     12  C   UNL     1      11.767  51.175  15.641  1.00  0.00    -0.024 C 
ATOM     13  C   UNL     1      11.926  50.966  18.251  1.00  0.00     0.012 C 
ATOM     14  C   UNL     1      12.833  51.281  14.487  1.00  0.00     0.002 C 
ATOM     15  C   UNL     1      11.494  49.607  15.781  1.00  0.00     0.008 C 
ATOM     16  C   UNL     1      10.417  51.885  15.266  1.00  0.00     0.012 C 
ATOM     17  C   UNL     1      12.516  50.637  13.058  1.00  0.00    -0.026 C 
ATOM     18  C   UNL     1      11.685  48.705  14.519  1.00  0.00     0.005 C 
ATOM     19  C   UNL     1      11.930  51.652  12.035  1.00  0.00     0.010 C 
ATOM     20  C   UNL     1      13.892  50.110  12.519  1.00  0.00     0.012 C 
ATOM     21  C   UNL     1      11.455  49.487  13.217  1.00  0.00     0.003 C 
ATOM     22  C   UNL     1      11.534  50.991  10.690  1.00  0.00     0.033 C 
ATOM     23  C   UNL     1      11.072  48.697  11.907  1.00  0.00    -0.006 C 
ATOM     24  C   UNL     1      10.605  49.760  10.845  1.00  0.00     0.120 C 
ATOM     25  C   UNL     1      12.208  47.785  11.373  1.00  0.00     0.014 C 
ATOM     26  C   UNL     1       9.854  47.769  12.189  1.00  0.00     0.014 C 
ENDROOT
BRANCH   1  27
ATOM     27  C   UNL     1      14.307  55.360  18.017  1.00  0.00     0.048 C 
ATOM     28  O   UNL     1      15.518  55.708  18.075  1.00  0.00    -0.550 OA
ATOM     29  O   UNL     1      13.417  56.158  17.307  1.00  0.00    -0.550 OA
ENDBRANCH   1  27
BRANCH   7  30
ATOM     30  C   UNL     1      16.030  51.022  19.231  1.00  0.00    -0.077 C 
ATOM     31  C   UNL     1      16.795  50.961  17.930  1.00  0.00     0.039 C 
ATOM     32  C   UNL     1      16.371  50.168  20.209  1.00  0.00     0.008 C 
ENDBRANCH   7  30
BRANCH  24  33
ATOM     33  O   UNL     1      10.341  49.170   9.595  1.00  0.00    -0.393 OA
ATOM     34  H   UNL     1      11.018  48.462   9.438  1.00  0.00     0.210 HD
ENDBRANCH  24  33
TORSDOF 3
ENDMDL
MODEL 9
REMARK VINA RESULT:    -5.396      2.438      8.217
REMARK INTER + INTRA:          -6.915
REMARK INTER:                  -6.194
REMARK INTRA:                  -0.721
REMARK UNBOUND:                -0.730
REMARK SMILES C=C(C)[C@H]1CC[C@]2(C(=O)[O-])CC[C@]3(C)[C@@H](CC[C@@H]4[C@]5(C)CC[C@@H](O)C(C)(C)[C@H]5CC[C@]43C)[C@H]12
REMARK SMILES IDX 7 1 6 2 33 3 11 4 5 5 15 6 4 7 12 8 16 9 13 10 17 11 31 12
REMARK SMILES IDX 14 13 18 14 30 15 32 16 19 17 29 18 21 19 20 20 28 21 22 22
REMARK SMILES IDX 25 23 23 24 26 25 27 26 8 27 9 28 10 29 2 30 3 31 1 32 24 33
REMARK H PARENT 24 34
REMARK Flexibility Score: inf
ROOT
ATOM      1  C   UNL     1      15.341  52.393   6.905  1.00  0.00     0.014 C 
ATOM      2  C   UNL     1      16.663  53.031   6.373  1.00  0.00     0.014 C 
ATOM      3  C   UNL     1      15.578  50.859   6.782  1.00  0.00     0.012 C 
ATOM      4  C   UNL     1      15.093  52.850   8.376  1.00  0.00     0.014 C 
ATOM      5  C   UNL     1      17.614  51.894   5.997  1.00  0.00     0.009 C 
ATOM      6  C   UNL     1      14.778  49.935   7.771  1.00  0.00     0.000 C 
ATOM      7  C   UNL     1      17.099  50.661   6.730  1.00  0.00     0.018 C 
ATOM      8  C   UNL     1      14.227  51.893   9.227  1.00  0.00     0.008 C 
ATOM      9  C   UNL     1      13.348  49.733   7.152  1.00  0.00     0.005 C 
ATOM     10  C   UNL     1      14.724  50.396   9.284  1.00  0.00    -0.024 C 
ATOM     11  C   UNL     1      12.246  49.311   8.129  1.00  0.00     0.005 C 
ATOM     12  C   UNL     1      13.761  49.381  10.190  1.00  0.00    -0.024 C 
ATOM     13  C   UNL     1      16.154  50.422   9.921  1.00  0.00     0.012 C 
ATOM     14  C   UNL     1      12.848  48.491   9.267  1.00  0.00     0.002 C 
ATOM     15  C   UNL     1      14.589  48.327  11.060  1.00  0.00     0.008 C 
ATOM     16  C   UNL     1      12.919  50.281  11.165  1.00  0.00     0.012 C 
ATOM     17  C   UNL     1      11.867  47.416   9.929  1.00  0.00    -0.026 C 
ATOM     18  C   UNL     1      13.942  46.934  11.349  1.00  0.00     0.005 C 
ATOM     19  C   UNL     1      10.417  47.942  10.135  1.00  0.00     0.010 C 
ATOM     20  C   UNL     1      11.829  46.207   8.929  1.00  0.00     0.012 C 
ATOM     21  C   UNL     1      12.408  47.004  11.347  1.00  0.00     0.003 C 
ATOM     22  C   UNL     1       9.506  46.926  10.870  1.00  0.00     0.033 C 
ATOM     23  C   UNL     1      11.589  45.898  12.119  1.00  0.00    -0.006 C 
ATOM     24  C   UNL     1      10.100  46.398  12.201  1.00  0.00     0.120 C 
ATOM     25  C   UNL     1      11.707  44.483  11.493  1.00  0.00     0.014 C 
ATOM     26  C   UNL     1      12.112  45.782  13.581  1.00  0.00     0.014 C 
ENDROOT
BRANCH   1  27
ATOM     27  C   UNL     1      14.189  52.825   5.999  1.00  0.00     0.048 C 
ATOM     28  O   UNL     1      13.997  52.283   4.877  1.00  0.00    -0.550 OA
ATOM     29  O   UNL     1      13.349  53.861   6.392  1.00  0.00    -0.550 OA
ENDBRANCH   1  27
BRANCH   7  30
ATOM     30  C   UNL     1      17.528  49.347   6.080  1.00  0.00    -0.077 C 
ATOM     31  C   UNL     1      18.523  48.416   6.732  1.00  0.00     0.039 C 
ATOM     32  C   UNL     1      17.040  49.010   4.875  1.00  0.00     0.008 C 
ENDBRANCH   7  30
BRANCH  24  33
ATOM     33  O   UNL     1       9.254  45.432  12.778  1.00  0.00    -0.393 OA
ATOM     34  H   UNL     1       8.650  45.088  12.071  1.00  0.00     0.210 HD
ENDBRANCH  24  33
TORSDOF 3
ENDMDL
