MODEL 1
REMARK VINA RESULT:    17.395      0.000      0.000
REMARK INTER + INTRA:          19.222
REMARK INTER:                  19.429
REMARK INTRA:                  -0.207
REMARK UNBOUND:                -0.207
REMARK SMILES CC(C)c1ccc(C(=O)[O-])cc1
REMARK SMILES IDX 7 1 6 2 11 3 5 4 12 5 4 6 8 7 9 8 10 9 2 10 1 11 3 12
REMARK H PARENT
REMARK Flexibility Score: inf
ROOT
ATOM      1  C   UNL     1      -7.396 -17.675  27.268  1.00  0.00    -0.003 A 
ATOM      2  C   UNL     1      -8.764 -17.739  27.578  1.00  0.00     0.010 A 
ATOM      3  C   UNL     1      -6.468 -17.508  28.311  1.00  0.00     0.010 A 
ATOM      4  C   UNL     1      -9.196 -17.638  28.904  1.00  0.00     0.004 A 
ATOM      5  C   UNL     1      -6.900 -17.408  29.636  1.00  0.00     0.004 A 
ATOM      6  C   UNL     1      -8.268 -17.471  29.948  1.00  0.00    -0.045 A 
ENDROOT
BRANCH   1   7
ATOM      7  C   UNL     1      -6.943 -17.782  25.864  1.00  0.00     0.071 C 
ATOM      8  O   UNL     1      -7.512 -17.121  24.955  1.00  0.00    -0.545 OA
ATOM      9  O   UNL     1      -5.881 -18.613  25.528  1.00  0.00    -0.545 OA
ENDBRANCH   1   7
BRANCH   6  10
ATOM     10  C   UNL     1      -8.724 -17.361  31.392  1.00  0.00     0.013 C 
ATOM     11  C   UNL     1      -8.564 -18.698  32.125  1.00  0.00     0.012 C 
ATOM     12  C   UNL     1      -7.978 -16.238  32.122  1.00  0.00     0.012 C 
ENDBRANCH   6  10
TORSDOF 2
ENDMDL
MODEL 2
REMARK VINA RESULT:    18.747      2.403      3.574
REMARK INTER + INTRA:          20.732
REMARK INTER:                  20.944
REMARK INTRA:                  -0.211
REMARK UNBOUND:                -0.207
REMARK SMILES CC(C)c1ccc(C(=O)[O-])cc1
REMARK SMILES IDX 7 1 6 2 11 3 5 4 12 5 4 6 8 7 9 8 10 9 2 10 1 11 3 12
REMARK H PARENT
REMARK Flexibility Score: inf
ROOT
ATOM      1  C   UNL     1      -5.744 -18.207  25.454  1.00  0.00    -0.003 A 
ATOM      2  C   UNL     1      -5.468 -17.961  26.809  1.00  0.00     0.010 A 
ATOM      3  C   UNL     1      -7.062 -18.053  24.988  1.00  0.00     0.010 A 
ATOM      4  C   UNL     1      -6.488 -17.568  27.680  1.00  0.00     0.004 A 
ATOM      5  C   UNL     1      -8.082 -17.660  25.859  1.00  0.00     0.004 A 
ATOM      6  C   UNL     1      -7.808 -17.414  27.215  1.00  0.00    -0.045 A 
ENDROOT
BRANCH   1   7
ATOM      7  C   UNL     1      -4.662 -18.622  24.535  1.00  0.00     0.071 C 
ATOM      8  O   UNL     1      -3.454 -18.446  24.846  1.00  0.00    -0.545 OA
ATOM      9  O   UNL     1      -4.963 -19.214  23.313  1.00  0.00    -0.545 OA
ENDBRANCH   1   7
BRANCH   6  10
ATOM     10  C   UNL     1      -8.924 -16.988  28.150  1.00  0.00     0.013 C 
ATOM     11  C   UNL     1      -9.910 -16.050  27.442  1.00  0.00     0.012 C 
ATOM     12  C   UNL     1      -9.646 -18.206  28.739  1.00  0.00     0.012 C 
ENDBRANCH   6  10
TORSDOF 2
ENDMDL
MODEL 3
REMARK VINA RESULT:    18.762      3.042      5.084
REMARK INTER + INTRA:          20.750
REMARK INTER:                  20.962
REMARK INTRA:                  -0.213
REMARK UNBOUND:                -0.207
REMARK SMILES CC(C)c1ccc(C(=O)[O-])cc1
REMARK SMILES IDX 7 1 6 2 11 3 5 4 12 5 4 6 8 7 9 8 10 9 2 10 1 11 3 12
REMARK H PARENT
REMARK Flexibility Score: inf
ROOT
ATOM      1  C   UNL     1      -8.510 -17.236  27.415  1.00  0.00    -0.003 A 
ATOM      2  C   UNL     1      -7.319 -17.065  28.140  1.00  0.00     0.010 A 
ATOM      3  C   UNL     1      -8.459 -17.876  26.164  1.00  0.00     0.010 A 
ATOM      4  C   UNL     1      -6.103 -17.523  27.625  1.00  0.00     0.004 A 
ATOM      5  C   UNL     1      -7.243 -18.335  25.650  1.00  0.00     0.004 A 
ATOM      6  C   UNL     1      -6.052 -18.163  26.373  1.00  0.00    -0.045 A 
ENDROOT
BRANCH   1   7
ATOM      7  C   UNL     1      -9.795 -16.750  27.963  1.00  0.00     0.071 C 
ATOM      8  O   UNL     1     -10.380 -17.382  28.882  1.00  0.00    -0.545 OA
ATOM      9  O   UNL     1     -10.376 -15.587  27.471  1.00  0.00    -0.545 OA
ENDBRANCH   1   7
BRANCH   6  10
ATOM     10  C   UNL     1      -4.738 -18.666  25.802  1.00  0.00     0.013 C 
ATOM     11  C   UNL     1      -4.750 -18.625  24.270  1.00  0.00     0.012 C 
ATOM     12  C   UNL     1      -3.552 -17.875  26.367  1.00  0.00     0.012 C 
ENDBRANCH   6  10
TORSDOF 2
ENDMDL
