MODEL 1
REMARK VINA RESULT:     7.158      0.000      0.000
REMARK INTER + INTRA:          14.691
REMARK INTER:                  10.506
REMARK INTRA:                   4.185
REMARK UNBOUND:                 4.185
REMARK SMILES Cc1cc2c(C(C)C)c(O)c(O)c(C=O)c2c(O)c1-c1c(C)cc2c(C(C)C)c(O)c(O)c(C=O)c2c1O
REMARK SMILES IDX 1 1 2 2 3 3 4 4 16 5 13 6 11 7 9 8 5 9 17 10 19 11 20 12
REMARK SMILES IDX 37 13 21 14 36 15 23 16 22 17 24 18 33 19 25 20 31 21 29 22
REMARK SMILES IDX 38 23 34 25 35 26 26 27 27 28 28 29 32 30 30 32 18 34 6 36
REMARK SMILES IDX 7 37 8 38 14 39 15 40 10 41 12 43
REMARK H PARENT 38 24 32 31 30 33 18 35 10 42 12 44
REMARK Flexibility Score: inf
ROOT
ATOM      1  C   UNL     1      -1.395 -35.741  44.380  1.00  0.00     0.045 C 
ATOM      2  C   UNL     1      -2.307 -35.066  45.375  1.00  0.00    -0.039 A 
ATOM      3  C   UNL     1      -3.672 -34.974  45.100  1.00  0.00     0.013 A 
ATOM      4  C   UNL     1      -4.574 -34.369  46.003  1.00  0.00    -0.006 A 
ATOM      5  C   UNL     1      -4.053 -33.728  47.166  1.00  0.00     0.039 A 
ATOM      6  C   UNL     1      -4.928 -32.930  47.964  1.00  0.00     0.072 A 
ATOM      7  C   UNL     1      -6.282 -32.790  47.593  1.00  0.00     0.169 A 
ATOM      8  C   UNL     1      -6.799 -33.506  46.509  1.00  0.00     0.162 A 
ATOM      9  C   UNL     1      -5.980 -34.373  45.755  1.00  0.00     0.008 A 
ATOM     10  C   UNL     1      -2.678 -33.918  47.495  1.00  0.00     0.132 A 
ATOM     11  C   UNL     1      -1.812 -34.572  46.593  1.00  0.00     0.031 A 
ENDROOT
BRANCH  11  12
ATOM     12  C   UNL     1      -0.369 -34.729  46.921  1.00  0.00     0.031 A 
ATOM     13  C   UNL     1       0.356 -33.648  47.466  1.00  0.00     0.132 A 
ATOM     14  C   UNL     1       0.264 -35.959  46.699  1.00  0.00    -0.039 A 
ATOM     15  C   UNL     1       1.746 -33.790  47.776  1.00  0.00     0.039 A 
ATOM     16  C   UNL     1       1.604 -36.117  47.050  1.00  0.00     0.013 A 
ATOM     17  C   UNL     1      -0.490 -37.125  46.102  1.00  0.00     0.045 C 
ATOM     18  C   UNL     1       2.370 -35.066  47.598  1.00  0.00    -0.006 A 
ATOM     19  C   UNL     1       2.522 -32.706  48.284  1.00  0.00     0.072 A 
ATOM     20  C   UNL     1       3.739 -35.261  47.976  1.00  0.00     0.008 A 
ATOM     21  C   UNL     1       3.865 -32.912  48.653  1.00  0.00     0.169 A 
ATOM     22  C   UNL     1       4.451 -34.174  48.531  1.00  0.00     0.162 A 
BRANCH  13  23
ATOM     23  O   UNL     1      -0.309 -32.443  47.718  1.00  0.00    -0.507 OA
ATOM     24  H   UNL     1       0.120 -31.531  47.638  1.00  0.00     0.293 HD
ENDBRANCH  13  23
BRANCH  19  25
ATOM     25  C   UNL     1       1.973 -31.338  48.403  1.00  0.00     0.264 C 
ATOM     26  O   UNL     1       2.709 -30.382  48.765  1.00  0.00    -0.298 OA
ENDBRANCH  19  25
BRANCH  20  27
ATOM     27  C   UNL     1       4.486 -36.606  47.838  1.00  0.00     0.017 C 
ATOM     28  C   UNL     1       5.139 -36.768  46.456  1.00  0.00     0.012 C 
ATOM     29  C   UNL     1       5.445 -36.914  49.007  1.00  0.00     0.012 C 
ENDBRANCH  20  27
BRANCH  21  30
ATOM     30  O   UNL     1       4.665 -31.863  49.125  1.00  0.00    -0.504 OA
ATOM     31  H   UNL     1       5.494 -31.523  48.657  1.00  0.00     0.293 HD
ENDBRANCH  21  30
BRANCH  22  32
ATOM     32  O   UNL     1       5.773 -34.350  48.958  1.00  0.00    -0.504 OA
ATOM     33  H   UNL     1       6.461 -33.608  48.953  1.00  0.00     0.293 HD
ENDBRANCH  22  32
ENDBRANCH  11  12
BRANCH  10  34
ATOM     34  O   UNL     1      -2.177 -33.482  48.728  1.00  0.00    -0.507 OA
ATOM     35  H   UNL     1      -2.758 -33.219  49.514  1.00  0.00     0.293 HD
ENDBRANCH  10  34
BRANCH   9  36
ATOM     36  C   UNL     1      -6.608 -35.280  44.682  1.00  0.00     0.017 C 
ATOM     37  C   UNL     1      -5.962 -36.668  44.692  1.00  0.00     0.012 C 
ATOM     38  C   UNL     1      -6.597 -34.669  43.268  1.00  0.00     0.012 C 
ENDBRANCH   9  36
BRANCH   6  39
ATOM     39  C   UNL     1      -4.437 -32.157  49.125  1.00  0.00     0.264 C 
ATOM     40  O   UNL     1      -4.487 -30.899  49.124  1.00  0.00    -0.298 OA
ENDBRANCH   6  39
BRANCH   8  41
ATOM     41  O   UNL     1      -8.141 -33.338  46.158  1.00  0.00    -0.504 OA
ATOM     42  H   UNL     1      -8.728 -34.097  45.837  1.00  0.00     0.293 HD
ENDBRANCH   8  41
BRANCH   7  43
ATOM     43  O   UNL     1      -7.142 -31.920  48.274  1.00  0.00    -0.504 OA
ATOM     44  H   UNL     1      -8.080 -32.163  48.566  1.00  0.00     0.293 HD
ENDBRANCH   7  43
TORSDOF 11
ENDMDL
