MODEL 1
REMARK VINA RESULT:    -3.985      0.000      0.000
REMARK INTER + INTRA:          -5.657
REMARK INTER:                  -5.266
REMARK INTRA:                  -0.391
REMARK UNBOUND:                -0.391
REMARK SMILES C=C[C@H](O)CCCCC
REMARK SMILES IDX 6 1 7 2 8 3 9 4 5 5 3 6 2 7 1 8 4 9
REMARK H PARENT 4 10
REMARK Flexibility Score: inf
ROOT
ATOM      1  C   UNL     1     -37.113  21.086   5.526  1.00  0.00     0.003 C 
ENDROOT
BRANCH   1   2
ATOM      2  C   UNL     1     -38.125  21.955   4.746  1.00  0.00    -0.000 C 
BRANCH   2   3
ATOM      3  C   UNL     1     -37.620  23.382   4.468  1.00  0.00    -0.003 C 
ATOM      4  C   UNL     1     -38.047  24.382   5.540  1.00  0.00     0.004 C 
ENDBRANCH   2   3
ENDBRANCH   1   2
BRANCH   1   5
ATOM      5  C   UNL     1     -37.542  20.809   6.980  1.00  0.00     0.036 C 
BRANCH   5   6
ATOM      6  C   UNL     1     -36.568  21.398   8.030  1.00  0.00     0.136 C 
BRANCH   6   7
ATOM      7  C   UNL     1     -35.529  22.313   7.419  1.00  0.00    -0.004 C 
ATOM      8  C   UNL     1     -34.236  21.983   7.327  1.00  0.00     0.007 C 
ENDBRANCH   6   7
BRANCH   6   9
ATOM      9  O   UNL     1     -35.949  20.376   8.771  1.00  0.00    -0.389 OA
ATOM     10  H   UNL     1     -36.647  19.724   9.036  1.00  0.00     0.211 HD
ENDBRANCH   6   9
ENDBRANCH   5   6
ENDBRANCH   1   5
TORSDOF 6
ENDMDL
MODEL 2
REMARK VINA RESULT:    -3.858      1.161      2.260
REMARK INTER + INTRA:          -5.489
REMARK INTER:                  -5.232
REMARK INTRA:                  -0.257
REMARK UNBOUND:                -0.391
REMARK SMILES C=C[C@H](O)CCCCC
REMARK SMILES IDX 6 1 7 2 8 3 9 4 5 5 3 6 2 7 1 8 4 9
REMARK H PARENT 4 10
REMARK Flexibility Score: inf
ROOT
ATOM      1  C   UNL     1     -35.852  22.267   5.928  1.00  0.00     0.003 C 
ENDROOT
BRANCH   1   2
ATOM      2  C   UNL     1     -36.914  21.597   5.028  1.00  0.00    -0.000 C 
BRANCH   2   3
ATOM      3  C   UNL     1     -38.123  22.502   4.731  1.00  0.00    -0.003 C 
ATOM      4  C   UNL     1     -37.747  23.978   4.622  1.00  0.00     0.004 C 
ENDBRANCH   2   3
ENDBRANCH   1   2
BRANCH   1   5
ATOM      5  C   UNL     1     -36.200  22.208   7.429  1.00  0.00     0.036 C 
BRANCH   5   6
ATOM      6  C   UNL     1     -36.322  20.765   7.974  1.00  0.00     0.136 C 
BRANCH   6   7
ATOM      7  C   UNL     1     -37.754  20.360   8.251  1.00  0.00    -0.004 C 
ATOM      8  C   UNL     1     -38.125  19.089   8.440  1.00  0.00     0.007 C 
ENDBRANCH   6   7
BRANCH   6   9
ATOM      9  O   UNL     1     -35.532  20.593   9.125  1.00  0.00    -0.389 OA
ATOM     10  H   UNL     1     -35.903  21.172   9.840  1.00  0.00     0.211 HD
ENDBRANCH   6   9
ENDBRANCH   5   6
ENDBRANCH   1   5
TORSDOF 6
ENDMDL
MODEL 3
REMARK VINA RESULT:    -3.418      1.713      3.785
REMARK INTER + INTRA:          -4.907
REMARK INTER:                  -4.464
REMARK INTRA:                  -0.444
REMARK UNBOUND:                -0.391
REMARK SMILES C=C[C@H](O)CCCCC
REMARK SMILES IDX 6 1 7 2 8 3 9 4 5 5 3 6 2 7 1 8 4 9
REMARK H PARENT 4 10
REMARK Flexibility Score: inf
ROOT
ATOM      1  C   UNL     1     -37.141  20.682   7.082  1.00  0.00     0.003 C 
ENDROOT
BRANCH   1   2
ATOM      2  C   UNL     1     -36.155  20.257   8.193  1.00  0.00    -0.000 C 
BRANCH   2   3
ATOM      3  C   UNL     1     -35.054  21.297   8.465  1.00  0.00    -0.003 C 
ATOM      4  C   UNL     1     -34.420  21.838   7.185  1.00  0.00     0.004 C 
ENDBRANCH   2   3
ENDBRANCH   1   2
BRANCH   1   5
ATOM      5  C   UNL     1     -38.125  21.781   7.527  1.00  0.00     0.036 C 
BRANCH   5   6
ATOM      6  C   UNL     1     -38.036  23.068   6.671  1.00  0.00     0.136 C 
BRANCH   6   7
ATOM      7  C   UNL     1     -37.731  22.786   5.216  1.00  0.00    -0.004 C 
ATOM      8  C   UNL     1     -37.594  23.754   4.303  1.00  0.00     0.007 C 
ENDBRANCH   6   7
BRANCH   6   9
ATOM      9  O   UNL     1     -37.092  23.963   7.206  1.00  0.00    -0.389 OA
ATOM     10  H   UNL     1     -37.032  23.798   8.183  1.00  0.00     0.211 HD
ENDBRANCH   6   9
ENDBRANCH   5   6
ENDBRANCH   1   5
TORSDOF 6
ENDMDL
MODEL 4
REMARK VINA RESULT:    -3.264      1.783      4.117
REMARK INTER + INTRA:          -4.704
REMARK INTER:                  -4.405
REMARK INTRA:                  -0.299
REMARK UNBOUND:                -0.391
REMARK SMILES C=C[C@H](O)CCCCC
REMARK SMILES IDX 6 1 7 2 8 3 9 4 5 5 3 6 2 7 1 8 4 9
REMARK H PARENT 4 10
REMARK Flexibility Score: inf
ROOT
ATOM      1  C   UNL     1     -35.682  21.610   7.104  1.00  0.00     0.003 C 
ENDROOT
BRANCH   1   2
ATOM      2  C   UNL     1     -36.438  21.168   8.376  1.00  0.00    -0.000 C 
BRANCH   2   3
ATOM      3  C   UNL     1     -37.908  20.794   8.116  1.00  0.00    -0.003 C 
ATOM      4  C   UNL     1     -38.125  19.287   8.000  1.00  0.00     0.004 C 
ENDBRANCH   2   3
ENDBRANCH   1   2
BRANCH   1   5
ATOM      5  C   UNL     1     -36.347  22.799   6.382  1.00  0.00     0.036 C 
BRANCH   5   6
ATOM      6  C   UNL     1     -36.697  22.501   4.904  1.00  0.00     0.136 C 
BRANCH   6   7
ATOM      7  C   UNL     1     -37.923  23.249   4.427  1.00  0.00    -0.004 C 
ATOM      8  C   UNL     1     -38.125  24.547   4.679  1.00  0.00     0.007 C 
ENDBRANCH   6   7
BRANCH   6   9
ATOM      9  O   UNL     1     -36.850  21.119   4.692  1.00  0.00    -0.389 OA
ATOM     10  H   UNL     1     -36.950  20.969   3.716  1.00  0.00     0.211 HD
ENDBRANCH   6   9
ENDBRANCH   5   6
ENDBRANCH   1   5
TORSDOF 6
ENDMDL
MODEL 5
REMARK VINA RESULT:    -3.171      1.410      1.954
REMARK INTER + INTRA:          -4.581
REMARK INTER:                  -4.579
REMARK INTRA:                  -0.002
REMARK UNBOUND:                -0.391
REMARK SMILES C=C[C@H](O)CCCCC
REMARK SMILES IDX 6 1 7 2 8 3 9 4 5 5 3 6 2 7 1 8 4 9
REMARK H PARENT 4 10
REMARK Flexibility Score: inf
ROOT
ATOM      1  C   UNL     1     -37.204  23.524   6.918  1.00  0.00     0.003 C 
ENDROOT
BRANCH   1   2
ATOM      2  C   UNL     1     -38.125  24.609   6.317  1.00  0.00    -0.000 C 
BRANCH   2   3
ATOM      3  C   UNL     1     -38.116  24.635   4.779  1.00  0.00    -0.003 C 
ATOM      4  C   UNL     1     -37.386  23.441   4.169  1.00  0.00     0.004 C 
ENDBRANCH   2   3
ENDBRANCH   1   2
BRANCH   1   5
ATOM      5  C   UNL     1     -37.959  22.249   7.343  1.00  0.00     0.036 C 
BRANCH   5   6
ATOM      6  C   UNL     1     -37.036  21.020   7.522  1.00  0.00     0.136 C 
BRANCH   6   7
ATOM      7  C   UNL     1     -35.733  21.358   8.213  1.00  0.00    -0.004 C 
ATOM      8  C   UNL     1     -34.582  21.518   7.551  1.00  0.00     0.007 C 
ENDBRANCH   6   7
BRANCH   6   9
ATOM      9  O   UNL     1     -36.789  20.392   6.287  1.00  0.00    -0.389 OA
ATOM     10  H   UNL     1     -35.807  20.344   6.159  1.00  0.00     0.211 HD
ENDBRANCH   6   9
ENDBRANCH   5   6
ENDBRANCH   1   5
TORSDOF 6
ENDMDL
MODEL 6
REMARK VINA RESULT:    -2.936      2.366      4.307
REMARK INTER + INTRA:          -4.270
REMARK INTER:                  -3.897
REMARK INTRA:                  -0.373
REMARK UNBOUND:                -0.391
REMARK SMILES C=C[C@H](O)CCCCC
REMARK SMILES IDX 6 1 7 2 8 3 9 4 5 5 3 6 2 7 1 8 4 9
REMARK H PARENT 4 10
REMARK Flexibility Score: inf
ROOT
ATOM      1  C   UNL     1     -36.463  23.326   6.941  1.00  0.00     0.003 C 
ENDROOT
BRANCH   1   2
ATOM      2  C   UNL     1     -36.231  22.003   7.705  1.00  0.00    -0.000 C 
BRANCH   2   3
ATOM      3  C   UNL     1     -37.527  21.218   7.976  1.00  0.00    -0.003 C 
ATOM      4  C   UNL     1     -37.305  19.708   8.029  1.00  0.00     0.004 C 
ENDBRANCH   2   3
ENDBRANCH   1   2
BRANCH   1   5
ATOM      5  C   UNL     1     -37.929  23.535   6.515  1.00  0.00     0.036 C 
BRANCH   5   6
ATOM      6  C   UNL     1     -38.125  23.558   4.979  1.00  0.00     0.136 C 
BRANCH   6   7
ATOM      7  C   UNL     1     -37.652  22.287   4.307  1.00  0.00    -0.004 C 
ATOM      8  C   UNL     1     -38.125  21.078   4.627  1.00  0.00     0.007 C 
ENDBRANCH   6   7
BRANCH   6   9
ATOM      9  O   UNL     1     -37.496  24.679   4.409  1.00  0.00    -0.389 OA
ATOM     10  H   UNL     1     -37.440  24.533   3.429  1.00  0.00     0.211 HD
ENDBRANCH   6   9
ENDBRANCH   5   6
ENDBRANCH   1   5
TORSDOF 6
ENDMDL
MODEL 7
REMARK VINA RESULT:    -2.324      1.820      3.591
REMARK INTER + INTRA:          -3.462
REMARK INTER:                  -3.081
REMARK INTRA:                  -0.381
REMARK UNBOUND:                -0.391
REMARK SMILES C=C[C@H](O)CCCCC
REMARK SMILES IDX 6 1 7 2 8 3 9 4 5 5 3 6 2 7 1 8 4 9
REMARK H PARENT 4 10
REMARK Flexibility Score: inf
ROOT
ATOM      1  C   UNL     1     -37.037  23.306   6.401  1.00  0.00     0.003 C 
ENDROOT
BRANCH   1   2
ATOM      2  C   UNL     1     -35.876  23.489   7.404  1.00  0.00    -0.000 C 
BRANCH   2   3
ATOM      3  C   UNL     1     -35.044  22.212   7.617  1.00  0.00    -0.003 C 
ATOM      4  C   UNL     1     -33.744  22.211   6.816  1.00  0.00     0.004 C 
ENDBRANCH   2   3
ENDBRANCH   1   2
BRANCH   1   5
ATOM      5  C   UNL     1     -38.125  22.333   6.899  1.00  0.00     0.036 C 
BRANCH   5   6
ATOM      6  C   UNL     1     -38.103  20.966   6.175  1.00  0.00     0.136 C 
BRANCH   6   7
ATOM      7  C   UNL     1     -38.115  19.793   7.132  1.00  0.00    -0.004 C 
ATOM      8  C   UNL     1     -37.759  19.902   8.417  1.00  0.00     0.007 C 
ENDBRANCH   6   7
BRANCH   6   9
ATOM      9  O   UNL     1     -37.004  20.876   5.302  1.00  0.00    -0.389 OA
ATOM     10  H   UNL     1     -37.195  21.443   4.510  1.00  0.00     0.211 HD
ENDBRANCH   6   9
ENDBRANCH   5   6
ENDBRANCH   1   5
TORSDOF 6
ENDMDL
