MODEL 1
REMARK VINA RESULT:    -2.670      0.000      0.000
REMARK INTER + INTRA:          -2.670
REMARK INTER:                  -2.670
REMARK INTRA:                   0.000
REMARK UNBOUND:                 0.000
REMARK SMILES CC(=O)[O-]
REMARK SMILES IDX 1 1 2 2 3 3 4 4
REMARK H PARENT
REMARK Flexibility Score: inf
ROOT
ATOM      1  C   UNL     1     180.601 181.055 192.794  1.00  0.00     0.063 C 
ATOM      2  C   UNL     1     180.751 181.661 191.439  1.00  0.00     0.038 C 
ATOM      3  O   UNL     1     179.739 181.845 190.714  1.00  0.00    -0.550 OA
ATOM      4  O   UNL     1     182.014 181.975 190.953  1.00  0.00    -0.550 OA
ENDROOT
TORSDOF 0
ENDMDL
MODEL 2
REMARK VINA RESULT:    -2.658      2.617      3.367
REMARK INTER + INTRA:          -2.658
REMARK INTER:                  -2.658
REMARK INTRA:                   0.000
REMARK UNBOUND:                 0.000
REMARK SMILES CC(=O)[O-]
REMARK SMILES IDX 1 1 2 2 3 3 4 4
REMARK H PARENT
REMARK Flexibility Score: inf
ROOT
ATOM      1  C   UNL     1     183.645 183.300 192.695  1.00  0.00     0.063 C 
ATOM      2  C   UNL     1     183.462 182.637 191.372  1.00  0.00     0.038 C 
ATOM      3  O   UNL     1     184.455 182.435 190.624  1.00  0.00    -0.550 OA
ATOM      4  O   UNL     1     182.190 182.290 190.937  1.00  0.00    -0.550 OA
ENDROOT
TORSDOF 0
ENDMDL
MODEL 3
REMARK VINA RESULT:    -2.456      1.486      1.810
REMARK INTER + INTRA:          -2.456
REMARK INTER:                  -2.456
REMARK INTRA:                   0.000
REMARK UNBOUND:                 0.000
REMARK SMILES CC(=O)[O-]
REMARK SMILES IDX 1 1 2 2 3 3 4 4
REMARK H PARENT
REMARK Flexibility Score: inf
ROOT
ATOM      1  C   UNL     1     182.375 182.272 191.141  1.00  0.00     0.063 C 
ATOM      2  C   UNL     1     181.072 181.684 191.566  1.00  0.00     0.038 C 
ATOM      3  O   UNL     1     180.103 181.650 190.764  1.00  0.00    -0.550 OA
ATOM      4  O   UNL     1     180.907 181.222 192.865  1.00  0.00    -0.550 OA
ENDROOT
TORSDOF 0
ENDMDL
MODEL 4
REMARK VINA RESULT:    -2.444      1.381      1.684
REMARK INTER + INTRA:          -2.444
REMARK INTER:                  -2.444
REMARK INTRA:                   0.000
REMARK UNBOUND:                 0.000
REMARK SMILES CC(=O)[O-]
REMARK SMILES IDX 1 1 2 2 3 3 4 4
REMARK H PARENT
REMARK Flexibility Score: inf
ROOT
ATOM      1  C   UNL     1     179.519 181.907 190.938  1.00  0.00     0.063 C 
ATOM      2  C   UNL     1     180.795 181.558 191.626  1.00  0.00     0.038 C 
ATOM      3  O   UNL     1     180.772 180.996 192.752  1.00  0.00    -0.550 OA
ATOM      4  O   UNL     1     182.012 181.901 191.052  1.00  0.00    -0.550 OA
ENDROOT
TORSDOF 0
ENDMDL
MODEL 5
REMARK VINA RESULT:    -2.438      2.756      3.503
REMARK INTER + INTRA:          -2.438
REMARK INTER:                  -2.438
REMARK INTRA:                   0.000
REMARK UNBOUND:                 0.000
REMARK SMILES CC(=O)[O-]
REMARK SMILES IDX 1 1 2 2 3 3 4 4
REMARK H PARENT
REMARK Flexibility Score: inf
ROOT
ATOM      1  C   UNL     1     184.579 182.392 190.833  1.00  0.00     0.063 C 
ATOM      2  C   UNL     1     183.336 182.734 191.584  1.00  0.00     0.038 C 
ATOM      3  O   UNL     1     183.412 183.290 192.711  1.00  0.00    -0.550 OA
ATOM      4  O   UNL     1     182.094 182.393 191.066  1.00  0.00    -0.550 OA
ENDROOT
TORSDOF 0
ENDMDL
MODEL 6
REMARK VINA RESULT:    -2.088     10.073     10.573
REMARK INTER + INTRA:          -2.088
REMARK INTER:                  -2.088
REMARK INTRA:                   0.000
REMARK UNBOUND:                 0.000
REMARK SMILES CC(=O)[O-]
REMARK SMILES IDX 1 1 2 2 3 3 4 4
REMARK H PARENT
REMARK Flexibility Score: inf
ROOT
ATOM      1  C   UNL     1     186.151 181.259 181.746  1.00  0.00     0.063 C 
ATOM      2  C   UNL     1     184.720 180.883 181.938  1.00  0.00     0.038 C 
ATOM      3  O   UNL     1     184.362 180.269 182.977  1.00  0.00    -0.550 OA
ATOM      4  O   UNL     1     183.788 181.163 180.947  1.00  0.00    -0.550 OA
ENDROOT
TORSDOF 0
ENDMDL
MODEL 7
REMARK VINA RESULT:    -2.088      9.275      9.717
REMARK INTER + INTRA:          -2.088
REMARK INTER:                  -2.088
REMARK INTRA:                   0.000
REMARK UNBOUND:                 0.000
REMARK SMILES CC(=O)[O-]
REMARK SMILES IDX 1 1 2 2 3 3 4 4
REMARK H PARENT
REMARK Flexibility Score: inf
ROOT
ATOM      1  C   UNL     1     177.771 182.780 181.751  1.00  0.00     0.063 C 
ATOM      2  C   UNL     1     179.192 182.966 182.166  1.00  0.00     0.038 C 
ATOM      3  O   UNL     1     179.489 183.826 183.036  1.00  0.00    -0.550 OA
ATOM      4  O   UNL     1     180.197 182.228 181.555  1.00  0.00    -0.550 OA
ENDROOT
TORSDOF 0
ENDMDL
MODEL 8
REMARK VINA RESULT:    -2.010      9.836     10.086
REMARK INTER + INTRA:          -2.010
REMARK INTER:                  -2.010
REMARK INTRA:                   0.000
REMARK UNBOUND:                 0.000
REMARK SMILES CC(=O)[O-]
REMARK SMILES IDX 1 1 2 2 3 3 4 4
REMARK H PARENT
REMARK Flexibility Score: inf
ROOT
ATOM      1  C   UNL     1     179.628 183.495 182.621  1.00  0.00     0.063 C 
ATOM      2  C   UNL     1     178.717 182.745 181.709  1.00  0.00     0.038 C 
ATOM      3  O   UNL     1     177.480 182.981 181.716  1.00  0.00    -0.550 OA
ATOM      4  O   UNL     1     179.223 181.746 180.887  1.00  0.00    -0.550 OA
ENDROOT
TORSDOF 0
ENDMDL
MODEL 9
REMARK VINA RESULT:    -2.009     10.952     11.018
REMARK INTER + INTRA:          -2.009
REMARK INTER:                  -2.009
REMARK INTRA:                   0.000
REMARK UNBOUND:                 0.000
REMARK SMILES CC(=O)[O-]
REMARK SMILES IDX 1 1 2 2 3 3 4 4
REMARK H PARENT
REMARK Flexibility Score: inf
ROOT
ATOM      1  C   UNL     1     186.155 181.250 181.662  1.00  0.00     0.063 C 
ATOM      2  C   UNL     1     185.676 182.660 181.743  1.00  0.00     0.038 C 
ATOM      3  O   UNL     1     184.507 182.952 181.376  1.00  0.00    -0.550 OA
ATOM      4  O   UNL     1     186.533 183.663 182.174  1.00  0.00    -0.550 OA
ENDROOT
TORSDOF 0
ENDMDL
