MODEL 1
REMARK VINA RESULT:   104.841      0.000      0.000
REMARK INTER + INTRA:         156.353
REMARK INTER:                 153.873
REMARK INTRA:                   2.480
REMARK UNBOUND:                 2.480
REMARK SMILES Cc1cc2c(C(C)C)c(O)c(O)c(C=O)c2c(O)c1-c1c(C)cc2c(C(C)C)c(O)c(O)c(C=O)c2c1O
REMARK SMILES IDX 1 1 2 2 3 3 4 4 16 5 13 6 11 7 9 8 5 9 17 10 19 11 20 12
REMARK SMILES IDX 37 13 21 14 36 15 23 16 22 17 24 18 33 19 25 20 31 21 29 22
REMARK SMILES IDX 38 23 34 25 35 26 26 27 27 28 28 29 32 30 30 32 18 34 6 36
REMARK SMILES IDX 7 37 8 38 14 39 15 40 10 41 12 43
REMARK H PARENT 38 24 32 31 30 33 18 35 10 42 12 44
REMARK Flexibility Score: inf
ROOT
ATOM      1  C   UNL     1      -1.288  14.445   6.959  1.00  0.00     0.045 C 
ATOM      2  C   UNL     1      -1.601  13.750   5.656  1.00  0.00    -0.039 A 
ATOM      3  C   UNL     1      -2.623  14.247   4.844  1.00  0.00     0.013 A 
ATOM      4  C   UNL     1      -2.968  13.630   3.622  1.00  0.00    -0.006 A 
ATOM      5  C   UNL     1      -2.164  12.553   3.151  1.00  0.00     0.039 A 
ATOM      6  C   UNL     1      -2.356  12.080   1.820  1.00  0.00     0.072 A 
ATOM      7  C   UNL     1      -3.365  12.637   1.011  1.00  0.00     0.169 A 
ATOM      8  C   UNL     1      -4.196  13.660   1.508  1.00  0.00     0.162 A 
ATOM      9  C   UNL     1      -4.078  14.089   2.849  1.00  0.00     0.008 A 
ATOM     10  C   UNL     1      -1.214  11.967   4.039  1.00  0.00     0.132 A 
ATOM     11  C   UNL     1      -0.924  12.580   5.276  1.00  0.00     0.031 A 
ENDROOT
BRANCH  11  12
ATOM     12  C   UNL     1       0.103  11.994   6.179  1.00  0.00     0.031 A 
ATOM     13  C   UNL     1      -0.040  10.673   6.655  1.00  0.00     0.132 A 
ATOM     14  C   UNL     1       1.196  12.775   6.587  1.00  0.00    -0.039 A 
ATOM     15  C   UNL     1       0.933  10.110   7.537  1.00  0.00     0.039 A 
ATOM     16  C   UNL     1       2.147  12.231   7.450  1.00  0.00     0.013 A 
ATOM     17  C   UNL     1       1.344  14.207   6.127  1.00  0.00     0.045 C 
ATOM     18  C   UNL     1       2.072  10.895   7.900  1.00  0.00    -0.006 A 
ATOM     19  C   UNL     1       0.788   8.806   8.103  1.00  0.00     0.072 A 
ATOM     20  C   UNL     1       3.090  10.342   8.737  1.00  0.00     0.008 A 
ATOM     21  C   UNL     1       1.723   8.341   9.050  1.00  0.00     0.169 A 
ATOM     22  C   UNL     1       2.836   9.116   9.389  1.00  0.00     0.162 A 
BRANCH  13  23
ATOM     23  O   UNL     1      -1.155   9.926   6.258  1.00  0.00    -0.507 OA
ATOM     24  H   UNL     1      -1.940   9.713   6.861  1.00  0.00     0.293 HD
ENDBRANCH  13  23
BRANCH  19  25
ATOM     25  C   UNL     1      -0.337   7.919   7.747  1.00  0.00     0.264 C 
ATOM     26  O   UNL     1      -0.133   6.710   7.463  1.00  0.00    -0.298 OA
ENDBRANCH  19  25
BRANCH  20  27
ATOM     27  C   UNL     1       4.433  11.061   8.964  1.00  0.00     0.017 C 
ATOM     28  C   UNL     1       4.857  10.974  10.433  1.00  0.00     0.012 C 
ATOM     29  C   UNL     1       5.562  10.586   8.028  1.00  0.00     0.012 C 
ENDBRANCH  20  27
BRANCH  21  30
ATOM     30  O   UNL     1       1.590   7.087   9.658  1.00  0.00    -0.504 OA
ATOM     31  H   UNL     1       2.238   6.714  10.338  1.00  0.00     0.293 HD
ENDBRANCH  21  30
BRANCH  22  32
ATOM     32  O   UNL     1       3.705   8.663  10.384  1.00  0.00    -0.504 OA
ATOM     33  H   UNL     1       3.390   8.361  11.298  1.00  0.00     0.293 HD
ENDBRANCH  22  32
ENDBRANCH  11  12
BRANCH  10  34
ATOM     34  O   UNL     1      -0.594  10.757   3.711  1.00  0.00    -0.507 OA
ATOM     35  H   UNL     1      -1.087   9.947   3.357  1.00  0.00     0.293 HD
ENDBRANCH  10  34
BRANCH   9  36
ATOM     36  C   UNL     1      -5.125  15.051   3.440  1.00  0.00     0.017 C 
ATOM     37  C   UNL     1      -5.121  14.993   4.972  1.00  0.00     0.012 C 
ATOM     38  C   UNL     1      -4.995  16.499   2.933  1.00  0.00     0.012 C 
ENDBRANCH   9  36
BRANCH   6  39
ATOM     39  C   UNL     1      -1.435  11.102   1.192  1.00  0.00     0.264 C 
ATOM     40  O   UNL     1      -1.775  10.456   0.166  1.00  0.00    -0.298 OA
ENDBRANCH   6  39
BRANCH   8  41
ATOM     41  O   UNL     1      -5.123  14.297   0.678  1.00  0.00    -0.504 OA
ATOM     42  H   UNL     1      -6.029  14.631   0.975  1.00  0.00     0.293 HD
ENDBRANCH   8  41
BRANCH   7  43
ATOM     43  O   UNL     1      -3.513  12.153  -0.295  1.00  0.00    -0.504 OA
ATOM     44  H   UNL     1      -4.335  11.685  -0.645  1.00  0.00     0.293 HD
ENDBRANCH   7  43
TORSDOF 11
ENDMDL
