MODEL 1
REMARK VINA RESULT:    69.459      0.000      0.000
REMARK INTER + INTRA:          91.835
REMARK INTER:                  91.793
REMARK INTRA:                   0.042
REMARK UNBOUND:                 0.042
REMARK SMILES C=C(CC[C@H](C)[C@@H]1CC[C@@]2(C)[C@H]3CC[C@@H]4C(C)(C)[C@@H](O)CC[C@@]45C[C@@]35CC[C@@]12C)C(C)C
REMARK SMILES IDX 4 1 3 2 2 3 1 4 30 5 31 6 32 7 5 8 6 9 7 10 8 11 28 12 9 13
REMARK SMILES IDX 10 14 27 15 29 16 11 17 12 18 26 19 25 20 13 21 23 22 24 23
REMARK SMILES IDX 14 24 15 25 22 26 16 27 21 28 19 29 17 30 18 31 20 32
REMARK H PARENT 20 33
REMARK Flexibility Score: inf
ROOT
ATOM      1  C   UNL     1     -30.843  27.261   5.836  1.00  0.00     0.008 C 
ENDROOT
BRANCH   1   2
ATOM      2  C   UNL     1     -29.390  26.848   6.135  1.00  0.00     0.031 C 
BRANCH   2   3
ATOM      3  C   UNL     1     -28.430  27.364   5.084  1.00  0.00    -0.075 C 
ATOM      4  C   UNL     1     -28.826  27.452   3.801  1.00  0.00     0.008 C 
BRANCH   3   5
ATOM      5  C   UNL     1     -27.023  27.772   5.502  1.00  0.00     0.008 C 
ATOM      6  C   UNL     1     -26.784  29.275   5.306  1.00  0.00     0.012 C 
ATOM      7  C   UNL     1     -25.965  26.945   4.762  1.00  0.00     0.012 C 
ENDBRANCH   3   5
ENDBRANCH   2   3
ENDBRANCH   1   2
BRANCH   1   8
ATOM      8  C   UNL     1     -31.866  26.745   6.908  1.00  0.00    -0.010 C 
ATOM      9  C   UNL     1     -31.175  25.615   7.700  1.00  0.00     0.008 C 
BRANCH   8  10
ATOM     10  C   UNL     1     -33.232  26.257   6.282  1.00  0.00    -0.002 C 
ATOM     11  C   UNL     1     -34.015  27.388   5.563  1.00  0.00     0.005 C 
ATOM     12  C   UNL     1     -34.313  25.552   7.220  1.00  0.00    -0.024 C 
ATOM     13  C   UNL     1     -35.487  27.225   5.904  1.00  0.00     0.008 C 
ATOM     14  C   UNL     1     -35.506  26.587   7.297  1.00  0.00    -0.024 C 
ATOM     15  C   UNL     1     -34.746  24.243   6.478  1.00  0.00     0.008 C 
ATOM     16  C   UNL     1     -33.836  25.142   8.646  1.00  0.00     0.012 C 
ATOM     17  C   UNL     1     -35.200  27.710   8.344  1.00  0.00     0.012 C 
ATOM     18  C   UNL     1     -36.902  25.936   7.654  1.00  0.00     0.002 C 
ATOM     19  C   UNL     1     -36.018  23.593   7.014  1.00  0.00     0.008 C 
ATOM     20  C   UNL     1     -37.172  24.601   6.914  1.00  0.00    -0.020 C 
ATOM     21  C   UNL     1     -38.083  26.925   7.582  1.00  0.00     0.005 C 
ATOM     22  C   UNL     1     -38.661  24.137   6.805  1.00  0.00    -0.020 C 
ATOM     23  C   UNL     1     -37.866  24.590   5.556  1.00  0.00     0.015 C 
ATOM     24  C   UNL     1     -39.371  26.259   8.055  1.00  0.00     0.005 C 
ATOM     25  C   UNL     1     -39.840  25.144   7.090  1.00  0.00     0.004 C 
ATOM     26  C   UNL     1     -38.974  22.616   6.789  1.00  0.00     0.010 C 
ATOM     27  C   UNL     1     -41.163  24.422   7.575  1.00  0.00    -0.006 C 
ATOM     28  C   UNL     1     -39.976  22.150   7.860  1.00  0.00     0.033 C 
ATOM     29  C   UNL     1     -40.784  23.264   8.544  1.00  0.00     0.120 C 
ATOM     30  C   UNL     1     -41.959  23.892   6.351  1.00  0.00     0.014 C 
ATOM     31  C   UNL     1     -42.123  25.400   8.309  1.00  0.00     0.014 C 
BRANCH  29  32
ATOM     32  O   UNL     1     -41.935  22.684   9.114  1.00  0.00    -0.393 OA
ATOM     33  H   UNL     1     -42.105  23.145   9.977  1.00  0.00     0.210 HD
ENDBRANCH  29  32
ENDBRANCH   8  10
ENDBRANCH   1   8
TORSDOF 6
ENDMDL
MODEL 2
REMARK VINA RESULT:    70.691      1.475      2.885
REMARK INTER + INTRA:          93.463
REMARK INTER:                  93.902
REMARK INTRA:                  -0.439
REMARK UNBOUND:                 0.042
REMARK SMILES C=C(CC[C@H](C)[C@@H]1CC[C@@]2(C)[C@H]3CC[C@@H]4C(C)(C)[C@@H](O)CC[C@@]45C[C@@]35CC[C@@]12C)C(C)C
REMARK SMILES IDX 4 1 3 2 2 3 1 4 30 5 31 6 32 7 5 8 6 9 7 10 8 11 28 12 9 13
REMARK SMILES IDX 10 14 27 15 29 16 11 17 12 18 26 19 25 20 13 21 23 22 24 23
REMARK SMILES IDX 14 24 15 25 22 26 16 27 21 28 19 29 17 30 18 31 20 32
REMARK H PARENT 20 33
REMARK Flexibility Score: inf
ROOT
ATOM      1  C   UNL     1     -30.628  25.516   6.431  1.00  0.00     0.008 C 
ENDROOT
BRANCH   1   2
ATOM      2  C   UNL     1     -29.166  25.952   6.222  1.00  0.00     0.031 C 
BRANCH   2   3
ATOM      3  C   UNL     1     -29.072  27.302   5.542  1.00  0.00    -0.075 C 
ATOM      4  C   UNL     1     -30.152  28.102   5.493  1.00  0.00     0.008 C 
BRANCH   3   5
ATOM      5  C   UNL     1     -27.749  27.727   4.919  1.00  0.00     0.008 C 
ATOM      6  C   UNL     1     -26.659  26.665   5.117  1.00  0.00     0.012 C 
ATOM      7  C   UNL     1     -27.296  29.088   5.459  1.00  0.00     0.012 C 
ENDBRANCH   3   5
ENDBRANCH   2   3
ENDBRANCH   1   2
BRANCH   1   8
ATOM      8  C   UNL     1     -31.361  26.327   7.556  1.00  0.00    -0.010 C 
ATOM      9  C   UNL     1     -30.387  26.448   8.747  1.00  0.00     0.008 C 
BRANCH   8  10
ATOM     10  C   UNL     1     -32.733  25.680   7.997  1.00  0.00    -0.002 C 
ATOM     11  C   UNL     1     -32.730  24.130   7.925  1.00  0.00     0.005 C 
ATOM     12  C   UNL     1     -34.076  26.115   7.253  1.00  0.00    -0.024 C 
ATOM     13  C   UNL     1     -34.070  23.687   7.361  1.00  0.00     0.008 C 
ATOM     14  C   UNL     1     -34.514  24.830   6.443  1.00  0.00    -0.024 C 
ATOM     15  C   UNL     1     -35.109  26.453   8.382  1.00  0.00     0.008 C 
ATOM     16  C   UNL     1     -33.983  27.360   6.320  1.00  0.00     0.012 C 
ATOM     17  C   UNL     1     -33.708  24.715   5.107  1.00  0.00     0.012 C 
ATOM     18  C   UNL     1     -36.057  24.778   6.103  1.00  0.00     0.002 C 
ATOM     19  C   UNL     1     -36.557  26.552   7.916  1.00  0.00     0.008 C 
ATOM     20  C   UNL     1     -36.968  25.216   7.279  1.00  0.00    -0.020 C 
ATOM     21  C   UNL     1     -36.503  23.456   5.445  1.00  0.00     0.005 C 
ATOM     22  C   UNL     1     -38.460  24.751   7.235  1.00  0.00    -0.020 C 
ATOM     23  C   UNL     1     -37.475  24.197   8.293  1.00  0.00     0.015 C 
ATOM     24  C   UNL     1     -37.971  23.527   5.037  1.00  0.00     0.005 C 
ATOM     25  C   UNL     1     -38.915  23.598   6.261  1.00  0.00     0.004 C 
ATOM     26  C   UNL     1     -39.550  25.665   7.860  1.00  0.00     0.010 C 
ATOM     27  C   UNL     1     -40.443  23.697   5.859  1.00  0.00    -0.006 C 
ATOM     28  C   UNL     1     -40.704  26.037   6.913  1.00  0.00     0.033 C 
ATOM     29  C   UNL     1     -40.813  25.192   5.633  1.00  0.00     0.120 C 
ATOM     30  C   UNL     1     -41.327  23.061   6.968  1.00  0.00     0.014 C 
ATOM     31  C   UNL     1     -40.756  22.899   4.563  1.00  0.00     0.014 C 
BRANCH  29  32
ATOM     32  O   UNL     1     -42.125  25.319   5.135  1.00  0.00    -0.393 OA
ATOM     33  H   UNL     1     -42.509  26.152   5.515  1.00  0.00     0.210 HD
ENDBRANCH  29  32
ENDBRANCH   8  10
ENDBRANCH   1   8
TORSDOF 6
ENDMDL
